MODEL 1
REMARK VINA RESULT:    -4.662      0.000      0.000
REMARK INTER + INTRA:          -6.717
REMARK INTER:                  -6.297
REMARK INTRA:                  -0.419
REMARK UNBOUND:                -0.419
REMARK SMILES CC(=O)CCC=C(C)CCC=C(C)C
REMARK SMILES IDX 7 1 6 2 8 3 9 4 10 5 11 6 13 7 12 8 14 9 5 10 4 11 2 12 3 13
REMARK SMILES IDX 1 14
REMARK H PARENT
REMARK Flexibility Score: inf
ROOT
ATOM      1  C   UNL     1      74.235  34.833  52.758  1.00  0.00    -0.077 C 
ATOM      2  C   UNL     1      75.540  34.787  52.406  1.00  0.00    -0.028 C 
ATOM      3  C   UNL     1      73.410  36.090  52.600  1.00  0.00     0.039 C 
ENDROOT
BRANCH   1   4
ATOM      4  C   UNL     1      73.574  33.585  53.308  1.00  0.00     0.034 C 
BRANCH   4   5
ATOM      5  C   UNL     1      72.396  33.919  54.234  1.00  0.00     0.032 C 
BRANCH   5   6
ATOM      6  C   UNL     1      72.605  33.369  55.626  1.00  0.00    -0.028 C 
ATOM      7  C   UNL     1      70.403  34.206  56.473  1.00  0.00     0.039 C 
ATOM      8  C   UNL     1      71.709  33.462  56.631  1.00  0.00    -0.080 C 
ATOM      9  C   UNL     1      72.041  32.817  57.952  1.00  0.00     0.039 C 
ENDBRANCH   5   6
ENDBRANCH   4   5
ENDBRANCH   1   4
BRANCH   2  10
ATOM     10  C   UNL     1      76.325  35.961  51.878  1.00  0.00     0.035 C 
BRANCH  10  11
ATOM     11  C   UNL     1      77.470  35.489  50.977  1.00  0.00     0.079 C 
BRANCH  11  12
ATOM     12  C   UNL     1      78.757  35.401  51.754  1.00  0.00     0.130 C 
ATOM     13  O   UNL     1      78.922  36.121  52.728  1.00  0.00    -0.300 OA
ATOM     14  C   UNL     1      79.840  34.437  51.368  1.00  0.00     0.087 C 
ENDBRANCH  11  12
ENDBRANCH  10  11
ENDBRANCH   2  10
TORSDOF 6
ENDMDL
MODEL 2
REMARK VINA RESULT:    -4.661      2.419      7.053
REMARK INTER + INTRA:          -6.716
REMARK INTER:                  -6.237
REMARK INTRA:                  -0.479
REMARK UNBOUND:                -0.419
REMARK SMILES CC(=O)CCC=C(C)CCC=C(C)C
REMARK SMILES IDX 7 1 6 2 8 3 9 4 10 5 11 6 13 7 12 8 14 9 5 10 4 11 2 12 3 13
REMARK SMILES IDX 1 14
REMARK H PARENT
REMARK Flexibility Score: inf
ROOT
ATOM      1  C   UNL     1      74.325  35.505  53.233  1.00  0.00    -0.077 C 
ATOM      2  C   UNL     1      73.533  34.498  52.799  1.00  0.00    -0.028 C 
ATOM      3  C   UNL     1      74.151  36.125  54.600  1.00  0.00     0.039 C 
ENDROOT
BRANCH   1   4
ATOM      4  C   UNL     1      75.433  36.012  52.332  1.00  0.00     0.034 C 
BRANCH   4   5
ATOM      5  C   UNL     1      76.461  34.917  52.014  1.00  0.00     0.032 C 
BRANCH   5   6
ATOM      6  C   UNL     1      77.511  35.400  51.042  1.00  0.00    -0.028 C 
ATOM      7  C   UNL     1      79.312  33.946  51.997  1.00  0.00     0.039 C 
ATOM      8  C   UNL     1      78.785  34.953  51.002  1.00  0.00    -0.080 C 
ATOM      9  C   UNL     1      79.704  35.496  49.938  1.00  0.00     0.039 C 
ENDBRANCH   5   6
ENDBRANCH   4   5
ENDBRANCH   1   4
BRANCH   2  10
ATOM     10  C   UNL     1      72.379  33.922  53.579  1.00  0.00     0.035 C 
BRANCH  10  11
ATOM     11  C   UNL     1      72.875  32.916  54.623  1.00  0.00     0.079 C 
BRANCH  11  12
ATOM     12  C   UNL     1      72.339  33.257  55.987  1.00  0.00     0.130 C 
ATOM     13  O   UNL     1      72.837  32.740  56.976  1.00  0.00    -0.300 OA
ATOM     14  C   UNL     1      71.211  34.231  56.164  1.00  0.00     0.087 C 
ENDBRANCH  11  12
ENDBRANCH  10  11
ENDBRANCH   2  10
TORSDOF 6
ENDMDL
MODEL 3
REMARK VINA RESULT:    -4.520      2.242      7.460
REMARK INTER + INTRA:          -6.524
REMARK INTER:                  -5.985
REMARK INTRA:                  -0.539
REMARK UNBOUND:                -0.419
REMARK SMILES CC(=O)CCC=C(C)CCC=C(C)C
REMARK SMILES IDX 7 1 6 2 8 3 9 4 10 5 11 6 13 7 12 8 14 9 5 10 4 11 2 12 3 13
REMARK SMILES IDX 1 14
REMARK H PARENT
REMARK Flexibility Score: inf
ROOT
ATOM      1  C   UNL     1      76.130  35.100  52.102  1.00  0.00    -0.077 C 
ATOM      2  C   UNL     1      74.920  35.522  52.537  1.00  0.00    -0.028 C 
ATOM      3  C   UNL     1      76.496  33.635  52.059  1.00  0.00     0.039 C 
ENDROOT
BRANCH   1   4
ATOM      4  C   UNL     1      77.140  36.124  51.626  1.00  0.00     0.034 C 
BRANCH   4   5
ATOM      5  C   UNL     1      78.583  35.679  51.903  1.00  0.00     0.032 C 
BRANCH   5   6
ATOM      6  C   UNL     1      79.308  35.306  50.630  1.00  0.00    -0.028 C 
ATOM      7  C   UNL     1      80.293  33.218  51.600  1.00  0.00     0.039 C 
ATOM      8  C   UNL     1      80.053  34.191  50.469  1.00  0.00    -0.080 C 
ATOM      9  C   UNL     1      80.674  33.931  49.122  1.00  0.00     0.039 C 
ENDBRANCH   5   6
ENDBRANCH   4   5
ENDBRANCH   1   4
BRANCH   2  10
ATOM     10  C   UNL     1      73.839  34.614  53.065  1.00  0.00     0.035 C 
BRANCH  10  11
ATOM     11  C   UNL     1      73.397  35.051  54.466  1.00  0.00     0.079 C 
BRANCH  11  12
ATOM     12  C   UNL     1      72.683  33.930  55.172  1.00  0.00     0.130 C 
ATOM     13  O   UNL     1      72.950  32.772  54.886  1.00  0.00    -0.300 OA
ATOM     14  C   UNL     1      71.655  34.201  56.231  1.00  0.00     0.087 C 
ENDBRANCH  11  12
ENDBRANCH  10  11
ENDBRANCH   2  10
TORSDOF 6
ENDMDL
MODEL 4
REMARK VINA RESULT:    -4.450      1.285      2.558
REMARK INTER + INTRA:          -6.430
REMARK INTER:                  -5.629
REMARK INTRA:                  -0.802
REMARK UNBOUND:                -0.419
REMARK SMILES CC(=O)CCC=C(C)CCC=C(C)C
REMARK SMILES IDX 7 1 6 2 8 3 9 4 10 5 11 6 13 7 12 8 14 9 5 10 4 11 2 12 3 13
REMARK SMILES IDX 1 14
REMARK H PARENT
REMARK Flexibility Score: inf
ROOT
ATOM      1  C   UNL     1      76.393  35.251  52.009  1.00  0.00    -0.077 C 
ATOM      2  C   UNL     1      77.241  36.008  51.276  1.00  0.00    -0.028 C 
ATOM      3  C   UNL     1      76.484  33.743  52.031  1.00  0.00     0.039 C 
ENDROOT
BRANCH   1   4
ATOM      4  C   UNL     1      75.333  35.936  52.849  1.00  0.00     0.034 C 
BRANCH   4   5
ATOM      5  C   UNL     1      73.974  35.228  52.746  1.00  0.00     0.032 C 
BRANCH   5   6
ATOM      6  C   UNL     1      73.218  35.277  54.053  1.00  0.00    -0.028 C 
ATOM      7  C   UNL     1      73.040  32.787  54.243  1.00  0.00     0.039 C 
ATOM      8  C   UNL     1      72.819  34.192  54.752  1.00  0.00    -0.080 C 
ATOM      9  C   UNL     1      72.116  34.404  56.067  1.00  0.00     0.039 C 
ENDBRANCH   5   6
ENDBRANCH   4   5
ENDBRANCH   1   4
BRANCH   2  10
ATOM     10  C   UNL     1      78.317  35.455  50.376  1.00  0.00     0.035 C 
BRANCH  10  11
ATOM     11  C   UNL     1      79.709  35.802  50.914  1.00  0.00     0.079 C 
BRANCH  11  12
ATOM     12  C   UNL     1      80.115  34.840  51.998  1.00  0.00     0.130 C 
ATOM     13  O   UNL     1      80.369  35.265  53.115  1.00  0.00    -0.300 OA
ATOM     14  C   UNL     1      80.205  33.365  51.741  1.00  0.00     0.087 C 
ENDBRANCH  11  12
ENDBRANCH  10  11
ENDBRANCH   2  10
TORSDOF 6
ENDMDL
MODEL 5
REMARK VINA RESULT:    -4.217      2.291      4.127
REMARK INTER + INTRA:          -6.115
REMARK INTER:                  -5.387
REMARK INTRA:                  -0.729
REMARK UNBOUND:                -0.419
REMARK SMILES CC(=O)CCC=C(C)CCC=C(C)C
REMARK SMILES IDX 7 1 6 2 8 3 9 4 10 5 11 6 13 7 12 8 14 9 5 10 4 11 2 12 3 13
REMARK SMILES IDX 1 14
REMARK H PARENT
REMARK Flexibility Score: inf
ROOT
ATOM      1  C   UNL     1      77.918  35.551  51.463  1.00  0.00    -0.077 C 
ATOM      2  C   UNL     1      78.634  35.034  50.438  1.00  0.00    -0.028 C 
ATOM      3  C   UNL     1      78.581  36.090  52.709  1.00  0.00     0.039 C 
ENDROOT
BRANCH   1   4
ATOM      4  C   UNL     1      76.407  35.611  51.350  1.00  0.00     0.034 C 
BRANCH   4   5
ATOM      5  C   UNL     1      75.755  36.114  52.646  1.00  0.00     0.032 C 
BRANCH   5   6
ATOM      6  C   UNL     1      74.745  35.128  53.184  1.00  0.00    -0.028 C 
ATOM      7  C   UNL     1      72.837  36.121  51.902  1.00  0.00     0.039 C 
ATOM      8  C   UNL     1      73.440  35.099  52.837  1.00  0.00    -0.080 C 
ATOM      9  C   UNL     1      72.566  34.020  53.422  1.00  0.00     0.039 C 
ENDBRANCH   5   6
ENDBRANCH   4   5
ENDBRANCH   1   4
BRANCH   2  10
ATOM     10  C   UNL     1      80.134  34.887  50.434  1.00  0.00     0.035 C 
BRANCH  10  11
ATOM     11  C   UNL     1      80.537  33.411  50.499  1.00  0.00     0.079 C 
BRANCH  11  12
ATOM     12  C   UNL     1      80.403  32.885  51.903  1.00  0.00     0.130 C 
ATOM     13  O   UNL     1      81.172  33.278  52.769  1.00  0.00    -0.300 OA
ATOM     14  C   UNL     1      79.337  31.895  52.270  1.00  0.00     0.087 C 
ENDBRANCH  11  12
ENDBRANCH  10  11
ENDBRANCH   2  10
TORSDOF 6
ENDMDL
MODEL 6
REMARK VINA RESULT:    -4.189     15.793     17.328
REMARK INTER + INTRA:          -6.077
REMARK INTER:                  -5.405
REMARK INTRA:                  -0.672
REMARK UNBOUND:                -0.419
REMARK SMILES CC(=O)CCC=C(C)CCC=C(C)C
REMARK SMILES IDX 7 1 6 2 8 3 9 4 10 5 11 6 13 7 12 8 14 9 5 10 4 11 2 12 3 13
REMARK SMILES IDX 1 14
REMARK H PARENT
REMARK Flexibility Score: inf
ROOT
ATOM      1  C   UNL     1      87.417  31.050  65.277  1.00  0.00    -0.077 C 
ATOM      2  C   UNL     1      87.672  30.040  64.415  1.00  0.00    -0.028 C 
ATOM      3  C   UNL     1      87.453  30.850  66.774  1.00  0.00     0.039 C 
ENDROOT
BRANCH   1   4
ATOM      4  C   UNL     1      87.107  32.428  64.727  1.00  0.00     0.034 C 
BRANCH   4   5
ATOM      5  C   UNL     1      85.648  32.834  64.986  1.00  0.00     0.032 C 
BRANCH   5   6
ATOM      6  C   UNL     1      84.680  31.779  64.502  1.00  0.00    -0.028 C 
ATOM      7  C   UNL     1      83.349  31.783  66.622  1.00  0.00     0.039 C 
ATOM      8  C   UNL     1      83.627  31.320  65.211  1.00  0.00    -0.080 C 
ATOM      9  C   UNL     1      82.720  30.301  64.572  1.00  0.00     0.039 C 
ENDBRANCH   5   6
ENDBRANCH   4   5
ENDBRANCH   1   4
BRANCH   2  10
ATOM     10  C   UNL     1      87.963  28.619  64.826  1.00  0.00     0.035 C 
BRANCH  10  11
ATOM     11  C   UNL     1      88.125  27.718  63.598  1.00  0.00     0.079 C 
BRANCH  11  12
ATOM     12  C   UNL     1      87.906  26.275  63.964  1.00  0.00     0.130 C 
ATOM     13  O   UNL     1      87.793  25.963  65.140  1.00  0.00    -0.300 OA
ATOM     14  C   UNL     1      87.811  25.207  62.914  1.00  0.00     0.087 C 
ENDBRANCH  11  12
ENDBRANCH  10  11
ENDBRANCH   2  10
TORSDOF 6
ENDMDL
MODEL 7
REMARK VINA RESULT:    -3.858     16.059     17.680
REMARK INTER + INTRA:          -5.630
REMARK INTER:                  -5.049
REMARK INTRA:                  -0.581
REMARK UNBOUND:                -0.419
REMARK SMILES CC(=O)CCC=C(C)CCC=C(C)C
REMARK SMILES IDX 7 1 6 2 8 3 9 4 10 5 11 6 13 7 12 8 14 9 5 10 4 11 2 12 3 13
REMARK SMILES IDX 1 14
REMARK H PARENT
REMARK Flexibility Score: inf
ROOT
ATOM      1  C   UNL     1      87.926  30.123  65.235  1.00  0.00    -0.077 C 
ATOM      2  C   UNL     1      87.944  28.770  65.220  1.00  0.00    -0.028 C 
ATOM      3  C   UNL     1      88.027  30.937  63.967  1.00  0.00     0.039 C 
ENDROOT
BRANCH   1   4
ATOM      4  C   UNL     1      87.779  30.843  66.561  1.00  0.00     0.034 C 
BRANCH   4   5
ATOM      5  C   UNL     1      86.747  31.977  66.487  1.00  0.00     0.032 C 
BRANCH   5   6
ATOM      6  C   UNL     1      85.347  31.447  66.282  1.00  0.00    -0.028 C 
ATOM      7  C   UNL     1      85.075  32.542  64.047  1.00  0.00     0.039 C 
ATOM      8  C   UNL     1      84.597  31.666  65.181  1.00  0.00    -0.080 C 
ATOM      9  C   UNL     1      83.234  31.028  65.103  1.00  0.00     0.039 C 
ENDBRANCH   5   6
ENDBRANCH   4   5
ENDBRANCH   1   4
BRANCH   2  10
ATOM     10  C   UNL     1      88.115  27.933  63.977  1.00  0.00     0.035 C 
BRANCH  10  11
ATOM     11  C   UNL     1      88.039  26.440  64.312  1.00  0.00     0.079 C 
BRANCH  11  12
ATOM     12  C   UNL     1      87.366  25.680  63.200  1.00  0.00     0.130 C 
ATOM     13  O   UNL     1      86.181  25.397  63.296  1.00  0.00    -0.300 OA
ATOM     14  C   UNL     1      88.117  25.270  61.967  1.00  0.00     0.087 C 
ENDBRANCH  11  12
ENDBRANCH  10  11
ENDBRANCH   2  10
TORSDOF 6
ENDMDL
MODEL 8
REMARK VINA RESULT:    -3.470     15.356     17.302
REMARK INTER + INTRA:          -5.106
REMARK INTER:                  -4.475
REMARK INTRA:                  -0.631
REMARK UNBOUND:                -0.419
REMARK SMILES CC(=O)CCC=C(C)CCC=C(C)C
REMARK SMILES IDX 7 1 6 2 8 3 9 4 10 5 11 6 13 7 12 8 14 9 5 10 4 11 2 12 3 13
REMARK SMILES IDX 1 14
REMARK H PARENT
REMARK Flexibility Score: inf
ROOT
ATOM      1  C   UNL     1      86.434  31.514  65.144  1.00  0.00    -0.077 C 
ATOM      2  C   UNL     1      85.621  31.083  66.136  1.00  0.00    -0.028 C 
ATOM      3  C   UNL     1      86.509  32.970  64.749  1.00  0.00     0.039 C 
ENDROOT
BRANCH   1   4
ATOM      4  C   UNL     1      87.311  30.510  64.422  1.00  0.00     0.034 C 
BRANCH   4   5
ATOM      5  C   UNL     1      87.884  29.456  65.380  1.00  0.00     0.032 C 
BRANCH   5   6
ATOM      6  C   UNL     1      88.123  28.137  64.682  1.00  0.00    -0.028 C 
ATOM      7  C   UNL     1      85.708  27.477  64.733  1.00  0.00     0.039 C 
ATOM      8  C   UNL     1      87.155  27.254  64.358  1.00  0.00    -0.080 C 
ATOM      9  C   UNL     1      87.544  26.001  63.617  1.00  0.00     0.039 C 
ENDBRANCH   5   6
ENDBRANCH   4   5
ENDBRANCH   1   4
BRANCH   2  10
ATOM     10  C   UNL     1      84.678  31.968  66.912  1.00  0.00     0.035 C 
BRANCH  10  11
ATOM     11  C   UNL     1      83.220  31.605  66.611  1.00  0.00     0.079 C 
BRANCH  11  12
ATOM     12  C   UNL     1      83.013  31.412  65.133  1.00  0.00     0.130 C 
ATOM     13  O   UNL     1      82.982  32.388  64.397  1.00  0.00    -0.300 OA
ATOM     14  C   UNL     1      82.857  30.044  64.537  1.00  0.00     0.087 C 
ENDBRANCH  11  12
ENDBRANCH  10  11
ENDBRANCH   2  10
TORSDOF 6
ENDMDL
