MODEL 1
REMARK VINA RESULT:    -4.757      0.000      0.000
REMARK INTER + INTRA:          -4.896
REMARK INTER:                  -4.896
REMARK INTRA:                   0.000
REMARK UNBOUND:                 0.000
REMARK SMILES O=c1ccc2ccc(O)cc2o1
REMARK SMILES IDX 6 1 7 2 8 3 10 4 11 5 5 6 4 7 3 8 2 9 1 10 12 11 9 12
REMARK H PARENT 9 13
REMARK Flexibility Score: inf
ROOT
ATOM      1  C   UNL     1      20.860   7.125 -11.153  1.00  0.00     0.016 A 
ATOM      2  C   UNL     1      22.021   6.841 -11.879  1.00  0.00     0.047 A 
ATOM      3  C   UNL     1      22.131   5.641 -12.598  1.00  0.00     0.119 A 
ATOM      4  C   UNL     1      21.074   4.722 -12.590  1.00  0.00     0.094 A 
ATOM      5  C   UNL     1      19.909   4.998 -11.866  1.00  0.00     0.142 A 
ATOM      6  C   UNL     1      19.800   6.207 -11.143  1.00  0.00     0.018 A 
ATOM      7  C   UNL     1      18.624   6.454 -10.430  1.00  0.00     0.019 A 
ATOM      8  C   UNL     1      17.599   5.508 -10.451  1.00  0.00     0.094 A 
ATOM      9  C   UNL     1      17.776   4.332 -11.190  1.00  0.00     0.336 A 
ATOM     10  O   UNL     1      16.863   3.467 -11.222  1.00  0.00    -0.246 OA
ATOM     11  O   UNL     1      18.907   4.122 -11.861  1.00  0.00    -0.423 OA
ENDROOT
BRANCH   3  12
ATOM     12  O   UNL     1      23.284   5.353 -13.324  1.00  0.00    -0.508 OA
ATOM     13  H   UNL     1      24.132   5.033 -12.867  1.00  0.00     0.293 HD
ENDBRANCH   3  12
TORSDOF 1
ENDMDL
MODEL 2
REMARK VINA RESULT:    -4.740      0.770      4.221
REMARK INTER + INTRA:          -4.879
REMARK INTER:                  -4.879
REMARK INTRA:                   0.000
REMARK UNBOUND:                 0.000
REMARK SMILES O=c1ccc2ccc(O)cc2o1
REMARK SMILES IDX 6 1 7 2 8 3 10 4 11 5 5 6 4 7 3 8 2 9 1 10 12 11 9 12
REMARK H PARENT 9 13
REMARK Flexibility Score: inf
ROOT
ATOM      1  C   UNL     1      18.609   6.511 -10.380  1.00  0.00     0.016 A 
ATOM      2  C   UNL     1      17.553   5.594 -10.390  1.00  0.00     0.047 A 
ATOM      3  C   UNL     1      17.660   4.398 -11.116  1.00  0.00     0.119 A 
ATOM      4  C   UNL     1      18.829   4.120 -11.834  1.00  0.00     0.094 A 
ATOM      5  C   UNL     1      19.891   5.031 -11.830  1.00  0.00     0.142 A 
ATOM      6  C   UNL     1      19.781   6.235 -11.098  1.00  0.00     0.018 A 
ATOM      7  C   UNL     1      20.858   7.125 -11.113  1.00  0.00     0.019 A 
ATOM      8  C   UNL     1      22.001   6.803 -11.844  1.00  0.00     0.094 A 
ATOM      9  C   UNL     1      22.041   5.593 -12.546  1.00  0.00     0.336 A 
ATOM     10  O   UNL     1      23.064   5.284 -13.210  1.00  0.00    -0.246 OA
ATOM     11  O   UNL     1      21.000   4.762 -12.514  1.00  0.00    -0.423 OA
ENDROOT
BRANCH   3  12
ATOM     12  O   UNL     1      16.612   3.481 -11.129  1.00  0.00    -0.508 OA
ATOM     13  H   UNL     1      16.270   3.080 -11.996  1.00  0.00     0.293 HD
ENDBRANCH   3  12
TORSDOF 1
ENDMDL
MODEL 3
REMARK VINA RESULT:    -3.809     12.507     14.512
REMARK INTER + INTRA:          -3.920
REMARK INTER:                  -3.920
REMARK INTRA:                   0.000
REMARK UNBOUND:                 0.000
REMARK SMILES O=c1ccc2ccc(O)cc2o1
REMARK SMILES IDX 6 1 7 2 8 3 10 4 11 5 5 6 4 7 3 8 2 9 1 10 12 11 9 12
REMARK H PARENT 9 13
REMARK Flexibility Score: inf
ROOT
ATOM      1  C   UNL     1      24.194  -4.456 -18.706  1.00  0.00     0.016 A 
ATOM      2  C   UNL     1      23.901  -3.113 -18.450  1.00  0.00     0.047 A 
ATOM      3  C   UNL     1      24.488  -2.100 -19.223  1.00  0.00     0.119 A 
ATOM      4  C   UNL     1      25.371  -2.434 -20.257  1.00  0.00     0.094 A 
ATOM      5  C   UNL     1      25.671  -3.775 -20.520  1.00  0.00     0.142 A 
ATOM      6  C   UNL     1      25.078  -4.794 -19.740  1.00  0.00     0.018 A 
ATOM      7  C   UNL     1      25.397  -6.124 -20.027  1.00  0.00     0.019 A 
ATOM      8  C   UNL     1      26.283  -6.406 -21.066  1.00  0.00     0.094 A 
ATOM      9  C   UNL     1      26.832  -5.346 -21.798  1.00  0.00     0.336 A 
ATOM     10  O   UNL     1      27.632  -5.581 -22.740  1.00  0.00    -0.246 OA
ATOM     11  O   UNL     1      26.511  -4.088 -21.504  1.00  0.00    -0.423 OA
ENDROOT
BRANCH   3  12
ATOM     12  O   UNL     1      24.199  -0.760 -18.974  1.00  0.00    -0.508 OA
ATOM     13  H   UNL     1      24.250  -0.373 -18.038  1.00  0.00     0.293 HD
ENDBRANCH   3  12
TORSDOF 1
ENDMDL
MODEL 4
REMARK VINA RESULT:    -3.791     12.295     14.089
REMARK INTER + INTRA:          -3.902
REMARK INTER:                  -3.902
REMARK INTRA:                   0.000
REMARK UNBOUND:                 0.000
REMARK SMILES O=c1ccc2ccc(O)cc2o1
REMARK SMILES IDX 6 1 7 2 8 3 10 4 11 5 5 6 4 7 3 8 2 9 1 10 12 11 9 12
REMARK H PARENT 9 13
REMARK Flexibility Score: inf
ROOT
ATOM      1  C   UNL     1      25.637  -2.249 -19.909  1.00  0.00     0.016 A 
ATOM      2  C   UNL     1      25.153  -1.847 -18.659  1.00  0.00     0.047 A 
ATOM      3  C   UNL     1      24.724  -2.803 -17.726  1.00  0.00     0.119 A 
ATOM      4  C   UNL     1      24.779  -4.165 -18.045  1.00  0.00     0.094 A 
ATOM      5  C   UNL     1      25.261  -4.576 -19.293  1.00  0.00     0.142 A 
ATOM      6  C   UNL     1      25.693  -3.611 -20.231  1.00  0.00     0.018 A 
ATOM      7  C   UNL     1      26.169  -4.053 -21.469  1.00  0.00     0.019 A 
ATOM      8  C   UNL     1      26.205  -5.420 -21.741  1.00  0.00     0.094 A 
ATOM      9  C   UNL     1      25.761  -6.318 -20.764  1.00  0.00     0.336 A 
ATOM     10  O   UNL     1      25.786  -7.556 -20.990  1.00  0.00    -0.246 OA
ATOM     11  O   UNL     1      25.312  -5.872 -19.593  1.00  0.00    -0.423 OA
ENDROOT
BRANCH   3  12
ATOM     12  O   UNL     1      24.242  -2.410 -16.479  1.00  0.00    -0.508 OA
ATOM     13  H   UNL     1      24.548  -1.549 -16.040  1.00  0.00     0.293 HD
ENDBRANCH   3  12
TORSDOF 1
ENDMDL
MODEL 5
REMARK VINA RESULT:    -3.645     11.049     12.766
REMARK INTER + INTRA:          -3.751
REMARK INTER:                  -3.751
REMARK INTRA:                   0.000
REMARK UNBOUND:                 0.000
REMARK SMILES O=c1ccc2ccc(O)cc2o1
REMARK SMILES IDX 6 1 7 2 8 3 10 4 11 5 5 6 4 7 3 8 2 9 1 10 12 11 9 12
REMARK H PARENT 9 13
REMARK Flexibility Score: inf
ROOT
ATOM      1  C   UNL     1      25.747  -4.823 -18.828  1.00  0.00     0.016 A 
ATOM      2  C   UNL     1      26.087  -5.153 -20.144  1.00  0.00     0.047 A 
ATOM      3  C   UNL     1      25.852  -4.242 -21.185  1.00  0.00     0.119 A 
ATOM      4  C   UNL     1      25.275  -2.997 -20.907  1.00  0.00     0.094 A 
ATOM      5  C   UNL     1      24.932  -2.659 -19.593  1.00  0.00     0.142 A 
ATOM      6  C   UNL     1      25.169  -3.578 -18.546  1.00  0.00     0.018 A 
ATOM      7  C   UNL     1      24.816  -3.211 -17.245  1.00  0.00     0.019 A 
ATOM      8  C   UNL     1      24.243  -1.960 -17.017  1.00  0.00     0.094 A 
ATOM      9  C   UNL     1      24.037  -1.101 -18.103  1.00  0.00     0.336 A 
ATOM     10  O   UNL     1      23.522   0.033 -17.918  1.00  0.00    -0.246 OA
ATOM     11  O   UNL     1      24.383  -1.474 -19.333  1.00  0.00    -0.423 OA
ENDROOT
BRANCH   3  12
ATOM     12  O   UNL     1      26.189  -4.564 -22.498  1.00  0.00    -0.508 OA
ATOM     13  H   UNL     1      27.147  -4.514 -22.826  1.00  0.00     0.293 HD
ENDBRANCH   3  12
TORSDOF 1
ENDMDL
MODEL 6
REMARK VINA RESULT:    -3.608     10.178     11.903
REMARK INTER + INTRA:          -3.714
REMARK INTER:                  -3.714
REMARK INTRA:                   0.000
REMARK UNBOUND:                 0.000
REMARK SMILES O=c1ccc2ccc(O)cc2o1
REMARK SMILES IDX 6 1 7 2 8 3 10 4 11 5 5 6 4 7 3 8 2 9 1 10 12 11 9 12
REMARK H PARENT 9 13
REMARK Flexibility Score: inf
ROOT
ATOM      1  C   UNL     1      24.159  -2.693 -20.207  1.00  0.00     0.016 A 
ATOM      2  C   UNL     1      24.617  -3.987 -20.478  1.00  0.00     0.047 A 
ATOM      3  C   UNL     1      25.174  -4.769 -19.455  1.00  0.00     0.119 A 
ATOM      4  C   UNL     1      25.273  -4.254 -18.157  1.00  0.00     0.094 A 
ATOM      5  C   UNL     1      24.818  -2.960 -17.877  1.00  0.00     0.142 A 
ATOM      6  C   UNL     1      24.257  -2.174 -18.909  1.00  0.00     0.018 A 
ATOM      7  C   UNL     1      23.812  -0.887 -18.599  1.00  0.00     0.019 A 
ATOM      8  C   UNL     1      23.932  -0.417 -17.291  1.00  0.00     0.094 A 
ATOM      9  C   UNL     1      24.498  -1.251 -16.320  1.00  0.00     0.336 A 
ATOM     10  O   UNL     1      24.615  -0.846 -15.134  1.00  0.00    -0.246 OA
ATOM     11  O   UNL     1      24.915  -2.474 -16.642  1.00  0.00    -0.423 OA
ENDROOT
BRANCH   3  12
ATOM     12  O   UNL     1      25.631  -6.058 -19.717  1.00  0.00    -0.508 OA
ATOM     13  H   UNL     1      26.151  -6.587 -19.026  1.00  0.00     0.293 HD
ENDBRANCH   3  12
TORSDOF 1
ENDMDL
MODEL 7
REMARK VINA RESULT:    -3.598      2.076      3.544
REMARK INTER + INTRA:          -3.703
REMARK INTER:                  -3.703
REMARK INTRA:                   0.000
REMARK UNBOUND:                 0.000
REMARK SMILES O=c1ccc2ccc(O)cc2o1
REMARK SMILES IDX 6 1 7 2 8 3 10 4 11 5 5 6 4 7 3 8 2 9 1 10 12 11 9 12
REMARK H PARENT 9 13
REMARK Flexibility Score: inf
ROOT
ATOM      1  C   UNL     1      20.635   4.535 -13.752  1.00  0.00     0.016 A 
ATOM      2  C   UNL     1      20.062   3.310 -14.108  1.00  0.00     0.047 A 
ATOM      3  C   UNL     1      19.000   2.781 -13.359  1.00  0.00     0.119 A 
ATOM      4  C   UNL     1      18.510   3.482 -12.250  1.00  0.00     0.094 A 
ATOM      5  C   UNL     1      19.078   4.708 -11.886  1.00  0.00     0.142 A 
ATOM      6  C   UNL     1      20.148   5.238 -12.642  1.00  0.00     0.018 A 
ATOM      7  C   UNL     1      20.694   6.465 -12.254  1.00  0.00     0.019 A 
ATOM      8  C   UNL     1      20.173   7.125 -11.141  1.00  0.00     0.094 A 
ATOM      9  C   UNL     1      19.112   6.540 -10.440  1.00  0.00     0.336 A 
ATOM     10  O   UNL     1      18.628   7.120  -9.434  1.00  0.00    -0.246 OA
ATOM     11  O   UNL     1      18.610   5.370 -10.831  1.00  0.00    -0.423 OA
ENDROOT
BRANCH   3  12
ATOM     12  O   UNL     1      18.424   1.562 -13.708  1.00  0.00    -0.508 OA
ATOM     13  H   UNL     1      18.395   0.784 -13.058  1.00  0.00     0.293 HD
ENDBRANCH   3  12
TORSDOF 1
ENDMDL
MODEL 8
REMARK VINA RESULT:    -3.485     11.184     13.038
REMARK INTER + INTRA:          -3.587
REMARK INTER:                  -3.587
REMARK INTRA:                   0.000
REMARK UNBOUND:                 0.000
REMARK SMILES O=c1ccc2ccc(O)cc2o1
REMARK SMILES IDX 6 1 7 2 8 3 10 4 11 5 5 6 4 7 3 8 2 9 1 10 12 11 9 12
REMARK H PARENT 9 13
REMARK Flexibility Score: inf
ROOT
ATOM      1  C   UNL     1      24.609  -1.412 -19.242  1.00  0.00     0.016 A 
ATOM      2  C   UNL     1      24.322  -1.142 -17.900  1.00  0.00     0.047 A 
ATOM      3  C   UNL     1      24.407  -2.161 -16.939  1.00  0.00     0.119 A 
ATOM      4  C   UNL     1      24.780  -3.455 -17.324  1.00  0.00     0.094 A 
ATOM      5  C   UNL     1      25.068  -3.734 -18.664  1.00  0.00     0.142 A 
ATOM      6  C   UNL     1      24.982  -2.706 -19.630  1.00  0.00     0.018 A 
ATOM      7  C   UNL     1      25.276  -3.016 -20.961  1.00  0.00     0.019 A 
ATOM      8  C   UNL     1      25.642  -4.319 -21.296  1.00  0.00     0.094 A 
ATOM      9  C   UNL     1      25.706  -5.287 -20.286  1.00  0.00     0.336 A 
ATOM     10  O   UNL     1      26.035  -6.469 -20.568  1.00  0.00    -0.246 OA
ATOM     11  O   UNL     1      25.421  -4.965 -19.026  1.00  0.00    -0.423 OA
ENDROOT
BRANCH   3  12
ATOM     12  O   UNL     1      24.124  -1.899 -15.600  1.00  0.00    -0.508 OA
ATOM     13  H   UNL     1      24.849  -1.923 -14.891  1.00  0.00     0.293 HD
ENDBRANCH   3  12
TORSDOF 1
ENDMDL
