MODEL 1
REMARK VINA RESULT:    -4.949      0.000      0.000
REMARK INTER + INTRA:         -12.017
REMARK INTER:                  -9.578
REMARK INTRA:                  -2.439
REMARK UNBOUND:                -2.439
REMARK SMILES CCCCCC=CCC=CCCCCCCCCOC(C)=O
REMARK SMILES IDX 12 1 11 2 10 3 9 4 8 5 7 6 6 7 5 8 4 9 3 10 2 11 1 12 13 13
REMARK SMILES IDX 14 14 15 15 16 16 17 17 18 18 19 19 20 20 22 21 21 22
REMARK H PARENT
REMARK Flexibility Score: inf
ROOT
ATOM      1  C   UNL     1     136.566   0.912  94.306  1.00  0.00     0.004 C 
ENDROOT
BRANCH   1   2
ATOM      2  C   UNL     1     137.041   2.181  95.029  1.00  0.00     0.027 C 
BRANCH   2   3
ATOM      3  C   UNL     1     136.033   2.693  96.030  1.00  0.00    -0.031 C 
ATOM      4  C   UNL     1     135.232   3.759  95.843  1.00  0.00    -0.027 C 
BRANCH   4   5
ATOM      5  C   UNL     1     135.245   4.642  94.621  1.00  0.00     0.054 C 
BRANCH   5   6
ATOM      6  C   UNL     1     134.879   6.057  94.990  1.00  0.00    -0.027 C 
ATOM      7  C   UNL     1     133.729   6.660  94.637  1.00  0.00    -0.031 C 
BRANCH   7   8
ATOM      8  C   UNL     1     132.666   6.025  93.775  1.00  0.00     0.027 C 
BRANCH   8   9
ATOM      9  C   UNL     1     131.252   6.205  94.362  1.00  0.00     0.004 C 
BRANCH   9  10
ATOM     10  C   UNL     1     131.231   6.926  95.721  1.00  0.00     0.000 C 
BRANCH  10  11
ATOM     11  C   UNL     1     130.371   8.197  95.711  1.00  0.00    -0.003 C 
ATOM     12  C   UNL     1     131.111   9.356  95.050  1.00  0.00     0.004 C 
ENDBRANCH  10  11
ENDBRANCH   9  10
ENDBRANCH   8   9
ENDBRANCH   7   8
ENDBRANCH   5   6
ENDBRANCH   4   5
ENDBRANCH   2   3
ENDBRANCH   1   2
BRANCH   1  13
ATOM     13  C   UNL     1     136.028  -0.145  95.285  1.00  0.00     0.000 C 
BRANCH  13  14
ATOM     14  C   UNL     1     134.503  -0.320  95.186  1.00  0.00     0.000 C 
BRANCH  14  15
ATOM     15  C   UNL     1     133.915   0.347  93.931  1.00  0.00     0.000 C 
BRANCH  15  16
ATOM     16  C   UNL     1     132.879   1.438  94.260  1.00  0.00     0.003 C 
BRANCH  16  17
ATOM     17  C   UNL     1     132.639   2.463  93.136  1.00  0.00     0.042 C 
BRANCH  17  18
ATOM     18  C   UNL     1     131.173   2.586  92.699  1.00  0.00     0.233 C 
BRANCH  18  19
ATOM     19  O   UNL     1     130.832   1.553  91.772  1.00  0.00    -0.466 OA
BRANCH  19  20
ATOM     20  C   UNL     1     131.330   1.480  90.465  1.00  0.00     0.302 C 
ATOM     21  O   UNL     1     130.986   2.321  89.590  1.00  0.00    -0.253 OA
ATOM     22  C   UNL     1     132.329   0.427  90.124  1.00  0.00     0.139 C 
ENDBRANCH  19  20
ENDBRANCH  18  19
ENDBRANCH  17  18
ENDBRANCH  16  17
ENDBRANCH  15  16
ENDBRANCH  14  15
ENDBRANCH  13  14
ENDBRANCH   1  13
TORSDOF 16
ENDMDL
MODEL 2
REMARK VINA RESULT:    -4.925      1.311      2.059
REMARK INTER + INTRA:         -11.970
REMARK INTER:                  -9.207
REMARK INTRA:                  -2.763
REMARK UNBOUND:                -2.439
REMARK SMILES CCCCCC=CCC=CCCCCCCCCOC(C)=O
REMARK SMILES IDX 12 1 11 2 10 3 9 4 8 5 7 6 6 7 5 8 4 9 3 10 2 11 1 12 13 13
REMARK SMILES IDX 14 14 15 15 16 16 17 17 18 18 19 19 20 20 22 21 21 22
REMARK H PARENT
REMARK Flexibility Score: inf
ROOT
ATOM      1  C   UNL     1     135.486   0.228  95.055  1.00  0.00     0.004 C 
ENDROOT
BRANCH   1   2
ATOM      2  C   UNL     1     135.990   1.453  94.278  1.00  0.00     0.027 C 
BRANCH   2   3
ATOM      3  C   UNL     1     137.137   2.150  94.969  1.00  0.00    -0.031 C 
ATOM      4  C   UNL     1     137.032   3.281  95.691  1.00  0.00    -0.027 C 
BRANCH   4   5
ATOM      5  C   UNL     1     135.756   4.062  95.887  1.00  0.00     0.054 C 
BRANCH   5   6
ATOM      6  C   UNL     1     135.879   5.434  95.276  1.00  0.00    -0.027 C 
ATOM      7  C   UNL     1     135.207   5.841  94.183  1.00  0.00    -0.031 C 
BRANCH   7   8
ATOM      8  C   UNL     1     134.276   4.963  93.382  1.00  0.00     0.027 C 
BRANCH   8   9
ATOM      9  C   UNL     1     132.837   5.515  93.347  1.00  0.00     0.004 C 
BRANCH   9  10
ATOM     10  C   UNL     1     131.993   5.120  94.571  1.00  0.00     0.000 C 
BRANCH  10  11
ATOM     11  C   UNL     1     131.897   6.239  95.618  1.00  0.00    -0.003 C 
ATOM     12  C   UNL     1     132.021   7.612  94.966  1.00  0.00     0.004 C 
ENDBRANCH  10  11
ENDBRANCH   9  10
ENDBRANCH   8   9
ENDBRANCH   7   8
ENDBRANCH   5   6
ENDBRANCH   4   5
ENDBRANCH   2   3
ENDBRANCH   1   2
BRANCH   1  13
ATOM     13  C   UNL     1     133.972   0.295  95.322  1.00  0.00     0.000 C 
BRANCH  13  14
ATOM     14  C   UNL     1     133.347   1.616  94.844  1.00  0.00     0.000 C 
BRANCH  14  15
ATOM     15  C   UNL     1     132.179   1.394  93.867  1.00  0.00     0.000 C 
BRANCH  15  16
ATOM     16  C   UNL     1     132.521   1.800  92.422  1.00  0.00     0.003 C 
BRANCH  16  17
ATOM     17  C   UNL     1     131.354   2.423  91.632  1.00  0.00     0.042 C 
BRANCH  17  18
ATOM     18  C   UNL     1     130.504   1.406  90.859  1.00  0.00     0.233 C 
BRANCH  18  19
ATOM     19  O   UNL     1     130.860   1.392  89.476  1.00  0.00    -0.466 OA
BRANCH  19  20
ATOM     20  C   UNL     1     131.575   0.355  88.863  1.00  0.00     0.302 C 
ATOM     21  O   UNL     1     132.576  -0.167  89.426  1.00  0.00    -0.253 OA
ATOM     22  C   UNL     1     131.105  -0.178  87.552  1.00  0.00     0.139 C 
ENDBRANCH  19  20
ENDBRANCH  18  19
ENDBRANCH  17  18
ENDBRANCH  16  17
ENDBRANCH  15  16
ENDBRANCH  14  15
ENDBRANCH  13  14
ENDBRANCH   1  13
TORSDOF 16
ENDMDL
MODEL 3
REMARK VINA RESULT:    -4.898      1.427      2.302
REMARK INTER + INTRA:         -11.918
REMARK INTER:                  -8.884
REMARK INTRA:                  -3.033
REMARK UNBOUND:                -2.439
REMARK SMILES CCCCCC=CCC=CCCCCCCCCOC(C)=O
REMARK SMILES IDX 12 1 11 2 10 3 9 4 8 5 7 6 6 7 5 8 4 9 3 10 2 11 1 12 13 13
REMARK SMILES IDX 14 14 15 15 16 16 17 17 18 18 19 19 20 20 22 21 21 22
REMARK H PARENT
REMARK Flexibility Score: inf
ROOT
ATOM      1  C   UNL     1     134.040   1.108  95.074  1.00  0.00     0.004 C 
ENDROOT
BRANCH   1   2
ATOM      2  C   UNL     1     135.080   1.650  96.065  1.00  0.00     0.027 C 
BRANCH   2   3
ATOM      3  C   UNL     1     136.319   2.177  95.380  1.00  0.00    -0.031 C 
ATOM      4  C   UNL     1     136.700   3.467  95.358  1.00  0.00    -0.027 C 
BRANCH   4   5
ATOM      5  C   UNL     1     135.926   4.605  95.976  1.00  0.00     0.054 C 
BRANCH   5   6
ATOM      6  C   UNL     1     135.474   5.573  94.913  1.00  0.00    -0.027 C 
ATOM      7  C   UNL     1     134.252   6.136  94.870  1.00  0.00    -0.031 C 
BRANCH   7   8
ATOM      8  C   UNL     1     133.143   5.837  95.848  1.00  0.00     0.027 C 
BRANCH   8   9
ATOM      9  C   UNL     1     131.761   6.265  95.314  1.00  0.00     0.004 C 
BRANCH   9  10
ATOM     10  C   UNL     1     131.820   7.016  93.973  1.00  0.00     0.000 C 
BRANCH  10  11
ATOM     11  C   UNL     1     130.438   7.468  93.480  1.00  0.00    -0.003 C 
ATOM     12  C   UNL     1     130.224   7.084  92.019  1.00  0.00     0.004 C 
ENDBRANCH  10  11
ENDBRANCH   9  10
ENDBRANCH   8   9
ENDBRANCH   7   8
ENDBRANCH   5   6
ENDBRANCH   4   5
ENDBRANCH   2   3
ENDBRANCH   1   2
BRANCH   1  13
ATOM     13  C   UNL     1     134.112   1.820  93.712  1.00  0.00     0.000 C 
BRANCH  13  14
ATOM     14  C   UNL     1     133.039   2.910  93.559  1.00  0.00     0.000 C 
BRANCH  14  15
ATOM     15  C   UNL     1     131.705   2.520  94.219  1.00  0.00     0.000 C 
BRANCH  15  16
ATOM     16  C   UNL     1     130.491   3.211  93.573  1.00  0.00     0.003 C 
BRANCH  16  17
ATOM     17  C   UNL     1     130.617   3.458  92.058  1.00  0.00     0.042 C 
BRANCH  17  18
ATOM     18  C   UNL     1     130.361   2.215  91.195  1.00  0.00     0.233 C 
BRANCH  18  19
ATOM     19  O   UNL     1     131.526   1.870  90.444  1.00  0.00    -0.466 OA
BRANCH  19  20
ATOM     20  C   UNL     1     132.094   0.590  90.428  1.00  0.00     0.302 C 
ATOM     21  O   UNL     1     132.744   0.179  89.427  1.00  0.00    -0.253 OA
ATOM     22  C   UNL     1     131.981  -0.274  91.638  1.00  0.00     0.139 C 
ENDBRANCH  19  20
ENDBRANCH  18  19
ENDBRANCH  17  18
ENDBRANCH  16  17
ENDBRANCH  15  16
ENDBRANCH  14  15
ENDBRANCH  13  14
ENDBRANCH   1  13
TORSDOF 16
ENDMDL
MODEL 4
REMARK VINA RESULT:    -4.869      2.340      5.614
REMARK INTER + INTRA:         -11.862
REMARK INTER:                  -9.191
REMARK INTRA:                  -2.671
REMARK UNBOUND:                -2.439
REMARK SMILES CCCCCC=CCC=CCCCCCCCCOC(C)=O
REMARK SMILES IDX 12 1 11 2 10 3 9 4 8 5 7 6 6 7 5 8 4 9 3 10 2 11 1 12 13 13
REMARK SMILES IDX 14 14 15 15 16 16 17 17 18 18 19 19 20 20 22 21 21 22
REMARK H PARENT
REMARK Flexibility Score: inf
ROOT
ATOM      1  C   UNL     1     136.534   0.237  94.668  1.00  0.00     0.004 C 
ENDROOT
BRANCH   1   2
ATOM      2  C   UNL     1     135.283  -0.027  95.518  1.00  0.00     0.027 C 
BRANCH   2   3
ATOM      3  C   UNL     1     134.156  -0.640  94.722  1.00  0.00    -0.031 C 
ATOM      4  C   UNL     1     133.402   0.015  93.819  1.00  0.00    -0.027 C 
BRANCH   4   5
ATOM      5  C   UNL     1     133.531   1.481  93.491  1.00  0.00     0.054 C 
BRANCH   5   6
ATOM      6  C   UNL     1     132.632   2.301  94.379  1.00  0.00    -0.027 C 
ATOM      7  C   UNL     1     131.691   3.153  93.929  1.00  0.00    -0.031 C 
BRANCH   7   8
ATOM      8  C   UNL     1     131.442   3.449  92.471  1.00  0.00     0.027 C 
BRANCH   8   9
ATOM      9  C   UNL     1     130.175   2.749  91.940  1.00  0.00     0.004 C 
BRANCH   9  10
ATOM     10  C   UNL     1     130.465   1.480  91.120  1.00  0.00     0.000 C 
BRANCH  10  11
ATOM     11  C   UNL     1     131.815   1.534  90.391  1.00  0.00    -0.003 C 
ATOM     12  C   UNL     1     132.319   0.133  90.065  1.00  0.00     0.004 C 
ENDBRANCH  10  11
ENDBRANCH   9  10
ENDBRANCH   8   9
ENDBRANCH   7   8
ENDBRANCH   5   6
ENDBRANCH   4   5
ENDBRANCH   2   3
ENDBRANCH   1   2
BRANCH   1  13
ATOM     13  C   UNL     1     137.024   1.690  94.794  1.00  0.00     0.000 C 
BRANCH  13  14
ATOM     14  C   UNL     1     136.163   2.521  95.760  1.00  0.00     0.000 C 
BRANCH  14  15
ATOM     15  C   UNL     1     136.288   4.034  95.506  1.00  0.00     0.000 C 
BRANCH  15  16
ATOM     16  C   UNL     1     135.019   4.814  95.893  1.00  0.00     0.003 C 
BRANCH  16  17
ATOM     17  C   UNL     1     134.399   5.648  94.756  1.00  0.00     0.042 C 
BRANCH  17  18
ATOM     18  C   UNL     1     133.643   6.896  95.231  1.00  0.00     0.233 C 
BRANCH  18  19
ATOM     19  O   UNL     1     132.317   6.561  95.643  1.00  0.00    -0.466 OA
BRANCH  19  20
ATOM     20  C   UNL     1     131.164   7.189  95.154  1.00  0.00     0.302 C 
ATOM     21  O   UNL     1     130.556   8.057  95.839  1.00  0.00    -0.253 OA
ATOM     22  C   UNL     1     130.689   6.870  93.777  1.00  0.00     0.139 C 
ENDBRANCH  19  20
ENDBRANCH  18  19
ENDBRANCH  17  18
ENDBRANCH  16  17
ENDBRANCH  15  16
ENDBRANCH  14  15
ENDBRANCH  13  14
ENDBRANCH   1  13
TORSDOF 16
ENDMDL
MODEL 5
REMARK VINA RESULT:    -4.858      2.356      5.312
REMARK INTER + INTRA:         -11.841
REMARK INTER:                  -9.650
REMARK INTRA:                  -2.191
REMARK UNBOUND:                -2.439
REMARK SMILES CCCCCC=CCC=CCCCCCCCCOC(C)=O
REMARK SMILES IDX 12 1 11 2 10 3 9 4 8 5 7 6 6 7 5 8 4 9 3 10 2 11 1 12 13 13
REMARK SMILES IDX 14 14 15 15 16 16 17 17 18 18 19 19 20 20 22 21 21 22
REMARK H PARENT
REMARK Flexibility Score: inf
ROOT
ATOM      1  C   UNL     1     137.248   2.167  95.019  1.00  0.00     0.004 C 
ENDROOT
BRANCH   1   2
ATOM      2  C   UNL     1     136.709   0.953  94.248  1.00  0.00     0.027 C 
BRANCH   2   3
ATOM      3  C   UNL     1     136.377  -0.211  95.151  1.00  0.00    -0.031 C 
ATOM      4  C   UNL     1     135.144  -0.516  95.598  1.00  0.00    -0.027 C 
BRANCH   4   5
ATOM      5  C   UNL     1     133.900   0.284  95.305  1.00  0.00     0.054 C 
BRANCH   5   6
ATOM      6  C   UNL     1     133.242  -0.209  94.041  1.00  0.00    -0.027 C 
ATOM      7  C   UNL     1     132.673   0.591  93.120  1.00  0.00    -0.031 C 
BRANCH   7   8
ATOM      8  C   UNL     1     132.563   2.090  93.248  1.00  0.00     0.027 C 
BRANCH   8   9
ATOM      9  C   UNL     1     131.318   2.519  94.050  1.00  0.00     0.004 C 
BRANCH   9  10
ATOM     10  C   UNL     1     130.148   2.994  93.172  1.00  0.00     0.000 C 
BRANCH  10  11
ATOM     11  C   UNL     1     130.601   3.871  91.995  1.00  0.00    -0.003 C 
ATOM     12  C   UNL     1     129.997   5.268  92.088  1.00  0.00     0.004 C 
ENDBRANCH  10  11
ENDBRANCH   9  10
ENDBRANCH   8   9
ENDBRANCH   7   8
ENDBRANCH   5   6
ENDBRANCH   4   5
ENDBRANCH   2   3
ENDBRANCH   1   2
BRANCH   1  13
ATOM     13  C   UNL     1     136.133   3.161  95.385  1.00  0.00     0.000 C 
BRANCH  13  14
ATOM     14  C   UNL     1     136.679   4.547  95.766  1.00  0.00     0.000 C 
BRANCH  14  15
ATOM     15  C   UNL     1     135.712   5.684  95.394  1.00  0.00     0.000 C 
BRANCH  15  16
ATOM     16  C   UNL     1     135.079   5.502  94.002  1.00  0.00     0.003 C 
BRANCH  16  17
ATOM     17  C   UNL     1     133.538   5.492  93.988  1.00  0.00     0.042 C 
BRANCH  17  18
ATOM     18  C   UNL     1     132.895   5.937  95.309  1.00  0.00     0.233 C 
BRANCH  18  19
ATOM     19  O   UNL     1     131.503   6.205  95.130  1.00  0.00    -0.466 OA
BRANCH  19  20
ATOM     20  C   UNL     1     130.947   7.491  95.133  1.00  0.00     0.302 C 
ATOM     21  O   UNL     1     130.292   7.914  96.125  1.00  0.00    -0.253 OA
ATOM     22  C   UNL     1     131.189   8.392  93.970  1.00  0.00     0.139 C 
ENDBRANCH  19  20
ENDBRANCH  18  19
ENDBRANCH  17  18
ENDBRANCH  16  17
ENDBRANCH  15  16
ENDBRANCH  14  15
ENDBRANCH  13  14
ENDBRANCH   1  13
TORSDOF 16
ENDMDL
MODEL 6
REMARK VINA RESULT:    -4.841      2.384      5.704
REMARK INTER + INTRA:         -11.808
REMARK INTER:                  -9.618
REMARK INTRA:                  -2.190
REMARK UNBOUND:                -2.439
REMARK SMILES CCCCCC=CCC=CCCCCCCCCOC(C)=O
REMARK SMILES IDX 12 1 11 2 10 3 9 4 8 5 7 6 6 7 5 8 4 9 3 10 2 11 1 12 13 13
REMARK SMILES IDX 14 14 15 15 16 16 17 17 18 18 19 19 20 20 22 21 21 22
REMARK H PARENT
REMARK Flexibility Score: inf
ROOT
ATOM      1  C   UNL     1     135.792   3.778  95.048  1.00  0.00     0.004 C 
ENDROOT
BRANCH   1   2
ATOM      2  C   UNL     1     136.845   2.804  95.597  1.00  0.00     0.027 C 
BRANCH   2   3
ATOM      3  C   UNL     1     137.142   1.670  94.646  1.00  0.00    -0.031 C 
ATOM      4  C   UNL     1     136.480   0.499  94.609  1.00  0.00    -0.027 C 
BRANCH   4   5
ATOM      5  C   UNL     1     135.362   0.112  95.544  1.00  0.00     0.054 C 
BRANCH   5   6
ATOM      6  C   UNL     1     134.212  -0.482  94.772  1.00  0.00    -0.027 C 
ATOM      7  C   UNL     1     133.284   0.240  94.117  1.00  0.00    -0.031 C 
BRANCH   7   8
ATOM      8  C   UNL     1     133.231   1.748  94.108  1.00  0.00     0.027 C 
BRANCH   8   9
ATOM      9  C   UNL     1     132.260   2.293  93.041  1.00  0.00     0.004 C 
BRANCH   9  10
ATOM     10  C   UNL     1     130.779   2.017  93.351  1.00  0.00     0.000 C 
BRANCH  10  11
ATOM     11  C   UNL     1     130.073   3.212  94.007  1.00  0.00    -0.003 C 
ATOM     12  C   UNL     1     129.609   4.218  92.960  1.00  0.00     0.004 C 
ENDBRANCH  10  11
ENDBRANCH   9  10
ENDBRANCH   8   9
ENDBRANCH   7   8
ENDBRANCH   5   6
ENDBRANCH   4   5
ENDBRANCH   2   3
ENDBRANCH   1   2
BRANCH   1  13
ATOM     13  C   UNL     1     136.059   5.228  95.489  1.00  0.00     0.000 C 
BRANCH  13  14
ATOM     14  C   UNL     1     135.203   6.246  94.718  1.00  0.00     0.000 C 
BRANCH  14  15
ATOM     15  C   UNL     1     134.294   5.579  93.672  1.00  0.00     0.000 C 
BRANCH  15  16
ATOM     16  C   UNL     1     132.799   5.860  93.910  1.00  0.00     0.003 C 
BRANCH  16  17
ATOM     17  C   UNL     1     132.412   6.101  95.381  1.00  0.00     0.042 C 
BRANCH  17  18
ATOM     18  C   UNL     1     131.142   6.942  95.568  1.00  0.00     0.233 C 
BRANCH  18  19
ATOM     19  O   UNL     1     130.724   7.513  94.327  1.00  0.00    -0.466 OA
BRANCH  19  20
ATOM     20  C   UNL     1     130.622   8.891  94.095  1.00  0.00     0.302 C 
ATOM     21  O   UNL     1     130.256   9.337  92.973  1.00  0.00    -0.253 OA
ATOM     22  C   UNL     1     130.890   9.840  95.215  1.00  0.00     0.139 C 
ENDBRANCH  19  20
ENDBRANCH  18  19
ENDBRANCH  17  18
ENDBRANCH  16  17
ENDBRANCH  15  16
ENDBRANCH  14  15
ENDBRANCH  13  14
ENDBRANCH   1  13
TORSDOF 16
ENDMDL
MODEL 7
REMARK VINA RESULT:    -4.768      1.444      4.229
REMARK INTER + INTRA:         -11.668
REMARK INTER:                  -8.781
REMARK INTRA:                  -2.886
REMARK UNBOUND:                -2.439
REMARK SMILES CCCCCC=CCC=CCCCCCCCCOC(C)=O
REMARK SMILES IDX 12 1 11 2 10 3 9 4 8 5 7 6 6 7 5 8 4 9 3 10 2 11 1 12 13 13
REMARK SMILES IDX 14 14 15 15 16 16 17 17 18 18 19 19 20 20 22 21 21 22
REMARK H PARENT
REMARK Flexibility Score: inf
ROOT
ATOM      1  C   UNL     1     133.014   3.032  93.146  1.00  0.00     0.004 C 
ENDROOT
BRANCH   1   2
ATOM      2  C   UNL     1     132.989   2.049  94.326  1.00  0.00     0.027 C 
BRANCH   2   3
ATOM      3  C   UNL     1     133.150   0.612  93.891  1.00  0.00    -0.031 C 
ATOM      4  C   UNL     1     134.100  -0.229  94.341  1.00  0.00    -0.027 C 
BRANCH   4   5
ATOM      5  C   UNL     1     135.186   0.142  95.319  1.00  0.00     0.054 C 
BRANCH   5   6
ATOM      6  C   UNL     1     136.343   0.789  94.601  1.00  0.00    -0.027 C 
ATOM      7  C   UNL     1     136.806   2.025  94.867  1.00  0.00    -0.031 C 
BRANCH   7   8
ATOM      8  C   UNL     1     136.198   2.959  95.884  1.00  0.00     0.027 C 
BRANCH   8   9
ATOM      9  C   UNL     1     136.141   4.415  95.380  1.00  0.00     0.004 C 
BRANCH   9  10
ATOM     10  C   UNL     1     134.796   5.112  95.647  1.00  0.00     0.000 C 
BRANCH  10  11
ATOM     11  C   UNL     1     134.461   6.186  94.602  1.00  0.00    -0.003 C 
ATOM     12  C   UNL     1     133.223   6.979  95.008  1.00  0.00     0.004 C 
ENDBRANCH  10  11
ENDBRANCH   9  10
ENDBRANCH   8   9
ENDBRANCH   7   8
ENDBRANCH   5   6
ENDBRANCH   4   5
ENDBRANCH   2   3
ENDBRANCH   1   2
BRANCH   1  13
ATOM     13  C   UNL     1     131.809   3.988  93.165  1.00  0.00     0.000 C 
BRANCH  13  14
ATOM     14  C   UNL     1     130.744   3.576  94.194  1.00  0.00     0.000 C 
BRANCH  14  15
ATOM     15  C   UNL     1     129.487   2.981  93.534  1.00  0.00     0.000 C 
BRANCH  15  16
ATOM     16  C   UNL     1     129.508   1.443  93.482  1.00  0.00     0.003 C 
BRANCH  16  17
ATOM     17  C   UNL     1     129.210   0.839  92.097  1.00  0.00     0.042 C 
BRANCH  17  18
ATOM     18  C   UNL     1     129.176   1.865  90.956  1.00  0.00     0.233 C 
BRANCH  18  19
ATOM     19  O   UNL     1     130.494   2.128  90.470  1.00  0.00    -0.466 OA
BRANCH  19  20
ATOM     20  C   UNL     1     131.216   1.248  89.655  1.00  0.00     0.302 C 
ATOM     21  O   UNL     1     130.925   1.104  88.435  1.00  0.00    -0.253 OA
ATOM     22  C   UNL     1     132.386   0.519  90.225  1.00  0.00     0.139 C 
ENDBRANCH  19  20
ENDBRANCH  18  19
ENDBRANCH  17  18
ENDBRANCH  16  17
ENDBRANCH  15  16
ENDBRANCH  14  15
ENDBRANCH  13  14
ENDBRANCH   1  13
TORSDOF 16
ENDMDL
MODEL 8
REMARK VINA RESULT:    -4.724      2.625      6.248
REMARK INTER + INTRA:         -11.582
REMARK INTER:                  -8.814
REMARK INTRA:                  -2.768
REMARK UNBOUND:                -2.439
REMARK SMILES CCCCCC=CCC=CCCCCCCCCOC(C)=O
REMARK SMILES IDX 12 1 11 2 10 3 9 4 8 5 7 6 6 7 5 8 4 9 3 10 2 11 1 12 13 13
REMARK SMILES IDX 14 14 15 15 16 16 17 17 18 18 19 19 20 20 22 21 21 22
REMARK H PARENT
REMARK Flexibility Score: inf
ROOT
ATOM      1  C   UNL     1     134.661  -0.094  94.657  1.00  0.00     0.004 C 
ENDROOT
BRANCH   1   2
ATOM      2  C   UNL     1     133.266   0.404  94.252  1.00  0.00     0.027 C 
BRANCH   2   3
ATOM      3  C   UNL     1     133.306   1.730  93.531  1.00  0.00    -0.031 C 
ATOM      4  C   UNL     1     132.325   2.651  93.552  1.00  0.00    -0.027 C 
BRANCH   4   5
ATOM      5  C   UNL     1     131.006   2.488  94.264  1.00  0.00     0.054 C 
BRANCH   5   6
ATOM      6  C   UNL     1     129.861   2.712  93.309  1.00  0.00    -0.027 C 
ATOM      7  C   UNL     1     129.162   1.725  92.717  1.00  0.00    -0.031 C 
BRANCH   7   8
ATOM      8  C   UNL     1     129.461   0.255  92.881  1.00  0.00     0.027 C 
BRANCH   8   9
ATOM      9  C   UNL     1     129.916  -0.400  91.562  1.00  0.00     0.004 C 
BRANCH   9  10
ATOM     10  C   UNL     1     131.405  -0.781  91.539  1.00  0.00     0.000 C 
BRANCH  10  11
ATOM     11  C   UNL     1     132.153  -0.198  90.331  1.00  0.00    -0.003 C 
ATOM     12  C   UNL     1     131.846   1.285  90.158  1.00  0.00     0.004 C 
ENDBRANCH  10  11
ENDBRANCH   9  10
ENDBRANCH   8   9
ENDBRANCH   7   8
ENDBRANCH   5   6
ENDBRANCH   4   5
ENDBRANCH   2   3
ENDBRANCH   1   2
BRANCH   1  13
ATOM     13  C   UNL     1     135.402   0.921  95.545  1.00  0.00     0.000 C 
BRANCH  13  14
ATOM     14  C   UNL     1     136.661   1.489  94.868  1.00  0.00     0.000 C 
BRANCH  14  15
ATOM     15  C   UNL     1     136.998   2.910  95.352  1.00  0.00     0.000 C 
BRANCH  15  16
ATOM     16  C   UNL     1     135.746   3.762  95.628  1.00  0.00     0.003 C 
BRANCH  16  17
ATOM     17  C   UNL     1     135.944   5.279  95.448  1.00  0.00     0.042 C 
BRANCH  17  18
ATOM     18  C   UNL     1     134.965   5.929  94.460  1.00  0.00     0.233 C 
BRANCH  18  19
ATOM     19  O   UNL     1     134.280   7.024  95.070  1.00  0.00    -0.466 OA
BRANCH  19  20
ATOM     20  C   UNL     1     132.887   7.106  95.190  1.00  0.00     0.302 C 
ATOM     21  O   UNL     1     132.279   8.193  94.988  1.00  0.00    -0.253 OA
ATOM     22  C   UNL     1     132.108   5.872  95.499  1.00  0.00     0.139 C 
ENDBRANCH  19  20
ENDBRANCH  18  19
ENDBRANCH  17  18
ENDBRANCH  16  17
ENDBRANCH  15  16
ENDBRANCH  14  15
ENDBRANCH  13  14
ENDBRANCH   1  13
TORSDOF 16
ENDMDL
MODEL 9
REMARK VINA RESULT:    -4.723      1.442      2.196
REMARK INTER + INTRA:         -11.579
REMARK INTER:                  -9.409
REMARK INTRA:                  -2.170
REMARK UNBOUND:                -2.439
REMARK SMILES CCCCCC=CCC=CCCCCCCCCOC(C)=O
REMARK SMILES IDX 12 1 11 2 10 3 9 4 8 5 7 6 6 7 5 8 4 9 3 10 2 11 1 12 13 13
REMARK SMILES IDX 14 14 15 15 16 16 17 17 18 18 19 19 20 20 22 21 21 22
REMARK H PARENT
REMARK Flexibility Score: inf
ROOT
ATOM      1  C   UNL     1     136.204   1.122  94.305  1.00  0.00     0.004 C 
ENDROOT
BRANCH   1   2
ATOM      2  C   UNL     1     136.848   2.291  95.064  1.00  0.00     0.027 C 
BRANCH   2   3
ATOM      3  C   UNL     1     135.909   2.926  96.062  1.00  0.00    -0.031 C 
ATOM      4  C   UNL     1     135.368   4.152  95.942  1.00  0.00    -0.027 C 
BRANCH   4   5
ATOM      5  C   UNL     1     135.648   5.110  94.812  1.00  0.00     0.054 C 
BRANCH   5   6
ATOM      6  C   UNL     1     134.614   4.961  93.726  1.00  0.00    -0.027 C 
ATOM      7  C   UNL     1     133.322   5.318  93.854  1.00  0.00    -0.031 C 
BRANCH   7   8
ATOM      8  C   UNL     1     132.713   5.866  95.121  1.00  0.00     0.027 C 
BRANCH   8   9
ATOM      9  C   UNL     1     132.649   7.407  95.120  1.00  0.00     0.004 C 
BRANCH   9  10
ATOM     10  C   UNL     1     131.483   7.979  94.298  1.00  0.00     0.000 C 
BRANCH  10  11
ATOM     11  C   UNL     1     130.429   8.683  95.164  1.00  0.00    -0.003 C 
ATOM     12  C   UNL     1     130.477  10.194  94.968  1.00  0.00     0.004 C 
ENDBRANCH  10  11
ENDBRANCH   9  10
ENDBRANCH   8   9
ENDBRANCH   7   8
ENDBRANCH   5   6
ENDBRANCH   4   5
ENDBRANCH   2   3
ENDBRANCH   1   2
BRANCH   1  13
ATOM     13  C   UNL     1     135.195   0.353  95.176  1.00  0.00     0.000 C 
BRANCH  13  14
ATOM     14  C   UNL     1     133.785   0.330  94.564  1.00  0.00     0.000 C 
BRANCH  14  15
ATOM     15  C   UNL     1     133.568   1.460  93.544  1.00  0.00     0.000 C 
BRANCH  15  16
ATOM     16  C   UNL     1     132.672   1.040  92.364  1.00  0.00     0.003 C 
BRANCH  16  17
ATOM     17  C   UNL     1     131.444   0.196  92.754  1.00  0.00     0.042 C 
BRANCH  17  18
ATOM     18  C   UNL     1     130.109   0.949  92.666  1.00  0.00     0.233 C 
BRANCH  18  19
ATOM     19  O   UNL     1     130.323   2.325  92.349  1.00  0.00    -0.466 OA
BRANCH  19  20
ATOM     20  C   UNL     1     130.149   3.374  93.260  1.00  0.00     0.302 C 
ATOM     21  O   UNL     1     130.298   3.191  94.499  1.00  0.00    -0.253 OA
ATOM     22  C   UNL     1     129.845   4.742  92.748  1.00  0.00     0.139 C 
ENDBRANCH  19  20
ENDBRANCH  18  19
ENDBRANCH  17  18
ENDBRANCH  16  17
ENDBRANCH  15  16
ENDBRANCH  14  15
ENDBRANCH  13  14
ENDBRANCH   1  13
TORSDOF 16
ENDMDL
