MODEL 1
REMARK VINA RESULT:     5.789      0.000      0.000
REMARK INTER + INTRA:           9.429
REMARK INTER:                  10.527
REMARK INTRA:                  -1.098
REMARK UNBOUND:                -1.098
REMARK SMILES CCCCCCCCCCCCCCCC(=O)[O-]
REMARK SMILES IDX 9 1 10 2 11 3 12 4 13 5 14 6 15 7 16 8 17 9 18 10 8 11 7 12
REMARK SMILES IDX 6 13 5 14 4 15 3 16 2 17 1 18
REMARK H PARENT
REMARK Flexibility Score: inf
ROOT
ATOM      1  C   UNL     1     -20.713   6.445 -19.950  1.00  0.00     0.000 C 
ENDROOT
BRANCH   1   2
ATOM      2  C   UNL     1     -19.896   5.484 -19.076  1.00  0.00     0.000 C 
BRANCH   2   3
ATOM      3  C   UNL     1     -20.392   4.029 -19.160  1.00  0.00     0.000 C 
BRANCH   3   4
ATOM      4  C   UNL     1     -19.271   2.984 -18.980  1.00  0.00     0.000 C 
BRANCH   4   5
ATOM      5  C   UNL     1     -18.197   3.450 -17.979  1.00  0.00     0.000 C 
BRANCH   5   6
ATOM      6  C   UNL     1     -16.772   3.099 -18.433  1.00  0.00     0.006 C 
BRANCH   6   7
ATOM      7  C   UNL     1     -16.092   4.249 -19.188  1.00  0.00     0.053 C 
BRANCH   7   8
ATOM      8  C   UNL     1     -14.700   4.456 -18.680  1.00  0.00     0.041 C 
ATOM      9  O   UNL     1     -14.144   3.571 -17.979  1.00  0.00    -0.550 OA
ATOM     10  O   UNL     1     -14.000   5.606 -19.022  1.00  0.00    -0.550 OA
ENDBRANCH   7   8
ENDBRANCH   6   7
ENDBRANCH   5   6
ENDBRANCH   4   5
ENDBRANCH   3   4
ENDBRANCH   2   3
ENDBRANCH   1   2
BRANCH   1  11
ATOM     11  C   UNL     1     -21.484   7.452 -19.088  1.00  0.00     0.000 C 
BRANCH  11  12
ATOM     12  C   UNL     1     -22.917   6.964 -18.824  1.00  0.00    -0.000 C 
BRANCH  12  13
ATOM     13  C   UNL     1     -23.889   8.118 -18.534  1.00  0.00    -0.000 C 
BRANCH  13  14
ATOM     14  C   UNL     1     -23.244   9.500 -18.736  1.00  0.00    -0.000 C 
BRANCH  14  15
ATOM     15  C   UNL     1     -23.329  10.380 -17.478  1.00  0.00    -0.000 C 
BRANCH  15  16
ATOM     16  C   UNL     1     -23.500   9.552 -16.191  1.00  0.00    -0.000 C 
BRANCH  16  17
ATOM     17  C   UNL     1     -22.211   9.488 -15.358  1.00  0.00    -0.003 C 
ATOM     18  C   UNL     1     -20.972   9.896 -16.156  1.00  0.00     0.004 C 
ENDBRANCH  16  17
ENDBRANCH  15  16
ENDBRANCH  14  15
ENDBRANCH  13  14
ENDBRANCH  12  13
ENDBRANCH  11  12
ENDBRANCH   1  11
TORSDOF 14
ENDMDL
MODEL 2
REMARK VINA RESULT:     7.813      1.123      2.007
REMARK INTER + INTRA:          13.110
REMARK INTER:                  12.092
REMARK INTRA:                   1.017
REMARK UNBOUND:                -1.098
REMARK SMILES CCCCCCCCCCCCCCCC(=O)[O-]
REMARK SMILES IDX 9 1 10 2 11 3 12 4 13 5 14 6 15 7 16 8 17 9 18 10 8 11 7 12
REMARK SMILES IDX 6 13 5 14 4 15 3 16 2 17 1 18
REMARK H PARENT
REMARK Flexibility Score: inf
ROOT
ATOM      1  C   UNL     1     -20.237   5.434 -19.922  1.00  0.00     0.000 C 
ENDROOT
BRANCH   1   2
ATOM      2  C   UNL     1     -20.043   4.081 -19.225  1.00  0.00     0.000 C 
BRANCH   2   3
ATOM      3  C   UNL     1     -19.362   3.035 -20.125  1.00  0.00     0.000 C 
BRANCH   3   4
ATOM      4  C   UNL     1     -17.825   3.013 -19.992  1.00  0.00     0.000 C 
BRANCH   4   5
ATOM      5  C   UNL     1     -17.359   3.403 -18.577  1.00  0.00     0.000 C 
BRANCH   5   6
ATOM      6  C   UNL     1     -15.851   3.188 -18.369  1.00  0.00     0.006 C 
BRANCH   6   7
ATOM      7  C   UNL     1     -15.014   3.684 -19.555  1.00  0.00     0.053 C 
BRANCH   7   8
ATOM      8  C   UNL     1     -14.220   4.890 -19.165  1.00  0.00     0.041 C 
ATOM      9  O   UNL     1     -13.879   5.733 -20.036  1.00  0.00    -0.550 OA
ATOM     10  O   UNL     1     -13.898   5.109 -17.831  1.00  0.00    -0.550 OA
ENDBRANCH   7   8
ENDBRANCH   6   7
ENDBRANCH   5   6
ENDBRANCH   4   5
ENDBRANCH   3   4
ENDBRANCH   2   3
ENDBRANCH   1   2
BRANCH   1  11
ATOM     11  C   UNL     1     -21.369   6.234 -19.266  1.00  0.00     0.000 C 
BRANCH  11  12
ATOM     12  C   UNL     1     -20.933   7.682 -18.998  1.00  0.00    -0.000 C 
BRANCH  12  13
ATOM     13  C   UNL     1     -21.854   8.401 -17.999  1.00  0.00    -0.000 C 
BRANCH  13  14
ATOM     14  C   UNL     1     -21.469   8.123 -16.535  1.00  0.00    -0.000 C 
BRANCH  14  15
ATOM     15  C   UNL     1     -21.775   9.312 -15.610  1.00  0.00    -0.000 C 
BRANCH  15  16
ATOM     16  C   UNL     1     -22.657  10.375 -16.289  1.00  0.00    -0.000 C 
BRANCH  16  17
ATOM     17  C   UNL     1     -24.107   9.904 -16.475  1.00  0.00    -0.003 C 
ATOM     18  C   UNL     1     -24.317   9.143 -17.784  1.00  0.00     0.004 C 
ENDBRANCH  16  17
ENDBRANCH  15  16
ENDBRANCH  14  15
ENDBRANCH  13  14
ENDBRANCH  12  13
ENDBRANCH  11  12
ENDBRANCH   1  11
TORSDOF 14
ENDMDL
