MODEL 1
REMARK VINA RESULT:    -7.265      0.000      0.000
REMARK INTER + INTRA:         -11.818
REMARK INTER:                 -11.299
REMARK INTRA:                  -0.519
REMARK UNBOUND:                -0.519
REMARK SMILES COc1cc(CNC(=O)CCCCC=CC(C)C)ccc1O
REMARK SMILES IDX 11 1 12 2 13 3 14 4 15 5 16 6 17 7 18 8 10 9 8 10 9 11 7 12
REMARK SMILES IDX 6 14 5 15 4 16 19 17 3 18 20 19 21 20 2 21 1 22 22 23
REMARK H PARENT 7 13 22 24
REMARK Flexibility Score: inf
ROOT
ATOM      1  C   UNL     1       1.610  -4.942  10.232  1.00  0.00     0.010 C 
ENDROOT
BRANCH   1   2
ATOM      2  C   UNL     1       2.285  -3.557  10.153  1.00  0.00     0.005 C 
BRANCH   2   3
ATOM      3  C   UNL     1       2.514  -3.044   8.720  1.00  0.00     0.027 C 
BRANCH   3   4
ATOM      4  C   UNL     1       2.231  -1.572   8.582  1.00  0.00    -0.031 C 
ATOM      5  C   UNL     1       1.463  -0.916   9.464  1.00  0.00    -0.028 C 
BRANCH   5   6
ATOM      6  C   UNL     1       1.177   0.560   9.310  1.00  0.00     0.005 C 
ATOM      7  C   UNL     1       1.793   1.093   8.011  1.00  0.00     0.012 C 
ATOM      8  C   UNL     1      -0.334   0.816   9.327  1.00  0.00     0.012 C 
ENDBRANCH   5   6
ENDBRANCH   3   4
ENDBRANCH   2   3
ENDBRANCH   1   2
BRANCH   1   9
ATOM      9  C   UNL     1       1.359  -5.599   8.865  1.00  0.00     0.100 C 
BRANCH   9  10
ATOM     10  C   UNL     1       2.504  -6.474   8.446  1.00  0.00     0.220 C 
ATOM     11  O   UNL     1       3.548  -6.503   9.151  1.00  0.00    -0.275 OA
ATOM     12  N   UNL     1       2.424  -7.241   7.236  1.00  0.00    -0.352 N 
ATOM     13  H   UNL     1       1.563  -7.177   6.648  1.00  0.00     0.163 HD
BRANCH  12  14
ATOM     14  C   UNL     1       3.516  -8.094   6.775  1.00  0.00     0.151 C 
BRANCH  14  15
ATOM     15  C   UNL     1       3.045  -8.986   5.658  1.00  0.00    -0.025 A 
ATOM     16  C   UNL     1       3.727  -9.019   4.433  1.00  0.00     0.056 A 
ATOM     17  C   UNL     1       1.934  -9.818   5.851  1.00  0.00     0.009 A 
ATOM     18  C   UNL     1       3.299  -9.873   3.396  1.00  0.00     0.160 A 
ATOM     19  C   UNL     1       1.503 -10.665   4.829  1.00  0.00     0.050 A 
ATOM     20  C   UNL     1       2.178 -10.697   3.604  1.00  0.00     0.157 A 
BRANCH  18  21
ATOM     21  O   UNL     1       3.960  -9.929   2.158  1.00  0.00    -0.493 OA
ATOM     22  C   UNL     1       5.369  -9.808   1.988  1.00  0.00     0.278 C 
ENDBRANCH  18  21
BRANCH  20  23
ATOM     23  O   UNL     1       1.719 -11.556   2.606  1.00  0.00    -0.504 OA
ATOM     24  H   UNL     1       1.662 -11.274   1.634  1.00  0.00     0.293 HD
ENDBRANCH  20  23
ENDBRANCH  14  15
ENDBRANCH  12  14
ENDBRANCH   9  10
ENDBRANCH   1   9
TORSDOF 10
ENDMDL
MODEL 2
REMARK VINA RESULT:    -7.095      2.835      9.757
REMARK INTER + INTRA:         -11.554
REMARK INTER:                 -10.998
REMARK INTRA:                  -0.556
REMARK UNBOUND:                -0.519
REMARK SMILES COc1cc(CNC(=O)CCCCC=CC(C)C)ccc1O
REMARK SMILES IDX 11 1 12 2 13 3 14 4 15 5 16 6 17 7 18 8 10 9 8 10 9 11 7 12
REMARK SMILES IDX 6 14 5 15 4 16 19 17 3 18 20 19 21 20 2 21 1 22 22 23
REMARK H PARENT 7 13 22 24
REMARK Flexibility Score: inf
ROOT
ATOM      1  C   UNL     1       2.499  -7.698   7.128  1.00  0.00     0.010 C 
ENDROOT
BRANCH   1   2
ATOM      2  C   UNL     1       3.310  -8.331   5.979  1.00  0.00     0.005 C 
BRANCH   2   3
ATOM      3  C   UNL     1       2.474  -9.189   5.012  1.00  0.00     0.027 C 
BRANCH   3   4
ATOM      4  C   UNL     1       3.227  -9.547   3.759  1.00  0.00    -0.031 C 
ATOM      5  C   UNL     1       4.230  -8.784   3.298  1.00  0.00    -0.028 C 
BRANCH   5   6
ATOM      6  C   UNL     1       4.973  -9.147   2.033  1.00  0.00     0.005 C 
ATOM      7  C   UNL     1       5.180  -7.905   1.157  1.00  0.00     0.012 C 
ATOM      8  C   UNL     1       6.323  -9.790   2.372  1.00  0.00     0.012 C 
ENDBRANCH   5   6
ENDBRANCH   3   4
ENDBRANCH   2   3
ENDBRANCH   1   2
BRANCH   1   9
ATOM      9  C   UNL     1       3.318  -6.771   8.041  1.00  0.00     0.100 C 
BRANCH   9  10
ATOM     10  C   UNL     1       2.438  -5.892   8.882  1.00  0.00     0.220 C 
ATOM     11  O   UNL     1       1.278  -6.286   9.180  1.00  0.00    -0.275 OA
ATOM     12  N   UNL     1       2.899  -4.604   9.311  1.00  0.00    -0.352 N 
ATOM     13  H   UNL     1       3.852  -4.282   9.025  1.00  0.00     0.163 HD
BRANCH  12  14
ATOM     14  C   UNL     1       2.076  -3.704  10.115  1.00  0.00     0.151 C 
BRANCH  14  15
ATOM     15  C   UNL     1       2.004  -2.347   9.469  1.00  0.00    -0.025 A 
ATOM     16  C   UNL     1       1.377  -1.276  10.124  1.00  0.00     0.056 A 
ATOM     17  C   UNL     1       2.595  -2.138   8.216  1.00  0.00     0.009 A 
ATOM     18  C   UNL     1       1.331   0.001   9.529  1.00  0.00     0.160 A 
ATOM     19  C   UNL     1       2.552  -0.877   7.619  1.00  0.00     0.050 A 
ATOM     20  C   UNL     1       1.924   0.191   8.266  1.00  0.00     0.157 A 
BRANCH  18  21
ATOM     21  O   UNL     1       0.712   1.093  10.157  1.00  0.00    -0.493 OA
ATOM     22  C   UNL     1      -0.636   1.103  10.618  1.00  0.00     0.278 C 
ENDBRANCH  18  21
BRANCH  20  23
ATOM     23  O   UNL     1       1.901   1.438   7.640  1.00  0.00    -0.504 OA
ATOM     24  H   UNL     1       1.779   1.537   6.639  1.00  0.00     0.293 HD
ENDBRANCH  20  23
ENDBRANCH  14  15
ENDBRANCH  12  14
ENDBRANCH   9  10
ENDBRANCH   1   9
TORSDOF 10
ENDMDL
MODEL 3
REMARK VINA RESULT:    -6.989      4.008     10.740
REMARK INTER + INTRA:         -11.389
REMARK INTER:                 -10.763
REMARK INTRA:                  -0.626
REMARK UNBOUND:                -0.519
REMARK SMILES COc1cc(CNC(=O)CCCCC=CC(C)C)ccc1O
REMARK SMILES IDX 11 1 12 2 13 3 14 4 15 5 16 6 17 7 18 8 10 9 8 10 9 11 7 12
REMARK SMILES IDX 6 14 5 15 4 16 19 17 3 18 20 19 21 20 2 21 1 22 22 23
REMARK H PARENT 7 13 22 24
REMARK Flexibility Score: inf
ROOT
ATOM      1  C   UNL     1       2.776  -4.911  10.086  1.00  0.00     0.010 C 
ENDROOT
BRANCH   1   2
ATOM      2  C   UNL     1       1.604  -5.911  10.007  1.00  0.00     0.005 C 
BRANCH   2   3
ATOM      3  C   UNL     1       1.076  -6.159   8.583  1.00  0.00     0.027 C 
BRANCH   3   4
ATOM      4  C   UNL     1       2.096  -6.821   7.696  1.00  0.00    -0.031 C 
ATOM      5  C   UNL     1       1.990  -8.110   7.341  1.00  0.00    -0.028 C 
BRANCH   5   6
ATOM      6  C   UNL     1       3.025  -8.769   6.459  1.00  0.00     0.005 C 
ATOM      7  C   UNL     1       2.456  -9.014   5.056  1.00  0.00     0.012 C 
ATOM      8  C   UNL     1       4.287  -7.904   6.378  1.00  0.00     0.012 C 
ENDBRANCH   5   6
ENDBRANCH   3   4
ENDBRANCH   2   3
ENDBRANCH   1   2
BRANCH   1   9
ATOM      9  C   UNL     1       2.361  -3.483  10.474  1.00  0.00     0.100 C 
BRANCH   9  10
ATOM     10  C   UNL     1       2.266  -2.583   9.277  1.00  0.00     0.220 C 
ATOM     11  O   UNL     1       2.365  -3.079   8.123  1.00  0.00    -0.275 OA
ATOM     12  N   UNL     1       2.102  -1.168   9.447  1.00  0.00    -0.352 N 
ATOM     13  H   UNL     1       2.056  -0.772  10.413  1.00  0.00     0.163 HD
BRANCH  12  14
ATOM     14  C   UNL     1       2.022  -0.247   8.316  1.00  0.00     0.151 C 
BRANCH  14  15
ATOM     15  C   UNL     1       1.742   1.150   8.801  1.00  0.00    -0.025 A 
ATOM     16  C   UNL     1       0.649   1.411   9.641  1.00  0.00     0.056 A 
ATOM     17  C   UNL     1       2.598   2.199   8.438  1.00  0.00     0.009 A 
ATOM     18  C   UNL     1       0.402   2.715  10.114  1.00  0.00     0.160 A 
ATOM     19  C   UNL     1       2.359   3.494   8.901  1.00  0.00     0.050 A 
ATOM     20  C   UNL     1       1.268   3.758   9.735  1.00  0.00     0.157 A 
BRANCH  18  21
ATOM     21  O   UNL     1      -0.683   3.009  10.956  1.00  0.00    -0.493 OA
ATOM     22  C   UNL     1      -1.995   2.476  10.798  1.00  0.00     0.278 C 
ENDBRANCH  18  21
BRANCH  20  23
ATOM     23  O   UNL     1       1.061   5.064  10.179  1.00  0.00    -0.504 OA
ATOM     24  H   UNL     1       0.461   5.278  10.967  1.00  0.00     0.293 HD
ENDBRANCH  20  23
ENDBRANCH  14  15
ENDBRANCH  12  14
ENDBRANCH   9  10
ENDBRANCH   1   9
TORSDOF 10
ENDMDL
MODEL 4
REMARK VINA RESULT:    -6.978      4.270     10.907
REMARK INTER + INTRA:         -11.372
REMARK INTER:                 -10.730
REMARK INTRA:                  -0.642
REMARK UNBOUND:                -0.519
REMARK SMILES COc1cc(CNC(=O)CCCCC=CC(C)C)ccc1O
REMARK SMILES IDX 11 1 12 2 13 3 14 4 15 5 16 6 17 7 18 8 10 9 8 10 9 11 7 12
REMARK SMILES IDX 6 14 5 15 4 16 19 17 3 18 20 19 21 20 2 21 1 22 22 23
REMARK H PARENT 7 13 22 24
REMARK Flexibility Score: inf
ROOT
ATOM      1  C   UNL     1       1.307  -4.400  10.318  1.00  0.00     0.010 C 
ENDROOT
BRANCH   1   2
ATOM      2  C   UNL     1       1.509  -5.667   9.461  1.00  0.00     0.005 C 
BRANCH   2   3
ATOM      3  C   UNL     1       2.962  -6.170   9.406  1.00  0.00     0.027 C 
BRANCH   3   4
ATOM      4  C   UNL     1       3.275  -6.895   8.125  1.00  0.00    -0.031 C 
ATOM      5  C   UNL     1       2.328  -7.548   7.436  1.00  0.00    -0.028 C 
BRANCH   5   6
ATOM      6  C   UNL     1       2.654  -8.282   6.156  1.00  0.00     0.005 C 
ATOM      7  C   UNL     1       4.171  -8.319   5.930  1.00  0.00     0.012 C 
ATOM      8  C   UNL     1       2.087  -9.705   6.196  1.00  0.00     0.012 C 
ENDBRANCH   5   6
ENDBRANCH   3   4
ENDBRANCH   2   3
ENDBRANCH   1   2
BRANCH   1   9
ATOM      9  C   UNL     1       2.475  -3.404  10.255  1.00  0.00     0.100 C 
BRANCH   9  10
ATOM     10  C   UNL     1       2.199  -2.277   9.301  1.00  0.00     0.220 C 
ATOM     11  O   UNL     1       2.500  -2.412   8.085  1.00  0.00    -0.275 OA
ATOM     12  N   UNL     1       1.632  -1.048   9.777  1.00  0.00    -0.352 N 
ATOM     13  H   UNL     1       1.421  -0.945  10.795  1.00  0.00     0.163 HD
BRANCH  12  14
ATOM     14  C   UNL     1       1.361   0.083   8.895  1.00  0.00     0.151 C 
BRANCH  14  15
ATOM     15  C   UNL     1       0.491   1.093   9.594  1.00  0.00    -0.025 A 
ATOM     16  C   UNL     1       0.905   2.427   9.721  1.00  0.00     0.056 A 
ATOM     17  C   UNL     1      -0.759   0.707  10.097  1.00  0.00     0.009 A 
ATOM     18  C   UNL     1       0.079   3.377  10.355  1.00  0.00     0.160 A 
ATOM     19  C   UNL     1      -1.582   1.642  10.727  1.00  0.00     0.050 A 
ATOM     20  C   UNL     1      -1.171   2.972  10.860  1.00  0.00     0.157 A 
BRANCH  18  21
ATOM     21  O   UNL     1       0.464   4.720  10.498  1.00  0.00    -0.493 OA
ATOM     22  C   UNL     1       1.418   5.380   9.671  1.00  0.00     0.278 C 
ENDBRANCH  18  21
BRANCH  20  23
ATOM     23  O   UNL     1      -2.020   3.879  11.495  1.00  0.00    -0.504 OA
ATOM     24  H   UNL     1      -3.024   3.746  11.530  1.00  0.00     0.293 HD
ENDBRANCH  20  23
ENDBRANCH  14  15
ENDBRANCH  12  14
ENDBRANCH   9  10
ENDBRANCH   1   9
TORSDOF 10
ENDMDL
MODEL 5
REMARK VINA RESULT:    -6.740      4.083     10.857
REMARK INTER + INTRA:         -11.002
REMARK INTER:                 -10.512
REMARK INTRA:                  -0.491
REMARK UNBOUND:                -0.519
REMARK SMILES COc1cc(CNC(=O)CCCCC=CC(C)C)ccc1O
REMARK SMILES IDX 11 1 12 2 13 3 14 4 15 5 16 6 17 7 18 8 10 9 8 10 9 11 7 12
REMARK SMILES IDX 6 14 5 15 4 16 19 17 3 18 20 19 21 20 2 21 1 22 22 23
REMARK H PARENT 7 13 22 24
REMARK Flexibility Score: inf
ROOT
ATOM      1  C   UNL     1       2.374  -4.500   8.643  1.00  0.00     0.010 C 
ENDROOT
BRANCH   1   2
ATOM      2  C   UNL     1       2.587  -5.884   9.291  1.00  0.00     0.005 C 
BRANCH   2   3
ATOM      3  C   UNL     1       3.512  -6.821   8.494  1.00  0.00     0.027 C 
BRANCH   3   4
ATOM      4  C   UNL     1       2.751  -7.757   7.595  1.00  0.00    -0.031 C 
ATOM      5  C   UNL     1       3.138  -7.992   6.332  1.00  0.00    -0.028 C 
BRANCH   5   6
ATOM      6  C   UNL     1       2.361  -8.926   5.434  1.00  0.00     0.005 C 
ATOM      7  C   UNL     1       3.191  -9.298   4.199  1.00  0.00     0.012 C 
ATOM      8  C   UNL     1       1.953 -10.189   6.200  1.00  0.00     0.012 C 
ENDBRANCH   5   6
ENDBRANCH   3   4
ENDBRANCH   2   3
ENDBRANCH   1   2
BRANCH   1   9
ATOM      9  C   UNL     1       2.188  -3.354   9.650  1.00  0.00     0.100 C 
BRANCH   9  10
ATOM     10  C   UNL     1       2.118  -2.018   8.971  1.00  0.00     0.220 C 
ATOM     11  O   UNL     1       2.673  -1.866   7.849  1.00  0.00    -0.275 OA
ATOM     12  N   UNL     1       1.460  -0.914   9.609  1.00  0.00    -0.352 N 
ATOM     13  H   UNL     1       1.035  -1.052  10.554  1.00  0.00     0.163 HD
BRANCH  12  14
ATOM     14  C   UNL     1       1.380   0.410   8.999  1.00  0.00     0.151 C 
BRANCH  14  15
ATOM     15  C   UNL     1       0.208   1.172   9.559  1.00  0.00    -0.025 A 
ATOM     16  C   UNL     1      -1.084   0.627   9.518  1.00  0.00     0.056 A 
ATOM     17  C   UNL     1       0.412   2.423  10.157  1.00  0.00     0.009 A 
ATOM     18  C   UNL     1      -2.176   1.331  10.065  1.00  0.00     0.160 A 
ATOM     19  C   UNL     1      -0.665   3.126  10.699  1.00  0.00     0.050 A 
ATOM     20  C   UNL     1      -1.956   2.589  10.656  1.00  0.00     0.157 A 
BRANCH  18  21
ATOM     21  O   UNL     1      -3.482   0.814  10.040  1.00  0.00    -0.493 OA
ATOM     22  C   UNL     1      -3.952  -0.234  10.882  1.00  0.00     0.278 C 
ENDBRANCH  18  21
BRANCH  20  23
ATOM     23  O   UNL     1      -3.008   3.320  11.208  1.00  0.00    -0.504 OA
ATOM     24  H   UNL     1      -3.671   2.909  11.854  1.00  0.00     0.293 HD
ENDBRANCH  20  23
ENDBRANCH  14  15
ENDBRANCH  12  14
ENDBRANCH   9  10
ENDBRANCH   1   9
TORSDOF 10
ENDMDL
MODEL 6
REMARK VINA RESULT:    -6.543      3.077      9.993
REMARK INTER + INTRA:         -10.696
REMARK INTER:                 -10.126
REMARK INTRA:                  -0.570
REMARK UNBOUND:                -0.519
REMARK SMILES COc1cc(CNC(=O)CCCCC=CC(C)C)ccc1O
REMARK SMILES IDX 11 1 12 2 13 3 14 4 15 5 16 6 17 7 18 8 10 9 8 10 9 11 7 12
REMARK SMILES IDX 6 14 5 15 4 16 19 17 3 18 20 19 21 20 2 21 1 22 22 23
REMARK H PARENT 7 13 22 24
REMARK Flexibility Score: inf
ROOT
ATOM      1  C   UNL     1       1.926  -7.331   7.675  1.00  0.00     0.010 C 
ENDROOT
BRANCH   1   2
ATOM      2  C   UNL     1       2.693  -8.564   7.154  1.00  0.00     0.005 C 
BRANCH   2   3
ATOM      3  C   UNL     1       1.791  -9.709   6.661  1.00  0.00     0.027 C 
BRANCH   3   4
ATOM      4  C   UNL     1       2.146 -10.168   5.273  1.00  0.00    -0.031 C 
ATOM      5  C   UNL     1       2.802  -9.373   4.414  1.00  0.00    -0.028 C 
BRANCH   5   6
ATOM      6  C   UNL     1       3.145  -9.840   3.018  1.00  0.00     0.005 C 
ATOM      7  C   UNL     1       4.575  -9.425   2.650  1.00  0.00     0.012 C 
ATOM      8  C   UNL     1       2.988 -11.360   2.909  1.00  0.00     0.012 C 
ENDBRANCH   5   6
ENDBRANCH   3   4
ENDBRANCH   2   3
ENDBRANCH   1   2
BRANCH   1   9
ATOM      9  C   UNL     1       2.828  -6.212   8.219  1.00  0.00     0.100 C 
BRANCH   9  10
ATOM     10  C   UNL     1       2.069  -5.255   9.092  1.00  0.00     0.220 C 
ATOM     11  O   UNL     1       1.053  -5.663   9.716  1.00  0.00    -0.275 OA
ATOM     12  N   UNL     1       2.475  -3.882   9.186  1.00  0.00    -0.352 N 
ATOM     13  H   UNL     1       3.300  -3.556   8.634  1.00  0.00     0.163 HD
BRANCH  12  14
ATOM     14  C   UNL     1       1.760  -2.908  10.006  1.00  0.00     0.151 C 
BRANCH  14  15
ATOM     15  C   UNL     1       1.846  -1.540   9.384  1.00  0.00    -0.025 A 
ATOM     16  C   UNL     1       0.932  -0.535   9.738  1.00  0.00     0.056 A 
ATOM     17  C   UNL     1       2.866  -1.254   8.467  1.00  0.00     0.009 A 
ATOM     18  C   UNL     1       1.028   0.752   9.173  1.00  0.00     0.160 A 
ATOM     19  C   UNL     1       2.966   0.019   7.902  1.00  0.00     0.050 A 
ATOM     20  C   UNL     1       2.055   1.021   8.248  1.00  0.00     0.157 A 
BRANCH  18  21
ATOM     21  O   UNL     1       0.131   1.779   9.505  1.00  0.00    -0.493 OA
ATOM     22  C   UNL     1      -1.288   1.648   9.494  1.00  0.00     0.278 C 
ENDBRANCH  18  21
BRANCH  20  23
ATOM     23  O   UNL     1       2.187   2.281   7.664  1.00  0.00    -0.504 OA
ATOM     24  H   UNL     1       1.410   2.929   7.596  1.00  0.00     0.293 HD
ENDBRANCH  20  23
ENDBRANCH  14  15
ENDBRANCH  12  14
ENDBRANCH   9  10
ENDBRANCH   1   9
TORSDOF 10
ENDMDL
MODEL 7
REMARK VINA RESULT:    -6.520      6.820     12.783
REMARK INTER + INTRA:         -10.661
REMARK INTER:                 -10.081
REMARK INTRA:                  -0.580
REMARK UNBOUND:                -0.519
REMARK SMILES COc1cc(CNC(=O)CCCCC=CC(C)C)ccc1O
REMARK SMILES IDX 11 1 12 2 13 3 14 4 15 5 16 6 17 7 18 8 10 9 8 10 9 11 7 12
REMARK SMILES IDX 6 14 5 15 4 16 19 17 3 18 20 19 21 20 2 21 1 22 22 23
REMARK H PARENT 7 13 22 24
REMARK Flexibility Score: inf
ROOT
ATOM      1  C   UNL     1       1.173   0.343   8.966  1.00  0.00     0.010 C 
ENDROOT
BRANCH   1   2
ATOM      2  C   UNL     1       1.799  -0.946   9.537  1.00  0.00     0.005 C 
BRANCH   2   3
ATOM      3  C   UNL     1       2.493  -1.832   8.486  1.00  0.00     0.027 C 
BRANCH   3   4
ATOM      4  C   UNL     1       2.435  -3.295   8.835  1.00  0.00    -0.031 C 
ATOM      5  C   UNL     1       2.464  -3.717  10.108  1.00  0.00    -0.028 C 
BRANCH   5   6
ATOM      6  C   UNL     1       2.416  -5.189  10.448  1.00  0.00     0.005 C 
ATOM      7  C   UNL     1       0.976  -5.624  10.747  1.00  0.00     0.012 C 
ATOM      8  C   UNL     1       2.996  -6.022   9.299  1.00  0.00     0.012 C 
ENDBRANCH   5   6
ENDBRANCH   3   4
ENDBRANCH   2   3
ENDBRANCH   1   2
BRANCH   1   9
ATOM      9  C   UNL     1       2.183   1.298   8.311  1.00  0.00     0.100 C 
BRANCH   9  10
ATOM     10  C   UNL     1       2.185   2.648   8.967  1.00  0.00     0.220 C 
ATOM     11  O   UNL     1       3.253   3.316   8.999  1.00  0.00    -0.275 OA
ATOM     12  N   UNL     1       0.992   3.156   9.582  1.00  0.00    -0.352 N 
ATOM     13  H   UNL     1       0.126   2.572   9.573  1.00  0.00     0.163 HD
BRANCH  12  14
ATOM     14  C   UNL     1       0.946   4.454  10.248  1.00  0.00     0.151 C 
BRANCH  14  15
ATOM     15  C   UNL     1      -0.369   5.133   9.976  1.00  0.00    -0.025 A 
ATOM     16  C   UNL     1      -1.575   4.553  10.399  1.00  0.00     0.056 A 
ATOM     17  C   UNL     1      -0.392   6.373   9.323  1.00  0.00     0.009 A 
ATOM     18  C   UNL     1      -2.804   5.201  10.165  1.00  0.00     0.160 A 
ATOM     19  C   UNL     1      -1.606   7.021   9.086  1.00  0.00     0.050 A 
ATOM     20  C   UNL     1      -2.810   6.443   9.502  1.00  0.00     0.157 A 
BRANCH  18  21
ATOM     21  O   UNL     1      -4.028   4.647  10.575  1.00  0.00    -0.493 OA
ATOM     22  C   UNL     1      -4.226   3.273  10.893  1.00  0.00     0.278 C 
ENDBRANCH  18  21
BRANCH  20  23
ATOM     23  O   UNL     1      -4.003   7.119   9.249  1.00  0.00    -0.504 OA
ATOM     24  H   UNL     1      -4.298   7.362   8.310  1.00  0.00     0.293 HD
ENDBRANCH  20  23
ENDBRANCH  14  15
ENDBRANCH  12  14
ENDBRANCH   9  10
ENDBRANCH   1   9
TORSDOF 10
ENDMDL
MODEL 8
REMARK VINA RESULT:    -6.426      5.842      9.373
REMARK INTER + INTRA:         -10.514
REMARK INTER:                  -9.490
REMARK INTRA:                  -1.024
REMARK UNBOUND:                -0.519
REMARK SMILES COc1cc(CNC(=O)CCCCC=CC(C)C)ccc1O
REMARK SMILES IDX 11 1 12 2 13 3 14 4 15 5 16 6 17 7 18 8 10 9 8 10 9 11 7 12
REMARK SMILES IDX 6 14 5 15 4 16 19 17 3 18 20 19 21 20 2 21 1 22 22 23
REMARK H PARENT 7 13 22 24
REMARK Flexibility Score: inf
ROOT
ATOM      1  C   UNL     1       0.129   0.375   9.393  1.00  0.00     0.010 C 
ENDROOT
BRANCH   1   2
ATOM      2  C   UNL     1       1.169  -0.716   9.717  1.00  0.00     0.005 C 
BRANCH   2   3
ATOM      3  C   UNL     1       2.192  -0.970   8.596  1.00  0.00     0.027 C 
BRANCH   3   4
ATOM      4  C   UNL     1       2.606  -2.414   8.507  1.00  0.00    -0.031 C 
ATOM      5  C   UNL     1       2.172  -3.327   9.389  1.00  0.00    -0.028 C 
BRANCH   5   6
ATOM      6  C   UNL     1       2.601  -4.773   9.297  1.00  0.00     0.005 C 
ATOM      7  C   UNL     1       2.577  -5.429  10.683  1.00  0.00     0.012 C 
ATOM      8  C   UNL     1       1.693  -5.540   8.329  1.00  0.00     0.012 C 
ENDBRANCH   5   6
ENDBRANCH   3   4
ENDBRANCH   2   3
ENDBRANCH   1   2
BRANCH   1   9
ATOM      9  C   UNL     1      -0.152   1.343  10.554  1.00  0.00     0.100 C 
BRANCH   9  10
ATOM     10  C   UNL     1      -1.454   1.038  11.234  1.00  0.00     0.220 C 
ATOM     11  O   UNL     1      -1.617   1.380  12.437  1.00  0.00    -0.275 OA
ATOM     12  N   UNL     1      -2.490   0.334  10.534  1.00  0.00    -0.352 N 
ATOM     13  H   UNL     1      -2.323   0.030   9.548  1.00  0.00     0.163 HD
BRANCH  12  14
ATOM     14  C   UNL     1      -3.768  -0.002  11.156  1.00  0.00     0.151 C 
BRANCH  14  15
ATOM     15  C   UNL     1      -3.987  -1.491  11.124  1.00  0.00    -0.025 A 
ATOM     16  C   UNL     1      -2.973  -2.372  11.529  1.00  0.00     0.056 A 
ATOM     17  C   UNL     1      -5.227  -2.005  10.718  1.00  0.00     0.009 A 
ATOM     18  C   UNL     1      -3.189  -3.765  11.521  1.00  0.00     0.160 A 
ATOM     19  C   UNL     1      -5.447  -3.383  10.707  1.00  0.00     0.050 A 
ATOM     20  C   UNL     1      -4.437  -4.265  11.105  1.00  0.00     0.157 A 
BRANCH  18  21
ATOM     21  O   UNL     1      -2.195  -4.674  11.920  1.00  0.00    -0.493 OA
ATOM     22  C   UNL     1      -1.005  -4.943  11.185  1.00  0.00     0.278 C 
ENDBRANCH  18  21
BRANCH  20  23
ATOM     23  O   UNL     1      -4.693  -5.636  11.081  1.00  0.00    -0.504 OA
ATOM     24  H   UNL     1      -5.497  -6.043  11.544  1.00  0.00     0.293 HD
ENDBRANCH  20  23
ENDBRANCH  14  15
ENDBRANCH  12  14
ENDBRANCH   9  10
ENDBRANCH   1   9
TORSDOF 10
ENDMDL
MODEL 9
REMARK VINA RESULT:    -6.419      2.868      8.810
REMARK INTER + INTRA:         -10.503
REMARK INTER:                  -9.956
REMARK INTRA:                  -0.547
REMARK UNBOUND:                -0.519
REMARK SMILES COc1cc(CNC(=O)CCCCC=CC(C)C)ccc1O
REMARK SMILES IDX 11 1 12 2 13 3 14 4 15 5 16 6 17 7 18 8 10 9 8 10 9 11 7 12
REMARK SMILES IDX 6 14 5 15 4 16 19 17 3 18 20 19 21 20 2 21 1 22 22 23
REMARK H PARENT 7 13 22 24
REMARK Flexibility Score: inf
ROOT
ATOM      1  C   UNL     1       2.052 -11.472   4.477  1.00  0.00     0.010 C 
ENDROOT
BRANCH   1   2
ATOM      2  C   UNL     1       2.349 -11.434   2.964  1.00  0.00     0.005 C 
BRANCH   2   3
ATOM      3  C   UNL     1       3.727 -11.997   2.574  1.00  0.00     0.027 C 
BRANCH   3   4
ATOM      4  C   UNL     1       4.753 -10.917   2.361  1.00  0.00    -0.031 C 
ATOM      5  C   UNL     1       4.448  -9.618   2.501  1.00  0.00    -0.028 C 
BRANCH   5   6
ATOM      6  C   UNL     1       5.482  -8.540   2.274  1.00  0.00     0.005 C 
ATOM      7  C   UNL     1       6.895  -9.138   2.295  1.00  0.00     0.012 C 
ATOM      8  C   UNL     1       5.227  -7.825   0.943  1.00  0.00     0.012 C 
ENDBRANCH   5   6
ENDBRANCH   3   4
ENDBRANCH   2   3
ENDBRANCH   1   2
BRANCH   1   9
ATOM      9  C   UNL     1       1.456 -10.170   5.035  1.00  0.00     0.100 C 
BRANCH   9  10
ATOM     10  C   UNL     1       2.299  -9.593   6.133  1.00  0.00     0.220 C 
ATOM     11  O   UNL     1       2.532 -10.285   7.161  1.00  0.00    -0.275 OA
ATOM     12  N   UNL     1       2.805  -8.254   6.031  1.00  0.00    -0.352 N 
ATOM     13  H   UNL     1       2.573  -7.685   5.186  1.00  0.00     0.163 HD
BRANCH  12  14
ATOM     14  C   UNL     1       3.616  -7.640   7.079  1.00  0.00     0.151 C 
BRANCH  14  15
ATOM     15  C   UNL     1       2.734  -6.934   8.073  1.00  0.00    -0.025 A 
ATOM     16  C   UNL     1       3.292  -6.147   9.093  1.00  0.00     0.056 A 
ATOM     17  C   UNL     1       1.340  -7.033   7.964  1.00  0.00     0.009 A 
ATOM     18  C   UNL     1       2.464  -5.466  10.008  1.00  0.00     0.160 A 
ATOM     19  C   UNL     1       0.514  -6.363   8.867  1.00  0.00     0.050 A 
ATOM     20  C   UNL     1       1.067  -5.582   9.887  1.00  0.00     0.157 A 
BRANCH  18  21
ATOM     21  O   UNL     1       2.991  -4.671  11.039  1.00  0.00    -0.493 OA
ATOM     22  C   UNL     1       3.014  -3.247  11.029  1.00  0.00     0.278 C 
ENDBRANCH  18  21
BRANCH  20  23
ATOM     23  O   UNL     1       0.210  -4.926  10.772  1.00  0.00    -0.504 OA
ATOM     24  H   UNL     1       0.278  -5.043  11.776  1.00  0.00     0.293 HD
ENDBRANCH  20  23
ENDBRANCH  14  15
ENDBRANCH  12  14
ENDBRANCH   9  10
ENDBRANCH   1   9
TORSDOF 10
ENDMDL
