MODEL 1
REMARK VINA RESULT:    -5.030      0.000      0.000
REMARK INTER + INTRA:          -5.177
REMARK INTER:                  -5.177
REMARK INTRA:                   0.000
REMARK UNBOUND:                 0.000
REMARK SMILES Cc1ccccc1O
REMARK SMILES IDX 1 1 2 2 3 3 4 4 5 5 6 6 7 7 8 8
REMARK H PARENT 8 9
REMARK Flexibility Score: inf
ROOT
ATOM      1  C   UNL     1       5.861   3.880 -31.935  1.00  0.00     0.048 C 
ATOM      2  C   UNL     1       4.716   4.420 -31.123  1.00  0.00    -0.009 A 
ATOM      3  C   UNL     1       4.830   5.683 -30.516  1.00  0.00     0.007 A 
ATOM      4  C   UNL     1       3.779   6.203 -29.758  1.00  0.00     0.001 A 
ATOM      5  C   UNL     1       2.603   5.468 -29.596  1.00  0.00     0.004 A 
ATOM      6  C   UNL     1       2.477   4.213 -30.193  1.00  0.00     0.046 A 
ATOM      7  C   UNL     1       3.522   3.679 -30.956  1.00  0.00     0.118 A 
ENDROOT
BRANCH   7   8
ATOM      8  O   UNL     1       3.347   2.420 -31.533  1.00  0.00    -0.508 OA
ATOM      9  H   UNL     1       3.451   2.248 -32.524  1.00  0.00     0.293 HD
ENDBRANCH   7   8
TORSDOF 1
ENDMDL
MODEL 2
REMARK VINA RESULT:    -4.999      1.816      2.486
REMARK INTER + INTRA:          -5.145
REMARK INTER:                  -5.145
REMARK INTRA:                   0.000
REMARK UNBOUND:                 0.000
REMARK SMILES Cc1ccccc1O
REMARK SMILES IDX 1 1 2 2 3 3 4 4 5 5 6 6 7 7 8 8
REMARK H PARENT 8 9
REMARK Flexibility Score: inf
ROOT
ATOM      1  C   UNL     1       6.064   4.121 -32.009  1.00  0.00     0.048 C 
ATOM      2  C   UNL     1       4.888   4.565 -31.183  1.00  0.00    -0.009 A 
ATOM      3  C   UNL     1       3.855   3.654 -30.900  1.00  0.00     0.007 A 
ATOM      4  C   UNL     1       2.755   4.047 -30.135  1.00  0.00     0.001 A 
ATOM      5  C   UNL     1       2.672   5.351 -29.646  1.00  0.00     0.004 A 
ATOM      6  C   UNL     1       3.690   6.265 -29.920  1.00  0.00     0.046 A 
ATOM      7  C   UNL     1       4.800   5.886 -30.685  1.00  0.00     0.118 A 
ENDROOT
BRANCH   7   8
ATOM      8  O   UNL     1       5.793   6.837 -30.931  1.00  0.00    -0.508 OA
ATOM      9  H   UNL     1       5.625   7.834 -30.883  1.00  0.00     0.293 HD
ENDBRANCH   7   8
TORSDOF 1
ENDMDL
MODEL 3
REMARK VINA RESULT:    -4.856      0.907      2.623
REMARK INTER + INTRA:          -4.998
REMARK INTER:                  -4.998
REMARK INTRA:                   0.000
REMARK UNBOUND:                 0.000
REMARK SMILES Cc1ccccc1O
REMARK SMILES IDX 1 1 2 2 3 3 4 4 5 5 6 6 7 7 8 8
REMARK H PARENT 8 9
REMARK Flexibility Score: inf
ROOT
ATOM      1  C   UNL     1       2.326   5.153 -29.450  1.00  0.00     0.048 C 
ATOM      2  C   UNL     1       3.625   5.153 -30.207  1.00  0.00    -0.009 A 
ATOM      3  C   UNL     1       4.447   6.294 -30.175  1.00  0.00     0.007 A 
ATOM      4  C   UNL     1       5.657   6.315 -30.871  1.00  0.00     0.001 A 
ATOM      5  C   UNL     1       6.060   5.200 -31.607  1.00  0.00     0.004 A 
ATOM      6  C   UNL     1       5.254   4.062 -31.648  1.00  0.00     0.046 A 
ATOM      7  C   UNL     1       4.038   4.026 -30.955  1.00  0.00     0.118 A 
ENDROOT
BRANCH   7   8
ATOM      8  O   UNL     1       3.267   2.864 -31.027  1.00  0.00    -0.508 OA
ATOM      9  H   UNL     1       2.777   2.578 -31.865  1.00  0.00     0.293 HD
ENDBRANCH   7   8
TORSDOF 1
ENDMDL
MODEL 4
REMARK VINA RESULT:    -4.685      1.107      1.790
REMARK INTER + INTRA:          -4.822
REMARK INTER:                  -4.822
REMARK INTRA:                   0.000
REMARK UNBOUND:                 0.000
REMARK SMILES Cc1ccccc1O
REMARK SMILES IDX 1 1 2 2 3 3 4 4 5 5 6 6 7 7 8 8
REMARK H PARENT 8 9
REMARK Flexibility Score: inf
ROOT
ATOM      1  C   UNL     1       6.067   6.465 -31.035  1.00  0.00     0.048 C 
ATOM      2  C   UNL     1       4.850   5.646 -30.705  1.00  0.00    -0.009 A 
ATOM      3  C   UNL     1       3.859   6.182 -29.863  1.00  0.00     0.007 A 
ATOM      4  C   UNL     1       2.721   5.438 -29.545  1.00  0.00     0.001 A 
ATOM      5  C   UNL     1       2.559   4.152 -30.062  1.00  0.00     0.004 A 
ATOM      6  C   UNL     1       3.535   3.607 -30.898  1.00  0.00     0.046 A 
ATOM      7  C   UNL     1       4.681   4.341 -31.226  1.00  0.00     0.118 A 
ENDROOT
BRANCH   7   8
ATOM      8  O   UNL     1       5.628   3.752 -32.067  1.00  0.00    -0.508 OA
ATOM      9  H   UNL     1       6.178   4.279 -32.732  1.00  0.00     0.293 HD
ENDBRANCH   7   8
TORSDOF 1
ENDMDL
MODEL 5
REMARK VINA RESULT:    -4.618      1.921      3.572
REMARK INTER + INTRA:          -4.753
REMARK INTER:                  -4.753
REMARK INTRA:                   0.000
REMARK UNBOUND:                 0.000
REMARK SMILES Cc1ccccc1O
REMARK SMILES IDX 1 1 2 2 3 3 4 4 5 5 6 6 7 7 8 8
REMARK H PARENT 8 9
REMARK Flexibility Score: inf
ROOT
ATOM      1  C   UNL     1       2.206   5.253 -29.470  1.00  0.00     0.048 C 
ATOM      2  C   UNL     1       3.365   4.852 -30.339  1.00  0.00    -0.009 A 
ATOM      3  C   UNL     1       3.358   3.594 -30.969  1.00  0.00     0.007 A 
ATOM      4  C   UNL     1       4.424   3.202 -31.780  1.00  0.00     0.001 A 
ATOM      5  C   UNL     1       5.510   4.058 -31.971  1.00  0.00     0.004 A 
ATOM      6  C   UNL     1       5.530   5.309 -31.352  1.00  0.00     0.046 A 
ATOM      7  C   UNL     1       4.468   5.716 -30.536  1.00  0.00     0.118 A 
ENDROOT
BRANCH   7   8
ATOM      8  O   UNL     1       4.535   6.977 -29.939  1.00  0.00    -0.508 OA
ATOM      9  H   UNL     1       4.051   7.207 -29.081  1.00  0.00     0.293 HD
ENDBRANCH   7   8
TORSDOF 1
ENDMDL
MODEL 6
REMARK VINA RESULT:    -4.288      2.114      2.963
REMARK INTER + INTRA:          -4.414
REMARK INTER:                  -4.414
REMARK INTRA:                   0.000
REMARK UNBOUND:                 0.000
REMARK SMILES Cc1ccccc1O
REMARK SMILES IDX 1 1 2 2 3 3 4 4 5 5 6 6 7 7 8 8
REMARK H PARENT 8 9
REMARK Flexibility Score: inf
ROOT
ATOM      1  C   UNL     1       6.805   6.613 -31.627  1.00  0.00     0.048 C 
ATOM      2  C   UNL     1       5.765   5.551 -31.398  1.00  0.00    -0.009 A 
ATOM      3  C   UNL     1       5.891   4.306 -32.040  1.00  0.00     0.007 A 
ATOM      4  C   UNL     1       4.936   3.307 -31.839  1.00  0.00     0.001 A 
ATOM      5  C   UNL     1       3.846   3.538 -30.999  1.00  0.00     0.004 A 
ATOM      6  C   UNL     1       3.709   4.770 -30.357  1.00  0.00     0.046 A 
ATOM      7  C   UNL     1       4.659   5.781 -30.547  1.00  0.00     0.118 A 
ENDROOT
BRANCH   7   8
ATOM      8  O   UNL     1       4.477   6.995 -29.881  1.00  0.00    -0.508 OA
ATOM      9  H   UNL     1       4.746   7.141 -28.917  1.00  0.00     0.293 HD
ENDBRANCH   7   8
TORSDOF 1
ENDMDL
MODEL 7
REMARK VINA RESULT:    -4.217      1.436      2.338
REMARK INTER + INTRA:          -4.340
REMARK INTER:                  -4.340
REMARK INTRA:                   0.000
REMARK UNBOUND:                 0.000
REMARK SMILES Cc1ccccc1O
REMARK SMILES IDX 1 1 2 2 3 3 4 4 5 5 6 6 7 7 8 8
REMARK H PARENT 8 9
REMARK Flexibility Score: inf
ROOT
ATOM      1  C   UNL     1       3.359   2.886 -32.395  1.00  0.00     0.048 C 
ATOM      2  C   UNL     1       3.498   4.008 -31.404  1.00  0.00    -0.009 A 
ATOM      3  C   UNL     1       2.612   4.085 -30.314  1.00  0.00     0.007 A 
ATOM      4  C   UNL     1       2.725   5.119 -29.382  1.00  0.00     0.001 A 
ATOM      5  C   UNL     1       3.720   6.087 -29.527  1.00  0.00     0.004 A 
ATOM      6  C   UNL     1       4.604   6.023 -30.604  1.00  0.00     0.046 A 
ATOM      7  C   UNL     1       4.504   4.992 -31.546  1.00  0.00     0.118 A 
ENDROOT
BRANCH   7   8
ATOM      8  O   UNL     1       5.414   4.971 -32.606  1.00  0.00    -0.508 OA
ATOM      9  H   UNL     1       6.338   4.567 -32.532  1.00  0.00     0.293 HD
ENDBRANCH   7   8
TORSDOF 1
ENDMDL
MODEL 8
REMARK VINA RESULT:    -4.188      1.902      1.983
REMARK INTER + INTRA:          -4.310
REMARK INTER:                  -4.310
REMARK INTRA:                   0.000
REMARK UNBOUND:                 0.000
REMARK SMILES Cc1ccccc1O
REMARK SMILES IDX 1 1 2 2 3 3 4 4 5 5 6 6 7 7 8 8
REMARK H PARENT 8 9
REMARK Flexibility Score: inf
ROOT
ATOM      1  C   UNL     1       4.043   5.170 -33.310  1.00  0.00     0.048 C 
ATOM      2  C   UNL     1       3.420   5.196 -31.942  1.00  0.00    -0.009 A 
ATOM      3  C   UNL     1       4.243   5.312 -30.806  1.00  0.00     0.007 A 
ATOM      4  C   UNL     1       3.684   5.339 -29.527  1.00  0.00     0.001 A 
ATOM      5  C   UNL     1       2.301   5.250 -29.366  1.00  0.00     0.004 A 
ATOM      6  C   UNL     1       1.473   5.133 -30.483  1.00  0.00     0.046 A 
ATOM      7  C   UNL     1       2.019   5.106 -31.772  1.00  0.00     0.118 A 
ENDROOT
BRANCH   7   8
ATOM      8  O   UNL     1       1.149   4.989 -32.859  1.00  0.00    -0.508 OA
ATOM      9  H   UNL     1       1.388   4.490 -33.705  1.00  0.00     0.293 HD
ENDBRANCH   7   8
TORSDOF 1
ENDMDL
MODEL 9
REMARK VINA RESULT:    -4.137      1.797      3.182
REMARK INTER + INTRA:          -4.258
REMARK INTER:                  -4.258
REMARK INTRA:                   0.000
REMARK UNBOUND:                 0.000
REMARK SMILES Cc1ccccc1O
REMARK SMILES IDX 1 1 2 2 3 3 4 4 5 5 6 6 7 7 8 8
REMARK H PARENT 8 9
REMARK Flexibility Score: inf
ROOT
ATOM      1  C   UNL     1       1.901   5.387 -29.643  1.00  0.00     0.048 C 
ATOM      2  C   UNL     1       2.783   4.729 -30.668  1.00  0.00    -0.009 A 
ATOM      3  C   UNL     1       4.025   4.197 -30.277  1.00  0.00     0.007 A 
ATOM      4  C   UNL     1       4.858   3.581 -31.213  1.00  0.00     0.001 A 
ATOM      5  C   UNL     1       4.464   3.490 -32.548  1.00  0.00     0.004 A 
ATOM      6  C   UNL     1       3.234   4.014 -32.950  1.00  0.00     0.046 A 
ATOM      7  C   UNL     1       2.388   4.634 -32.023  1.00  0.00     0.118 A 
ENDROOT
BRANCH   7   8
ATOM      8  O   UNL     1       1.168   5.142 -32.475  1.00  0.00    -0.508 OA
ATOM      9  H   UNL     1       0.659   4.744 -33.254  1.00  0.00     0.293 HD
ENDBRANCH   7   8
TORSDOF 1
ENDMDL
