MODEL 1
REMARK VINA RESULT:    -4.307      0.000      0.000
REMARK INTER + INTRA:          -6.113
REMARK INTER:                  -5.818
REMARK INTRA:                  -0.295
REMARK UNBOUND:                -0.295
REMARK SMILES CCCCCCCC(=O)[O-]
REMARK SMILES IDX 5 1 6 2 7 3 8 4 9 5 10 6 4 7 3 8 2 9 1 10
REMARK H PARENT
REMARK Flexibility Score: inf
ROOT
ATOM      1  C   UNL     1       1.766  42.454  12.290  1.00  0.00     0.000 C 
ENDROOT
BRANCH   1   2
ATOM      2  C   UNL     1       2.135  43.819  11.698  1.00  0.00     0.006 C 
BRANCH   2   3
ATOM      3  C   UNL     1       3.610  44.146  11.949  1.00  0.00     0.053 C 
BRANCH   3   4
ATOM      4  C   UNL     1       4.259  44.636  10.693  1.00  0.00     0.041 C 
ATOM      5  O   UNL     1       4.670  45.823  10.613  1.00  0.00    -0.550 OA
ATOM      6  O   UNL     1       4.364  43.795   9.591  1.00  0.00    -0.550 OA
ENDBRANCH   3   4
ENDBRANCH   2   3
ENDBRANCH   1   2
BRANCH   1   7
ATOM      7  C   UNL     1       2.860  41.417  12.008  1.00  0.00     0.000 C 
BRANCH   7   8
ATOM      8  C   UNL     1       2.525  40.071  12.667  1.00  0.00    -0.000 C 
BRANCH   8   9
ATOM      9  C   UNL     1       3.758  39.170  12.831  1.00  0.00    -0.003 C 
ATOM     10  C   UNL     1       4.999  39.943  13.280  1.00  0.00     0.004 C 
ENDBRANCH   8   9
ENDBRANCH   7   8
ENDBRANCH   1   7
TORSDOF 6
ENDMDL
MODEL 2
REMARK VINA RESULT:    -4.280     12.359     14.289
REMARK INTER + INTRA:          -6.077
REMARK INTER:                  -5.637
REMARK INTRA:                  -0.440
REMARK UNBOUND:                -0.295
REMARK SMILES CCCCCCCC(=O)[O-]
REMARK SMILES IDX 5 1 6 2 7 3 8 4 9 5 10 6 4 7 3 8 2 9 1 10
REMARK H PARENT
REMARK Flexibility Score: inf
ROOT
ATOM      1  C   UNL     1      13.277  32.498  13.802  1.00  0.00     0.000 C 
ENDROOT
BRANCH   1   2
ATOM      2  C   UNL     1      13.599  33.920  14.277  1.00  0.00     0.006 C 
BRANCH   2   3
ATOM      3  C   UNL     1      14.445  34.666  13.241  1.00  0.00     0.053 C 
BRANCH   3   4
ATOM      4  C   UNL     1      13.738  35.901  12.778  1.00  0.00     0.041 C 
ATOM      5  O   UNL     1      12.848  36.428  13.495  1.00  0.00    -0.550 OA
ATOM      6  O   UNL     1      14.028  36.441  11.531  1.00  0.00    -0.550 OA
ENDBRANCH   3   4
ENDBRANCH   2   3
ENDBRANCH   1   2
BRANCH   1   7
ATOM      7  C   UNL     1      13.905  32.219  12.431  1.00  0.00     0.000 C 
BRANCH   7   8
ATOM      8  C   UNL     1      14.650  30.876  12.431  1.00  0.00    -0.000 C 
BRANCH   8   9
ATOM      9  C   UNL     1      16.176  31.047  12.478  1.00  0.00    -0.003 C 
ATOM     10  C   UNL     1      16.738  30.957  13.897  1.00  0.00     0.004 C 
ENDBRANCH   8   9
ENDBRANCH   7   8
ENDBRANCH   1   7
TORSDOF 6
ENDMDL
MODEL 3
REMARK VINA RESULT:    -4.191      2.657      5.653
REMARK INTER + INTRA:          -5.956
REMARK INTER:                  -5.679
REMARK INTRA:                  -0.277
REMARK UNBOUND:                -0.295
REMARK SMILES CCCCCCCC(=O)[O-]
REMARK SMILES IDX 5 1 6 2 7 3 8 4 9 5 10 6 4 7 3 8 2 9 1 10
REMARK H PARENT
REMARK Flexibility Score: inf
ROOT
ATOM      1  C   UNL     1       4.470  45.193  10.675  1.00  0.00     0.000 C 
ENDROOT
BRANCH   1   2
ATOM      2  C   UNL     1       3.994  44.446  11.927  1.00  0.00     0.006 C 
BRANCH   2   3
ATOM      3  C   UNL     1       2.569  43.916  11.740  1.00  0.00     0.053 C 
BRANCH   3   4
ATOM      4  C   UNL     1       2.592  42.574  11.079  1.00  0.00     0.041 C 
ATOM      5  O   UNL     1       2.847  41.540  11.751  1.00  0.00    -0.550 OA
ATOM      6  O   UNL     1       2.382  42.470   9.709  1.00  0.00    -0.550 OA
ENDBRANCH   3   4
ENDBRANCH   2   3
ENDBRANCH   1   2
BRANCH   1   7
ATOM      7  C   UNL     1       3.722  46.521  10.507  1.00  0.00     0.000 C 
BRANCH   7   8
ATOM      8  C   UNL     1       4.701  47.672  10.233  1.00  0.00    -0.000 C 
BRANCH   8   9
ATOM      9  C   UNL     1       5.645  47.377   9.058  1.00  0.00    -0.003 C 
ATOM     10  C   UNL     1       7.114  47.625   9.402  1.00  0.00     0.004 C 
ENDBRANCH   8   9
ENDBRANCH   7   8
ENDBRANCH   1   7
TORSDOF 6
ENDMDL
MODEL 4
REMARK VINA RESULT:    -4.138      2.756      4.271
REMARK INTER + INTRA:          -5.884
REMARK INTER:                  -5.622
REMARK INTRA:                  -0.262
REMARK UNBOUND:                -0.295
REMARK SMILES CCCCCCCC(=O)[O-]
REMARK SMILES IDX 5 1 6 2 7 3 8 4 9 5 10 6 4 7 3 8 2 9 1 10
REMARK H PARENT
REMARK Flexibility Score: inf
ROOT
ATOM      1  C   UNL     1       4.210  44.902   9.806  1.00  0.00     0.000 C 
ENDROOT
BRANCH   1   2
ATOM      2  C   UNL     1       4.567  46.182   9.041  1.00  0.00     0.006 C 
BRANCH   2   3
ATOM      3  C   UNL     1       5.180  47.228   9.977  1.00  0.00     0.053 C 
BRANCH   3   4
ATOM      4  C   UNL     1       6.366  47.876   9.334  1.00  0.00     0.041 C 
ATOM      5  O   UNL     1       7.520  47.406   9.514  1.00  0.00    -0.550 OA
ATOM      6  O   UNL     1       6.202  49.029   8.576  1.00  0.00    -0.550 OA
ENDBRANCH   3   4
ENDBRANCH   2   3
ENDBRANCH   1   2
BRANCH   1   7
ATOM      7  C   UNL     1       3.799  45.219  11.249  1.00  0.00     0.000 C 
BRANCH   7   8
ATOM      8  C   UNL     1       4.029  44.008  12.165  1.00  0.00    -0.000 C 
BRANCH   8   9
ATOM      9  C   UNL     1       3.292  42.751  11.677  1.00  0.00    -0.003 C 
ATOM     10  C   UNL     1       1.774  42.871  11.800  1.00  0.00     0.004 C 
ENDBRANCH   8   9
ENDBRANCH   7   8
ENDBRANCH   1   7
TORSDOF 6
ENDMDL
MODEL 5
REMARK VINA RESULT:    -4.067      4.279      7.323
REMARK INTER + INTRA:          -5.789
REMARK INTER:                  -5.362
REMARK INTRA:                  -0.427
REMARK UNBOUND:                -0.295
REMARK SMILES CCCCCCCC(=O)[O-]
REMARK SMILES IDX 5 1 6 2 7 3 8 4 9 5 10 6 4 7 3 8 2 9 1 10
REMARK H PARENT
REMARK Flexibility Score: inf
ROOT
ATOM      1  C   UNL     1       6.549  47.753   9.344  1.00  0.00     0.000 C 
ENDROOT
BRANCH   1   2
ATOM      2  C   UNL     1       5.277  46.986   8.961  1.00  0.00     0.006 C 
BRANCH   2   3
ATOM      3  C   UNL     1       4.800  46.103  10.117  1.00  0.00     0.053 C 
BRANCH   3   4
ATOM      4  C   UNL     1       3.813  45.089   9.630  1.00  0.00     0.041 C 
ATOM      5  O   UNL     1       2.591  45.380   9.553  1.00  0.00    -0.550 OA
ATOM      6  O   UNL     1       4.237  43.805   9.308  1.00  0.00    -0.550 OA
ENDBRANCH   3   4
ENDBRANCH   2   3
ENDBRANCH   1   2
BRANCH   1   7
ATOM      7  C   UNL     1       6.389  49.255   9.075  1.00  0.00     0.000 C 
BRANCH   7   8
ATOM      8  C   UNL     1       5.805  49.973  10.301  1.00  0.00    -0.000 C 
BRANCH   8   9
ATOM      9  C   UNL     1       4.362  50.447  10.075  1.00  0.00    -0.003 C 
ATOM     10  C   UNL     1       3.330  49.541  10.748  1.00  0.00     0.004 C 
ENDBRANCH   8   9
ENDBRANCH   7   8
ENDBRANCH   1   7
TORSDOF 6
ENDMDL
MODEL 6
REMARK VINA RESULT:    -4.061      2.747      4.446
REMARK INTER + INTRA:          -5.780
REMARK INTER:                  -5.532
REMARK INTRA:                  -0.248
REMARK UNBOUND:                -0.295
REMARK SMILES CCCCCCCC(=O)[O-]
REMARK SMILES IDX 5 1 6 2 7 3 8 4 9 5 10 6 4 7 3 8 2 9 1 10
REMARK H PARENT
REMARK Flexibility Score: inf
ROOT
ATOM      1  C   UNL     1       4.121  46.168  10.814  1.00  0.00     0.000 C 
ENDROOT
BRANCH   1   2
ATOM      2  C   UNL     1       4.889  46.185   9.488  1.00  0.00     0.006 C 
BRANCH   2   3
ATOM      3  C   UNL     1       4.970  47.604   8.918  1.00  0.00     0.053 C 
BRANCH   3   4
ATOM      4  C   UNL     1       6.364  48.135   9.028  1.00  0.00     0.041 C 
ATOM      5  O   UNL     1       7.268  47.438   9.558  1.00  0.00    -0.550 OA
ATOM      6  O   UNL     1       6.655  49.422   8.590  1.00  0.00    -0.550 OA
ENDBRANCH   3   4
ENDBRANCH   2   3
ENDBRANCH   1   2
BRANCH   1   7
ATOM      7  C   UNL     1       4.021  44.743  11.375  1.00  0.00     0.000 C 
BRANCH   7   8
ATOM      8  C   UNL     1       3.953  43.710  10.242  1.00  0.00    -0.000 C 
BRANCH   8   9
ATOM      9  C   UNL     1       2.713  42.808  10.339  1.00  0.00    -0.003 C 
ATOM     10  C   UNL     1       2.617  42.076  11.678  1.00  0.00     0.004 C 
ENDBRANCH   8   9
ENDBRANCH   7   8
ENDBRANCH   1   7
TORSDOF 6
ENDMDL
MODEL 7
REMARK VINA RESULT:    -4.055      2.999      5.261
REMARK INTER + INTRA:          -5.772
REMARK INTER:                  -5.536
REMARK INTRA:                  -0.237
REMARK UNBOUND:                -0.295
REMARK SMILES CCCCCCCC(=O)[O-]
REMARK SMILES IDX 5 1 6 2 7 3 8 4 9 5 10 6 4 7 3 8 2 9 1 10
REMARK H PARENT
REMARK Flexibility Score: inf
ROOT
ATOM      1  C   UNL     1       2.845  43.019  11.714  1.00  0.00     0.000 C 
ENDROOT
BRANCH   1   2
ATOM      2  C   UNL     1       3.660  41.757  12.018  1.00  0.00     0.006 C 
BRANCH   2   3
ATOM      3  C   UNL     1       2.740  40.568  12.314  1.00  0.00     0.053 C 
BRANCH   3   4
ATOM      4  C   UNL     1       3.542  39.375  12.727  1.00  0.00     0.041 C 
ATOM      5  O   UNL     1       3.078  38.215  12.575  1.00  0.00    -0.550 OA
ATOM      6  O   UNL     1       4.784  39.546  13.327  1.00  0.00    -0.550 OA
ENDBRANCH   3   4
ENDBRANCH   2   3
ENDBRANCH   1   2
BRANCH   1   7
ATOM      7  C   UNL     1       2.723  43.246  10.202  1.00  0.00     0.000 C 
BRANCH   7   8
ATOM      8  C   UNL     1       4.063  43.698   9.604  1.00  0.00    -0.000 C 
BRANCH   8   9
ATOM      9  C   UNL     1       4.094  45.203   9.294  1.00  0.00    -0.003 C 
ATOM     10  C   UNL     1       4.578  46.041  10.478  1.00  0.00     0.004 C 
ENDBRANCH   8   9
ENDBRANCH   7   8
ENDBRANCH   1   7
TORSDOF 6
ENDMDL
MODEL 8
REMARK VINA RESULT:    -3.998      2.540      3.647
REMARK INTER + INTRA:          -5.695
REMARK INTER:                  -5.178
REMARK INTRA:                  -0.517
REMARK UNBOUND:                -0.295
REMARK SMILES CCCCCCCC(=O)[O-]
REMARK SMILES IDX 5 1 6 2 7 3 8 4 9 5 10 6 4 7 3 8 2 9 1 10
REMARK H PARENT
REMARK Flexibility Score: inf
ROOT
ATOM      1  C   UNL     1       4.110  43.982   9.583  1.00  0.00     0.000 C 
ENDROOT
BRANCH   1   2
ATOM      2  C   UNL     1       4.387  44.968  10.723  1.00  0.00     0.006 C 
BRANCH   2   3
ATOM      3  C   UNL     1       3.827  46.356  10.397  1.00  0.00     0.053 C 
BRANCH   3   4
ATOM      4  C   UNL     1       4.552  46.952   9.231  1.00  0.00     0.041 C 
ATOM      5  O   UNL     1       3.914  47.327   8.213  1.00  0.00    -0.550 OA
ATOM      6  O   UNL     1       5.939  47.046   9.249  1.00  0.00    -0.550 OA
ENDBRANCH   3   4
ENDBRANCH   2   3
ENDBRANCH   1   2
BRANCH   1   7
ATOM      7  C   UNL     1       2.761  43.277   9.777  1.00  0.00     0.000 C 
BRANCH   7   8
ATOM      8  C   UNL     1       2.740  42.485  11.092  1.00  0.00    -0.000 C 
BRANCH   8   9
ATOM      9  C   UNL     1       1.524  42.824  11.967  1.00  0.00    -0.003 C 
ATOM     10  C   UNL     1       0.806  44.096  11.514  1.00  0.00     0.004 C 
ENDBRANCH   8   9
ENDBRANCH   7   8
ENDBRANCH   1   7
TORSDOF 6
ENDMDL
MODEL 9
REMARK VINA RESULT:    -3.982      2.988      4.495
REMARK INTER + INTRA:          -5.674
REMARK INTER:                  -5.370
REMARK INTRA:                  -0.304
REMARK UNBOUND:                -0.295
REMARK SMILES CCCCCCCC(=O)[O-]
REMARK SMILES IDX 5 1 6 2 7 3 8 4 9 5 10 6 4 7 3 8 2 9 1 10
REMARK H PARENT
REMARK Flexibility Score: inf
ROOT
ATOM      1  C   UNL     1       4.018  46.043  10.852  1.00  0.00     0.000 C 
ENDROOT
BRANCH   1   2
ATOM      2  C   UNL     1       4.465  46.036   9.385  1.00  0.00     0.006 C 
BRANCH   2   3
ATOM      3  C   UNL     1       5.392  47.219   9.088  1.00  0.00     0.053 C 
BRANCH   3   4
ATOM      4  C   UNL     1       4.689  48.239   8.250  1.00  0.00     0.041 C 
ATOM      5  O   UNL     1       3.699  47.908   7.546  1.00  0.00    -0.550 OA
ATOM      6  O   UNL     1       5.158  49.546   8.206  1.00  0.00    -0.550 OA
ENDBRANCH   3   4
ENDBRANCH   2   3
ENDBRANCH   1   2
BRANCH   1   7
ATOM      7  C   UNL     1       4.124  44.641  11.466  1.00  0.00     0.000 C 
BRANCH   7   8
ATOM      8  C   UNL     1       2.732  44.050  11.729  1.00  0.00    -0.000 C 
BRANCH   8   9
ATOM      9  C   UNL     1       2.512  42.712  11.006  1.00  0.00    -0.003 C 
ATOM     10  C   UNL     1       2.408  42.870   9.489  1.00  0.00     0.004 C 
ENDBRANCH   8   9
ENDBRANCH   7   8
ENDBRANCH   1   7
TORSDOF 6
ENDMDL
