MODEL 1
REMARK VINA RESULT:    -7.824      0.000      0.000
REMARK INTER + INTRA:          -9.514
REMARK INTER:                  -9.197
REMARK INTRA:                  -0.318
REMARK UNBOUND:                -0.318
REMARK SMILES O=c1cc(-c2ccc(O)c(O)c2)oc2cc(O)cc(O)c12
REMARK SMILES IDX 4 1 3 2 2 3 1 4 21 5 19 6 18 7 16 8 15 9 14 10 13 11 5 12
REMARK SMILES IDX 6 13 7 14 8 15 12 16 10 17 9 18 11 20 20 22 17 24
REMARK H PARENT 9 19 11 21 20 23 17 25
REMARK Flexibility Score: inf
ROOT
ATOM      1  C   UNL     1      23.724  62.794  30.786  1.00  0.00     0.138 A 
ATOM      2  C   UNL     1      24.439  61.596  30.922  1.00  0.00     0.100 A 
ATOM      3  C   UNL     1      24.696  61.085  32.195  1.00  0.00     0.197 A 
ATOM      4  O   UNL     1      25.285  59.977  32.282  1.00  0.00    -0.289 OA
ATOM      5  C   UNL     1      24.260  61.796  33.339  1.00  0.00     0.107 A 
ATOM      6  C   UNL     1      24.500  61.392  34.686  1.00  0.00     0.134 A 
ATOM      7  C   UNL     1      23.920  62.115  35.735  1.00  0.00     0.093 A 
ATOM      8  C   UNL     1      23.159  63.260  35.490  1.00  0.00     0.123 A 
ATOM      9  C   UNL     1      22.965  63.693  34.180  1.00  0.00     0.094 A 
ATOM     10  C   UNL     1      23.501  62.974  33.109  1.00  0.00     0.146 A 
ATOM     11  O   UNL     1      23.279  63.413  31.875  1.00  0.00    -0.456 OA
ENDROOT
BRANCH   1  12
ATOM     12  C   UNL     1      23.426  63.382  29.456  1.00  0.00     0.021 A 
ATOM     13  C   UNL     1      23.962  62.785  28.301  1.00  0.00     0.016 A 
ATOM     14  C   UNL     1      23.690  63.315  27.036  1.00  0.00     0.051 A 
ATOM     15  C   UNL     1      22.871  64.442  26.902  1.00  0.00     0.157 A 
ATOM     16  C   UNL     1      22.592  64.508  29.313  1.00  0.00     0.062 A 
ATOM     17  C   UNL     1      22.317  65.039  28.048  1.00  0.00     0.158 A 
BRANCH  15  18
ATOM     18  O   UNL     1      22.603  64.968  25.640  1.00  0.00    -0.504 OA
ATOM     19  H   UNL     1      22.566  65.968  25.479  1.00  0.00     0.293 HD
ENDBRANCH  15  18
BRANCH  17  20
ATOM     20  O   UNL     1      21.488  66.156  27.947  1.00  0.00    -0.504 OA
ATOM     21  H   UNL     1      21.843  67.067  27.686  1.00  0.00     0.293 HD
ENDBRANCH  17  20
ENDBRANCH   1  12
BRANCH   6  22
ATOM     22  O   UNL     1      25.314  60.314  35.045  1.00  0.00    -0.507 OA
ATOM     23  H   UNL     1      24.991  59.367  35.180  1.00  0.00     0.293 HD
ENDBRANCH   6  22
BRANCH   8  24
ATOM     24  O   UNL     1      22.598  63.981  36.541  1.00  0.00    -0.508 OA
ATOM     25  H   UNL     1      23.155  64.611  37.108  1.00  0.00     0.293 HD
ENDBRANCH   8  24
TORSDOF 5
ENDMDL
MODEL 2
REMARK VINA RESULT:    -7.731      2.148      3.318
REMARK INTER + INTRA:          -9.405
REMARK INTER:                  -9.117
REMARK INTRA:                  -0.288
REMARK UNBOUND:                -0.318
REMARK SMILES O=c1cc(-c2ccc(O)c(O)c2)oc2cc(O)cc(O)c12
REMARK SMILES IDX 4 1 3 2 2 3 1 4 21 5 19 6 18 7 16 8 15 9 14 10 13 11 5 12
REMARK SMILES IDX 6 13 7 14 8 15 12 16 10 17 9 18 11 20 20 22 17 24
REMARK H PARENT 9 19 11 21 20 23 17 25
REMARK Flexibility Score: inf
ROOT
ATOM      1  C   UNL     1      22.816  63.125  32.143  1.00  0.00     0.138 A 
ATOM      2  C   UNL     1      22.311  63.381  33.425  1.00  0.00     0.100 A 
ATOM      3  C   UNL     1      23.133  63.203  34.539  1.00  0.00     0.197 A 
ATOM      4  O   UNL     1      22.671  63.500  35.671  1.00  0.00    -0.289 OA
ATOM      5  C   UNL     1      24.458  62.735  34.367  1.00  0.00     0.107 A 
ATOM      6  C   UNL     1      25.373  62.479  35.433  1.00  0.00     0.134 A 
ATOM      7  C   UNL     1      26.696  62.130  35.135  1.00  0.00     0.093 A 
ATOM      8  C   UNL     1      27.121  61.970  33.814  1.00  0.00     0.123 A 
ATOM      9  C   UNL     1      26.221  62.166  32.770  1.00  0.00     0.094 A 
ATOM     10  C   UNL     1      24.903  62.549  33.032  1.00  0.00     0.146 A 
ATOM     11  O   UNL     1      24.081  62.740  32.006  1.00  0.00    -0.456 OA
ENDROOT
BRANCH   1  12
ATOM     12  C   UNL     1      21.985  63.297  30.925  1.00  0.00     0.021 A 
ATOM     13  C   UNL     1      22.239  62.497  29.796  1.00  0.00     0.016 A 
ATOM     14  C   UNL     1      21.466  62.634  28.640  1.00  0.00     0.051 A 
ATOM     15  C   UNL     1      20.420  63.563  28.594  1.00  0.00     0.157 A 
ATOM     16  C   UNL     1      20.922  64.221  30.876  1.00  0.00     0.062 A 
ATOM     17  C   UNL     1      20.146  64.358  29.720  1.00  0.00     0.158 A 
BRANCH  15  18
ATOM     18  O   UNL     1      19.652  63.698  27.438  1.00  0.00    -0.504 OA
ATOM     19  H   UNL     1      19.733  63.044  26.669  1.00  0.00     0.293 HD
ENDBRANCH  15  18
BRANCH  17  20
ATOM     20  O   UNL     1      19.104  65.285  29.710  1.00  0.00    -0.504 OA
ATOM     21  H   UNL     1      19.062  66.040  29.037  1.00  0.00     0.293 HD
ENDBRANCH  17  20
ENDBRANCH   1  12
BRANCH   6  22
ATOM     22  O   UNL     1      25.029  62.527  36.787  1.00  0.00    -0.507 OA
ATOM     23  H   UNL     1      25.623  62.224  37.544  1.00  0.00     0.293 HD
ENDBRANCH   6  22
BRANCH   8  24
ATOM     24  O   UNL     1      28.435  61.609  33.529  1.00  0.00    -0.508 OA
ATOM     25  H   UNL     1      28.693  61.211  32.633  1.00  0.00     0.293 HD
ENDBRANCH   8  24
TORSDOF 5
ENDMDL
MODEL 3
REMARK VINA RESULT:    -7.560      2.442      6.984
REMARK INTER + INTRA:          -9.204
REMARK INTER:                  -8.937
REMARK INTRA:                  -0.267
REMARK UNBOUND:                -0.318
REMARK SMILES O=c1cc(-c2ccc(O)c(O)c2)oc2cc(O)cc(O)c12
REMARK SMILES IDX 4 1 3 2 2 3 1 4 21 5 19 6 18 7 16 8 15 9 14 10 13 11 5 12
REMARK SMILES IDX 6 13 7 14 8 15 12 16 10 17 9 18 11 20 20 22 17 24
REMARK H PARENT 9 19 11 21 20 23 17 25
REMARK Flexibility Score: inf
ROOT
ATOM      1  C   UNL     1      22.979  62.871  31.447  1.00  0.00     0.138 A 
ATOM      2  C   UNL     1      23.444  63.841  30.548  1.00  0.00     0.100 A 
ATOM      3  C   UNL     1      22.972  63.848  29.235  1.00  0.00     0.197 A 
ATOM      4  O   UNL     1      23.361  64.768  28.469  1.00  0.00    -0.289 OA
ATOM      5  C   UNL     1      22.054  62.857  28.812  1.00  0.00     0.107 A 
ATOM      6  C   UNL     1      21.537  62.742  27.486  1.00  0.00     0.134 A 
ATOM      7  C   UNL     1      20.545  61.792  27.215  1.00  0.00     0.093 A 
ATOM      8  C   UNL     1      20.095  60.915  28.204  1.00  0.00     0.123 A 
ATOM      9  C   UNL     1      20.633  60.985  29.486  1.00  0.00     0.094 A 
ATOM     10  C   UNL     1      21.599  61.944  29.799  1.00  0.00     0.146 A 
ATOM     11  O   UNL     1      22.075  61.986  31.039  1.00  0.00    -0.456 OA
ENDROOT
BRANCH   1  12
ATOM     12  C   UNL     1      23.448  62.818  32.854  1.00  0.00     0.021 A 
ATOM     13  C   UNL     1      24.701  62.249  33.143  1.00  0.00     0.016 A 
ATOM     14  C   UNL     1      25.170  62.193  34.459  1.00  0.00     0.051 A 
ATOM     15  C   UNL     1      24.400  62.713  35.506  1.00  0.00     0.157 A 
ATOM     16  C   UNL     1      22.685  63.351  33.911  1.00  0.00     0.062 A 
ATOM     17  C   UNL     1      23.153  63.297  35.229  1.00  0.00     0.158 A 
BRANCH  15  18
ATOM     18  O   UNL     1      24.870  62.655  36.818  1.00  0.00    -0.504 OA
ATOM     19  H   UNL     1      24.268  62.857  37.606  1.00  0.00     0.293 HD
ENDBRANCH  15  18
BRANCH  17  20
ATOM     20  O   UNL     1      22.368  63.834  36.249  1.00  0.00    -0.504 OA
ATOM     21  H   UNL     1      21.488  63.417  36.527  1.00  0.00     0.293 HD
ENDBRANCH  17  20
ENDBRANCH   1  12
BRANCH   6  22
ATOM     22  O   UNL     1      21.979  63.511  26.406  1.00  0.00    -0.507 OA
ATOM     23  H   UNL     1      22.227  64.488  26.457  1.00  0.00     0.293 HD
ENDBRANCH   6  22
BRANCH   8  24
ATOM     24  O   UNL     1      19.118  59.963  27.920  1.00  0.00    -0.508 OA
ATOM     25  H   UNL     1      19.192  59.010  28.258  1.00  0.00     0.293 HD
ENDBRANCH   8  24
TORSDOF 5
ENDMDL
MODEL 4
REMARK VINA RESULT:    -7.546      1.845      7.081
REMARK INTER + INTRA:          -9.187
REMARK INTER:                  -8.891
REMARK INTRA:                  -0.297
REMARK UNBOUND:                -0.318
REMARK SMILES O=c1cc(-c2ccc(O)c(O)c2)oc2cc(O)cc(O)c12
REMARK SMILES IDX 4 1 3 2 2 3 1 4 21 5 19 6 18 7 16 8 15 9 14 10 13 11 5 12
REMARK SMILES IDX 6 13 7 14 8 15 12 16 10 17 9 18 11 20 20 22 17 24
REMARK H PARENT 9 19 11 21 20 23 17 25
REMARK Flexibility Score: inf
ROOT
ATOM      1  C   UNL     1      23.566  63.040  31.935  1.00  0.00     0.138 A 
ATOM      2  C   UNL     1      22.254  63.374  32.299  1.00  0.00     0.100 A 
ATOM      3  C   UNL     1      21.336  63.740  31.314  1.00  0.00     0.197 A 
ATOM      4  O   UNL     1      20.151  63.974  31.664  1.00  0.00    -0.289 OA
ATOM      5  C   UNL     1      21.746  63.803  29.960  1.00  0.00     0.107 A 
ATOM      6  C   UNL     1      20.908  64.203  28.876  1.00  0.00     0.134 A 
ATOM      7  C   UNL     1      21.389  64.114  27.565  1.00  0.00     0.093 A 
ATOM      8  C   UNL     1      22.696  63.697  27.302  1.00  0.00     0.123 A 
ATOM      9  C   UNL     1      23.538  63.357  28.357  1.00  0.00     0.094 A 
ATOM     10  C   UNL     1      23.078  63.401  29.675  1.00  0.00     0.146 A 
ATOM     11  O   UNL     1      23.909  63.054  30.651  1.00  0.00    -0.456 OA
ENDROOT
BRANCH   1  12
ATOM     12  C   UNL     1      24.582  62.645  32.943  1.00  0.00     0.021 A 
ATOM     13  C   UNL     1      25.859  62.241  32.515  1.00  0.00     0.016 A 
ATOM     14  C   UNL     1      26.836  61.872  33.444  1.00  0.00     0.051 A 
ATOM     15  C   UNL     1      26.557  61.908  34.816  1.00  0.00     0.157 A 
ATOM     16  C   UNL     1      24.313  62.691  34.326  1.00  0.00     0.062 A 
ATOM     17  C   UNL     1      25.290  62.323  35.257  1.00  0.00     0.158 A 
BRANCH  15  18
ATOM     18  O   UNL     1      27.534  61.537  35.740  1.00  0.00    -0.504 OA
ATOM     19  H   UNL     1      28.478  61.899  35.687  1.00  0.00     0.293 HD
ENDBRANCH  15  18
BRANCH  17  20
ATOM     20  O   UNL     1      24.985  62.380  36.617  1.00  0.00    -0.504 OA
ATOM     21  H   UNL     1      24.804  63.256  37.091  1.00  0.00     0.293 HD
ENDBRANCH  17  20
ENDBRANCH   1  12
BRANCH   6  22
ATOM     22  O   UNL     1      19.616  64.714  29.034  1.00  0.00    -0.507 OA
ATOM     23  H   UNL     1      19.230  65.480  28.502  1.00  0.00     0.293 HD
ENDBRANCH   6  22
BRANCH   8  24
ATOM     24  O   UNL     1      23.171  63.627  25.994  1.00  0.00    -0.508 OA
ATOM     25  H   UNL     1      23.874  62.949  25.721  1.00  0.00     0.293 HD
ENDBRANCH   8  24
TORSDOF 5
ENDMDL
MODEL 5
REMARK VINA RESULT:    -7.468      1.448      7.271
REMARK INTER + INTRA:          -9.095
REMARK INTER:                  -8.804
REMARK INTRA:                  -0.291
REMARK UNBOUND:                -0.318
REMARK SMILES O=c1cc(-c2ccc(O)c(O)c2)oc2cc(O)cc(O)c12
REMARK SMILES IDX 4 1 3 2 2 3 1 4 21 5 19 6 18 7 16 8 15 9 14 10 13 11 5 12
REMARK SMILES IDX 6 13 7 14 8 15 12 16 10 17 9 18 11 20 20 22 17 24
REMARK H PARENT 9 19 11 21 20 23 17 25
REMARK Flexibility Score: inf
ROOT
ATOM      1  C   UNL     1      23.654  62.974  31.165  1.00  0.00     0.138 A 
ATOM      2  C   UNL     1      22.682  63.963  31.369  1.00  0.00     0.100 A 
ATOM      3  C   UNL     1      22.228  64.718  30.287  1.00  0.00     0.197 A 
ATOM      4  O   UNL     1      21.311  65.556  30.490  1.00  0.00    -0.289 OA
ATOM      5  C   UNL     1      22.776  64.503  28.999  1.00  0.00     0.107 A 
ATOM      6  C   UNL     1      22.420  65.241  27.831  1.00  0.00     0.134 A 
ATOM      7  C   UNL     1      22.943  64.860  26.590  1.00  0.00     0.093 A 
ATOM      8  C   UNL     1      23.855  63.807  26.483  1.00  0.00     0.123 A 
ATOM      9  C   UNL     1      24.250  63.116  27.625  1.00  0.00     0.094 A 
ATOM     10  C   UNL     1      23.719  63.448  28.874  1.00  0.00     0.146 A 
ATOM     11  O   UNL     1      24.112  62.754  29.937  1.00  0.00    -0.456 OA
ENDROOT
BRANCH   1  12
ATOM     12  C   UNL     1      24.171  62.143  32.281  1.00  0.00     0.021 A 
ATOM     13  C   UNL     1      24.718  60.877  32.004  1.00  0.00     0.016 A 
ATOM     14  C   UNL     1      25.219  60.078  33.036  1.00  0.00     0.051 A 
ATOM     15  C   UNL     1      25.193  60.533  34.359  1.00  0.00     0.157 A 
ATOM     16  C   UNL     1      24.160  62.600  33.614  1.00  0.00     0.062 A 
ATOM     17  C   UNL     1      24.662  61.802  34.648  1.00  0.00     0.158 A 
BRANCH  15  18
ATOM     18  O   UNL     1      25.692  59.734  35.386  1.00  0.00    -0.504 OA
ATOM     19  H   UNL     1      25.297  58.824  35.590  1.00  0.00     0.293 HD
ENDBRANCH  15  18
BRANCH  17  20
ATOM     20  O   UNL     1      24.632  62.289  35.954  1.00  0.00    -0.504 OA
ATOM     21  H   UNL     1      24.760  61.685  36.757  1.00  0.00     0.293 HD
ENDBRANCH  17  20
ENDBRANCH   1  12
BRANCH   6  22
ATOM     22  O   UNL     1      21.584  66.361  27.839  1.00  0.00    -0.507 OA
ATOM     23  H   UNL     1      20.577  66.330  27.783  1.00  0.00     0.293 HD
ENDBRANCH   6  22
BRANCH   8  24
ATOM     24  O   UNL     1      24.381  63.445  25.245  1.00  0.00    -0.508 OA
ATOM     25  H   UNL     1      25.379  63.322  25.109  1.00  0.00     0.293 HD
ENDBRANCH   8  24
TORSDOF 5
ENDMDL
MODEL 6
REMARK VINA RESULT:    -7.257      1.491      6.755
REMARK INTER + INTRA:          -8.847
REMARK INTER:                  -8.554
REMARK INTRA:                  -0.293
REMARK UNBOUND:                -0.318
REMARK SMILES O=c1cc(-c2ccc(O)c(O)c2)oc2cc(O)cc(O)c12
REMARK SMILES IDX 4 1 3 2 2 3 1 4 21 5 19 6 18 7 16 8 15 9 14 10 13 11 5 12
REMARK SMILES IDX 6 13 7 14 8 15 12 16 10 17 9 18 11 20 20 22 17 24
REMARK H PARENT 9 19 11 21 20 23 17 25
REMARK Flexibility Score: inf
ROOT
ATOM      1  C   UNL     1      23.587  62.672  31.408  1.00  0.00     0.138 A 
ATOM      2  C   UNL     1      23.794  61.545  30.601  1.00  0.00     0.100 A 
ATOM      3  C   UNL     1      23.501  61.608  29.238  1.00  0.00     0.197 A 
ATOM      4  O   UNL     1      23.757  60.601  28.529  1.00  0.00    -0.289 OA
ATOM      5  C   UNL     1      22.967  62.798  28.689  1.00  0.00     0.107 A 
ATOM      6  C   UNL     1      22.592  62.965  27.321  1.00  0.00     0.134 A 
ATOM      7  C   UNL     1      22.184  64.224  26.868  1.00  0.00     0.093 A 
ATOM      8  C   UNL     1      22.079  65.308  27.743  1.00  0.00     0.123 A 
ATOM      9  C   UNL     1      22.390  65.141  29.090  1.00  0.00     0.094 A 
ATOM     10  C   UNL     1      22.834  63.906  29.568  1.00  0.00     0.146 A 
ATOM     11  O   UNL     1      23.135  63.794  30.857  1.00  0.00    -0.456 OA
ENDROOT
BRANCH   1  12
ATOM     12  C   UNL     1      23.880  62.658  32.863  1.00  0.00     0.021 A 
ATOM     13  C   UNL     1      25.075  62.073  33.322  1.00  0.00     0.016 A 
ATOM     14  C   UNL     1      25.378  62.054  34.686  1.00  0.00     0.051 A 
ATOM     15  C   UNL     1      24.500  62.626  35.614  1.00  0.00     0.157 A 
ATOM     16  C   UNL     1      23.008  63.243  33.802  1.00  0.00     0.062 A 
ATOM     17  C   UNL     1      23.311  63.226  35.168  1.00  0.00     0.158 A 
BRANCH  15  18
ATOM     18  O   UNL     1      24.806  62.604  36.974  1.00  0.00    -0.504 OA
ATOM     19  H   UNL     1      24.380  63.254  37.624  1.00  0.00     0.293 HD
ENDBRANCH  15  18
BRANCH  17  20
ATOM     20  O   UNL     1      22.421  63.815  36.067  1.00  0.00    -0.504 OA
ATOM     21  H   UNL     1      22.655  64.652  36.585  1.00  0.00     0.293 HD
ENDBRANCH  17  20
ENDBRANCH   1  12
BRANCH   6  22
ATOM     22  O   UNL     1      22.579  61.928  26.383  1.00  0.00    -0.507 OA
ATOM     23  H   UNL     1      23.076  61.056  26.481  1.00  0.00     0.293 HD
ENDBRANCH   6  22
BRANCH   8  24
ATOM     24  O   UNL     1      21.657  66.554  27.285  1.00  0.00    -0.508 OA
ATOM     25  H   UNL     1      22.127  67.408  27.562  1.00  0.00     0.293 HD
ENDBRANCH   8  24
TORSDOF 5
ENDMDL
MODEL 7
REMARK VINA RESULT:    -7.232      2.292      4.120
REMARK INTER + INTRA:          -8.818
REMARK INTER:                  -8.528
REMARK INTRA:                  -0.290
REMARK UNBOUND:                -0.318
REMARK SMILES O=c1cc(-c2ccc(O)c(O)c2)oc2cc(O)cc(O)c12
REMARK SMILES IDX 4 1 3 2 2 3 1 4 21 5 19 6 18 7 16 8 15 9 14 10 13 11 5 12
REMARK SMILES IDX 6 13 7 14 8 15 12 16 10 17 9 18 11 20 20 22 17 24
REMARK H PARENT 9 19 11 21 20 23 17 25
REMARK Flexibility Score: inf
ROOT
ATOM      1  C   UNL     1      23.510  63.598  28.361  1.00  0.00     0.138 A 
ATOM      2  C   UNL     1      22.172  64.010  28.312  1.00  0.00     0.100 A 
ATOM      3  C   UNL     1      21.427  64.077  29.491  1.00  0.00     0.197 A 
ATOM      4  O   UNL     1      20.247  64.510  29.424  1.00  0.00    -0.289 OA
ATOM      5  C   UNL     1      22.019  63.697  30.719  1.00  0.00     0.107 A 
ATOM      6  C   UNL     1      21.344  63.686  31.977  1.00  0.00     0.134 A 
ATOM      7  C   UNL     1      22.065  63.404  33.143  1.00  0.00     0.093 A 
ATOM      8  C   UNL     1      23.421  63.073  33.091  1.00  0.00     0.123 A 
ATOM      9  C   UNL     1      24.075  63.029  31.862  1.00  0.00     0.094 A 
ATOM     10  C   UNL     1      23.393  63.340  30.684  1.00  0.00     0.146 A 
ATOM     11  O   UNL     1      24.058  63.299  29.535  1.00  0.00    -0.456 OA
ENDROOT
BRANCH   1  12
ATOM     12  C   UNL     1      24.347  63.507  27.138  1.00  0.00     0.021 A 
ATOM     13  C   UNL     1      25.451  62.636  27.118  1.00  0.00     0.016 A 
ATOM     14  C   UNL     1      26.250  62.527  25.977  1.00  0.00     0.051 A 
ATOM     15  C   UNL     1      25.955  63.277  24.833  1.00  0.00     0.157 A 
ATOM     16  C   UNL     1      24.048  64.250  25.978  1.00  0.00     0.062 A 
ATOM     17  C   UNL     1      24.846  64.141  24.834  1.00  0.00     0.158 A 
BRANCH  15  18
ATOM     18  O   UNL     1      26.755  63.167  23.696  1.00  0.00    -0.504 OA
ATOM     19  H   UNL     1      27.537  63.790  23.536  1.00  0.00     0.293 HD
ENDBRANCH  15  18
BRANCH  17  20
ATOM     20  O   UNL     1      24.519  64.893  23.706  1.00  0.00    -0.504 OA
ATOM     21  H   UNL     1      23.914  65.703  23.756  1.00  0.00     0.293 HD
ENDBRANCH  17  20
ENDBRANCH   1  12
BRANCH   6  22
ATOM     22  O   UNL     1      19.974  63.919  32.130  1.00  0.00    -0.507 OA
ATOM     23  H   UNL     1      19.255  63.550  31.526  1.00  0.00     0.293 HD
ENDBRANCH   6  22
BRANCH   8  24
ATOM     24  O   UNL     1      24.126  62.779  34.256  1.00  0.00    -0.508 OA
ATOM     25  H   UNL     1      24.897  63.358  34.570  1.00  0.00     0.293 HD
ENDBRANCH   8  24
TORSDOF 5
ENDMDL
MODEL 8
REMARK VINA RESULT:    -7.232     10.394     12.326
REMARK INTER + INTRA:          -8.818
REMARK INTER:                  -8.500
REMARK INTRA:                  -0.318
REMARK UNBOUND:                -0.318
REMARK SMILES O=c1cc(-c2ccc(O)c(O)c2)oc2cc(O)cc(O)c12
REMARK SMILES IDX 4 1 3 2 2 3 1 4 21 5 19 6 18 7 16 8 15 9 14 10 13 11 5 12
REMARK SMILES IDX 6 13 7 14 8 15 12 16 10 17 9 18 11 20 20 22 17 24
REMARK H PARENT 9 19 11 21 20 23 17 25
REMARK Flexibility Score: inf
ROOT
ATOM      1  C   UNL     1      16.715  56.452  26.179  1.00  0.00     0.138 A 
ATOM      2  C   UNL     1      17.490  57.374  25.462  1.00  0.00     0.100 A 
ATOM      3  C   UNL     1      17.063  58.698  25.353  1.00  0.00     0.197 A 
ATOM      4  O   UNL     1      17.810  59.516  24.757  1.00  0.00    -0.289 OA
ATOM      5  C   UNL     1      15.836  59.092  25.939  1.00  0.00     0.107 A 
ATOM      6  C   UNL     1      15.281  60.404  25.858  1.00  0.00     0.134 A 
ATOM      7  C   UNL     1      14.118  60.706  26.576  1.00  0.00     0.093 A 
ATOM      8  C   UNL     1      13.457  59.728  27.324  1.00  0.00     0.123 A 
ATOM      9  C   UNL     1      13.962  58.431  27.365  1.00  0.00     0.094 A 
ATOM     10  C   UNL     1      15.140  58.106  26.688  1.00  0.00     0.146 A 
ATOM     11  O   UNL     1      15.595  56.860  26.766  1.00  0.00    -0.456 OA
ENDROOT
BRANCH   1  12
ATOM     12  C   UNL     1      17.123  55.032  26.324  1.00  0.00     0.021 A 
ATOM     13  C   UNL     1      18.357  54.610  25.798  1.00  0.00     0.016 A 
ATOM     14  C   UNL     1      18.767  53.280  25.928  1.00  0.00     0.051 A 
ATOM     15  C   UNL     1      17.958  52.352  26.594  1.00  0.00     0.157 A 
ATOM     16  C   UNL     1      16.319  54.096  27.004  1.00  0.00     0.062 A 
ATOM     17  C   UNL     1      16.729  52.764  27.136  1.00  0.00     0.158 A 
BRANCH  15  18
ATOM     18  O   UNL     1      18.370  51.026  26.720  1.00  0.00    -0.504 OA
ATOM     19  H   UNL     1      18.991  50.597  26.045  1.00  0.00     0.293 HD
ENDBRANCH  15  18
BRANCH  17  20
ATOM     20  O   UNL     1      15.905  51.866  27.815  1.00  0.00    -0.504 OA
ATOM     21  H   UNL     1      14.959  52.102  28.084  1.00  0.00     0.293 HD
ENDBRANCH  17  20
ENDBRANCH   1  12
BRANCH   6  22
ATOM     22  O   UNL     1      15.814  61.431  25.073  1.00  0.00    -0.507 OA
ATOM     23  H   UNL     1      16.751  61.443  24.699  1.00  0.00     0.293 HD
ENDBRANCH   6  22
BRANCH   8  24
ATOM     24  O   UNL     1      12.292  60.034  28.023  1.00  0.00    -0.508 OA
ATOM     25  H   UNL     1      11.700  59.308  28.411  1.00  0.00     0.293 HD
ENDBRANCH   8  24
TORSDOF 5
ENDMDL
MODEL 9
REMARK VINA RESULT:    -7.095      1.429      2.694
REMARK INTER + INTRA:          -8.657
REMARK INTER:                  -8.367
REMARK INTRA:                  -0.290
REMARK UNBOUND:                -0.318
REMARK SMILES O=c1cc(-c2ccc(O)c(O)c2)oc2cc(O)cc(O)c12
REMARK SMILES IDX 4 1 3 2 2 3 1 4 21 5 19 6 18 7 16 8 15 9 14 10 13 11 5 12
REMARK SMILES IDX 6 13 7 14 8 15 12 16 10 17 9 18 11 20 20 22 17 24
REMARK H PARENT 9 19 11 21 20 23 17 25
REMARK Flexibility Score: inf
ROOT
ATOM      1  C   UNL     1      23.655  62.918  30.714  1.00  0.00     0.138 A 
ATOM      2  C   UNL     1      22.445  63.340  31.282  1.00  0.00     0.100 A 
ATOM      3  C   UNL     1      22.303  63.359  32.670  1.00  0.00     0.197 A 
ATOM      4  O   UNL     1      21.228  63.802  33.152  1.00  0.00    -0.289 OA
ATOM      5  C   UNL     1      23.369  62.920  33.492  1.00  0.00     0.107 A 
ATOM      6  C   UNL     1      23.323  62.857  34.917  1.00  0.00     0.134 A 
ATOM      7  C   UNL     1      24.480  62.518  35.629  1.00  0.00     0.093 A 
ATOM      8  C   UNL     1      25.663  62.181  34.967  1.00  0.00     0.123 A 
ATOM      9  C   UNL     1      25.701  62.188  33.575  1.00  0.00     0.094 A 
ATOM     10  C   UNL     1      24.575  62.556  32.836  1.00  0.00     0.146 A 
ATOM     11  O   UNL     1      24.659  62.563  31.510  1.00  0.00    -0.456 OA
ENDROOT
BRANCH   1  12
ATOM     12  C   UNL     1      23.858  62.877  29.244  1.00  0.00     0.021 A 
ATOM     13  C   UNL     1      24.810  61.995  28.702  1.00  0.00     0.016 A 
ATOM     14  C   UNL     1      25.015  61.933  27.321  1.00  0.00     0.051 A 
ATOM     15  C   UNL     1      24.267  62.741  26.458  1.00  0.00     0.157 A 
ATOM     16  C   UNL     1      23.099  63.679  28.368  1.00  0.00     0.062 A 
ATOM     17  C   UNL     1      23.303  63.616  26.985  1.00  0.00     0.158 A 
BRANCH  15  18
ATOM     18  O   UNL     1      24.475  62.677  25.081  1.00  0.00    -0.504 OA
ATOM     19  H   UNL     1      25.193  63.229  24.626  1.00  0.00     0.293 HD
ENDBRANCH  15  18
BRANCH  17  20
ATOM     20  O   UNL     1      22.533  64.426  26.150  1.00  0.00    -0.504 OA
ATOM     21  H   UNL     1      22.560  64.339  25.142  1.00  0.00     0.293 HD
ENDBRANCH  17  20
ENDBRANCH   1  12
BRANCH   6  22
ATOM     22  O   UNL     1      22.171  63.091  35.673  1.00  0.00    -0.507 OA
ATOM     23  H   UNL     1      21.582  62.372  36.066  1.00  0.00     0.293 HD
ENDBRANCH   6  22
BRANCH   8  24
ATOM     24  O   UNL     1      26.804  61.830  35.684  1.00  0.00    -0.508 OA
ATOM     25  H   UNL     1      26.989  62.210  36.606  1.00  0.00     0.293 HD
ENDBRANCH   8  24
TORSDOF 5
ENDMDL
