MODEL 1
REMARK VINA RESULT:    -4.642      0.000      0.000
REMARK INTER + INTRA:          -5.063
REMARK INTER:                  -4.914
REMARK INTRA:                  -0.150
REMARK UNBOUND:                -0.150
REMARK SMILES CC1=CC[C@@H](C(C)C)C=C1
REMARK SMILES IDX 1 1 2 2 3 3 4 4 5 5 9 6 10 7 6 8 7 9 8 10
REMARK H PARENT
REMARK Flexibility Score: inf
ROOT
ATOM      1  C   UNL     1       8.750  -2.663  16.734  1.00  0.00     0.044 C 
ATOM      2  C   UNL     1       7.284  -2.401  16.909  1.00  0.00    -0.055 C 
ATOM      3  C   UNL     1       6.728  -2.452  18.131  1.00  0.00    -0.023 C 
ATOM      4  C   UNL     1       5.272  -2.121  18.325  1.00  0.00     0.035 C 
ATOM      5  C   UNL     1       4.430  -2.615  17.122  1.00  0.00     0.018 C 
ATOM      6  C   UNL     1       5.096  -2.218  15.819  1.00  0.00    -0.023 C 
ATOM      7  C   UNL     1       6.429  -2.172  15.722  1.00  0.00    -0.001 C 
ENDROOT
BRANCH   5   8
ATOM      8  C   UNL     1       2.941  -2.167  17.162  1.00  0.00    -0.010 C 
ATOM      9  C   UNL     1       2.604  -1.201  16.018  1.00  0.00     0.008 C 
ATOM     10  C   UNL     1       1.946  -3.341  17.177  1.00  0.00     0.008 C 
ENDBRANCH   5   8
TORSDOF 1
ENDMDL
MODEL 2
REMARK VINA RESULT:    -4.632      0.788      1.744
REMARK INTER + INTRA:          -5.053
REMARK INTER:                  -4.864
REMARK INTRA:                  -0.189
REMARK UNBOUND:                -0.150
REMARK SMILES CC1=CC[C@@H](C(C)C)C=C1
REMARK SMILES IDX 1 1 2 2 3 3 4 4 5 5 9 6 10 7 6 8 7 9 8 10
REMARK H PARENT
REMARK Flexibility Score: inf
ROOT
ATOM      1  C   UNL     1       8.783  -2.031  16.621  1.00  0.00     0.044 C 
ATOM      2  C   UNL     1       7.309  -2.306  16.647  1.00  0.00    -0.055 C 
ATOM      3  C   UNL     1       6.552  -2.047  15.567  1.00  0.00    -0.023 C 
ATOM      4  C   UNL     1       5.085  -2.387  15.559  1.00  0.00     0.035 C 
ATOM      5  C   UNL     1       4.460  -2.155  16.957  1.00  0.00     0.018 C 
ATOM      6  C   UNL     1       5.339  -2.764  18.032  1.00  0.00    -0.023 C 
ATOM      7  C   UNL     1       6.669  -2.782  17.895  1.00  0.00    -0.001 C 
ENDROOT
BRANCH   5   8
ATOM      8  C   UNL     1       2.987  -2.639  17.081  1.00  0.00    -0.010 C 
ATOM      9  C   UNL     1       2.332  -2.835  15.706  1.00  0.00     0.008 C 
ATOM     10  C   UNL     1       2.827  -3.912  17.931  1.00  0.00     0.008 C 
ENDBRANCH   5   8
TORSDOF 1
ENDMDL
MODEL 3
REMARK VINA RESULT:    -4.500      7.838      9.414
REMARK INTER + INTRA:          -4.913
REMARK INTER:                  -4.721
REMARK INTRA:                  -0.192
REMARK UNBOUND:                -0.150
REMARK SMILES CC1=CC[C@@H](C(C)C)C=C1
REMARK SMILES IDX 1 1 2 2 3 3 4 4 5 5 9 6 10 7 6 8 7 9 8 10
REMARK H PARENT
REMARK Flexibility Score: inf
ROOT
ATOM      1  C   UNL     1      11.515   0.109  26.976  1.00  0.00     0.044 C 
ATOM      2  C   UNL     1      10.626   0.418  25.809  1.00  0.00    -0.055 C 
ATOM      3  C   UNL     1      11.094   0.310  24.554  1.00  0.00    -0.023 C 
ATOM      4  C   UNL     1      10.189   0.549  23.375  1.00  0.00     0.035 C 
ATOM      5  C   UNL     1       9.178   1.684  23.679  1.00  0.00     0.018 C 
ATOM      6  C   UNL     1       8.551   1.476  25.043  1.00  0.00    -0.023 C 
ATOM      7  C   UNL     1       9.256   0.930  26.040  1.00  0.00    -0.001 C 
ENDROOT
BRANCH   5   8
ATOM      8  C   UNL     1       8.098   1.883  22.578  1.00  0.00    -0.010 C 
ATOM      9  C   UNL     1       8.125   0.752  21.540  1.00  0.00     0.008 C 
ATOM     10  C   UNL     1       6.675   2.057  23.137  1.00  0.00     0.008 C 
ENDBRANCH   5   8
TORSDOF 1
ENDMDL
MODEL 4
REMARK VINA RESULT:    -4.342      1.870      3.206
REMARK INTER + INTRA:          -4.746
REMARK INTER:                  -4.558
REMARK INTRA:                  -0.188
REMARK UNBOUND:                -0.150
REMARK SMILES CC1=CC[C@@H](C(C)C)C=C1
REMARK SMILES IDX 1 1 2 2 3 3 4 4 5 5 9 6 10 7 6 8 7 9 8 10
REMARK H PARENT
REMARK Flexibility Score: inf
ROOT
ATOM      1  C   UNL     1       4.622  -5.245  20.150  1.00  0.00     0.044 C 
ATOM      2  C   UNL     1       4.328  -4.309  19.015  1.00  0.00    -0.055 C 
ATOM      3  C   UNL     1       5.206  -3.348  18.684  1.00  0.00    -0.023 C 
ATOM      4  C   UNL     1       4.951  -2.450  17.503  1.00  0.00     0.035 C 
ATOM      5  C   UNL     1       3.441  -2.131  17.370  1.00  0.00     0.018 C 
ATOM      6  C   UNL     1       2.624  -3.401  17.504  1.00  0.00    -0.023 C 
ATOM      7  C   UNL     1       3.025  -4.386  18.315  1.00  0.00    -0.001 C 
ENDROOT
BRANCH   5   8
ATOM      8  C   UNL     1       3.069  -1.346  16.079  1.00  0.00    -0.010 C 
ATOM      9  C   UNL     1       3.771  -1.921  14.840  1.00  0.00     0.008 C 
ATOM     10  C   UNL     1       1.553  -1.248  15.834  1.00  0.00     0.008 C 
ENDBRANCH   5   8
TORSDOF 1
ENDMDL
MODEL 5
REMARK VINA RESULT:    -4.323      2.177      3.452
REMARK INTER + INTRA:          -4.725
REMARK INTER:                  -4.533
REMARK INTRA:                  -0.192
REMARK UNBOUND:                -0.150
REMARK SMILES CC1=CC[C@@H](C(C)C)C=C1
REMARK SMILES IDX 1 1 2 2 3 3 4 4 5 5 9 6 10 7 6 8 7 9 8 10
REMARK H PARENT
REMARK Flexibility Score: inf
ROOT
ATOM      1  C   UNL     1       4.623  -4.889  19.492  1.00  0.00     0.044 C 
ATOM      2  C   UNL     1       3.847  -4.002  18.565  1.00  0.00    -0.055 C 
ATOM      3  C   UNL     1       2.577  -4.302  18.243  1.00  0.00    -0.023 C 
ATOM      4  C   UNL     1       1.768  -3.380  17.370  1.00  0.00     0.035 C 
ATOM      5  C   UNL     1       2.660  -2.732  16.282  1.00  0.00     0.018 C 
ATOM      6  C   UNL     1       3.941  -2.206  16.898  1.00  0.00    -0.023 C 
ATOM      7  C   UNL     1       4.509  -2.839  17.930  1.00  0.00    -0.001 C 
ENDROOT
BRANCH   5   8
ATOM      8  C   UNL     1       1.940  -1.638  15.441  1.00  0.00    -0.010 C 
ATOM      9  C   UNL     1       0.663  -1.136  16.131  1.00  0.00     0.008 C 
ATOM     10  C   UNL     1       2.846  -0.450  15.072  1.00  0.00     0.008 C 
ENDBRANCH   5   8
TORSDOF 1
ENDMDL
MODEL 6
REMARK VINA RESULT:    -4.306      1.247      2.665
REMARK INTER + INTRA:          -4.707
REMARK INTER:                  -4.574
REMARK INTRA:                  -0.133
REMARK UNBOUND:                -0.150
REMARK SMILES CC1=CC[C@@H](C(C)C)C=C1
REMARK SMILES IDX 1 1 2 2 3 3 4 4 5 5 9 6 10 7 6 8 7 9 8 10
REMARK H PARENT
REMARK Flexibility Score: inf
ROOT
ATOM      1  C   UNL     1       7.123  -2.200  15.902  1.00  0.00     0.044 C 
ATOM      2  C   UNL     1       5.625  -2.249  15.958  1.00  0.00    -0.055 C 
ATOM      3  C   UNL     1       4.895  -1.880  14.892  1.00  0.00    -0.023 C 
ATOM      4  C   UNL     1       3.394  -1.994  14.914  1.00  0.00     0.035 C 
ATOM      5  C   UNL     1       2.839  -1.668  16.323  1.00  0.00     0.018 C 
ATOM      6  C   UNL     1       3.636  -2.402  17.383  1.00  0.00    -0.023 C 
ATOM      7  C   UNL     1       4.946  -2.621  17.220  1.00  0.00    -0.001 C 
ENDROOT
BRANCH   5   8
ATOM      8  C   UNL     1       1.312  -1.924  16.478  1.00  0.00    -0.010 C 
ATOM      9  C   UNL     1       0.934  -2.265  17.927  1.00  0.00     0.008 C 
ATOM     10  C   UNL     1       0.439  -0.767  15.961  1.00  0.00     0.008 C 
ENDBRANCH   5   8
TORSDOF 1
ENDMDL
MODEL 7
REMARK VINA RESULT:    -4.276      1.739      4.278
REMARK INTER + INTRA:          -4.675
REMARK INTER:                  -4.487
REMARK INTRA:                  -0.188
REMARK UNBOUND:                -0.150
REMARK SMILES CC1=CC[C@@H](C(C)C)C=C1
REMARK SMILES IDX 1 1 2 2 3 3 4 4 5 5 9 6 10 7 6 8 7 9 8 10
REMARK H PARENT
REMARK Flexibility Score: inf
ROOT
ATOM      1  C   UNL     1       1.854  -0.611  13.487  1.00  0.00     0.044 C 
ATOM      2  C   UNL     1       2.331  -1.291  14.735  1.00  0.00    -0.055 C 
ATOM      3  C   UNL     1       1.572  -1.284  15.843  1.00  0.00    -0.023 C 
ATOM      4  C   UNL     1       2.011  -2.024  17.079  1.00  0.00     0.035 C 
ATOM      5  C   UNL     1       3.549  -1.943  17.250  1.00  0.00     0.018 C 
ATOM      6  C   UNL     1       4.239  -2.252  15.937  1.00  0.00    -0.023 C 
ATOM      7  C   UNL     1       3.682  -1.896  14.774  1.00  0.00    -0.001 C 
ENDROOT
BRANCH   5   8
ATOM      8  C   UNL     1       4.105  -2.821  18.408  1.00  0.00    -0.010 C 
ATOM      9  C   UNL     1       3.484  -4.225  18.410  1.00  0.00     0.008 C 
ATOM     10  C   UNL     1       5.641  -2.920  18.422  1.00  0.00     0.008 C 
ENDBRANCH   5   8
TORSDOF 1
ENDMDL
MODEL 8
REMARK VINA RESULT:    -4.272      9.938     11.623
REMARK INTER + INTRA:          -4.671
REMARK INTER:                  -4.517
REMARK INTRA:                  -0.154
REMARK UNBOUND:                -0.150
REMARK SMILES CC1=CC[C@@H](C(C)C)C=C1
REMARK SMILES IDX 1 1 2 2 3 3 4 4 5 5 9 6 10 7 6 8 7 9 8 10
REMARK H PARENT
REMARK Flexibility Score: inf
ROOT
ATOM      1  C   UNL     1       7.236   1.911  26.199  1.00  0.00     0.044 C 
ATOM      2  C   UNL     1       8.529   1.155  26.115  1.00  0.00    -0.055 C 
ATOM      3  C   UNL     1       8.985   0.474  27.180  1.00  0.00    -0.023 C 
ATOM      4  C   UNL     1      10.245  -0.346  27.083  1.00  0.00     0.035 C 
ATOM      5  C   UNL     1      11.282   0.347  26.164  1.00  0.00     0.018 C 
ATOM      6  C   UNL     1      10.619   0.810  24.882  1.00  0.00    -0.023 C 
ATOM      7  C   UNL     1       9.350   1.232  24.886  1.00  0.00    -0.001 C 
ENDROOT
BRANCH   5   8
ATOM      8  C   UNL     1      12.547  -0.511  25.876  1.00  0.00    -0.010 C 
ATOM      9  C   UNL     1      12.525  -1.102  24.459  1.00  0.00     0.008 C 
ATOM     10  C   UNL     1      13.868   0.240  26.118  1.00  0.00     0.008 C 
ENDBRANCH   5   8
TORSDOF 1
ENDMDL
MODEL 9
REMARK VINA RESULT:    -4.206      7.036      9.366
REMARK INTER + INTRA:          -4.602
REMARK INTER:                  -4.440
REMARK INTRA:                  -0.162
REMARK UNBOUND:                -0.150
REMARK SMILES CC1=CC[C@@H](C(C)C)C=C1
REMARK SMILES IDX 1 1 2 2 3 3 4 4 5 5 9 6 10 7 6 8 7 9 8 10
REMARK H PARENT
REMARK Flexibility Score: inf
ROOT
ATOM      1  C   UNL     1      -1.814  -7.199   8.891  1.00  0.00     0.044 C 
ATOM      2  C   UNL     1      -1.485  -6.015   9.751  1.00  0.00    -0.055 C 
ATOM      3  C   UNL     1      -0.553  -5.130   9.358  1.00  0.00    -0.023 C 
ATOM      4  C   UNL     1      -0.267  -3.901  10.180  1.00  0.00     0.035 C 
ATOM      5  C   UNL     1      -0.381  -4.214  11.694  1.00  0.00     0.018 C 
ATOM      6  C   UNL     1      -1.650  -4.994  11.973  1.00  0.00    -0.023 C 
ATOM      7  C   UNL     1      -2.125  -5.867  11.078  1.00  0.00    -0.001 C 
ENDROOT
BRANCH   5   8
ATOM      8  C   UNL     1      -0.265  -2.962  12.610  1.00  0.00    -0.010 C 
ATOM      9  C   UNL     1      -1.633  -2.311  12.862  1.00  0.00     0.008 C 
ATOM     10  C   UNL     1       0.444  -3.242  13.947  1.00  0.00     0.008 C 
ENDBRANCH   5   8
TORSDOF 1
ENDMDL
