MODEL 1
REMARK VINA RESULT:    -6.741      0.000      0.000
REMARK INTER + INTRA:         -10.468
REMARK INTER:                  -9.302
REMARK INTRA:                  -1.166
REMARK UNBOUND:                -1.166
REMARK SMILES C=C(CC[C@@H](C(=O)[O-])[C@@H]1CC[C@@]2(C)C3=C(CC[C@@]12C)[C@]1(C)CC[C@@H](O)C(C)(C)[C@@H]1CC3)C(C)C
REMARK SMILES IDX 4 1 5 2 6 3 7 4 8 5 9 6 10 7 18 8 11 9 12 10 17 11 19 12
REMARK SMILES IDX 13 13 14 14 16 15 15 16 31 17 20 18 30 19 29 20 22 21 21 22
REMARK SMILES IDX 26 23 23 24 24 25 27 26 28 27 25 28 3 30 2 31 1 32 32 33
REMARK SMILES IDX 33 34 34 35
REMARK H PARENT 25 29
REMARK Flexibility Score: inf
ROOT
ATOM      1  C   UNL     1     173.260 177.381 182.517  1.00  0.00     0.014 C 
ENDROOT
BRANCH   1   2
ATOM      2  C   UNL     1     173.857 176.445 181.424  1.00  0.00     0.039 C 
BRANCH   2   3
ATOM      3  C   UNL     1     174.950 177.175 180.667  1.00  0.00     0.045 C 
ATOM      4  O   UNL     1     174.736 177.607 179.505  1.00  0.00    -0.550 OA
ATOM      5  O   UNL     1     176.186 177.427 181.253  1.00  0.00    -0.550 OA
ENDBRANCH   2   3
BRANCH   2   6
ATOM      6  C   UNL     1     174.289 175.058 182.048  1.00  0.00     0.004 C 
ATOM      7  C   UNL     1     175.735 175.013 182.570  1.00  0.00     0.006 C 
ATOM      8  C   UNL     1     174.060 173.716 181.238  1.00  0.00    -0.020 C 
ATOM      9  C   UNL     1     176.245 173.603 182.317  1.00  0.00     0.012 C 
ATOM     10  C   UNL     1     175.492 173.087 181.076  1.00  0.00    -0.006 C 
ATOM     11  C   UNL     1     173.196 172.774 182.121  1.00  0.00     0.012 C 
ATOM     12  C   UNL     1     173.314 173.900 179.885  1.00  0.00     0.012 C 
ATOM     13  C   UNL     1     176.207 173.620 179.800  1.00  0.00     0.017 C 
ATOM     14  C   UNL     1     175.536 171.538 181.048  1.00  0.00    -0.064 C 
ATOM     15  C   UNL     1     173.090 171.364 181.558  1.00  0.00     0.032 C 
ATOM     16  C   UNL     1     174.445 170.739 181.264  1.00  0.00    -0.064 C 
ATOM     17  C   UNL     1     176.881 170.874 180.827  1.00  0.00     0.032 C 
ATOM     18  C   UNL     1     174.535 169.213 180.966  1.00  0.00    -0.008 C 
ATOM     19  C   UNL     1     177.014 169.663 181.731  1.00  0.00     0.009 C 
ATOM     20  C   UNL     1     175.951 168.590 181.382  1.00  0.00     0.007 C 
ATOM     21  C   UNL     1     173.353 168.440 181.644  1.00  0.00     0.014 C 
ATOM     22  C   UNL     1     174.348 169.071 179.430  1.00  0.00     0.016 C 
ATOM     23  C   UNL     1     175.895 167.450 182.471  1.00  0.00    -0.006 C 
ATOM     24  C   UNL     1     173.474 166.920 181.569  1.00  0.00     0.033 C 
ATOM     25  C   UNL     1     174.834 166.365 182.055  1.00  0.00     0.120 C 
ATOM     26  C   UNL     1     177.277 166.740 182.578  1.00  0.00     0.014 C 
ATOM     27  C   UNL     1     175.571 168.026 183.889  1.00  0.00     0.014 C 
BRANCH  25  28
ATOM     28  O   UNL     1     175.349 165.474 181.089  1.00  0.00    -0.393 OA
ATOM     29  H   UNL     1     176.069 165.946 180.594  1.00  0.00     0.210 HD
ENDBRANCH  25  28
ENDBRANCH   2   6
ENDBRANCH   1   2
BRANCH   1  30
ATOM     30  C   UNL     1     171.786 177.783 182.282  1.00  0.00     0.031 C 
BRANCH  30  31
ATOM     31  C   UNL     1     170.741 176.871 182.912  1.00  0.00    -0.075 C 
ATOM     32  C   UNL     1     169.878 177.375 183.813  1.00  0.00     0.008 C 
BRANCH  31  33
ATOM     33  C   UNL     1     170.764 175.367 182.660  1.00  0.00     0.008 C 
ATOM     34  C   UNL     1     170.254 174.582 183.870  1.00  0.00     0.012 C 
ATOM     35  C   UNL     1     169.954 175.003 181.403  1.00  0.00     0.012 C 
ENDBRANCH  31  33
ENDBRANCH  30  31
ENDBRANCH   1  30
TORSDOF 7
ENDMDL
MODEL 2
REMARK VINA RESULT:    -6.692      4.764      9.709
REMARK INTER + INTRA:         -10.402
REMARK INTER:                  -9.252
REMARK INTRA:                  -1.149
REMARK UNBOUND:                -1.166
REMARK SMILES C=C(CC[C@@H](C(=O)[O-])[C@@H]1CC[C@@]2(C)C3=C(CC[C@@]12C)[C@]1(C)CC[C@@H](O)C(C)(C)[C@@H]1CC3)C(C)C
REMARK SMILES IDX 4 1 5 2 6 3 7 4 8 5 9 6 10 7 18 8 11 9 12 10 17 11 19 12
REMARK SMILES IDX 13 13 14 14 16 15 15 16 31 17 20 18 30 19 29 20 22 21 21 22
REMARK SMILES IDX 26 23 23 24 24 25 27 26 28 27 25 28 3 30 2 31 1 32 32 33
REMARK SMILES IDX 33 34 34 35
REMARK H PARENT 25 29
REMARK Flexibility Score: inf
ROOT
ATOM      1  C   UNL     1     173.481 175.753 182.412  1.00  0.00     0.014 C 
ENDROOT
BRANCH   1   2
ATOM      2  C   UNL     1     172.455 175.819 181.242  1.00  0.00     0.039 C 
BRANCH   2   3
ATOM      3  C   UNL     1     172.963 175.003 180.069  1.00  0.00     0.045 C 
ATOM      4  O   UNL     1     172.638 175.312 178.893  1.00  0.00    -0.550 OA
ATOM      5  O   UNL     1     173.832 173.934 180.259  1.00  0.00    -0.550 OA
ENDBRANCH   2   3
BRANCH   2   6
ATOM      6  C   UNL     1     171.006 175.437 181.745  1.00  0.00     0.004 C 
ATOM      7  C   UNL     1     170.672 173.937 181.655  1.00  0.00     0.006 C 
ATOM      8  C   UNL     1     169.741 176.214 181.191  1.00  0.00    -0.020 C 
ATOM      9  C   UNL     1     169.191 173.841 181.326  1.00  0.00     0.012 C 
ATOM     10  C   UNL     1     168.842 175.109 180.525  1.00  0.00    -0.006 C 
ATOM     11  C   UNL     1     168.983 176.808 182.411  1.00  0.00     0.012 C 
ATOM     12  C   UNL     1     170.078 177.393 180.233  1.00  0.00     0.012 C 
ATOM     13  C   UNL     1     169.231 174.882 179.034  1.00  0.00     0.017 C 
ATOM     14  C   UNL     1     167.315 175.366 180.595  1.00  0.00    -0.064 C 
ATOM     15  C   UNL     1     167.625 177.388 182.041  1.00  0.00     0.032 C 
ATOM     16  C   UNL     1     166.746 176.405 181.282  1.00  0.00    -0.064 C 
ATOM     17  C   UNL     1     166.400 174.370 179.910  1.00  0.00     0.032 C 
ATOM     18  C   UNL     1     165.235 176.725 181.086  1.00  0.00    -0.008 C 
ATOM     19  C   UNL     1     165.180 174.111 180.775  1.00  0.00     0.009 C 
ATOM     20  C   UNL     1     164.342 175.402 180.954  1.00  0.00     0.007 C 
ATOM     21  C   UNL     1     164.707 177.655 182.230  1.00  0.00     0.014 C 
ATOM     22  C   UNL     1     165.143 177.535 179.763  1.00  0.00     0.016 C 
ATOM     23  C   UNL     1     163.228 175.224 182.057  1.00  0.00    -0.006 C 
ATOM     24  C   UNL     1     163.194 177.856 182.225  1.00  0.00     0.033 C 
ATOM     25  C   UNL     1     162.376 176.543 182.174  1.00  0.00     0.120 C 
ATOM     26  C   UNL     1     162.257 174.071 181.661  1.00  0.00     0.014 C 
ATOM     27  C   UNL     1     163.847 174.840 183.441  1.00  0.00     0.014 C 
BRANCH  25  28
ATOM     28  O   UNL     1     161.408 176.632 181.152  1.00  0.00    -0.393 OA
ATOM     29  H   UNL     1     160.770 175.882 181.271  1.00  0.00     0.210 HD
ENDBRANCH  25  28
ENDBRANCH   2   6
ENDBRANCH   1   2
BRANCH   1  30
ATOM     30  C   UNL     1     174.353 177.019 182.573  1.00  0.00     0.031 C 
BRANCH  30  31
ATOM     31  C   UNL     1     175.824 176.863 182.211  1.00  0.00    -0.075 C 
ATOM     32  C   UNL     1     176.762 177.023 183.162  1.00  0.00     0.008 C 
BRANCH  31  33
ATOM     33  C   UNL     1     176.256 176.692 180.757  1.00  0.00     0.008 C 
ATOM     34  C   UNL     1     177.114 177.865 180.280  1.00  0.00     0.012 C 
ATOM     35  C   UNL     1     177.002 175.362 180.553  1.00  0.00     0.012 C 
ENDBRANCH  31  33
ENDBRANCH  30  31
ENDBRANCH   1  30
TORSDOF 7
ENDMDL
MODEL 3
REMARK VINA RESULT:    -6.661      6.668     10.497
REMARK INTER + INTRA:         -10.358
REMARK INTER:                  -8.925
REMARK INTRA:                  -1.432
REMARK UNBOUND:                -1.166
REMARK SMILES C=C(CC[C@@H](C(=O)[O-])[C@@H]1CC[C@@]2(C)C3=C(CC[C@@]12C)[C@]1(C)CC[C@@H](O)C(C)(C)[C@@H]1CC3)C(C)C
REMARK SMILES IDX 4 1 5 2 6 3 7 4 8 5 9 6 10 7 18 8 11 9 12 10 17 11 19 12
REMARK SMILES IDX 13 13 14 14 16 15 15 16 31 17 20 18 30 19 29 20 22 21 21 22
REMARK SMILES IDX 26 23 23 24 24 25 27 26 28 27 25 28 3 30 2 31 1 32 32 33
REMARK SMILES IDX 33 34 34 35
REMARK H PARENT 25 29
REMARK Flexibility Score: inf
ROOT
ATOM      1  C   UNL     1     160.508 175.499 182.618  1.00  0.00     0.014 C 
ENDROOT
BRANCH   1   2
ATOM      2  C   UNL     1     161.584 175.533 181.492  1.00  0.00     0.039 C 
BRANCH   2   3
ATOM      3  C   UNL     1     161.255 176.636 180.503  1.00  0.00     0.045 C 
ATOM      4  O   UNL     1     160.716 176.359 179.400  1.00  0.00    -0.550 OA
ATOM      5  O   UNL     1     161.491 177.972 180.811  1.00  0.00    -0.550 OA
ENDBRANCH   2   3
BRANCH   2   6
ATOM      6  C   UNL     1     163.038 175.599 182.106  1.00  0.00     0.004 C 
ATOM      7  C   UNL     1     163.409 176.956 182.730  1.00  0.00     0.006 C 
ATOM      8  C   UNL     1     164.288 175.143 181.245  1.00  0.00    -0.020 C 
ATOM      9  C   UNL     1     164.894 177.160 182.476  1.00  0.00     0.012 C 
ATOM     10  C   UNL     1     165.217 176.409 181.170  1.00  0.00    -0.006 C 
ATOM     11  C   UNL     1     165.024 174.027 182.037  1.00  0.00     0.012 C 
ATOM     12  C   UNL     1     163.928 174.562 179.847  1.00  0.00     0.012 C 
ATOM     13  C   UNL     1     164.842 177.320 179.964  1.00  0.00     0.017 C 
ATOM     14  C   UNL     1     166.736 176.113 181.102  1.00  0.00    -0.064 C 
ATOM     15  C   UNL     1     166.369 173.657 181.430  1.00  0.00     0.032 C 
ATOM     16  C   UNL     1     167.276 174.859 181.217  1.00  0.00    -0.064 C 
ATOM     17  C   UNL     1     167.680 177.291 180.961  1.00  0.00     0.032 C 
ATOM     18  C   UNL     1     168.781 174.632 180.885  1.00  0.00    -0.008 C 
ATOM     19  C   UNL     1     168.900 177.084 181.838  1.00  0.00     0.009 C 
ATOM     20  C   UNL     1     169.706 175.841 181.384  1.00  0.00     0.007 C 
ATOM     21  C   UNL     1     169.279 173.262 181.453  1.00  0.00     0.014 C 
ATOM     22  C   UNL     1     168.861 174.537 179.335  1.00  0.00     0.016 C 
ATOM     23  C   UNL     1     170.817 175.451 182.435  1.00  0.00    -0.006 C 
ATOM     24  C   UNL     1     170.787 173.050 181.345  1.00  0.00     0.033 C 
ATOM     25  C   UNL     1     171.636 174.213 181.913  1.00  0.00     0.120 C 
ATOM     26  C   UNL     1     171.818 176.631 182.621  1.00  0.00     0.014 C 
ATOM     27  C   UNL     1     170.199 175.155 183.841  1.00  0.00     0.014 C 
BRANCH  25  28
ATOM     28  O   UNL     1     172.607 174.591 180.963  1.00  0.00    -0.393 OA
ATOM     29  H   UNL     1     173.212 175.251 181.392  1.00  0.00     0.210 HD
ENDBRANCH  25  28
ENDBRANCH   2   6
ENDBRANCH   1   2
BRANCH   1  30
ATOM     30  C   UNL     1     159.907 174.101 182.889  1.00  0.00     0.031 C 
BRANCH  30  31
ATOM     31  C   UNL     1     160.345 172.994 181.940  1.00  0.00    -0.075 C 
ATOM     32  C   UNL     1     159.763 172.886 180.732  1.00  0.00     0.008 C 
BRANCH  31  33
ATOM     33  C   UNL     1     161.314 171.909 182.401  1.00  0.00     0.008 C 
ATOM     34  C   UNL     1     162.315 171.540 181.304  1.00  0.00     0.012 C 
ATOM     35  C   UNL     1     162.053 172.333 183.682  1.00  0.00     0.012 C 
ENDBRANCH  31  33
ENDBRANCH  30  31
ENDBRANCH   1  30
TORSDOF 7
ENDMDL
MODEL 4
REMARK VINA RESULT:    -6.490      2.140      4.005
REMARK INTER + INTRA:         -10.122
REMARK INTER:                  -8.233
REMARK INTRA:                  -1.889
REMARK UNBOUND:                -1.166
REMARK SMILES C=C(CC[C@@H](C(=O)[O-])[C@@H]1CC[C@@]2(C)C3=C(CC[C@@]12C)[C@]1(C)CC[C@@H](O)C(C)(C)[C@@H]1CC3)C(C)C
REMARK SMILES IDX 4 1 5 2 6 3 7 4 8 5 9 6 10 7 18 8 11 9 12 10 17 11 19 12
REMARK SMILES IDX 13 13 14 14 16 15 15 16 31 17 20 18 30 19 29 20 22 21 21 22
REMARK SMILES IDX 26 23 23 24 24 25 27 26 28 27 25 28 3 30 2 31 1 32 32 33
REMARK SMILES IDX 33 34 34 35
REMARK H PARENT 25 29
REMARK Flexibility Score: inf
ROOT
ATOM      1  C   UNL     1     173.282 176.674 180.820  1.00  0.00     0.014 C 
ENDROOT
BRANCH   1   2
ATOM      2  C   UNL     1     172.522 175.332 180.604  1.00  0.00     0.039 C 
BRANCH   2   3
ATOM      3  C   UNL     1     171.354 175.551 179.661  1.00  0.00     0.045 C 
ATOM      4  O   UNL     1     170.308 174.862 179.777  1.00  0.00    -0.550 OA
ATOM      5  O   UNL     1     171.391 176.545 178.689  1.00  0.00    -0.550 OA
ENDBRANCH   2   3
BRANCH   2   6
ATOM      6  C   UNL     1     173.521 174.185 180.174  1.00  0.00     0.004 C 
ATOM      7  C   UNL     1     173.241 173.579 178.788  1.00  0.00     0.006 C 
ATOM      8  C   UNL     1     173.802 172.968 181.150  1.00  0.00    -0.020 C 
ATOM      9  C   UNL     1     173.608 172.105 178.877  1.00  0.00     0.012 C 
ATOM     10  C   UNL     1     173.376 171.689 180.341  1.00  0.00    -0.006 C 
ATOM     11  C   UNL     1     175.334 172.913 181.404  1.00  0.00     0.012 C 
ATOM     12  C   UNL     1     173.104 173.080 182.536  1.00  0.00     0.012 C 
ATOM     13  C   UNL     1     171.865 171.369 180.538  1.00  0.00     0.017 C 
ATOM     14  C   UNL     1     174.189 170.407 180.652  1.00  0.00    -0.064 C 
ATOM     15  C   UNL     1     175.769 171.655 182.143  1.00  0.00     0.032 C 
ATOM     16  C   UNL     1     175.283 170.378 181.476  1.00  0.00    -0.064 C 
ATOM     17  C   UNL     1     173.781 169.125 179.953  1.00  0.00     0.032 C 
ATOM     18  C   UNL     1     175.876 169.009 181.924  1.00  0.00    -0.008 C 
ATOM     19  C   UNL     1     175.016 168.356 179.523  1.00  0.00     0.009 C 
ATOM     20  C   UNL     1     175.855 167.919 180.751  1.00  0.00     0.007 C 
ATOM     21  C   UNL     1     177.318 169.188 182.508  1.00  0.00     0.014 C 
ATOM     22  C   UNL     1     174.972 168.519 183.090  1.00  0.00     0.016 C 
ATOM     23  C   UNL     1     177.266 167.359 180.322  1.00  0.00    -0.006 C 
ATOM     24  C   UNL     1     178.047 167.876 182.787  1.00  0.00     0.033 C 
ATOM     25  C   UNL     1     178.064 166.890 181.595  1.00  0.00     0.120 C 
ATOM     26  C   UNL     1     177.094 166.121 179.392  1.00  0.00     0.014 C 
ATOM     27  C   UNL     1     178.084 168.421 179.516  1.00  0.00     0.014 C 
BRANCH  25  28
ATOM     28  O   UNL     1     177.645 165.616 182.034  1.00  0.00    -0.393 OA
ATOM     29  H   UNL     1     176.811 165.734 182.558  1.00  0.00     0.210 HD
ENDBRANCH  25  28
ENDBRANCH   2   6
ENDBRANCH   1   2
BRANCH   1  30
ATOM     30  C   UNL     1     173.844 176.872 182.246  1.00  0.00     0.031 C 
BRANCH  30  31
ATOM     31  C   UNL     1     175.334 176.606 182.416  1.00  0.00    -0.075 C 
ATOM     32  C   UNL     1     175.766 175.908 183.482  1.00  0.00     0.008 C 
BRANCH  31  33
ATOM     33  C   UNL     1     176.354 177.260 181.488  1.00  0.00     0.008 C 
ATOM     34  C   UNL     1     177.429 178.016 182.271  1.00  0.00     0.012 C 
ATOM     35  C   UNL     1     176.999 176.221 180.555  1.00  0.00     0.012 C 
ENDBRANCH  31  33
ENDBRANCH  30  31
ENDBRANCH   1  30
TORSDOF 7
ENDMDL
MODEL 5
REMARK VINA RESULT:    -6.477      4.933      8.583
REMARK INTER + INTRA:         -10.104
REMARK INTER:                  -8.278
REMARK INTRA:                  -1.827
REMARK UNBOUND:                -1.166
REMARK SMILES C=C(CC[C@@H](C(=O)[O-])[C@@H]1CC[C@@]2(C)C3=C(CC[C@@]12C)[C@]1(C)CC[C@@H](O)C(C)(C)[C@@H]1CC3)C(C)C
REMARK SMILES IDX 4 1 5 2 6 3 7 4 8 5 9 6 10 7 18 8 11 9 12 10 17 11 19 12
REMARK SMILES IDX 13 13 14 14 16 15 15 16 31 17 20 18 30 19 29 20 22 21 21 22
REMARK SMILES IDX 26 23 23 24 24 25 27 26 28 27 25 28 3 30 2 31 1 32 32 33
REMARK SMILES IDX 33 34 34 35
REMARK H PARENT 25 29
REMARK Flexibility Score: inf
ROOT
ATOM      1  C   UNL     1     173.504 174.773 182.492  1.00  0.00     0.014 C 
ENDROOT
BRANCH   1   2
ATOM      2  C   UNL     1     172.539 175.536 181.536  1.00  0.00     0.039 C 
BRANCH   2   3
ATOM      3  C   UNL     1     171.982 176.758 182.241  1.00  0.00     0.045 C 
ATOM      4  O   UNL     1     172.719 177.449 182.991  1.00  0.00    -0.550 OA
ATOM      5  O   UNL     1     170.669 177.170 182.037  1.00  0.00    -0.550 OA
ENDBRANCH   2   3
BRANCH   2   6
ATOM      6  C   UNL     1     173.238 175.826 180.149  1.00  0.00     0.004 C 
ATOM      7  C   UNL     1     173.822 177.243 180.009  1.00  0.00     0.006 C 
ATOM      8  C   UNL     1     172.476 175.517 178.794  1.00  0.00    -0.020 C 
ATOM      9  C   UNL     1     173.650 177.642 178.552  1.00  0.00     0.012 C 
ATOM     10  C   UNL     1     172.401 176.897 178.044  1.00  0.00    -0.006 C 
ATOM     11  C   UNL     1     173.362 174.544 177.967  1.00  0.00     0.012 C 
ATOM     12  C   UNL     1     171.087 174.841 178.977  1.00  0.00     0.012 C 
ATOM     13  C   UNL     1     171.135 177.702 178.458  1.00  0.00     0.017 C 
ATOM     14  C   UNL     1     172.440 176.813 176.497  1.00  0.00    -0.064 C 
ATOM     15  C   UNL     1     172.855 174.343 176.546  1.00  0.00     0.032 C 
ATOM     16  C   UNL     1     172.643 175.651 175.800  1.00  0.00    -0.064 C 
ATOM     17  C   UNL     1     172.303 178.105 175.715  1.00  0.00     0.032 C 
ATOM     18  C   UNL     1     172.414 175.624 174.259  1.00  0.00    -0.008 C 
ATOM     19  C   UNL     1     173.262 178.102 174.540  1.00  0.00     0.009 C 
ATOM     20  C   UNL     1     172.914 176.967 173.543  1.00  0.00     0.007 C 
ATOM     21  C   UNL     1     173.074 174.357 173.618  1.00  0.00     0.014 C 
ATOM     22  C   UNL     1     170.879 175.484 174.064  1.00  0.00     0.016 C 
ATOM     23  C   UNL     1     174.047 176.774 172.462  1.00  0.00    -0.006 C 
ATOM     24  C   UNL     1     173.068 174.354 172.091  1.00  0.00     0.033 C 
ATOM     25  C   UNL     1     173.633 175.643 171.449  1.00  0.00     0.120 C 
ATOM     26  C   UNL     1     174.241 178.088 171.646  1.00  0.00     0.014 C 
ATOM     27  C   UNL     1     175.425 176.446 173.126  1.00  0.00     0.014 C 
BRANCH  25  28
ATOM     28  O   UNL     1     172.728 176.118 170.477  1.00  0.00    -0.393 OA
ATOM     29  H   UNL     1     172.074 176.710 170.933  1.00  0.00     0.210 HD
ENDBRANCH  25  28
ENDBRANCH   2   6
ENDBRANCH   1   2
BRANCH   1  30
ATOM     30  C   UNL     1     174.865 174.396 181.865  1.00  0.00     0.031 C 
BRANCH  30  31
ATOM     31  C   UNL     1     176.023 175.335 182.176  1.00  0.00    -0.075 C 
ATOM     32  C   UNL     1     176.047 175.992 183.350  1.00  0.00     0.008 C 
BRANCH  31  33
ATOM     33  C   UNL     1     177.065 175.668 181.113  1.00  0.00     0.008 C 
ATOM     34  C   UNL     1     176.743 175.002 179.775  1.00  0.00     0.012 C 
ATOM     35  C   UNL     1     177.209 177.190 180.935  1.00  0.00     0.012 C 
ENDBRANCH  31  33
ENDBRANCH  30  31
ENDBRANCH   1  30
TORSDOF 7
ENDMDL
MODEL 6
REMARK VINA RESULT:    -6.474     11.384     15.472
REMARK INTER + INTRA:         -10.100
REMARK INTER:                  -8.033
REMARK INTRA:                  -2.067
REMARK UNBOUND:                -1.166
REMARK SMILES C=C(CC[C@@H](C(=O)[O-])[C@@H]1CC[C@@]2(C)C3=C(CC[C@@]12C)[C@]1(C)CC[C@@H](O)C(C)(C)[C@@H]1CC3)C(C)C
REMARK SMILES IDX 4 1 5 2 6 3 7 4 8 5 9 6 10 7 18 8 11 9 12 10 17 11 19 12
REMARK SMILES IDX 13 13 14 14 16 15 15 16 31 17 20 18 30 19 29 20 22 21 21 22
REMARK SMILES IDX 26 23 23 24 24 25 27 26 28 27 25 28 3 30 2 31 1 32 32 33
REMARK SMILES IDX 33 34 34 35
REMARK H PARENT 25 29
REMARK Flexibility Score: inf
ROOT
ATOM      1  C   UNL     1     160.726 175.360 181.750  1.00  0.00     0.014 C 
ENDROOT
BRANCH   1   2
ATOM      2  C   UNL     1     161.326 174.498 180.600  1.00  0.00     0.039 C 
BRANCH   2   3
ATOM      3  C   UNL     1     161.205 173.026 180.947  1.00  0.00     0.045 C 
ATOM      4  O   UNL     1     161.984 172.186 180.427  1.00  0.00    -0.550 OA
ATOM      5  O   UNL     1     160.272 172.580 181.878  1.00  0.00    -0.550 OA
ENDBRANCH   2   3
BRANCH   2   6
ATOM      6  C   UNL     1     160.702 174.909 179.207  1.00  0.00     0.004 C 
ATOM      7  C   UNL     1     159.535 174.021 178.740  1.00  0.00     0.006 C 
ATOM      8  C   UNL     1     161.640 175.120 177.947  1.00  0.00    -0.020 C 
ATOM      9  C   UNL     1     159.631 173.940 177.225  1.00  0.00     0.012 C 
ATOM     10  C   UNL     1     161.123 174.091 176.876  1.00  0.00    -0.006 C 
ATOM     11  C   UNL     1     161.397 176.560 177.416  1.00  0.00     0.012 C 
ATOM     12  C   UNL     1     163.161 174.985 178.246  1.00  0.00     0.012 C 
ATOM     13  C   UNL     1     161.817 172.707 177.037  1.00  0.00     0.017 C 
ATOM     14  C   UNL     1     161.270 174.540 175.401  1.00  0.00    -0.064 C 
ATOM     15  C   UNL     1     162.066 176.818 176.073  1.00  0.00     0.032 C 
ATOM     16  C   UNL     1     161.702 175.783 175.020  1.00  0.00    -0.064 C 
ATOM     17  C   UNL     1     160.852 173.562 174.320  1.00  0.00     0.032 C 
ATOM     18  C   UNL     1     162.056 176.054 173.527  1.00  0.00    -0.008 C 
ATOM     19  C   UNL     1     160.119 174.298 173.213  1.00  0.00     0.009 C 
ATOM     20  C   UNL     1     161.050 175.324 172.517  1.00  0.00     0.007 C 
ATOM     21  C   UNL     1     162.133 177.591 173.241  1.00  0.00     0.014 C 
ATOM     22  C   UNL     1     163.487 175.482 173.322  1.00  0.00     0.016 C 
ATOM     23  C   UNL     1     160.245 176.280 171.555  1.00  0.00    -0.006 C 
ATOM     24  C   UNL     1     162.279 177.946 171.763  1.00  0.00     0.033 C 
ATOM     25  C   UNL     1     161.234 177.275 170.840  1.00  0.00     0.120 C 
ATOM     26  C   UNL     1     159.530 175.451 170.447  1.00  0.00     0.014 C 
ATOM     27  C   UNL     1     159.131 177.064 172.324  1.00  0.00     0.014 C 
BRANCH  25  28
ATOM     28  O   UNL     1     161.892 176.665 169.752  1.00  0.00    -0.393 OA
ATOM     29  H   UNL     1     161.978 175.697 169.953  1.00  0.00     0.210 HD
ENDBRANCH  25  28
ENDBRANCH   2   6
ENDBRANCH   1   2
BRANCH   1  30
ATOM     30  C   UNL     1     161.747 176.270 182.469  1.00  0.00     0.031 C 
BRANCH  30  31
ATOM     31  C   UNL     1     162.422 177.326 181.602  1.00  0.00    -0.075 C 
ATOM     32  C   UNL     1     161.670 178.125 180.824  1.00  0.00     0.008 C 
BRANCH  31  33
ATOM     33  C   UNL     1     163.942 177.379 181.479  1.00  0.00     0.008 C 
ATOM     34  C   UNL     1     164.576 176.004 181.693  1.00  0.00     0.012 C 
ATOM     35  C   UNL     1     164.367 177.962 180.120  1.00  0.00     0.012 C 
ENDBRANCH  31  33
ENDBRANCH  30  31
ENDBRANCH   1  30
TORSDOF 7
ENDMDL
MODEL 7
REMARK VINA RESULT:    -6.400      1.270      2.873
REMARK INTER + INTRA:          -9.998
REMARK INTER:                  -8.808
REMARK INTRA:                  -1.191
REMARK UNBOUND:                -1.166
REMARK SMILES C=C(CC[C@@H](C(=O)[O-])[C@@H]1CC[C@@]2(C)C3=C(CC[C@@]12C)[C@]1(C)CC[C@@H](O)C(C)(C)[C@@H]1CC3)C(C)C
REMARK SMILES IDX 4 1 5 2 6 3 7 4 8 5 9 6 10 7 18 8 11 9 12 10 17 11 19 12
REMARK SMILES IDX 13 13 14 14 16 15 15 16 31 17 20 18 30 19 29 20 22 21 21 22
REMARK SMILES IDX 26 23 23 24 24 25 27 26 28 27 25 28 3 30 2 31 1 32 32 33
REMARK SMILES IDX 33 34 34 35
REMARK H PARENT 25 29
REMARK Flexibility Score: inf
ROOT
ATOM      1  C   UNL     1     174.295 176.688 182.451  1.00  0.00     0.014 C 
ENDROOT
BRANCH   1   2
ATOM      2  C   UNL     1     175.008 176.621 181.068  1.00  0.00     0.039 C 
BRANCH   2   3
ATOM      3  C   UNL     1     176.418 177.168 181.192  1.00  0.00     0.045 C 
ATOM      4  O   UNL     1     176.754 177.827 182.209  1.00  0.00    -0.550 OA
ATOM      5  O   UNL     1     177.377 176.912 180.218  1.00  0.00    -0.550 OA
ENDBRANCH   2   3
BRANCH   2   6
ATOM      6  C   UNL     1     174.907 175.168 180.455  1.00  0.00     0.004 C 
ATOM      7  C   UNL     1     173.491 174.753 180.018  1.00  0.00     0.006 C 
ATOM      8  C   UNL     1     175.518 173.931 181.234  1.00  0.00    -0.020 C 
ATOM      9  C   UNL     1     173.374 173.261 180.284  1.00  0.00     0.012 C 
ATOM     10  C   UNL     1     174.305 172.958 181.472  1.00  0.00    -0.006 C 
ATOM     11  C   UNL     1     176.539 173.237 180.291  1.00  0.00     0.012 C 
ATOM     12  C   UNL     1     176.272 174.304 182.543  1.00  0.00     0.012 C 
ATOM     13  C   UNL     1     173.556 173.296 182.794  1.00  0.00     0.017 C 
ATOM     14  C   UNL     1     174.659 171.450 181.485  1.00  0.00    -0.064 C 
ATOM     15  C   UNL     1     177.034 171.902 180.830  1.00  0.00     0.032 C 
ATOM     16  C   UNL     1     175.903 170.954 181.196  1.00  0.00    -0.064 C 
ATOM     17  C   UNL     1     173.543 170.465 181.777  1.00  0.00     0.032 C 
ATOM     18  C   UNL     1     176.223 169.456 181.480  1.00  0.00    -0.008 C 
ATOM     19  C   UNL     1     173.670 169.257 180.868  1.00  0.00     0.009 C 
ATOM     20  C   UNL     1     174.990 168.492 181.141  1.00  0.00     0.007 C 
ATOM     21  C   UNL     1     177.519 169.008 180.726  1.00  0.00     0.014 C 
ATOM     22  C   UNL     1     176.531 169.372 183.002  1.00  0.00     0.016 C 
ATOM     23  C   UNL     1     175.269 167.400 180.038  1.00  0.00    -0.006 C 
ATOM     24  C   UNL     1     177.794 167.508 180.790  1.00  0.00     0.033 C 
ATOM     25  C   UNL     1     176.594 166.622 180.378  1.00  0.00     0.120 C 
ATOM     26  C   UNL     1     174.109 166.360 180.004  1.00  0.00     0.014 C 
ATOM     27  C   UNL     1     175.350 168.034 178.610  1.00  0.00     0.014 C 
BRANCH  25  28
ATOM     28  O   UNL     1     176.381 165.634 181.362  1.00  0.00    -0.393 OA
ATOM     29  H   UNL     1     176.563 164.750 180.949  1.00  0.00     0.210 HD
ENDBRANCH  25  28
ENDBRANCH   2   6
ENDBRANCH   1   2
BRANCH   1  30
ATOM     30  C   UNL     1     173.103 177.669 182.512  1.00  0.00     0.031 C 
BRANCH  30  31
ATOM     31  C   UNL     1     171.774 177.133 181.996  1.00  0.00    -0.075 C 
ATOM     32  C   UNL     1     171.262 177.619 180.851  1.00  0.00     0.008 C 
BRANCH  31  33
ATOM     33  C   UNL     1     170.937 176.176 182.841  1.00  0.00     0.008 C 
ATOM     34  C   UNL     1     169.810 176.905 183.575  1.00  0.00     0.012 C 
ATOM     35  C   UNL     1     170.368 175.032 181.983  1.00  0.00     0.012 C 
ENDBRANCH  31  33
ENDBRANCH  30  31
ENDBRANCH   1  30
TORSDOF 7
ENDMDL
MODEL 8
REMARK VINA RESULT:    -6.301     12.228     15.863
REMARK INTER + INTRA:          -9.861
REMARK INTER:                  -8.443
REMARK INTRA:                  -1.418
REMARK UNBOUND:                -1.166
REMARK SMILES C=C(CC[C@@H](C(=O)[O-])[C@@H]1CC[C@@]2(C)C3=C(CC[C@@]12C)[C@]1(C)CC[C@@H](O)C(C)(C)[C@@H]1CC3)C(C)C
REMARK SMILES IDX 4 1 5 2 6 3 7 4 8 5 9 6 10 7 18 8 11 9 12 10 17 11 19 12
REMARK SMILES IDX 13 13 14 14 16 15 15 16 31 17 20 18 30 19 29 20 22 21 21 22
REMARK SMILES IDX 26 23 23 24 24 25 27 26 28 27 25 28 3 30 2 31 1 32 32 33
REMARK SMILES IDX 33 34 34 35
REMARK H PARENT 25 29
REMARK Flexibility Score: inf
ROOT
ATOM      1  C   UNL     1     159.282 176.987 171.907  1.00  0.00     0.014 C 
ENDROOT
BRANCH   1   2
ATOM      2  C   UNL     1     160.223 175.930 172.556  1.00  0.00     0.039 C 
BRANCH   2   3
ATOM      3  C   UNL     1     161.475 175.772 171.713  1.00  0.00     0.045 C 
ATOM      4  O   UNL     1     162.076 174.667 171.671  1.00  0.00    -0.550 OA
ATOM      5  O   UNL     1     161.954 176.819 170.934  1.00  0.00    -0.550 OA
ENDBRANCH   2   3
BRANCH   2   6
ATOM      6  C   UNL     1     160.482 176.268 174.078  1.00  0.00     0.004 C 
ATOM      7  C   UNL     1     161.726 177.135 174.340  1.00  0.00     0.006 C 
ATOM      8  C   UNL     1     160.506 175.108 175.158  1.00  0.00    -0.020 C 
ATOM      9  C   UNL     1     162.304 176.675 175.669  1.00  0.00     0.012 C 
ATOM     10  C   UNL     1     161.934 175.187 175.811  1.00  0.00    -0.006 C 
ATOM     11  C   UNL     1     159.442 175.449 176.238  1.00  0.00     0.012 C 
ATOM     12  C   UNL     1     160.164 173.698 174.596  1.00  0.00     0.012 C 
ATOM     13  C   UNL     1     162.969 174.336 175.018  1.00  0.00     0.017 C 
ATOM     14  C   UNL     1     162.005 174.773 177.303  1.00  0.00    -0.064 C 
ATOM     15  C   UNL     1     159.516 174.535 177.453  1.00  0.00     0.032 C 
ATOM     16  C   UNL     1     160.907 174.470 178.064  1.00  0.00    -0.064 C 
ATOM     17  C   UNL     1     163.366 174.764 177.969  1.00  0.00     0.032 C 
ATOM     18  C   UNL     1     161.096 173.825 179.469  1.00  0.00    -0.008 C 
ATOM     19  C   UNL     1     163.258 175.325 179.374  1.00  0.00     0.009 C 
ATOM     20  C   UNL     1     162.348 174.436 180.259  1.00  0.00     0.007 C 
ATOM     21  C   UNL     1     159.782 173.932 180.315  1.00  0.00     0.014 C 
ATOM     22  C   UNL     1     161.346 172.313 179.209  1.00  0.00     0.016 C 
ATOM     23  C   UNL     1     162.006 175.136 181.631  1.00  0.00    -0.006 C 
ATOM     24  C   UNL     1     159.939 173.504 181.771  1.00  0.00     0.033 C 
ATOM     25  C   UNL     1     161.117 174.181 182.512  1.00  0.00     0.120 C 
ATOM     26  C   UNL     1     163.313 175.429 182.427  1.00  0.00     0.014 C 
ATOM     27  C   UNL     1     161.292 176.511 181.411  1.00  0.00     0.014 C 
BRANCH  25  28
ATOM     28  O   UNL     1     161.892 173.197 183.160  1.00  0.00    -0.393 OA
ATOM     29  H   UNL     1     161.308 172.414 183.332  1.00  0.00     0.210 HD
ENDBRANCH  25  28
ENDBRANCH   2   6
ENDBRANCH   1   2
BRANCH   1  30
ATOM     30  C   UNL     1     158.235 176.403 170.933  1.00  0.00     0.031 C 
BRANCH  30  31
ATOM     31  C   UNL     1     158.647 176.353 169.467  1.00  0.00    -0.075 C 
ATOM     32  C   UNL     1     158.576 177.469 168.719  1.00  0.00     0.008 C 
BRANCH  31  33
ATOM     33  C   UNL     1     158.979 175.024 168.794  1.00  0.00     0.008 C 
ATOM     34  C   UNL     1     160.399 175.016 168.226  1.00  0.00     0.012 C 
ATOM     35  C   UNL     1     158.782 173.847 169.766  1.00  0.00     0.012 C 
ENDBRANCH  31  33
ENDBRANCH  30  31
ENDBRANCH   1  30
TORSDOF 7
ENDMDL
MODEL 9
REMARK VINA RESULT:    -6.299     11.888     16.452
REMARK INTER + INTRA:          -9.858
REMARK INTER:                  -8.056
REMARK INTRA:                  -1.802
REMARK UNBOUND:                -1.166
REMARK SMILES C=C(CC[C@@H](C(=O)[O-])[C@@H]1CC[C@@]2(C)C3=C(CC[C@@]12C)[C@]1(C)CC[C@@H](O)C(C)(C)[C@@H]1CC3)C(C)C
REMARK SMILES IDX 4 1 5 2 6 3 7 4 8 5 9 6 10 7 18 8 11 9 12 10 17 11 19 12
REMARK SMILES IDX 13 13 14 14 16 15 15 16 31 17 20 18 30 19 29 20 22 21 21 22
REMARK SMILES IDX 26 23 23 24 24 25 27 26 28 27 25 28 3 30 2 31 1 32 32 33
REMARK SMILES IDX 33 34 34 35
REMARK H PARENT 25 29
REMARK Flexibility Score: inf
ROOT
ATOM      1  C   UNL     1     160.928 162.639 182.653  1.00  0.00     0.014 C 
ENDROOT
BRANCH   1   2
ATOM      2  C   UNL     1     160.155 163.626 181.729  1.00  0.00     0.039 C 
BRANCH   2   3
ATOM      3  C   UNL     1     158.748 163.109 181.491  1.00  0.00     0.045 C 
ATOM      4  O   UNL     1     158.227 162.295 182.297  1.00  0.00    -0.550 OA
ATOM      5  O   UNL     1     157.989 163.558 180.415  1.00  0.00    -0.550 OA
ENDBRANCH   2   3
BRANCH   2   6
ATOM      6  C   UNL     1     160.238 165.101 182.288  1.00  0.00     0.004 C 
ATOM      7  C   UNL     1     158.936 165.620 182.924  1.00  0.00     0.006 C 
ATOM      8  C   UNL     1     160.789 166.270 181.371  1.00  0.00    -0.020 C 
ATOM      9  C   UNL     1     158.866 167.108 182.616  1.00  0.00     0.012 C 
ATOM     10  C   UNL     1     159.613 167.311 181.285  1.00  0.00    -0.006 C 
ATOM     11  C   UNL     1     161.986 166.927 182.113  1.00  0.00     0.012 C 
ATOM     12  C   UNL     1     161.302 165.807 179.977  1.00  0.00     0.012 C 
ATOM     13  C   UNL     1     158.645 166.980 180.112  1.00  0.00     0.017 C 
ATOM     14  C   UNL     1     160.048 168.792 181.153  1.00  0.00    -0.064 C 
ATOM     15  C   UNL     1     162.466 168.209 181.447  1.00  0.00     0.032 C 
ATOM     16  C   UNL     1     161.349 169.216 181.223  1.00  0.00    -0.064 C 
ATOM     17  C   UNL     1     158.960 169.837 180.999  1.00  0.00     0.032 C 
ATOM     18  C   UNL     1     161.707 170.680 180.829  1.00  0.00    -0.008 C 
ATOM     19  C   UNL     1     159.300 171.063 181.824  1.00  0.00     0.009 C 
ATOM     20  C   UNL     1     160.602 171.732 181.316  1.00  0.00     0.007 C 
ATOM     21  C   UNL     1     163.131 171.067 181.352  1.00  0.00     0.014 C 
ATOM     22  C   UNL     1     161.774 170.694 179.276  1.00  0.00     0.016 C 
ATOM     23  C   UNL     1     161.117 172.839 182.315  1.00  0.00    -0.006 C 
ATOM     24  C   UNL     1     163.480 172.544 181.182  1.00  0.00     0.033 C 
ATOM     25  C   UNL     1     162.415 173.518 181.738  1.00  0.00     0.120 C 
ATOM     26  C   UNL     1     160.040 173.952 182.486  1.00  0.00     0.014 C 
ATOM     27  C   UNL     1     161.387 172.247 183.738  1.00  0.00     0.014 C 
BRANCH  25  28
ATOM     28  O   UNL     1     162.107 174.486 180.759  1.00  0.00    -0.393 OA
ATOM     29  H   UNL     1     162.853 174.506 180.106  1.00  0.00     0.210 HD
ENDBRANCH  25  28
ENDBRANCH   2   6
ENDBRANCH   1   2
BRANCH   1  30
ATOM     30  C   UNL     1     162.312 163.145 183.117  1.00  0.00     0.031 C 
BRANCH  30  31
ATOM     31  C   UNL     1     163.454 162.954 182.127  1.00  0.00    -0.075 C 
ATOM     32  C   UNL     1     164.219 164.007 181.785  1.00  0.00     0.008 C 
BRANCH  31  33
ATOM     33  C   UNL     1     163.640 161.629 181.394  1.00  0.00     0.008 C 
ATOM     34  C   UNL     1     163.260 161.740 179.916  1.00  0.00     0.012 C 
ATOM     35  C   UNL     1     165.081 161.110 181.542  1.00  0.00     0.012 C 
ENDBRANCH  31  33
ENDBRANCH  30  31
ENDBRANCH   1  30
TORSDOF 7
ENDMDL
