MODEL 1
REMARK VINA RESULT:    -3.039      0.000      0.000
REMARK INTER + INTRA:           0.577
REMARK INTER:                  -4.638
REMARK INTRA:                   5.214
REMARK UNBOUND:                 5.214
REMARK SMILES CC1=CCC[C@@H](C)C(=O)C[C@H](C(C)C)C(=O)C1
REMARK SMILES IDX 8 1 9 2 6 3 7 4 5 5 4 6 3 7 2 8 1 9 10 11 11 12 15 13 16 14
REMARK SMILES IDX 17 15 12 17 13 18 14 19
REMARK H PARENT
REMARK Flexibility Score: 70.00
ROOT
ATOM      1  C   UNL     1     -29.822 -12.204  22.722  1.00  0.00     0.136 C 
ATOM      2  O   UNL     1     -30.048 -11.943  21.547  1.00  0.00    -0.299 OA
ENDROOT
BRANCH   1   3
ATOM      3  C   UNL     1     -29.143 -13.515  23.088  1.00  0.00     0.053 C 
ATOM      4  C   UNL     1     -29.277 -14.575  21.979  1.00  0.00     0.016 C 
BRANCH   3   5
ATOM      5  C   UNL     1     -29.598 -14.082  24.456  1.00  0.00     0.015 C 
BRANCH   5   6
ATOM      6  C   UNL     1     -29.169 -13.249  25.685  1.00  0.00     0.028 C 
BRANCH   6   7
ATOM      7  C   UNL     1     -27.721 -13.491  26.053  1.00  0.00    -0.028 C 
ATOM      8  C   UNL     1     -26.629 -13.106  25.351  1.00  0.00    -0.070 CG0
ATOM      9  C   UNL     1     -25.276 -13.393  25.953  1.00  0.00     0.039 C 
ATOM     10  G   UNL     1     -26.685 -12.307  24.062  1.00  0.00     0.000 G0
ENDBRANCH   6   7
ENDBRANCH   5   6
ENDBRANCH   3   5
ENDBRANCH   1   3
BRANCH   1  11
ATOM     11  C   UNL     1     -30.069 -11.149  23.780  1.00  0.00     0.087 C 
BRANCH  11  12
ATOM     12  C   UNL     1     -28.908 -10.968  24.799  1.00  0.00     0.066 C 
BRANCH  12  13
ATOM     13  C   UNL     1     -27.499 -11.028  24.190  1.00  0.00     0.140 C 
ATOM     14  O   UNL     1     -26.965  -9.979  23.865  1.00  0.00    -0.299 OA
BRANCH  13  15
ATOM     15  C   UNL     1     -26.672 -12.292  24.051  1.00  0.00     0.106 CG0
ATOM     16  G   UNL     1     -26.604 -13.102  25.333  1.00  0.00     0.000 G0
ENDBRANCH  13  15
ENDBRANCH  12  13
BRANCH  12  17
ATOM     17  C   UNL     1     -29.149  -9.678  25.656  1.00  0.00    -0.006 C 
ATOM     18  C   UNL     1     -27.842  -8.964  26.040  1.00  0.00     0.008 C 
ATOM     19  C   UNL     1     -30.125  -8.685  25.004  1.00  0.00     0.008 C 
ENDBRANCH  12  17
ENDBRANCH  11  12
ENDBRANCH   1  11
TORSDOF 1
ENDMDL
MODEL 2
REMARK VINA RESULT:    -2.990      1.881      4.599
REMARK INTER + INTRA:           0.651
REMARK INTER:                  -0.945
REMARK INTRA:                   1.596
REMARK UNBOUND:                 5.214
REMARK SMILES CC1=CCC[C@@H](C)C(=O)C[C@H](C(C)C)C(=O)C1
REMARK SMILES IDX 8 1 9 2 6 3 7 4 5 5 4 6 3 7 2 8 1 9 10 11 11 12 15 13 16 14
REMARK SMILES IDX 17 15 12 17 13 18 14 19
REMARK H PARENT
REMARK Flexibility Score: 70.00
ROOT
ATOM      1  C   UNL     1     -28.292 -11.020  25.470  1.00  0.00     0.136 C 
ATOM      2  O   UNL     1     -29.456 -11.075  25.845  1.00  0.00    -0.299 OA
ENDROOT
BRANCH   1   3
ATOM      3  C   UNL     1     -27.865  -9.940  24.486  1.00  0.00     0.053 C 
ATOM      4  C   UNL     1     -28.270  -8.529  24.953  1.00  0.00     0.016 C 
BRANCH   3   5
ATOM      5  C   UNL     1     -28.345 -10.204  23.037  1.00  0.00     0.015 C 
BRANCH   5   6
ATOM      6  C   UNL     1     -27.675 -11.408  22.335  1.00  0.00     0.028 C 
BRANCH   6   7
ATOM      7  C   UNL     1     -28.697 -12.355  21.745  1.00  0.00    -0.028 C 
ATOM      8  C   UNL     1     -28.932 -13.635  22.123  1.00  0.00    -0.070 CG0
ATOM      9  C   UNL     1     -30.058 -14.369  21.438  1.00  0.00     0.039 C 
ATOM     10  G   UNL     1     -28.213 -14.330  23.265  1.00  0.00     0.000 G0
ENDBRANCH   6   7
ENDBRANCH   5   6
ENDBRANCH   3   5
ENDBRANCH   1   3
BRANCH   1  11
ATOM     11  C   UNL     1     -27.258 -11.919  26.114  1.00  0.00     0.087 C 
BRANCH  11  12
ATOM     12  C   UNL     1     -27.251 -13.382  25.587  1.00  0.00     0.066 C 
BRANCH  12  13
ATOM     13  C   UNL     1     -28.397 -13.727  24.624  1.00  0.00     0.140 C 
ATOM     14  O   UNL     1     -29.533 -13.414  24.942  1.00  0.00    -0.299 OA
BRANCH  13  15
ATOM     15  C   UNL     1     -28.213 -14.344  23.250  1.00  0.00     0.106 CG0
ATOM     16  G   UNL     1     -28.982 -13.615  22.163  1.00  0.00     0.000 G0
ENDBRANCH  13  15
ENDBRANCH  12  13
BRANCH  12  17
ATOM     17  C   UNL     1     -25.838 -13.733  25.007  1.00  0.00    -0.006 C 
ATOM     18  C   UNL     1     -25.264 -12.615  24.121  1.00  0.00     0.008 C 
ATOM     19  C   UNL     1     -24.818 -14.134  26.084  1.00  0.00     0.008 C 
ENDBRANCH  12  17
ENDBRANCH  11  12
ENDBRANCH   1  11
TORSDOF 1
ENDMDL
