MODEL 1
REMARK VINA RESULT:     5.227      0.000      0.000
REMARK INTER + INTRA:           7.769
REMARK INTER:                   8.283
REMARK INTRA:                  -0.514
REMARK UNBOUND:                -0.514
REMARK SMILES C[C@@H]1O[C@H](O[C@H]2CC[C@]3(C)[C@@H](CC[C@@]4(C)[C@@H]3C=C[C@]35OC[C@@]6(CCC(C)(C)C[C@@H]63)[C@@H](O)C[C@]45C)[C@]2(C)CO)[C@H](O)[C@H](O[C@H]2O[C@H](CO)[C@@H](O)[C@@H](O)[C@H]2O)[C@@H]1O
REMARK SMILES IDX 1 1 2 2 54 3 41 4 39 5 4 6 3 7 55 8 42 10 43 11 52 12 44 13
REMARK SMILES IDX 50 14 45 15 48 16 53 17 51 19 46 21 47 22 49 24 5 26 6 27
REMARK SMILES IDX 7 28 35 29 8 30 11 31 36 32 9 33 12 34 10 35 16 36 13 37
REMARK SMILES IDX 14 38 17 39 15 40 33 41 18 42 19 43 32 44 34 45 29 46 20 47
REMARK SMILES IDX 30 48 22 49 28 50 21 51 23 52 25 53 24 54 26 55 27 56 37 57
REMARK SMILES IDX 38 58 31 60 40 62
REMARK H PARENT 55 9 53 18 51 20 47 23 49 25 38 59 31 61 40 63
REMARK Flexibility Score: inf
ROOT
ATOM      1  C   UNL     1      13.387 115.872  26.113  1.00  0.00     0.041 C 
ATOM      2  C   UNL     1      13.880 116.073  27.569  1.00  0.00     0.150 C 
ATOM      3  C   UNL     1      14.951 115.087  28.115  1.00  0.00     0.175 C 
ATOM      4  C   UNL     1      16.435 115.550  27.955  1.00  0.00     0.186 C 
ATOM      5  C   UNL     1      16.597 117.113  27.986  1.00  0.00     0.202 C 
ATOM      6  C   UNL     1      15.374 117.962  27.472  1.00  0.00     0.282 C 
ATOM      7  O   UNL     1      14.122 117.423  27.891  1.00  0.00    -0.344 OA
ENDROOT
BRANCH   3   8
ATOM      8  O   UNL     1      14.853 113.822  27.536  1.00  0.00    -0.388 OA
ATOM      9  H   UNL     1      15.596 113.234  27.809  1.00  0.00     0.211 HD
ENDBRANCH   3   8
BRANCH   4  10
ATOM     10  O   UNL     1      17.209 114.590  27.185  1.00  0.00    -0.341 OA
BRANCH  10  11
ATOM     11  C   UNL     1      18.631 114.525  26.991  1.00  0.00     0.282 C 
ATOM     12  C   UNL     1      19.023 113.851  25.642  1.00  0.00     0.202 C 
ATOM     13  O   UNL     1      19.139 113.786  28.124  1.00  0.00    -0.341 OA
ATOM     14  C   UNL     1      18.789 112.341  25.727  1.00  0.00     0.179 C 
ATOM     15  C   UNL     1      20.100 112.736  27.904  1.00  0.00     0.178 C 
ATOM     16  C   UNL     1      19.859 111.786  26.657  1.00  0.00     0.177 C 
BRANCH  12  17
ATOM     17  O   UNL     1      18.350 114.385  24.575  1.00  0.00    -0.385 OA
ATOM     18  H   UNL     1      18.900 114.085  23.805  1.00  0.00     0.211 HD
ENDBRANCH  12  17
BRANCH  14  19
ATOM     19  O   UNL     1      17.518 112.068  26.271  1.00  0.00    -0.387 OA
ATOM     20  H   UNL     1      17.589 111.295  26.903  1.00  0.00     0.211 HD
ENDBRANCH  14  19
BRANCH  15  21
ATOM     21  C   UNL     1      21.545 113.272  27.992  1.00  0.00     0.191 C 
BRANCH  21  22
ATOM     22  O   UNL     1      22.226 113.122  26.771  1.00  0.00    -0.394 OA
ATOM     23  H   UNL     1      21.555 113.208  26.048  1.00  0.00     0.210 HD
ENDBRANCH  21  22
ENDBRANCH  15  21
BRANCH  16  24
ATOM     24  O   UNL     1      19.628 110.436  26.997  1.00  0.00    -0.387 OA
ATOM     25  H   UNL     1      18.937 110.400  27.701  1.00  0.00     0.211 HD
ENDBRANCH  16  24
ENDBRANCH  10  11
ENDBRANCH   4  10
BRANCH   6  26
ATOM     26  O   UNL     1      15.450 118.213  26.088  1.00  0.00    -0.346 OA
BRANCH  26  27
ATOM     27  C   UNL     1      15.285 119.562  25.620  1.00  0.00     0.130 C 
ATOM     28  C   UNL     1      16.315 119.967  24.559  1.00  0.00     0.033 C 
ATOM     29  C   UNL     1      13.801 120.071  25.362  1.00  0.00     0.020 C 
ATOM     30  C   UNL     1      15.946 121.266  23.825  1.00  0.00     0.010 C 
ATOM     31  C   UNL     1      13.513 120.314  23.787  1.00  0.00     0.006 C 
ATOM     32  C   UNL     1      12.757 119.109  26.033  1.00  0.00     0.017 C 
ATOM     33  C   UNL     1      14.655 121.129  22.940  1.00  0.00    -0.022 C 
ATOM     34  C   UNL     1      12.854 119.107  23.052  1.00  0.00     0.005 C 
ATOM     35  C   UNL     1      14.179 122.611  22.745  1.00  0.00     0.012 C 
ATOM     36  C   UNL     1      14.999 120.565  21.439  1.00  0.00     0.024 C 
ATOM     37  C   UNL     1      13.543 118.594  21.803  1.00  0.00     0.008 C 
ATOM     38  C   UNL     1      13.880 119.687  20.740  1.00  0.00    -0.017 C 
ATOM     39  C   UNL     1      16.359 119.900  21.298  1.00  0.00    -0.024 C 
ATOM     40  C   UNL     1      12.620 120.593  20.549  1.00  0.00     0.013 C 
ATOM     41  C   UNL     1      14.358 119.021  19.286  1.00  0.00     0.009 C 
ATOM     42  C   UNL     1      16.764 119.349  20.173  1.00  0.00     0.005 C 
ATOM     43  C   UNL     1      15.911 119.274  18.949  1.00  0.00     0.096 C 
ATOM     44  C   UNL     1      13.487 119.551  18.051  1.00  0.00     0.043 C 
ATOM     45  C   UNL     1      14.123 117.473  19.262  1.00  0.00     0.015 C 
ATOM     46  C   UNL     1      16.056 120.519  18.034  1.00  0.00     0.037 C 
ATOM     47  O   UNL     1      16.436 118.174  18.207  1.00  0.00    -0.369 OA
ATOM     48  C   UNL     1      14.167 119.550  16.651  1.00  0.00     0.124 C 
ATOM     49  C   UNL     1      15.715 119.849  16.704  1.00  0.00     0.026 C 
ATOM     50  C   UNL     1      17.437 121.212  17.998  1.00  0.00     0.014 C 
ATOM     51  C   UNL     1      16.499 118.541  16.855  1.00  0.00     0.171 C 
ATOM     52  C   UNL     1      16.201 120.663  15.454  1.00  0.00     0.013 C 
ATOM     53  C   UNL     1      17.489 122.342  16.916  1.00  0.00    -0.035 C 
ATOM     54  C   UNL     1      16.409 122.138  15.803  1.00  0.00     0.007 C 
ATOM     55  C   UNL     1      17.241 123.714  17.578  1.00  0.00     0.011 C 
ATOM     56  C   UNL     1      18.891 122.365  16.270  1.00  0.00     0.011 C 
BRANCH  29  57
ATOM     57  C   UNL     1      13.543 121.427  26.123  1.00  0.00     0.165 C 
BRANCH  57  58
ATOM     58  O   UNL     1      13.782 121.314  27.506  1.00  0.00    -0.396 OA
ATOM     59  H   UNL     1      14.704 121.657  27.654  1.00  0.00     0.210 HD
ENDBRANCH  57  58
ENDBRANCH  29  57
BRANCH  48  60
ATOM     60  O   UNL     1      13.890 118.347  15.975  1.00  0.00    -0.392 OA
ATOM     61  H   UNL     1      14.724 117.814  15.961  1.00  0.00     0.210 HD
ENDBRANCH  48  60
ENDBRANCH  26  27
ENDBRANCH   6  26
BRANCH   5  62
ATOM     62  O   UNL     1      17.867 117.577  27.579  1.00  0.00    -0.385 OA
ATOM     63  H   UNL     1      18.470 117.501  28.352  1.00  0.00     0.211 HD
ENDBRANCH   5  62
TORSDOF 14
ENDMDL
MODEL 2
REMARK VINA RESULT:     5.475      4.057     11.683
REMARK INTER + INTRA:           8.162
REMARK INTER:                   6.788
REMARK INTRA:                   1.373
REMARK UNBOUND:                -0.514
REMARK SMILES C[C@@H]1O[C@H](O[C@H]2CC[C@]3(C)[C@@H](CC[C@@]4(C)[C@@H]3C=C[C@]35OC[C@@]6(CCC(C)(C)C[C@@H]63)[C@@H](O)C[C@]45C)[C@]2(C)CO)[C@H](O)[C@H](O[C@H]2O[C@H](CO)[C@@H](O)[C@@H](O)[C@H]2O)[C@@H]1O
REMARK SMILES IDX 1 1 2 2 54 3 41 4 39 5 4 6 3 7 55 8 42 10 43 11 52 12 44 13
REMARK SMILES IDX 50 14 45 15 48 16 53 17 51 19 46 21 47 22 49 24 5 26 6 27
REMARK SMILES IDX 7 28 35 29 8 30 11 31 36 32 9 33 12 34 10 35 16 36 13 37
REMARK SMILES IDX 14 38 17 39 15 40 33 41 18 42 19 43 32 44 34 45 29 46 20 47
REMARK SMILES IDX 30 48 22 49 28 50 21 51 23 52 25 53 24 54 26 55 27 56 37 57
REMARK SMILES IDX 38 58 31 60 40 62
REMARK H PARENT 55 9 53 18 51 20 47 23 49 25 38 59 31 61 40 63
REMARK Flexibility Score: inf
ROOT
ATOM      1  C   UNL     1      18.752 123.534  16.868  1.00  0.00     0.041 C 
ATOM      2  C   UNL     1      17.676 123.444  15.754  1.00  0.00     0.150 C 
ATOM      3  C   UNL     1      18.100 122.844  14.385  1.00  0.00     0.175 C 
ATOM      4  C   UNL     1      17.850 121.310  14.217  1.00  0.00     0.186 C 
ATOM      5  C   UNL     1      16.620 120.794  15.049  1.00  0.00     0.202 C 
ATOM      6  C   UNL     1      16.283 121.578  16.373  1.00  0.00     0.282 C 
ATOM      7  O   UNL     1      16.429 122.988  16.223  1.00  0.00    -0.344 OA
ENDROOT
BRANCH   3   8
ATOM      8  O   UNL     1      19.445 123.073  14.096  1.00  0.00    -0.388 OA
ATOM      9  H   UNL     1      19.575 123.383  13.169  1.00  0.00     0.211 HD
ENDBRANCH   3   8
BRANCH   4  10
ATOM     10  O   UNL     1      19.084 120.602  13.918  1.00  0.00    -0.341 OA
BRANCH  10  11
ATOM     11  C   UNL     1      19.308 119.530  12.988  1.00  0.00     0.282 C 
ATOM     12  C   UNL     1      20.806 119.390  12.583  1.00  0.00     0.202 C 
ATOM     13  O   UNL     1      18.473 119.833  11.847  1.00  0.00    -0.341 OA
ATOM     14  C   UNL     1      21.199 120.527  11.638  1.00  0.00     0.179 C 
ATOM     15  C   UNL     1      19.027 119.721  10.522  1.00  0.00     0.178 C 
ATOM     16  C   UNL     1      20.507 120.250  10.310  1.00  0.00     0.177 C 
BRANCH  12  17
ATOM     17  O   UNL     1      21.641 119.353  13.668  1.00  0.00    -0.385 OA
ATOM     18  H   UNL     1      21.454 120.221  14.111  1.00  0.00     0.211 HD
ENDBRANCH  12  17
BRANCH  14  19
ATOM     19  O   UNL     1      20.752 121.765  12.142  1.00  0.00    -0.387 OA
ATOM     20  H   UNL     1      20.627 121.691  13.133  1.00  0.00     0.211 HD
ENDBRANCH  14  19
BRANCH  15  21
ATOM     21  C   UNL     1      18.793 118.312   9.936  1.00  0.00     0.191 C 
BRANCH  21  22
ATOM     22  O   UNL     1      20.008 117.677   9.621  1.00  0.00    -0.394 OA
ATOM     23  H   UNL     1      20.614 117.802  10.393  1.00  0.00     0.210 HD
ENDBRANCH  21  22
ENDBRANCH  15  21
BRANCH  16  24
ATOM     24  O   UNL     1      20.608 121.336   9.415  1.00  0.00    -0.387 OA
ATOM     25  H   UNL     1      21.450 121.818   9.595  1.00  0.00     0.211 HD
ENDBRANCH  16  24
ENDBRANCH  10  11
ENDBRANCH   4  10
BRANCH   6  26
ATOM     26  O   UNL     1      16.965 121.051  17.487  1.00  0.00    -0.346 OA
BRANCH  26  27
ATOM     27  C   UNL     1      16.576 119.762  17.990  1.00  0.00     0.130 C 
ATOM     28  C   UNL     1      17.270 119.388  19.305  1.00  0.00     0.033 C 
ATOM     29  C   UNL     1      15.037 119.372  17.893  1.00  0.00     0.020 C 
ATOM     30  C   UNL     1      16.621 118.185  20.008  1.00  0.00     0.010 C 
ATOM     31  C   UNL     1      14.345 119.289  19.355  1.00  0.00     0.006 C 
ATOM     32  C   UNL     1      14.279 120.336  16.912  1.00  0.00     0.017 C 
ATOM     33  C   UNL     1      15.165 118.482  20.522  1.00  0.00    -0.022 C 
ATOM     34  C   UNL     1      13.626 120.596  19.810  1.00  0.00     0.005 C 
ATOM     35  C   UNL     1      14.533 117.057  20.690  1.00  0.00     0.012 C 
ATOM     36  C   UNL     1      15.169 119.154  22.017  1.00  0.00     0.024 C 
ATOM     37  C   UNL     1      14.021 121.173  21.155  1.00  0.00     0.008 C 
ATOM     38  C   UNL     1      13.987 120.160  22.342  1.00  0.00    -0.017 C 
ATOM     39  C   UNL     1      16.501 119.741  22.455  1.00  0.00    -0.024 C 
ATOM     40  C   UNL     1      12.648 119.356  22.266  1.00  0.00     0.013 C 
ATOM     41  C   UNL     1      14.140 120.920  23.821  1.00  0.00     0.009 C 
ATOM     42  C   UNL     1      16.656 120.363  23.606  1.00  0.00     0.005 C 
ATOM     43  C   UNL     1      15.532 120.601  24.562  1.00  0.00     0.096 C 
ATOM     44  C   UNL     1      12.947 120.558  24.825  1.00  0.00     0.043 C 
ATOM     45  C   UNL     1      14.037 122.476  23.676  1.00  0.00     0.015 C 
ATOM     46  C   UNL     1      15.339 119.435  25.568  1.00  0.00     0.037 C 
ATOM     47  O   UNL     1      15.945 121.727  25.335  1.00  0.00    -0.369 OA
ATOM     48  C   UNL     1      13.252 120.640  26.349  1.00  0.00     0.124 C 
ATOM     49  C   UNL     1      14.733 120.240  26.716  1.00  0.00     0.026 C 
ATOM     50  C   UNL     1      16.604 118.662  26.005  1.00  0.00     0.014 C 
ATOM     51  C   UNL     1      15.637 121.477  26.680  1.00  0.00     0.171 C 
ATOM     52  C   UNL     1      14.821 119.511  28.102  1.00  0.00     0.013 C 
ATOM     53  C   UNL     1      16.288 117.631  27.139  1.00  0.00    -0.035 C 
ATOM     54  C   UNL     1      14.984 118.001  27.921  1.00  0.00     0.007 C 
ATOM     55  C   UNL     1      16.099 116.224  26.534  1.00  0.00     0.011 C 
ATOM     56  C   UNL     1      17.476 117.576  28.124  1.00  0.00     0.011 C 
BRANCH  29  57
ATOM     57  C   UNL     1      14.865 117.974  17.188  1.00  0.00     0.165 C 
BRANCH  57  58
ATOM     58  O   UNL     1      14.229 118.084  15.937  1.00  0.00    -0.396 OA
ATOM     59  H   UNL     1      14.019 119.050  15.820  1.00  0.00     0.210 HD
ENDBRANCH  57  58
ENDBRANCH  29  57
BRANCH  48  60
ATOM     60  O   UNL     1      12.916 121.913  26.846  1.00  0.00    -0.392 OA
ATOM     61  H   UNL     1      13.399 122.583  26.299  1.00  0.00     0.210 HD
ENDBRANCH  48  60
ENDBRANCH  26  27
ENDBRANCH   6  26
BRANCH   5  62
ATOM     62  O   UNL     1      16.526 119.388  15.139  1.00  0.00    -0.385 OA
ATOM     63  H   UNL     1      17.312 119.072  15.637  1.00  0.00     0.211 HD
ENDBRANCH   5  62
TORSDOF 14
ENDMDL
MODEL 3
REMARK VINA RESULT:     6.460      1.303      2.293
REMARK INTER + INTRA:           9.722
REMARK INTER:                   8.590
REMARK INTRA:                   1.132
REMARK UNBOUND:                -0.514
REMARK SMILES C[C@@H]1O[C@H](O[C@H]2CC[C@]3(C)[C@@H](CC[C@@]4(C)[C@@H]3C=C[C@]35OC[C@@]6(CCC(C)(C)C[C@@H]63)[C@@H](O)C[C@]45C)[C@]2(C)CO)[C@H](O)[C@H](O[C@H]2O[C@H](CO)[C@@H](O)[C@@H](O)[C@H]2O)[C@@H]1O
REMARK SMILES IDX 1 1 2 2 54 3 41 4 39 5 4 6 3 7 55 8 42 10 43 11 52 12 44 13
REMARK SMILES IDX 50 14 45 15 48 16 53 17 51 19 46 21 47 22 49 24 5 26 6 27
REMARK SMILES IDX 7 28 35 29 8 30 11 31 36 32 9 33 12 34 10 35 16 36 13 37
REMARK SMILES IDX 14 38 17 39 15 40 33 41 18 42 19 43 32 44 34 45 29 46 20 47
REMARK SMILES IDX 30 48 22 49 28 50 21 51 23 52 25 53 24 54 26 55 27 56 37 57
REMARK SMILES IDX 38 58 31 60 40 62
REMARK H PARENT 55 9 53 18 51 20 47 23 49 25 38 59 31 61 40 63
REMARK Flexibility Score: inf
ROOT
ATOM      1  C   UNL     1      17.623 117.458  23.168  1.00  0.00     0.041 C 
ATOM      2  C   UNL     1      16.508 116.384  23.086  1.00  0.00     0.150 C 
ATOM      3  C   UNL     1      16.891 114.915  23.415  1.00  0.00     0.175 C 
ATOM      4  C   UNL     1      16.672 114.478  24.899  1.00  0.00     0.186 C 
ATOM      5  C   UNL     1      15.488 115.243  25.595  1.00  0.00     0.202 C 
ATOM      6  C   UNL     1      15.184 116.698  25.076  1.00  0.00     0.282 C 
ATOM      7  O   UNL     1      15.291 116.804  23.658  1.00  0.00    -0.344 OA
ENDROOT
BRANCH   3   8
ATOM      8  O   UNL     1      18.219 114.627  23.096  1.00  0.00    -0.388 OA
ATOM      9  H   UNL     1      18.317 113.725  22.708  1.00  0.00     0.211 HD
ENDBRANCH   3   8
BRANCH   4  10
ATOM     10  O   UNL     1      17.910 114.013  25.503  1.00  0.00    -0.341 OA
BRANCH  10  11
ATOM     11  C   UNL     1      18.260 112.690  25.942  1.00  0.00     0.282 C 
ATOM     12  C   UNL     1      18.209 112.539  27.491  1.00  0.00     0.202 C 
ATOM     13  O   UNL     1      19.590 112.456  25.427  1.00  0.00    -0.341 OA
ATOM     14  C   UNL     1      19.404 113.255  28.125  1.00  0.00     0.179 C 
ATOM     15  C   UNL     1      20.591 111.892  26.295  1.00  0.00     0.178 C 
ATOM     16  C   UNL     1      20.637 112.428  27.787  1.00  0.00     0.177 C 
BRANCH  12  17
ATOM     17  O   UNL     1      17.033 112.996  28.024  1.00  0.00    -0.385 OA
ATOM     18  H   UNL     1      16.530 112.156  28.183  1.00  0.00     0.211 HD
ENDBRANCH  12  17
BRANCH  14  19
ATOM     19  O   UNL     1      19.550 114.547  27.581  1.00  0.00    -0.387 OA
ATOM     20  H   UNL     1      18.685 115.042  27.672  1.00  0.00     0.211 HD
ENDBRANCH  14  19
BRANCH  15  21
ATOM     21  C   UNL     1      20.611 110.351  26.200  1.00  0.00     0.191 C 
BRANCH  21  22
ATOM     22  O   UNL     1      19.572 109.775  26.952  1.00  0.00    -0.394 OA
ATOM     23  H   UNL     1      19.966 109.037  27.481  1.00  0.00     0.210 HD
ENDBRANCH  21  22
ENDBRANCH  15  21
BRANCH  16  24
ATOM     24  O   UNL     1      21.837 113.090  28.125  1.00  0.00    -0.387 OA
ATOM     25  H   UNL     1      22.073 112.862  29.056  1.00  0.00     0.211 HD
ENDBRANCH  16  24
ENDBRANCH  10  11
ENDBRANCH   4  10
BRANCH   6  26
ATOM     26  O   UNL     1      15.922 117.674  25.776  1.00  0.00    -0.346 OA
BRANCH  26  27
ATOM     27  C   UNL     1      15.747 119.056  25.425  1.00  0.00     0.130 C 
ATOM     28  C   UNL     1      16.732 119.540  24.354  1.00  0.00     0.033 C 
ATOM     29  C   UNL     1      14.258 119.592  25.277  1.00  0.00     0.020 C 
ATOM     30  C   UNL     1      16.341 120.896  23.744  1.00  0.00     0.010 C 
ATOM     31  C   UNL     1      13.901 119.962  23.741  1.00  0.00     0.006 C 
ATOM     32  C   UNL     1      13.236 118.584  25.916  1.00  0.00     0.017 C 
ATOM     33  C   UNL     1      15.010 120.837  22.910  1.00  0.00    -0.022 C 
ATOM     34  C   UNL     1      13.199 118.820  22.943  1.00  0.00     0.005 C 
ATOM     35  C   UNL     1      14.538 122.331  22.856  1.00  0.00     0.012 C 
ATOM     36  C   UNL     1      15.281 120.392  21.355  1.00  0.00     0.024 C 
ATOM     37  C   UNL     1      13.827 118.406  21.627  1.00  0.00     0.008 C 
ATOM     38  C   UNL     1      14.124 119.579  20.640  1.00  0.00    -0.017 C 
ATOM     39  C   UNL     1      16.628 119.735  21.100  1.00  0.00    -0.024 C 
ATOM     40  C   UNL     1      12.865 120.503  20.580  1.00  0.00     0.013 C 
ATOM     41  C   UNL     1      14.530 119.030  19.117  1.00  0.00     0.009 C 
ATOM     42  C   UNL     1      16.977 119.274  19.917  1.00  0.00     0.005 C 
ATOM     43  C   UNL     1      16.069 119.301  18.730  1.00  0.00     0.096 C 
ATOM     44  C   UNL     1      13.610 119.661  17.970  1.00  0.00     0.043 C 
ATOM     45  C   UNL     1      14.282 117.490  18.980  1.00  0.00     0.015 C 
ATOM     46  C   UNL     1      16.183 120.615  17.912  1.00  0.00     0.037 C 
ATOM     47  O   UNL     1      16.551 118.261  17.880  1.00  0.00    -0.369 OA
ATOM     48  C   UNL     1      14.225 119.769  16.544  1.00  0.00     0.124 C 
ATOM     49  C   UNL     1      15.776 120.055  16.550  1.00  0.00     0.026 C 
ATOM     50  C   UNL     1      17.567 121.301  17.869  1.00  0.00     0.014 C 
ATOM     51  C   UNL     1      16.556 118.736  16.560  1.00  0.00     0.171 C 
ATOM     52  C   UNL     1      16.213 120.965  15.349  1.00  0.00     0.013 C 
ATOM     53  C   UNL     1      17.580 122.514  16.880  1.00  0.00    -0.035 C 
ATOM     54  C   UNL     1      16.448 122.406  15.804  1.00  0.00     0.007 C 
ATOM     55  C   UNL     1      17.374 123.831  17.659  1.00  0.00     0.011 C 
ATOM     56  C   UNL     1      18.951 122.583  16.174  1.00  0.00     0.011 C 
BRANCH  29  57
ATOM     57  C   UNL     1      14.046 120.883  26.154  1.00  0.00     0.165 C 
BRANCH  57  58
ATOM     58  O   UNL     1      13.038 120.709  27.122  1.00  0.00    -0.396 OA
ATOM     59  H   UNL     1      12.910 119.726  27.211  1.00  0.00     0.210 HD
ENDBRANCH  57  58
ENDBRANCH  29  57
BRANCH  48  60
ATOM     60  O   UNL     1      13.908 118.626  15.788  1.00  0.00    -0.392 OA
ATOM     61  H   UNL     1      13.067 118.251  16.152  1.00  0.00     0.210 HD
ENDBRANCH  48  60
ENDBRANCH  26  27
ENDBRANCH   6  26
BRANCH   5  62
ATOM     62  O   UNL     1      15.431 115.077  26.996  1.00  0.00    -0.385 OA
ATOM     63  H   UNL     1      16.032 115.745  27.396  1.00  0.00     0.211 HD
ENDBRANCH   5  62
TORSDOF 14
ENDMDL
MODEL 4
REMARK VINA RESULT:     7.424      1.379      2.464
REMARK INTER + INTRA:          11.249
REMARK INTER:                  11.869
REMARK INTRA:                  -0.620
REMARK UNBOUND:                -0.514
REMARK SMILES C[C@@H]1O[C@H](O[C@H]2CC[C@]3(C)[C@@H](CC[C@@]4(C)[C@@H]3C=C[C@]35OC[C@@]6(CCC(C)(C)C[C@@H]63)[C@@H](O)C[C@]45C)[C@]2(C)CO)[C@H](O)[C@H](O[C@H]2O[C@H](CO)[C@@H](O)[C@@H](O)[C@H]2O)[C@@H]1O
REMARK SMILES IDX 1 1 2 2 54 3 41 4 39 5 4 6 3 7 55 8 42 10 43 11 52 12 44 13
REMARK SMILES IDX 50 14 45 15 48 16 53 17 51 19 46 21 47 22 49 24 5 26 6 27
REMARK SMILES IDX 7 28 35 29 8 30 11 31 36 32 9 33 12 34 10 35 16 36 13 37
REMARK SMILES IDX 14 38 17 39 15 40 33 41 18 42 19 43 32 44 34 45 29 46 20 47
REMARK SMILES IDX 30 48 22 49 28 50 21 51 23 52 25 53 24 54 26 55 27 56 37 57
REMARK SMILES IDX 38 58 31 60 40 62
REMARK H PARENT 55 9 53 18 51 20 47 23 49 25 38 59 31 61 40 63
REMARK Flexibility Score: inf
ROOT
ATOM      1  C   UNL     1      13.006 116.008  26.364  1.00  0.00     0.041 C 
ATOM      2  C   UNL     1      13.716 116.101  27.739  1.00  0.00     0.150 C 
ATOM      3  C   UNL     1      14.700 114.962  28.125  1.00  0.00     0.175 C 
ATOM      4  C   UNL     1      16.199 115.217  27.765  1.00  0.00     0.186 C 
ATOM      5  C   UNL     1      16.584 116.741  27.784  1.00  0.00     0.202 C 
ATOM      6  C   UNL     1      15.435 117.765  27.449  1.00  0.00     0.282 C 
ATOM      7  O   UNL     1      14.188 117.395  28.033  1.00  0.00    -0.344 OA
ENDROOT
BRANCH   3   8
ATOM      8  O   UNL     1      14.346 113.738  27.557  1.00  0.00    -0.388 OA
ATOM      9  H   UNL     1      13.483 113.408  27.902  1.00  0.00     0.211 HD
ENDBRANCH   3   8
BRANCH   4  10
ATOM     10  O   UNL     1      16.718 114.179  26.889  1.00  0.00    -0.341 OA
BRANCH  10  11
ATOM     11  C   UNL     1      16.470 113.970  25.490  1.00  0.00     0.282 C 
ATOM     12  C   UNL     1      17.731 113.472  24.724  1.00  0.00     0.202 C 
ATOM     13  O   UNL     1      16.011 115.246  24.988  1.00  0.00    -0.341 OA
ATOM     14  C   UNL     1      18.727 114.621  24.556  1.00  0.00     0.179 C 
ATOM     15  C   UNL     1      16.562 115.757  23.759  1.00  0.00     0.178 C 
ATOM     16  C   UNL     1      18.122 115.578  23.537  1.00  0.00     0.177 C 
BRANCH  12  17
ATOM     17  O   UNL     1      18.328 112.402  25.337  1.00  0.00    -0.385 OA
ATOM     18  H   UNL     1      19.109 112.228  24.751  1.00  0.00     0.211 HD
ENDBRANCH  12  17
BRANCH  14  19
ATOM     19  O   UNL     1      18.907 115.301  25.777  1.00  0.00    -0.387 OA
ATOM     20  H   UNL     1      18.239 116.044  25.842  1.00  0.00     0.211 HD
ENDBRANCH  14  19
BRANCH  15  21
ATOM     21  C   UNL     1      15.718 115.318  22.543  1.00  0.00     0.191 C 
BRANCH  21  22
ATOM     22  O   UNL     1      15.341 116.419  21.753  1.00  0.00    -0.394 OA
ATOM     23  H   UNL     1      15.514 116.177  20.810  1.00  0.00     0.210 HD
ENDBRANCH  21  22
ENDBRANCH  15  21
BRANCH  16  24
ATOM     24  O   UNL     1      18.835 116.792  23.450  1.00  0.00    -0.387 OA
ATOM     25  H   UNL     1      19.782 116.619  23.668  1.00  0.00     0.211 HD
ENDBRANCH  16  24
ENDBRANCH  10  11
ENDBRANCH   4  10
BRANCH   6  26
ATOM     26  O   UNL     1      15.357 118.039  26.069  1.00  0.00    -0.346 OA
BRANCH  26  27
ATOM     27  C   UNL     1      15.258 119.407  25.640  1.00  0.00     0.130 C 
ATOM     28  C   UNL     1      16.300 119.790  24.583  1.00  0.00     0.033 C 
ATOM     29  C   UNL     1      13.800 119.998  25.410  1.00  0.00     0.020 C 
ATOM     30  C   UNL     1      15.992 121.126  23.889  1.00  0.00     0.010 C 
ATOM     31  C   UNL     1      13.514 120.300  23.844  1.00  0.00     0.006 C 
ATOM     32  C   UNL     1      12.713 119.071  26.062  1.00  0.00     0.017 C 
ATOM     33  C   UNL     1      14.690 121.080  23.011  1.00  0.00    -0.022 C 
ATOM     34  C   UNL     1      12.789 119.149  23.081  1.00  0.00     0.005 C 
ATOM     35  C   UNL     1      14.288 122.588  22.861  1.00  0.00     0.012 C 
ATOM     36  C   UNL     1      14.994 120.542  21.492  1.00  0.00     0.024 C 
ATOM     37  C   UNL     1      13.443 118.638  21.813  1.00  0.00     0.008 C 
ATOM     38  C   UNL     1      13.827 119.742  20.778  1.00  0.00    -0.017 C 
ATOM     39  C   UNL     1      16.318 119.813  21.321  1.00  0.00    -0.024 C 
ATOM     40  C   UNL     1      12.613 120.715  20.623  1.00  0.00     0.013 C 
ATOM     41  C   UNL     1      14.260 119.094  19.302  1.00  0.00     0.009 C 
ATOM     42  C   UNL     1      16.687 119.274  20.178  1.00  0.00     0.005 C 
ATOM     43  C   UNL     1      15.822 119.277  18.959  1.00  0.00     0.096 C 
ATOM     44  C   UNL     1      13.410 119.702  18.090  1.00  0.00     0.043 C 
ATOM     45  C   UNL     1      13.947 117.561  19.236  1.00  0.00     0.015 C 
ATOM     46  C   UNL     1      16.024 120.539  18.078  1.00  0.00     0.037 C 
ATOM     47  O   UNL     1      16.286 118.173  18.182  1.00  0.00    -0.369 OA
ATOM     48  C   UNL     1      14.079 119.707  16.684  1.00  0.00     0.124 C 
ATOM     49  C   UNL     1      15.640 119.925  16.733  1.00  0.00     0.026 C 
ATOM     50  C   UNL     1      17.439 121.162  18.050  1.00  0.00     0.014 C 
ATOM     51  C   UNL     1      16.358 118.576  16.841  1.00  0.00     0.171 C 
ATOM     52  C   UNL     1      16.159 120.749  15.503  1.00  0.00     0.013 C 
ATOM     53  C   UNL     1      17.540 122.318  17.000  1.00  0.00    -0.035 C 
ATOM     54  C   UNL     1      16.443 122.201  15.891  1.00  0.00     0.007 C 
ATOM     55  C   UNL     1      17.367 123.682  17.702  1.00  0.00     0.011 C 
ATOM     56  C   UNL     1      18.937 122.289  16.343  1.00  0.00     0.011 C 
BRANCH  29  57
ATOM     57  C   UNL     1      13.616 121.343  26.210  1.00  0.00     0.165 C 
BRANCH  57  58
ATOM     58  O   UNL     1      12.430 122.014  25.856  1.00  0.00    -0.396 OA
ATOM     59  H   UNL     1      11.806 121.890  26.621  1.00  0.00     0.210 HD
ENDBRANCH  57  58
ENDBRANCH  29  57
BRANCH  48  60
ATOM     60  O   UNL     1      13.736 118.539  15.978  1.00  0.00    -0.392 OA
ATOM     61  H   UNL     1      13.416 118.815  15.082  1.00  0.00     0.210 HD
ENDBRANCH  48  60
ENDBRANCH  26  27
ENDBRANCH   6  26
BRANCH   5  62
ATOM     62  O   UNL     1      17.839 117.033  27.208  1.00  0.00    -0.385 OA
ATOM     63  H   UNL     1      17.707 117.109  26.237  1.00  0.00     0.211 HD
ENDBRANCH   5  62
TORSDOF 14
ENDMDL
MODEL 5
REMARK VINA RESULT:     8.198      3.152      8.498
REMARK INTER + INTRA:          12.477
REMARK INTER:                  12.608
REMARK INTRA:                  -0.131
REMARK UNBOUND:                -0.514
REMARK SMILES C[C@@H]1O[C@H](O[C@H]2CC[C@]3(C)[C@@H](CC[C@@]4(C)[C@@H]3C=C[C@]35OC[C@@]6(CCC(C)(C)C[C@@H]63)[C@@H](O)C[C@]45C)[C@]2(C)CO)[C@H](O)[C@H](O[C@H]2O[C@H](CO)[C@@H](O)[C@@H](O)[C@H]2O)[C@@H]1O
REMARK SMILES IDX 1 1 2 2 54 3 41 4 39 5 4 6 3 7 55 8 42 10 43 11 52 12 44 13
REMARK SMILES IDX 50 14 45 15 48 16 53 17 51 19 46 21 47 22 49 24 5 26 6 27
REMARK SMILES IDX 7 28 35 29 8 30 11 31 36 32 9 33 12 34 10 35 16 36 13 37
REMARK SMILES IDX 14 38 17 39 15 40 33 41 18 42 19 43 32 44 34 45 29 46 20 47
REMARK SMILES IDX 30 48 22 49 28 50 21 51 23 52 25 53 24 54 26 55 27 56 37 57
REMARK SMILES IDX 38 58 31 60 40 62
REMARK H PARENT 55 9 53 18 51 20 47 23 49 25 38 59 31 61 40 63
REMARK Flexibility Score: inf
ROOT
ATOM      1  C   UNL     1      16.734 122.617  25.928  1.00  0.00     0.041 C 
ATOM      2  C   UNL     1      16.359 122.397  27.417  1.00  0.00     0.150 C 
ATOM      3  C   UNL     1      15.348 123.385  28.063  1.00  0.00     0.175 C 
ATOM      4  C   UNL     1      13.851 122.941  28.018  1.00  0.00     0.186 C 
ATOM      5  C   UNL     1      13.673 121.379  28.039  1.00  0.00     0.202 C 
ATOM      6  C   UNL     1      14.840 120.526  27.414  1.00  0.00     0.282 C 
ATOM      7  O   UNL     1      16.128 121.045  27.737  1.00  0.00    -0.344 OA
ENDROOT
BRANCH   3   8
ATOM      8  O   UNL     1      15.414 124.659  27.498  1.00  0.00    -0.388 OA
ATOM      9  H   UNL     1      14.554 124.929  27.096  1.00  0.00     0.211 HD
ENDBRANCH   3   8
BRANCH   4  10
ATOM     10  O   UNL     1      13.027 123.921  27.329  1.00  0.00    -0.341 OA
BRANCH  10  11
ATOM     11  C   UNL     1      11.626 123.865  27.018  1.00  0.00     0.282 C 
ATOM     12  C   UNL     1      11.284 124.546  25.660  1.00  0.00     0.202 C 
ATOM     13  O   UNL     1      10.962 124.518  28.124  1.00  0.00    -0.341 OA
ATOM     14  C   UNL     1      11.371 126.067  25.803  1.00  0.00     0.179 C 
ATOM     15  C   UNL     1       9.930 125.485  27.852  1.00  0.00     0.178 C 
ATOM     16  C   UNL     1      10.182 126.494  26.654  1.00  0.00     0.177 C 
BRANCH  12  17
ATOM     17  O   UNL     1      12.087 124.111  24.639  1.00  0.00    -0.385 OA
ATOM     18  H   UNL     1      12.588 123.367  25.063  1.00  0.00     0.211 HD
ENDBRANCH  12  17
BRANCH  14  19
ATOM     19  O   UNL     1      12.564 126.435  26.458  1.00  0.00    -0.387 OA
ATOM     20  H   UNL     1      13.310 126.462  25.791  1.00  0.00     0.211 HD
ENDBRANCH  14  19
BRANCH  15  21
ATOM     21  C   UNL     1       8.538 124.819  27.805  1.00  0.00     0.191 C 
BRANCH  21  22
ATOM     22  O   UNL     1       7.768 125.310  26.735  1.00  0.00    -0.394 OA
ATOM     23  H   UNL     1       8.123 124.903  25.906  1.00  0.00     0.210 HD
ENDBRANCH  21  22
ENDBRANCH  15  21
BRANCH  16  24
ATOM     24  O   UNL     1      10.260 127.847  27.047  1.00  0.00    -0.387 OA
ATOM     25  H   UNL     1       9.348 128.222  27.075  1.00  0.00     0.211 HD
ENDBRANCH  16  24
ENDBRANCH  10  11
ENDBRANCH   4  10
BRANCH   6  26
ATOM     26  O   UNL     1      14.648 120.298  26.036  1.00  0.00    -0.346 OA
BRANCH  26  27
ATOM     27  C   UNL     1      14.773 118.958  25.533  1.00  0.00     0.130 C 
ATOM     28  C   UNL     1      13.755 118.623  24.436  1.00  0.00     0.033 C 
ATOM     29  C   UNL     1      16.242 118.397  25.298  1.00  0.00     0.020 C 
ATOM     30  C   UNL     1      14.092 117.331  23.675  1.00  0.00     0.010 C 
ATOM     31  C   UNL     1      16.560 118.187  23.723  1.00  0.00     0.006 C 
ATOM     32  C   UNL     1      17.305 119.299  26.022  1.00  0.00     0.017 C 
ATOM     33  C   UNL     1      15.410 117.442  22.825  1.00  0.00    -0.022 C 
ATOM     34  C   UNL     1      17.285 119.388  23.041  1.00  0.00     0.005 C 
ATOM     35  C   UNL     1      15.834 115.949  22.599  1.00  0.00     0.012 C 
ATOM     36  C   UNL     1      15.127 118.062  21.334  1.00  0.00     0.024 C 
ATOM     37  C   UNL     1      16.648 119.962  21.791  1.00  0.00     0.008 C 
ATOM     38  C   UNL     1      16.297 118.914  20.688  1.00  0.00    -0.017 C 
ATOM     39  C   UNL     1      13.797 118.783  21.179  1.00  0.00    -0.024 C 
ATOM     40  C   UNL     1      17.525 117.965  20.502  1.00  0.00     0.013 C 
ATOM     41  C   UNL     1      15.883 119.638  19.242  1.00  0.00     0.009 C 
ATOM     42  C   UNL     1      13.443 119.381  20.061  1.00  0.00     0.005 C 
ATOM     43  C   UNL     1      14.330 119.457  18.860  1.00  0.00     0.096 C 
ATOM     44  C   UNL     1      16.763 119.109  18.015  1.00  0.00     0.043 C 
ATOM     45  C   UNL     1      16.177 121.176  19.269  1.00  0.00     0.015 C 
ATOM     46  C   UNL     1      14.160 118.244  17.906  1.00  0.00     0.037 C 
ATOM     47  O   UNL     1      13.867 120.597  18.138  1.00  0.00    -0.369 OA
ATOM     48  C   UNL     1      16.120 119.176  16.599  1.00  0.00     0.124 C 
ATOM     49  C   UNL     1      14.561 118.937  16.605  1.00  0.00     0.026 C 
ATOM     50  C   UNL     1      12.754 117.608  17.817  1.00  0.00     0.014 C 
ATOM     51  C   UNL     1      13.824 120.270  16.775  1.00  0.00     0.171 C 
ATOM     52  C   UNL     1      14.075 118.178  15.321  1.00  0.00     0.013 C 
ATOM     53  C   UNL     1      12.687 116.512  16.702  1.00  0.00    -0.035 C 
ATOM     54  C   UNL     1      13.802 116.704  15.622  1.00  0.00     0.007 C 
ATOM     55  C   UNL     1      12.864 115.112  17.329  1.00  0.00     0.011 C 
ATOM     56  C   UNL     1      11.302 116.561  16.021  1.00  0.00     0.011 C 
BRANCH  29  57
ATOM     57  C   UNL     1      16.428 117.012  26.025  1.00  0.00     0.165 C 
BRANCH  57  58
ATOM     58  O   UNL     1      17.394 117.074  27.047  1.00  0.00    -0.396 OA
ATOM     59  H   UNL     1      17.323 116.215  27.545  1.00  0.00     0.210 HD
ENDBRANCH  57  58
ENDBRANCH  29  57
BRANCH  48  60
ATOM     60  O   UNL     1      16.461 120.386  15.965  1.00  0.00    -0.392 OA
ATOM     61  H   UNL     1      16.193 120.310  15.015  1.00  0.00     0.210 HD
ENDBRANCH  48  60
ENDBRANCH  26  27
ENDBRANCH   6  26
BRANCH   5  62
ATOM     62  O   UNL     1      12.369 120.936  27.730  1.00  0.00    -0.385 OA
ATOM     63  H   UNL     1      12.336 120.769  26.761  1.00  0.00     0.211 HD
ENDBRANCH   5  62
TORSDOF 14
ENDMDL
