MODEL 1
REMARK VINA RESULT:    -4.863      0.000      0.000
REMARK INTER + INTRA:          -7.558
REMARK INTER:                  -7.138
REMARK INTRA:                  -0.420
REMARK UNBOUND:                -0.420
REMARK SMILES O=C([O-])CCCCCCCC(=O)[O-]
REMARK SMILES IDX 7 1 6 2 5 3 4 4 2 5 1 6 3 7 8 8 9 9 10 10 11 11 12 12 13 13
REMARK H PARENT
REMARK Flexibility Score: inf
ROOT
ATOM      1  C   UNL     1     104.251 312.533 192.250  1.00  0.00     0.000 C 
ENDROOT
BRANCH   1   2
ATOM      2  C   UNL     1     104.728 311.368 193.130  1.00  0.00     0.000 C 
BRANCH   2   3
ATOM      3  C   UNL     1     105.263 311.878 194.473  1.00  0.00     0.006 C 
BRANCH   3   4
ATOM      4  C   UNL     1     104.136 311.998 195.504  1.00  0.00     0.053 C 
BRANCH   4   5
ATOM      5  C   UNL     1     103.929 313.428 195.891  1.00  0.00     0.041 C 
ATOM      6  O   UNL     1     103.148 313.724 196.832  1.00  0.00    -0.550 OA
ATOM      7  O   UNL     1     104.639 314.432 195.244  1.00  0.00    -0.550 OA
ENDBRANCH   4   5
ENDBRANCH   3   4
ENDBRANCH   2   3
ENDBRANCH   1   2
BRANCH   1   8
ATOM      8  C   UNL     1     105.412 313.359 191.675  1.00  0.00     0.000 C 
BRANCH   8   9
ATOM      9  C   UNL     1     104.954 314.349 190.589  1.00  0.00     0.006 C 
BRANCH   9  10
ATOM     10  C   UNL     1     103.489 314.131 190.189  1.00  0.00     0.053 C 
BRANCH  10  11
ATOM     11  C   UNL     1     103.191 314.699 188.836  1.00  0.00     0.041 C 
ATOM     12  O   UNL     1     104.027 315.444 188.260  1.00  0.00    -0.550 OA
ATOM     13  O   UNL     1     101.973 314.430 188.223  1.00  0.00    -0.550 OA
ENDBRANCH  10  11
ENDBRANCH   9  10
ENDBRANCH   8   9
ENDBRANCH   1   8
TORSDOF 8
ENDMDL
MODEL 2
REMARK VINA RESULT:    -4.847      0.279      6.162
REMARK INTER + INTRA:          -7.534
REMARK INTER:                  -7.106
REMARK INTRA:                  -0.428
REMARK UNBOUND:                -0.420
REMARK SMILES O=C([O-])CCCCCCCC(=O)[O-]
REMARK SMILES IDX 7 1 6 2 5 3 4 4 2 5 1 6 3 7 8 8 9 9 10 10 11 11 12 12 13 13
REMARK H PARENT
REMARK Flexibility Score: inf
ROOT
ATOM      1  C   UNL     1     104.251 312.488 192.207  1.00  0.00     0.000 C 
ENDROOT
BRANCH   1   2
ATOM      2  C   UNL     1     105.423 313.375 191.760  1.00  0.00     0.000 C 
BRANCH   2   3
ATOM      3  C   UNL     1     105.013 314.279 190.591  1.00  0.00     0.006 C 
BRANCH   3   4
ATOM      4  C   UNL     1     103.514 314.152 190.298  1.00  0.00     0.053 C 
BRANCH   4   5
ATOM      5  C   UNL     1     103.205 314.654 188.923  1.00  0.00     0.041 C 
ATOM      6  O   UNL     1     104.027 315.389 188.317  1.00  0.00    -0.550 OA
ATOM      7  O   UNL     1     102.031 314.267 188.289  1.00  0.00    -0.550 OA
ENDBRANCH   4   5
ENDBRANCH   3   4
ENDBRANCH   2   3
ENDBRANCH   1   2
BRANCH   1   8
ATOM      8  C   UNL     1     104.690 311.348 193.138  1.00  0.00     0.000 C 
BRANCH   8   9
ATOM      9  C   UNL     1     105.159 311.855 194.514  1.00  0.00     0.006 C 
BRANCH   9  10
ATOM     10  C   UNL     1     104.009 311.928 195.526  1.00  0.00     0.053 C 
BRANCH  10  11
ATOM     11  C   UNL     1     103.794 313.324 196.026  1.00  0.00     0.041 C 
ATOM     12  O   UNL     1     103.968 314.307 195.258  1.00  0.00    -0.550 OA
ATOM     13  O   UNL     1     103.431 313.540 197.349  1.00  0.00    -0.550 OA
ENDBRANCH  10  11
ENDBRANCH   9  10
ENDBRANCH   8   9
ENDBRANCH   1   8
TORSDOF 8
ENDMDL
MODEL 3
REMARK VINA RESULT:    -4.830     18.571     20.490
REMARK INTER + INTRA:          -7.509
REMARK INTER:                  -7.054
REMARK INTRA:                  -0.454
REMARK UNBOUND:                -0.420
REMARK SMILES O=C([O-])CCCCCCCC(=O)[O-]
REMARK SMILES IDX 7 1 6 2 5 3 4 4 2 5 1 6 3 7 8 8 9 9 10 10 11 11 12 12 13 13
REMARK H PARENT
REMARK Flexibility Score: inf
ROOT
ATOM      1  C   UNL     1      87.814 325.536 193.107  1.00  0.00     0.000 C 
ENDROOT
BRANCH   1   2
ATOM      2  C   UNL     1      86.609 324.632 192.807  1.00  0.00     0.000 C 
BRANCH   2   3
ATOM      3  C   UNL     1      86.877 323.748 191.583  1.00  0.00     0.006 C 
BRANCH   3   4
ATOM      4  C   UNL     1      88.307 323.941 191.068  1.00  0.00     0.053 C 
BRANCH   4   5
ATOM      5  C   UNL     1      88.469 323.308 189.723  1.00  0.00     0.041 C 
ATOM      6  O   UNL     1      89.488 323.552 189.026  1.00  0.00    -0.550 OA
ATOM      7  O   UNL     1      87.518 322.408 189.259  1.00  0.00    -0.550 OA
ENDBRANCH   4   5
ENDBRANCH   3   4
ENDBRANCH   2   3
ENDBRANCH   1   2
BRANCH   1   8
ATOM      8  C   UNL     1      87.474 326.678 194.078  1.00  0.00     0.000 C 
BRANCH   8   9
ATOM      9  C   UNL     1      87.029 326.166 195.460  1.00  0.00     0.006 C 
BRANCH   9  10
ATOM     10  C   UNL     1      88.215 325.960 196.409  1.00  0.00     0.053 C 
BRANCH  10  11
ATOM     11  C   UNL     1      88.492 324.507 196.648  1.00  0.00     0.041 C 
ATOM     12  O   UNL     1      87.731 323.628 196.166  1.00  0.00    -0.550 OA
ATOM     13  O   UNL     1      89.575 324.125 197.430  1.00  0.00    -0.550 OA
ENDBRANCH  10  11
ENDBRANCH   9  10
ENDBRANCH   8   9
ENDBRANCH   1   8
TORSDOF 8
ENDMDL
MODEL 4
REMARK VINA RESULT:    -4.829      1.589      2.719
REMARK INTER + INTRA:          -7.507
REMARK INTER:                  -7.178
REMARK INTRA:                  -0.329
REMARK UNBOUND:                -0.420
REMARK SMILES O=C([O-])CCCCCCCC(=O)[O-]
REMARK SMILES IDX 7 1 6 2 5 3 4 4 2 5 1 6 3 7 8 8 9 9 10 10 11 11 12 12 13 13
REMARK H PARENT
REMARK Flexibility Score: inf
ROOT
ATOM      1  C   UNL     1     103.900 313.614 190.888  1.00  0.00     0.000 C 
ENDROOT
BRANCH   1   2
ATOM      2  C   UNL     1     105.372 313.660 191.325  1.00  0.00     0.000 C 
BRANCH   2   3
ATOM      3  C   UNL     1     105.681 312.547 192.333  1.00  0.00     0.006 C 
BRANCH   3   4
ATOM      4  C   UNL     1     104.393 311.995 192.954  1.00  0.00     0.053 C 
BRANCH   4   5
ATOM      5  C   UNL     1     104.356 312.280 194.421  1.00  0.00     0.041 C 
ATOM      6  O   UNL     1     105.056 313.207 194.906  1.00  0.00    -0.550 OA
ATOM      7  O   UNL     1     103.508 311.555 195.249  1.00  0.00    -0.550 OA
ENDBRANCH   4   5
ENDBRANCH   3   4
ENDBRANCH   2   3
ENDBRANCH   1   2
BRANCH   1   8
ATOM      8  C   UNL     1     103.422 314.936 190.268  1.00  0.00     0.000 C 
BRANCH   8   9
ATOM      9  C   UNL     1     103.243 314.843 188.742  1.00  0.00     0.006 C 
BRANCH   9  10
ATOM     10  C   UNL     1     101.911 314.190 188.355  1.00  0.00     0.053 C 
BRANCH  10  11
ATOM     11  C   UNL     1     100.913 315.201 187.878  1.00  0.00     0.041 C 
ATOM     12  O   UNL     1      99.680 314.997 188.028  1.00  0.00    -0.550 OA
ATOM     13  O   UNL     1     101.346 316.357 187.240  1.00  0.00    -0.550 OA
ENDBRANCH  10  11
ENDBRANCH   9  10
ENDBRANCH   8   9
ENDBRANCH   1   8
TORSDOF 8
ENDMDL
MODEL 5
REMARK VINA RESULT:    -4.824     17.734     19.710
REMARK INTER + INTRA:          -7.500
REMARK INTER:                  -7.139
REMARK INTRA:                  -0.360
REMARK UNBOUND:                -0.420
REMARK SMILES O=C([O-])CCCCCCCC(=O)[O-]
REMARK SMILES IDX 7 1 6 2 5 3 4 4 2 5 1 6 3 7 8 8 9 9 10 10 11 11 12 12 13 13
REMARK H PARENT
REMARK Flexibility Score: inf
ROOT
ATOM      1  C   UNL     1      88.482 323.251 192.302  1.00  0.00     0.000 C 
ENDROOT
BRANCH   1   2
ATOM      2  C   UNL     1      88.351 324.024 190.981  1.00  0.00     0.000 C 
BRANCH   2   3
ATOM      3  C   UNL     1      88.543 323.093 189.778  1.00  0.00     0.006 C 
BRANCH   3   4
ATOM      4  C   UNL     1      89.623 323.630 188.834  1.00  0.00     0.053 C 
BRANCH   4   5
ATOM      5  C   UNL     1      90.807 322.716 188.819  1.00  0.00     0.041 C 
ATOM      6  O   UNL     1      91.924 323.131 188.414  1.00  0.00    -0.550 OA
ATOM      7  O   UNL     1      90.689 321.418 189.301  1.00  0.00    -0.550 OA
ENDBRANCH   4   5
ENDBRANCH   3   4
ENDBRANCH   2   3
ENDBRANCH   1   2
BRANCH   1   8
ATOM      8  C   UNL     1      88.056 324.082 193.522  1.00  0.00     0.000 C 
BRANCH   8   9
ATOM      9  C   UNL     1      87.624 325.510 193.144  1.00  0.00     0.006 C 
BRANCH   9  10
ATOM     10  C   UNL     1      88.018 326.536 194.214  1.00  0.00     0.053 C 
BRANCH  10  11
ATOM     11  C   UNL     1      87.446 326.190 195.554  1.00  0.00     0.041 C 
ATOM     12  O   UNL     1      86.202 326.237 195.746  1.00  0.00    -0.550 OA
ATOM     13  O   UNL     1      88.290 325.845 196.602  1.00  0.00    -0.550 OA
ENDBRANCH  10  11
ENDBRANCH   9  10
ENDBRANCH   8   9
ENDBRANCH   1   8
TORSDOF 8
ENDMDL
MODEL 6
REMARK VINA RESULT:    -4.807      1.095      1.777
REMARK INTER + INTRA:          -7.475
REMARK INTER:                  -7.040
REMARK INTRA:                  -0.436
REMARK UNBOUND:                -0.420
REMARK SMILES O=C([O-])CCCCCCCC(=O)[O-]
REMARK SMILES IDX 7 1 6 2 5 3 4 4 2 5 1 6 3 7 8 8 9 9 10 10 11 11 12 12 13 13
REMARK H PARENT
REMARK Flexibility Score: inf
ROOT
ATOM      1  C   UNL     1     105.406 313.338 191.607  1.00  0.00     0.000 C 
ENDROOT
BRANCH   1   2
ATOM      2  C   UNL     1     104.263 312.516 192.222  1.00  0.00     0.000 C 
BRANCH   2   3
ATOM      3  C   UNL     1     104.809 311.322 193.013  1.00  0.00     0.006 C 
BRANCH   3   4
ATOM      4  C   UNL     1     105.460 311.780 194.322  1.00  0.00     0.053 C 
BRANCH   4   5
ATOM      5  C   UNL     1     104.423 312.291 195.271  1.00  0.00     0.041 C 
ATOM      6  O   UNL     1     103.541 311.517 195.724  1.00  0.00    -0.550 OA
ATOM      7  O   UNL     1     104.461 313.614 195.696  1.00  0.00    -0.550 OA
ENDBRANCH   4   5
ENDBRANCH   3   4
ENDBRANCH   2   3
ENDBRANCH   1   2
BRANCH   1   8
ATOM      8  C   UNL     1     104.918 314.327 190.537  1.00  0.00     0.000 C 
BRANCH   8   9
ATOM      9  C   UNL     1     103.395 314.268 190.326  1.00  0.00     0.006 C 
BRANCH   9  10
ATOM     10  C   UNL     1     103.000 314.548 188.871  1.00  0.00     0.053 C 
BRANCH  10  11
ATOM     11  C   UNL     1     103.563 315.848 188.382  1.00  0.00     0.041 C 
ATOM     12  O   UNL     1     103.154 316.938 188.862  1.00  0.00    -0.550 OA
ATOM     13  O   UNL     1     104.519 315.856 187.374  1.00  0.00    -0.550 OA
ENDBRANCH  10  11
ENDBRANCH   9  10
ENDBRANCH   8   9
ENDBRANCH   1   8
TORSDOF 8
ENDMDL
MODEL 7
REMARK VINA RESULT:    -4.797      1.992      2.995
REMARK INTER + INTRA:          -7.460
REMARK INTER:                  -7.033
REMARK INTRA:                  -0.427
REMARK UNBOUND:                -0.420
REMARK SMILES O=C([O-])CCCCCCCC(=O)[O-]
REMARK SMILES IDX 7 1 6 2 5 3 4 4 2 5 1 6 3 7 8 8 9 9 10 10 11 11 12 12 13 13
REMARK H PARENT
REMARK Flexibility Score: inf
ROOT
ATOM      1  C   UNL     1     105.605 311.865 194.279  1.00  0.00     0.000 C 
ENDROOT
BRANCH   1   2
ATOM      2  C   UNL     1     104.160 311.638 194.746  1.00  0.00     0.000 C 
BRANCH   2   3
ATOM      3  C   UNL     1     103.889 312.366 196.068  1.00  0.00     0.006 C 
BRANCH   3   4
ATOM      4  C   UNL     1     103.783 311.373 197.230  1.00  0.00     0.053 C 
BRANCH   4   5
ATOM      5  C   UNL     1     103.502 312.094 198.510  1.00  0.00     0.041 C 
ATOM      6  O   UNL     1     103.413 313.349 198.525  1.00  0.00    -0.550 OA
ATOM      7  O   UNL     1     103.287 311.376 199.680  1.00  0.00    -0.550 OA
ENDBRANCH   4   5
ENDBRANCH   3   4
ENDBRANCH   2   3
ENDBRANCH   1   2
BRANCH   1   8
ATOM      8  C   UNL     1     105.698 312.245 192.793  1.00  0.00     0.000 C 
BRANCH   8   9
ATOM      9  C   UNL     1     104.315 312.436 192.144  1.00  0.00     0.006 C 
BRANCH   9  10
ATOM     10  C   UNL     1     104.278 313.649 191.208  1.00  0.00     0.053 C 
BRANCH  10  11
ATOM     11  C   UNL     1     103.564 314.811 191.829  1.00  0.00     0.041 C 
ATOM     12  O   UNL     1     103.105 315.735 191.107  1.00  0.00    -0.550 OA
ATOM     13  O   UNL     1     103.432 314.887 193.210  1.00  0.00    -0.550 OA
ENDBRANCH  10  11
ENDBRANCH   9  10
ENDBRANCH   8   9
ENDBRANCH   1   8
TORSDOF 8
ENDMDL
MODEL 8
REMARK VINA RESULT:    -4.769     18.584     19.703
REMARK INTER + INTRA:          -7.420
REMARK INTER:                  -7.016
REMARK INTRA:                  -0.404
REMARK UNBOUND:                -0.420
REMARK SMILES O=C([O-])CCCCCCCC(=O)[O-]
REMARK SMILES IDX 7 1 6 2 5 3 4 4 2 5 1 6 3 7 8 8 9 9 10 10 11 11 12 12 13 13
REMARK H PARENT
REMARK Flexibility Score: inf
ROOT
ATOM      1  C   UNL     1      87.819 325.356 193.121  1.00  0.00     0.000 C 
ENDROOT
BRANCH   1   2
ATOM      2  C   UNL     1      87.492 326.555 194.024  1.00  0.00     0.000 C 
BRANCH   2   3
ATOM      3  C   UNL     1      87.080 326.090 195.426  1.00  0.00     0.006 C 
BRANCH   3   4
ATOM      4  C   UNL     1      88.298 325.976 196.347  1.00  0.00     0.053 C 
BRANCH   4   5
ATOM      5  C   UNL     1      88.548 324.547 196.710  1.00  0.00     0.041 C 
ATOM      6  O   UNL     1      89.476 324.247 197.506  1.00  0.00    -0.550 OA
ATOM      7  O   UNL     1      87.723 323.547 196.208  1.00  0.00    -0.550 OA
ENDBRANCH   4   5
ENDBRANCH   3   4
ENDBRANCH   2   3
ENDBRANCH   1   2
BRANCH   1   8
ATOM      8  C   UNL     1      86.562 324.646 192.596  1.00  0.00     0.000 C 
BRANCH   8   9
ATOM      9  C   UNL     1      86.884 323.585 191.528  1.00  0.00     0.006 C 
BRANCH   9  10
ATOM     10  C   UNL     1      88.331 323.688 191.029  1.00  0.00     0.053 C 
BRANCH  10  11
ATOM     11  C   UNL     1      88.451 323.306 189.585  1.00  0.00     0.041 C 
ATOM     12  O   UNL     1      87.578 322.576 189.046  1.00  0.00    -0.550 OA
ATOM     13  O   UNL     1      89.544 323.733 188.842  1.00  0.00    -0.550 OA
ENDBRANCH  10  11
ENDBRANCH   9  10
ENDBRANCH   8   9
ENDBRANCH   1   8
TORSDOF 8
ENDMDL
MODEL 9
REMARK VINA RESULT:    -4.755      2.048      5.704
REMARK INTER + INTRA:          -7.399
REMARK INTER:                  -7.024
REMARK INTRA:                  -0.375
REMARK UNBOUND:                -0.420
REMARK SMILES O=C([O-])CCCCCCCC(=O)[O-]
REMARK SMILES IDX 7 1 6 2 5 3 4 4 2 5 1 6 3 7 8 8 9 9 10 10 11 11 12 12 13 13
REMARK H PARENT
REMARK Flexibility Score: inf
ROOT
ATOM      1  C   UNL     1     103.874 313.777 191.832  1.00  0.00     0.000 C 
ENDROOT
BRANCH   1   2
ATOM      2  C   UNL     1     103.546 313.843 190.333  1.00  0.00     0.000 C 
BRANCH   2   3
ATOM      3  C   UNL     1     104.393 314.913 189.633  1.00  0.00     0.006 C 
BRANCH   3   4
ATOM      4  C   UNL     1     105.772 315.039 190.289  1.00  0.00     0.053 C 
BRANCH   4   5
ATOM      5  C   UNL     1     106.010 316.444 190.741  1.00  0.00     0.041 C 
ATOM      6  O   UNL     1     106.061 317.380 189.902  1.00  0.00    -0.550 OA
ATOM      7  O   UNL     1     106.125 316.729 192.096  1.00  0.00    -0.550 OA
ENDBRANCH   4   5
ENDBRANCH   3   4
ENDBRANCH   2   3
ENDBRANCH   1   2
BRANCH   1   8
ATOM      8  C   UNL     1     104.267 312.364 192.293  1.00  0.00     0.000 C 
BRANCH   8   9
ATOM      9  C   UNL     1     105.700 312.301 192.851  1.00  0.00     0.006 C 
BRANCH   9  10
ATOM     10  C   UNL     1     105.734 311.810 194.303  1.00  0.00     0.053 C 
BRANCH  10  11
ATOM     11  C   UNL     1     104.592 312.356 195.103  1.00  0.00     0.041 C 
ATOM     12  O   UNL     1     104.580 313.566 195.450  1.00  0.00    -0.550 OA
ATOM     13  O   UNL     1     103.553 311.520 195.492  1.00  0.00    -0.550 OA
ENDBRANCH  10  11
ENDBRANCH   9  10
ENDBRANCH   8   9
ENDBRANCH   1   8
TORSDOF 8
ENDMDL
