MODEL 1
REMARK VINA RESULT:    -4.063      0.000      0.000
REMARK INTER + INTRA:          -5.000
REMARK INTER:                  -4.775
REMARK INTRA:                  -0.225
REMARK UNBOUND:                -0.225
REMARK SMILES [NH3+][C@@H](CO)C(=O)[O-]
REMARK SMILES IDX 3 1 2 2 1 3 5 7 6 8 7 9 4 10
REMARK H PARENT 1 4 1 5 1 6 4 11
REMARK Flexibility Score: inf
ROOT
ATOM      1  C   UNL     1      24.761   4.615  15.885  1.00  0.00     0.227 C 
ENDROOT
BRANCH   1   2
ATOM      2  C   UNL     1      23.759   5.044  14.797  1.00  0.00     0.253 C 
BRANCH   2   3
ATOM      3  N   UNL     1      24.450   5.598  13.627  1.00  0.00    -0.348 N 
ATOM      4  H   UNL     1      24.399   6.643  13.620  1.00  0.00     0.345 HD
ATOM      5  H   UNL     1      25.455   5.307  13.639  1.00  0.00     0.345 HD
ATOM      6  H   UNL     1      24.013   5.228  12.751  1.00  0.00     0.345 HD
ENDBRANCH   2   3
BRANCH   2   7
ATOM      7  C   UNL     1      22.758   6.027  15.348  1.00  0.00     0.102 C 
ATOM      8  O   UNL     1      21.826   5.626  16.092  1.00  0.00    -0.544 OA
ATOM      9  O   UNL     1      22.883   7.386  15.083  1.00  0.00    -0.544 OA
ENDBRANCH   2   7
ENDBRANCH   1   2
BRANCH   1  10
ATOM     10  O   UNL     1      24.132   3.870  16.894  1.00  0.00    -0.390 OA
ATOM     11  H   UNL     1      23.799   4.519  17.567  1.00  0.00     0.210 HD
ENDBRANCH   1  10
TORSDOF 4
ENDMDL
MODEL 2
REMARK VINA RESULT:    -4.027      0.141      1.226
REMARK INTER + INTRA:          -4.957
REMARK INTER:                  -4.747
REMARK INTRA:                  -0.210
REMARK UNBOUND:                -0.225
REMARK SMILES [NH3+][C@@H](CO)C(=O)[O-]
REMARK SMILES IDX 3 1 2 2 1 3 5 7 6 8 7 9 4 10
REMARK H PARENT 1 4 1 5 1 6 4 11
REMARK Flexibility Score: inf
ROOT
ATOM      1  C   UNL     1      24.753   4.632  15.866  1.00  0.00     0.227 C 
ENDROOT
BRANCH   1   2
ATOM      2  C   UNL     1      23.813   5.157  14.765  1.00  0.00     0.253 C 
BRANCH   2   3
ATOM      3  N   UNL     1      24.572   5.742  13.653  1.00  0.00    -0.348 N 
ATOM      4  H   UNL     1      23.933   6.191  12.957  1.00  0.00     0.345 HD
ATOM      5  H   UNL     1      25.236   6.464  14.019  1.00  0.00     0.345 HD
ATOM      6  H   UNL     1      25.130   4.997  13.175  1.00  0.00     0.345 HD
ENDBRANCH   2   3
BRANCH   2   7
ATOM      7  C   UNL     1      22.830   6.150  15.329  1.00  0.00     0.102 C 
ATOM      8  O   UNL     1      23.010   7.384  15.151  1.00  0.00    -0.544 OA
ATOM      9  O   UNL     1      21.695   5.716  16.003  1.00  0.00    -0.544 OA
ENDBRANCH   2   7
ENDBRANCH   1   2
BRANCH   1  10
ATOM     10  O   UNL     1      24.052   3.880  16.821  1.00  0.00    -0.390 OA
ATOM     11  H   UNL     1      24.728   3.486  17.432  1.00  0.00     0.210 HD
ENDBRANCH   1  10
TORSDOF 4
ENDMDL
MODEL 3
REMARK VINA RESULT:    -3.924      2.338      3.820
REMARK INTER + INTRA:          -4.837
REMARK INTER:                  -4.612
REMARK INTRA:                  -0.225
REMARK UNBOUND:                -0.225
REMARK SMILES [NH3+][C@@H](CO)C(=O)[O-]
REMARK SMILES IDX 3 1 2 2 1 3 5 7 6 8 7 9 4 10
REMARK H PARENT 1 4 1 5 1 6 4 11
REMARK Flexibility Score: inf
ROOT
ATOM      1  C   UNL     1      22.516   8.648  15.515  1.00  0.00     0.227 C 
ENDROOT
BRANCH   1   2
ATOM      2  C   UNL     1      22.294   7.190  15.073  1.00  0.00     0.253 C 
BRANCH   2   3
ATOM      3  N   UNL     1      21.445   6.468  16.029  1.00  0.00    -0.348 N 
ATOM      4  H   UNL     1      22.021   5.879  16.674  1.00  0.00     0.345 HD
ATOM      5  H   UNL     1      20.891   7.151  16.596  1.00  0.00     0.345 HD
ATOM      6  H   UNL     1      20.775   5.853  15.511  1.00  0.00     0.345 HD
ENDBRANCH   2   3
BRANCH   2   7
ATOM      7  C   UNL     1      23.611   6.482  14.880  1.00  0.00     0.102 C 
ATOM      8  O   UNL     1      24.642   7.141  14.586  1.00  0.00    -0.544 OA
ATOM      9  O   UNL     1      23.710   5.109  15.073  1.00  0.00    -0.544 OA
ENDBRANCH   2   7
ENDBRANCH   1   2
BRANCH   1  10
ATOM     10  O   UNL     1      22.901   9.457  14.436  1.00  0.00    -0.390 OA
ATOM     11  H   UNL     1      23.441   8.888  13.827  1.00  0.00     0.210 HD
ENDBRANCH   1  10
TORSDOF 4
ENDMDL
MODEL 4
REMARK VINA RESULT:    -3.878      1.357      2.691
REMARK INTER + INTRA:          -4.782
REMARK INTER:                  -4.595
REMARK INTRA:                  -0.187
REMARK UNBOUND:                -0.225
REMARK SMILES [NH3+][C@@H](CO)C(=O)[O-]
REMARK SMILES IDX 3 1 2 2 1 3 5 7 6 8 7 9 4 10
REMARK H PARENT 1 4 1 5 1 6 4 11
REMARK Flexibility Score: inf
ROOT
ATOM      1  C   UNL     1      22.934   6.519  15.117  1.00  0.00     0.227 C 
ENDROOT
BRANCH   1   2
ATOM      2  C   UNL     1      24.345   6.185  14.598  1.00  0.00     0.253 C 
BRANCH   2   3
ATOM      3  N   UNL     1      24.314   5.795  13.184  1.00  0.00    -0.348 N 
ATOM      4  H   UNL     1      25.276   5.796  12.772  1.00  0.00     0.345 HD
ATOM      5  H   UNL     1      23.905   4.837  13.090  1.00  0.00     0.345 HD
ATOM      6  H   UNL     1      23.711   6.462  12.647  1.00  0.00     0.345 HD
ENDBRANCH   2   3
BRANCH   2   7
ATOM      7  C   UNL     1      24.985   5.110  15.440  1.00  0.00     0.102 C 
ATOM      8  O   UNL     1      24.397   4.010  15.607  1.00  0.00    -0.544 OA
ATOM      9  O   UNL     1      26.244   5.303  15.995  1.00  0.00    -0.544 OA
ENDBRANCH   2   7
ENDBRANCH   1   2
BRANCH   1  10
ATOM     10  O   UNL     1      22.112   5.383  15.131  1.00  0.00    -0.390 OA
ATOM     11  H   UNL     1      22.696   4.601  14.945  1.00  0.00     0.210 HD
ENDBRANCH   1  10
TORSDOF 4
ENDMDL
MODEL 5
REMARK VINA RESULT:    -3.819      1.906      2.246
REMARK INTER + INTRA:          -4.713
REMARK INTER:                  -4.706
REMARK INTRA:                  -0.007
REMARK UNBOUND:                -0.225
REMARK SMILES [NH3+][C@@H](CO)C(=O)[O-]
REMARK SMILES IDX 3 1 2 2 1 3 5 7 6 8 7 9 4 10
REMARK H PARENT 1 4 1 5 1 6 4 11
REMARK Flexibility Score: inf
ROOT
ATOM      1  C   UNL     1      26.049   5.021  16.017  1.00  0.00     0.227 C 
ENDROOT
BRANCH   1   2
ATOM      2  C   UNL     1      24.561   4.636  15.927  1.00  0.00     0.253 C 
BRANCH   2   3
ATOM      3  N   UNL     1      24.398   3.228  15.546  1.00  0.00    -0.348 N 
ATOM      4  H   UNL     1      24.217   2.630  16.386  1.00  0.00     0.345 HD
ATOM      5  H   UNL     1      23.595   3.132  14.881  1.00  0.00     0.345 HD
ATOM      6  H   UNL     1      25.263   2.889  15.065  1.00  0.00     0.345 HD
ENDBRANCH   2   3
BRANCH   2   7
ATOM      7  C   UNL     1      23.830   5.542  14.970  1.00  0.00     0.102 C 
ATOM      8  O   UNL     1      24.392   5.920  13.909  1.00  0.00    -0.544 OA
ATOM      9  O   UNL     1      22.518   5.926  15.222  1.00  0.00    -0.544 OA
ENDBRANCH   2   7
ENDBRANCH   1   2
BRANCH   1  10
ATOM     10  O   UNL     1      26.601   4.646  17.251  1.00  0.00    -0.390 OA
ATOM     11  H   UNL     1      27.341   4.014  17.056  1.00  0.00     0.210 HD
ENDBRANCH   1  10
TORSDOF 4
ENDMDL
MODEL 6
REMARK VINA RESULT:    -3.805      1.546      2.897
REMARK INTER + INTRA:          -4.698
REMARK INTER:                  -4.691
REMARK INTRA:                  -0.006
REMARK UNBOUND:                -0.225
REMARK SMILES [NH3+][C@@H](CO)C(=O)[O-]
REMARK SMILES IDX 3 1 2 2 1 3 5 7 6 8 7 9 4 10
REMARK H PARENT 1 4 1 5 1 6 4 11
REMARK Flexibility Score: inf
ROOT
ATOM      1  C   UNL     1      23.906   7.767  14.850  1.00  0.00     0.227 C 
ENDROOT
BRANCH   1   2
ATOM      2  C   UNL     1      24.471   6.392  14.449  1.00  0.00     0.253 C 
BRANCH   2   3
ATOM      3  N   UNL     1      24.355   6.170  13.002  1.00  0.00    -0.348 N 
ATOM      4  H   UNL     1      25.278   5.901  12.588  1.00  0.00     0.345 HD
ATOM      5  H   UNL     1      23.663   5.408  12.816  1.00  0.00     0.345 HD
ATOM      6  H   UNL     1      24.014   7.043  12.537  1.00  0.00     0.345 HD
ENDBRANCH   2   3
BRANCH   2   7
ATOM      7  C   UNL     1      23.794   5.288  15.219  1.00  0.00     0.102 C 
ATOM      8  O   UNL     1      24.449   4.271  15.569  1.00  0.00    -0.544 OA
ATOM      9  O   UNL     1      22.460   5.403  15.593  1.00  0.00    -0.544 OA
ENDBRANCH   2   7
ENDBRANCH   1   2
BRANCH   1  10
ATOM     10  O   UNL     1      24.896   8.759  14.810  1.00  0.00    -0.390 OA
ATOM     11  H   UNL     1      25.434   8.664  15.638  1.00  0.00     0.210 HD
ENDBRANCH   1  10
TORSDOF 4
ENDMDL
MODEL 7
REMARK VINA RESULT:    -3.802      1.503      1.667
REMARK INTER + INTRA:          -4.693
REMARK INTER:                  -4.488
REMARK INTRA:                  -0.205
REMARK UNBOUND:                -0.225
REMARK SMILES [NH3+][C@@H](CO)C(=O)[O-]
REMARK SMILES IDX 3 1 2 2 1 3 5 7 6 8 7 9 4 10
REMARK H PARENT 1 4 1 5 1 6 4 11
REMARK Flexibility Score: inf
ROOT
ATOM      1  C   UNL     1      24.518   4.913  15.382  1.00  0.00     0.227 C 
ENDROOT
BRANCH   1   2
ATOM      2  C   UNL     1      23.727   5.772  14.378  1.00  0.00     0.253 C 
BRANCH   2   3
ATOM      3  N   UNL     1      24.355   5.756  13.052  1.00  0.00    -0.348 N 
ATOM      4  H   UNL     1      24.920   6.622  12.893  1.00  0.00     0.345 HD
ATOM      5  H   UNL     1      24.981   4.922  12.968  1.00  0.00     0.345 HD
ATOM      6  H   UNL     1      23.618   5.687  12.313  1.00  0.00     0.345 HD
ENDBRANCH   2   3
BRANCH   2   7
ATOM      7  C   UNL     1      23.574   7.183  14.886  1.00  0.00     0.102 C 
ATOM      8  O   UNL     1      22.460   7.580  15.316  1.00  0.00    -0.544 OA
ATOM      9  O   UNL     1      24.668   8.041  14.930  1.00  0.00    -0.544 OA
ENDBRANCH   2   7
ENDBRANCH   1   2
BRANCH   1  10
ATOM     10  O   UNL     1      25.888   5.214  15.345  1.00  0.00    -0.390 OA
ATOM     11  H   UNL     1      26.359   4.476  15.813  1.00  0.00     0.210 HD
ENDBRANCH   1  10
TORSDOF 4
ENDMDL
MODEL 8
REMARK VINA RESULT:    -3.724      1.691      2.435
REMARK INTER + INTRA:          -4.601
REMARK INTER:                  -4.387
REMARK INTRA:                  -0.215
REMARK UNBOUND:                -0.225
REMARK SMILES [NH3+][C@@H](CO)C(=O)[O-]
REMARK SMILES IDX 3 1 2 2 1 3 5 7 6 8 7 9 4 10
REMARK H PARENT 1 4 1 5 1 6 4 11
REMARK Flexibility Score: inf
ROOT
ATOM      1  C   UNL     1      24.718   6.444  14.550  1.00  0.00     0.227 C 
ENDROOT
BRANCH   1   2
ATOM      2  C   UNL     1      23.745   5.574  15.368  1.00  0.00     0.253 C 
BRANCH   2   3
ATOM      3  N   UNL     1      23.649   4.219  14.812  1.00  0.00    -0.348 N 
ATOM      4  H   UNL     1      22.853   4.145  14.137  1.00  0.00     0.345 HD
ATOM      5  H   UNL     1      24.538   3.975  14.317  1.00  0.00     0.345 HD
ATOM      6  H   UNL     1      23.505   3.529  15.586  1.00  0.00     0.345 HD
ENDBRANCH   2   3
BRANCH   2   7
ATOM      7  C   UNL     1      22.387   6.221  15.451  1.00  0.00     0.102 C 
ATOM      8  O   UNL     1      22.263   7.454  15.228  1.00  0.00    -0.544 OA
ATOM      9  O   UNL     1      21.257   5.459  15.724  1.00  0.00    -0.544 OA
ENDBRANCH   2   7
ENDBRANCH   1   2
BRANCH   1  10
ATOM     10  O   UNL     1      24.351   6.487  13.196  1.00  0.00    -0.390 OA
ATOM     11  H   UNL     1      24.011   7.402  13.018  1.00  0.00     0.210 HD
ENDBRANCH   1  10
TORSDOF 4
ENDMDL
MODEL 9
REMARK VINA RESULT:    -3.607      1.949      3.321
REMARK INTER + INTRA:          -4.465
REMARK INTER:                  -4.444
REMARK INTRA:                  -0.021
REMARK UNBOUND:                -0.225
REMARK SMILES [NH3+][C@@H](CO)C(=O)[O-]
REMARK SMILES IDX 3 1 2 2 1 3 5 7 6 8 7 9 4 10
REMARK H PARENT 1 4 1 5 1 6 4 11
REMARK Flexibility Score: inf
ROOT
ATOM      1  C   UNL     1      24.395   6.470  14.322  1.00  0.00     0.227 C 
ENDROOT
BRANCH   1   2
ATOM      2  C   UNL     1      23.966   5.102  14.885  1.00  0.00     0.253 C 
BRANCH   2   3
ATOM      3  N   UNL     1      22.549   5.105  15.267  1.00  0.00    -0.348 N 
ATOM      4  H   UNL     1      22.011   4.393  14.721  1.00  0.00     0.345 HD
ATOM      5  H   UNL     1      22.457   4.891  16.287  1.00  0.00     0.345 HD
ATOM      6  H   UNL     1      22.138   6.052  15.094  1.00  0.00     0.345 HD
ENDBRANCH   2   3
BRANCH   2   7
ATOM      7  C   UNL     1      24.838   4.705  16.049  1.00  0.00     0.102 C 
ATOM      8  O   UNL     1      26.081   4.892  15.996  1.00  0.00    -0.544 OA
ATOM      9  O   UNL     1      24.275   4.176  17.205  1.00  0.00    -0.544 OA
ENDBRANCH   2   7
ENDBRANCH   1   2
BRANCH   1  10
ATOM     10  O   UNL     1      24.415   6.462  12.920  1.00  0.00    -0.390 OA
ATOM     11  H   UNL     1      23.946   5.637  12.629  1.00  0.00     0.210 HD
ENDBRANCH   1  10
TORSDOF 4
ENDMDL
