MODEL 1
REMARK VINA RESULT:    -5.477      0.000      0.000
REMARK INTER + INTRA:          -6.026
REMARK INTER:                  -5.798
REMARK INTRA:                  -0.229
REMARK UNBOUND:                -0.229
REMARK SMILES CC1=CC[C@@H]2[C@H]3[C@H](C(C)C)CC[C@]2(C)[C@@H]13
REMARK SMILES IDX 1 1 2 2 3 3 4 4 5 5 6 6 15 7 13 8 12 9 11 10 7 11 14 12 8 13
REMARK SMILES IDX 9 14 10 15
REMARK H PARENT
REMARK Flexibility Score: inf
ROOT
ATOM      1  C   UNL     1     139.188 135.819 130.504  1.00  0.00     0.039 C 
ATOM      2  C   UNL     1     138.321 134.700 130.996  1.00  0.00    -0.073 C 
ATOM      3  C   UNL     1     138.662 133.401 130.791  1.00  0.00    -0.027 C 
ATOM      4  C   UNL     1     137.745 132.301 131.333  1.00  0.00     0.031 C 
ATOM      5  C   UNL     1     136.495 132.928 132.030  1.00  0.00     0.003 C 
ATOM      6  C   UNL     1     135.943 134.029 131.094  1.00  0.00     0.004 C 
ATOM      7  C   UNL     1     137.003 134.966 131.728  1.00  0.00     0.024 C 
ATOM      8  C   UNL     1     136.894 134.076 132.990  1.00  0.00    -0.022 C 
ATOM      9  C   UNL     1     135.651 134.481 133.842  1.00  0.00     0.008 C 
ATOM     10  C   UNL     1     134.473 134.994 132.970  1.00  0.00     0.005 C 
ATOM     11  C   UNL     1     134.493 134.402 131.527  1.00  0.00    -0.005 C 
ATOM     12  C   UNL     1     138.142 133.893 133.884  1.00  0.00     0.012 C 
ENDROOT
BRANCH  11  13
ATOM     13  C   UNL     1     133.765 135.277 130.463  1.00  0.00    -0.014 C 
ATOM     14  C   UNL     1     132.412 135.843 130.931  1.00  0.00     0.007 C 
ATOM     15  C   UNL     1     133.598 134.529 129.133  1.00  0.00     0.007 C 
ENDBRANCH  11  13
TORSDOF 1
ENDMDL
MODEL 2
REMARK VINA RESULT:    -5.458      4.532      6.826
REMARK INTER + INTRA:          -6.006
REMARK INTER:                  -5.771
REMARK INTRA:                  -0.235
REMARK UNBOUND:                -0.229
REMARK SMILES CC1=CC[C@@H]2[C@H]3[C@H](C(C)C)CC[C@]2(C)[C@@H]13
REMARK SMILES IDX 1 1 2 2 3 3 4 4 5 5 6 6 15 7 13 8 12 9 11 10 7 11 14 12 8 13
REMARK SMILES IDX 9 14 10 15
REMARK H PARENT
REMARK Flexibility Score: inf
ROOT
ATOM      1  C   UNL     1     134.685 138.222 130.165  1.00  0.00     0.039 C 
ATOM      2  C   UNL     1     135.560 139.227 130.852  1.00  0.00    -0.073 C 
ATOM      3  C   UNL     1     135.309 140.558 130.763  1.00  0.00    -0.027 C 
ATOM      4  C   UNL     1     136.227 141.536 131.502  1.00  0.00     0.031 C 
ATOM      5  C   UNL     1     137.371 140.761 132.234  1.00  0.00     0.003 C 
ATOM      6  C   UNL     1     137.950 139.732 131.235  1.00  0.00     0.004 C 
ATOM      7  C   UNL     1     136.786 138.802 131.664  1.00  0.00     0.024 C 
ATOM      8  C   UNL     1     136.822 139.546 133.022  1.00  0.00    -0.022 C 
ATOM      9  C   UNL     1     137.955 138.975 133.930  1.00  0.00     0.008 C 
ATOM     10  C   UNL     1     139.181 138.484 133.116  1.00  0.00     0.005 C 
ATOM     11  C   UNL     1     139.330 139.225 131.750  1.00  0.00    -0.005 C 
ATOM     12  C   UNL     1     135.506 139.712 133.816  1.00  0.00     0.012 C 
ENDROOT
BRANCH  11  13
ATOM     13  C   UNL     1     140.109 138.423 130.665  1.00  0.00    -0.014 C 
ATOM     14  C   UNL     1     141.427 137.804 131.163  1.00  0.00     0.007 C 
ATOM     15  C   UNL     1     140.358 139.267 129.407  1.00  0.00     0.007 C 
ENDBRANCH  11  13
TORSDOF 1
ENDMDL
MODEL 3
REMARK VINA RESULT:    -5.438      3.261      4.779
REMARK INTER + INTRA:          -5.984
REMARK INTER:                  -5.765
REMARK INTRA:                  -0.220
REMARK UNBOUND:                -0.229
REMARK SMILES CC1=CC[C@@H]2[C@H]3[C@H](C(C)C)CC[C@]2(C)[C@@H]13
REMARK SMILES IDX 1 1 2 2 3 3 4 4 5 5 6 6 15 7 13 8 12 9 11 10 7 11 14 12 8 13
REMARK SMILES IDX 9 14 10 15
REMARK H PARENT
REMARK Flexibility Score: inf
ROOT
ATOM      1  C   UNL     1     135.903 134.618 130.394  1.00  0.00     0.039 C 
ATOM      2  C   UNL     1     134.793 135.448 130.964  1.00  0.00    -0.073 C 
ATOM      3  C   UNL     1     133.491 135.105 130.780  1.00  0.00    -0.027 C 
ATOM      4  C   UNL     1     132.400 135.982 131.402  1.00  0.00     0.031 C 
ATOM      5  C   UNL     1     133.038 137.200 132.145  1.00  0.00     0.003 C 
ATOM      6  C   UNL     1     134.106 137.811 131.208  1.00  0.00     0.004 C 
ATOM      7  C   UNL     1     135.070 136.728 131.756  1.00  0.00     0.024 C 
ATOM      8  C   UNL     1     134.217 136.762 133.049  1.00  0.00    -0.022 C 
ATOM      9  C   UNL     1     134.639 137.962 133.952  1.00  0.00     0.008 C 
ATOM     10  C   UNL     1     135.115 139.189 133.129  1.00  0.00     0.005 C 
ATOM     11  C   UNL     1     134.480 139.239 131.705  1.00  0.00    -0.005 C 
ATOM     12  C   UNL     1     134.071 135.467 133.880  1.00  0.00     0.012 C 
ENDROOT
BRANCH  11  13
ATOM     13  C   UNL     1     135.317 140.031 130.656  1.00  0.00    -0.014 C 
ATOM     14  C   UNL     1     135.997 141.294 131.214  1.00  0.00     0.007 C 
ATOM     15  C   UNL     1     134.485 140.379 129.414  1.00  0.00     0.007 C 
ENDBRANCH  11  13
TORSDOF 1
ENDMDL
MODEL 4
REMARK VINA RESULT:    -5.431      3.220      4.831
REMARK INTER + INTRA:          -5.977
REMARK INTER:                  -5.751
REMARK INTRA:                  -0.226
REMARK UNBOUND:                -0.229
REMARK SMILES CC1=CC[C@@H]2[C@H]3[C@H](C(C)C)CC[C@]2(C)[C@@H]13
REMARK SMILES IDX 1 1 2 2 3 3 4 4 5 5 6 6 15 7 13 8 12 9 11 10 7 11 14 12 8 13
REMARK SMILES IDX 9 14 10 15
REMARK H PARENT
REMARK Flexibility Score: inf
ROOT
ATOM      1  C   UNL     1     137.958 139.246 130.540  1.00  0.00     0.039 C 
ATOM      2  C   UNL     1     139.066 138.370 131.042  1.00  0.00    -0.073 C 
ATOM      3  C   UNL     1     140.369 138.701 130.850  1.00  0.00    -0.027 C 
ATOM      4  C   UNL     1     141.457 137.776 131.402  1.00  0.00     0.031 C 
ATOM      5  C   UNL     1     140.814 136.531 132.094  1.00  0.00     0.003 C 
ATOM      6  C   UNL     1     139.718 135.987 131.149  1.00  0.00     0.004 C 
ATOM      7  C   UNL     1     138.783 137.055 131.773  1.00  0.00     0.024 C 
ATOM      8  C   UNL     1     139.661 136.940 133.044  1.00  0.00    -0.022 C 
ATOM      9  C   UNL     1     139.238 135.701 133.893  1.00  0.00     0.008 C 
ATOM     10  C   UNL     1     138.724 134.526 133.018  1.00  0.00     0.005 C 
ATOM     11  C   UNL     1     139.329 134.540 131.579  1.00  0.00    -0.005 C 
ATOM     12  C   UNL     1     139.846 138.187 133.938  1.00  0.00     0.012 C 
ENDROOT
BRANCH  11  13
ATOM     13  C   UNL     1     138.458 133.818 130.508  1.00  0.00    -0.014 C 
ATOM     14  C   UNL     1     137.850 132.487 130.983  1.00  0.00     0.007 C 
ATOM     15  C   UNL     1     139.228 133.614 129.196  1.00  0.00     0.007 C 
ENDBRANCH  11  13
TORSDOF 1
ENDMDL
MODEL 5
REMARK VINA RESULT:    -5.285      3.957      5.858
REMARK INTER + INTRA:          -5.823
REMARK INTER:                  -5.405
REMARK INTRA:                  -0.418
REMARK UNBOUND:                -0.229
REMARK SMILES CC1=CC[C@@H]2[C@H]3[C@H](C(C)C)CC[C@]2(C)[C@@H]13
REMARK SMILES IDX 1 1 2 2 3 3 4 4 5 5 6 6 15 7 13 8 12 9 11 10 7 11 14 12 8 13
REMARK SMILES IDX 9 14 10 15
REMARK H PARENT
REMARK Flexibility Score: inf
ROOT
ATOM      1  C   UNL     1     139.128 135.135 132.866  1.00  0.00     0.039 C 
ATOM      2  C   UNL     1     139.691 136.329 132.156  1.00  0.00    -0.073 C 
ATOM      3  C   UNL     1     141.030 136.491 132.001  1.00  0.00    -0.027 C 
ATOM      4  C   UNL     1     141.546 137.722 131.250  1.00  0.00     0.031 C 
ATOM      5  C   UNL     1     140.352 138.630 130.810  1.00  0.00     0.003 C 
ATOM      6  C   UNL     1     139.409 138.782 132.026  1.00  0.00     0.004 C 
ATOM      7  C   UNL     1     138.788 137.429 131.593  1.00  0.00     0.024 C 
ATOM      8  C   UNL     1     139.219 137.802 130.153  1.00  0.00    -0.022 C 
ATOM      9  C   UNL     1     138.187 138.777 129.506  1.00  0.00     0.008 C 
ATOM     10  C   UNL     1     137.528 139.723 130.546  1.00  0.00     0.005 C 
ATOM     11  C   UNL     1     138.440 139.979 131.787  1.00  0.00    -0.005 C 
ATOM     12  C   UNL     1     139.602 136.670 129.172  1.00  0.00     0.012 C 
ENDROOT
BRANCH  11  13
ATOM     13  C   UNL     1     137.668 140.382 133.078  1.00  0.00    -0.014 C 
ATOM     14  C   UNL     1     138.232 139.763 134.369  1.00  0.00     0.007 C 
ATOM     15  C   UNL     1     136.167 140.085 132.957  1.00  0.00     0.007 C 
ENDBRANCH  11  13
TORSDOF 1
ENDMDL
MODEL 6
REMARK VINA RESULT:    -5.279      1.634      4.796
REMARK INTER + INTRA:          -5.816
REMARK INTER:                  -5.393
REMARK INTRA:                  -0.424
REMARK UNBOUND:                -0.229
REMARK SMILES CC1=CC[C@@H]2[C@H]3[C@H](C(C)C)CC[C@]2(C)[C@@H]13
REMARK SMILES IDX 1 1 2 2 3 3 4 4 5 5 6 6 15 7 13 8 12 9 11 10 7 11 14 12 8 13
REMARK SMILES IDX 9 14 10 15
REMARK H PARENT
REMARK Flexibility Score: inf
ROOT
ATOM      1  C   UNL     1     134.619 138.614 132.797  1.00  0.00     0.039 C 
ATOM      2  C   UNL     1     134.087 137.385 132.124  1.00  0.00    -0.073 C 
ATOM      3  C   UNL     1     132.756 137.215 131.914  1.00  0.00    -0.027 C 
ATOM      4  C   UNL     1     132.273 135.947 131.204  1.00  0.00     0.031 C 
ATOM      5  C   UNL     1     133.484 135.016 130.870  1.00  0.00     0.003 C 
ATOM      6  C   UNL     1     134.368 134.928 132.136  1.00  0.00     0.004 C 
ATOM      7  C   UNL     1     135.013 136.256 131.663  1.00  0.00     0.024 C 
ATOM      8  C   UNL     1     134.649 135.808 130.226  1.00  0.00    -0.022 C 
ATOM      9  C   UNL     1     135.709 134.800 129.681  1.00  0.00     0.008 C 
ATOM     10  C   UNL     1     136.314 133.909 130.799  1.00  0.00     0.005 C 
ATOM     11  C   UNL     1     135.344 133.720 132.007  1.00  0.00    -0.005 C 
ATOM     12  C   UNL     1     134.317 136.887 129.170  1.00  0.00     0.012 C 
ENDROOT
BRANCH  11  13
ATOM     13  C   UNL     1     136.051 133.384 133.353  1.00  0.00    -0.014 C 
ATOM     14  C   UNL     1     135.397 134.029 134.588  1.00  0.00     0.007 C 
ATOM     15  C   UNL     1     137.548 133.724 133.306  1.00  0.00     0.007 C 
ENDBRANCH  11  13
TORSDOF 1
ENDMDL
MODEL 7
REMARK VINA RESULT:    -5.230      4.150      5.724
REMARK INTER + INTRA:          -5.764
REMARK INTER:                  -5.344
REMARK INTRA:                  -0.420
REMARK UNBOUND:                -0.229
REMARK SMILES CC1=CC[C@@H]2[C@H]3[C@H](C(C)C)CC[C@]2(C)[C@@H]13
REMARK SMILES IDX 1 1 2 2 3 3 4 4 5 5 6 6 15 7 13 8 12 9 11 10 7 11 14 12 8 13
REMARK SMILES IDX 9 14 10 15
REMARK H PARENT
REMARK Flexibility Score: inf
ROOT
ATOM      1  C   UNL     1     138.711 138.875 132.833  1.00  0.00     0.039 C 
ATOM      2  C   UNL     1     137.530 139.519 132.174  1.00  0.00    -0.073 C 
ATOM      3  C   UNL     1     137.433 140.869 132.064  1.00  0.00    -0.027 C 
ATOM      4  C   UNL     1     136.210 141.470 131.363  1.00  0.00     0.031 C 
ATOM      5  C   UNL     1     135.230 140.338 130.914  1.00  0.00     0.003 C 
ATOM      6  C   UNL     1     135.062 139.367 132.106  1.00  0.00     0.004 C 
ATOM      7  C   UNL     1     136.369 138.691 131.616  1.00  0.00     0.024 C 
ATOM      8  C   UNL     1     135.980 139.185 130.201  1.00  0.00    -0.022 C 
ATOM      9  C   UNL     1     134.936 138.225 129.552  1.00  0.00     0.008 C 
ATOM     10  C   UNL     1     133.985 137.583 130.599  1.00  0.00     0.005 C 
ATOM     11  C   UNL     1     133.811 138.468 131.873  1.00  0.00    -0.005 C 
ATOM     12  C   UNL     1     137.103 139.540 129.200  1.00  0.00     0.012 C 
ENDROOT
BRANCH  11  13
ATOM     13  C   UNL     1     133.404 137.678 133.152  1.00  0.00    -0.014 C 
ATOM     14  C   UNL     1     134.068 138.185 134.445  1.00  0.00     0.007 C 
ATOM     15  C   UNL     1     133.642 136.170 132.987  1.00  0.00     0.007 C 
ENDBRANCH  11  13
TORSDOF 1
ENDMDL
MODEL 8
REMARK VINA RESULT:    -5.224      1.686      4.919
REMARK INTER + INTRA:          -5.758
REMARK INTER:                  -5.347
REMARK INTRA:                  -0.411
REMARK UNBOUND:                -0.229
REMARK SMILES CC1=CC[C@@H]2[C@H]3[C@H](C(C)C)CC[C@]2(C)[C@@H]13
REMARK SMILES IDX 1 1 2 2 3 3 4 4 5 5 6 6 15 7 13 8 12 9 11 10 7 11 14 12 8 13
REMARK SMILES IDX 9 14 10 15
REMARK H PARENT
REMARK Flexibility Score: inf
ROOT
ATOM      1  C   UNL     1     135.158 134.619 132.820  1.00  0.00     0.039 C 
ATOM      2  C   UNL     1     136.342 134.056 132.094  1.00  0.00    -0.073 C 
ATOM      3  C   UNL     1     136.515 132.716 131.958  1.00  0.00    -0.027 C 
ATOM      4  C   UNL     1     137.735 132.200 131.190  1.00  0.00     0.031 C 
ATOM      5  C   UNL     1     138.621 133.395 130.711  1.00  0.00     0.003 C 
ATOM      6  C   UNL     1     138.789 134.360 131.907  1.00  0.00     0.004 C 
ATOM      7  C   UNL     1     137.421 134.960 131.493  1.00  0.00     0.024 C 
ATOM      8  C   UNL     1     137.769 134.508 130.053  1.00  0.00    -0.022 C 
ATOM      9  C   UNL     1     138.719 135.539 129.369  1.00  0.00     0.008 C 
ATOM     10  C   UNL     1     139.680 136.224 130.377  1.00  0.00     0.005 C 
ATOM     11  C   UNL     1     139.971 135.337 131.627  1.00  0.00    -0.005 C 
ATOM     12  C   UNL     1     136.621 134.097 129.102  1.00  0.00     0.012 C 
ENDROOT
BRANCH  11  13
ATOM     13  C   UNL     1     140.393 136.134 132.897  1.00  0.00    -0.014 C 
ATOM     14  C   UNL     1     139.755 135.626 134.202  1.00  0.00     0.007 C 
ATOM     15  C   UNL     1     140.139 137.639 132.731  1.00  0.00     0.007 C 
ENDBRANCH  11  13
TORSDOF 1
ENDMDL
MODEL 9
REMARK VINA RESULT:    -5.025      4.153      6.406
REMARK INTER + INTRA:          -5.547
REMARK INTER:                  -5.120
REMARK INTRA:                  -0.427
REMARK UNBOUND:                -0.229
REMARK SMILES CC1=CC[C@@H]2[C@H]3[C@H](C(C)C)CC[C@]2(C)[C@@H]13
REMARK SMILES IDX 1 1 2 2 3 3 4 4 5 5 6 6 15 7 13 8 12 9 11 10 7 11 14 12 8 13
REMARK SMILES IDX 9 14 10 15
REMARK H PARENT
REMARK Flexibility Score: inf
ROOT
ATOM      1  C   UNL     1     135.252 138.034 131.095  1.00  0.00     0.039 C 
ATOM      2  C   UNL     1     136.464 138.802 131.528  1.00  0.00    -0.073 C 
ATOM      3  C   UNL     1     136.352 140.005 132.149  1.00  0.00    -0.027 C 
ATOM      4  C   UNL     1     137.625 140.735 132.586  1.00  0.00     0.031 C 
ATOM      5  C   UNL     1     138.891 139.916 132.172  1.00  0.00     0.003 C 
ATOM      6  C   UNL     1     138.698 139.469 130.704  1.00  0.00     0.004 C 
ATOM      7  C   UNL     1     137.880 138.281 131.272  1.00  0.00     0.024 C 
ATOM      8  C   UNL     1     138.749 138.420 132.547  1.00  0.00    -0.022 C 
ATOM      9  C   UNL     1     140.126 137.713 132.352  1.00  0.00     0.008 C 
ATOM     10  C   UNL     1     140.627 137.778 130.885  1.00  0.00     0.005 C 
ATOM     11  C   UNL     1     140.066 139.014 130.114  1.00  0.00    -0.005 C 
ATOM     12  C   UNL     1     138.128 138.055 133.916  1.00  0.00     0.012 C 
ENDROOT
BRANCH  11  13
ATOM     13  C   UNL     1     140.014 138.837 128.567  1.00  0.00    -0.014 C 
ATOM     14  C   UNL     1     138.855 139.586 127.885  1.00  0.00     0.007 C 
ATOM     15  C   UNL     1     139.997 137.354 128.167  1.00  0.00     0.007 C 
ENDBRANCH  11  13
TORSDOF 1
ENDMDL
