MODEL 1
REMARK VINA RESULT:    -3.211      0.000      0.000
REMARK INTER + INTRA:          -4.138
REMARK INTER:                  -3.962
REMARK INTRA:                  -0.176
REMARK UNBOUND:                -0.176
REMARK SMILES CCCCCC(=O)[O-]
REMARK SMILES IDX 4 1 5 2 6 3 7 4 8 5 3 6 2 7 1 8
REMARK H PARENT
REMARK Flexibility Score: inf
ROOT
ATOM      1  C   UNL     1      19.915  14.205 -15.531  1.00  0.00     0.006 C 
ENDROOT
BRANCH   1   2
ATOM      2  C   UNL     1      19.782  12.754 -16.010  1.00  0.00     0.053 C 
BRANCH   2   3
ATOM      3  C   UNL     1      18.496  12.564 -16.750  1.00  0.00     0.041 C 
ATOM      4  O   UNL     1      18.196  13.327 -17.705  1.00  0.00    -0.550 OA
ATOM      5  O   UNL     1      17.605  11.576 -16.352  1.00  0.00    -0.550 OA
ENDBRANCH   2   3
ENDBRANCH   1   2
BRANCH   1   6
ATOM      6  C   UNL     1      21.018  14.974 -16.275  1.00  0.00     0.000 C 
BRANCH   6   7
ATOM      7  C   UNL     1      20.607  16.415 -16.617  1.00  0.00    -0.003 C 
ATOM      8  C   UNL     1      19.833  16.468 -17.931  1.00  0.00     0.004 C 
ENDBRANCH   6   7
ENDBRANCH   1   6
TORSDOF 4
ENDMDL
MODEL 2
REMARK VINA RESULT:    -3.147      0.237      1.167
REMARK INTER + INTRA:          -4.059
REMARK INTER:                  -3.893
REMARK INTRA:                  -0.167
REMARK UNBOUND:                -0.176
REMARK SMILES CCCCCC(=O)[O-]
REMARK SMILES IDX 4 1 5 2 6 3 7 4 8 5 3 6 2 7 1 8
REMARK H PARENT
REMARK Flexibility Score: inf
ROOT
ATOM      1  C   UNL     1      19.861  14.106 -15.592  1.00  0.00     0.006 C 
ENDROOT
BRANCH   1   2
ATOM      2  C   UNL     1      19.667  12.628 -15.958  1.00  0.00     0.053 C 
BRANCH   2   3
ATOM      3  C   UNL     1      18.393  12.442 -16.718  1.00  0.00     0.041 C 
ATOM      4  O   UNL     1      17.556  11.576 -16.350  1.00  0.00    -0.550 OA
ATOM      5  O   UNL     1      18.152  13.189 -17.864  1.00  0.00    -0.550 OA
ENDBRANCH   2   3
ENDBRANCH   1   2
BRANCH   1   6
ATOM      6  C   UNL     1      21.122  14.712 -16.227  1.00  0.00     0.000 C 
BRANCH   6   7
ATOM      7  C   UNL     1      20.944  16.192 -16.596  1.00  0.00    -0.003 C 
ATOM      8  C   UNL     1      19.874  16.366 -17.670  1.00  0.00     0.004 C 
ENDBRANCH   6   7
ENDBRANCH   1   6
TORSDOF 4
ENDMDL
MODEL 3
REMARK VINA RESULT:    -3.107      0.809      1.463
REMARK INTER + INTRA:          -4.009
REMARK INTER:                  -3.806
REMARK INTRA:                  -0.203
REMARK UNBOUND:                -0.176
REMARK SMILES CCCCCC(=O)[O-]
REMARK SMILES IDX 4 1 5 2 6 3 7 4 8 5 3 6 2 7 1 8
REMARK H PARENT
REMARK Flexibility Score: inf
ROOT
ATOM      1  C   UNL     1      21.323  14.139 -16.391  1.00  0.00     0.006 C 
ENDROOT
BRANCH   1   2
ATOM      2  C   UNL     1      20.021  13.889 -15.618  1.00  0.00     0.053 C 
BRANCH   2   3
ATOM      3  C   UNL     1      19.139  12.946 -16.373  1.00  0.00     0.041 C 
ATOM      4  O   UNL     1      19.160  11.714 -16.115  1.00  0.00    -0.550 OA
ATOM      5  O   UNL     1      18.331  13.421 -17.398  1.00  0.00    -0.550 OA
ENDBRANCH   2   3
ENDBRANCH   1   2
BRANCH   1   6
ATOM      6  C   UNL     1      21.705  15.627 -16.438  1.00  0.00     0.000 C 
BRANCH   6   7
ATOM      7  C   UNL     1      20.498  16.539 -16.706  1.00  0.00    -0.003 C 
ATOM      8  C   UNL     1      20.133  16.546 -18.187  1.00  0.00     0.004 C 
ENDBRANCH   6   7
ENDBRANCH   1   6
TORSDOF 4
ENDMDL
MODEL 4
REMARK VINA RESULT:    -3.051      2.663      4.257
REMARK INTER + INTRA:          -3.941
REMARK INTER:                  -3.803
REMARK INTRA:                  -0.138
REMARK UNBOUND:                -0.176
REMARK SMILES CCCCCC(=O)[O-]
REMARK SMILES IDX 4 1 5 2 6 3 7 4 8 5 3 6 2 7 1 8
REMARK H PARENT
REMARK Flexibility Score: inf
ROOT
ATOM      1  C   UNL     1      21.725  15.528 -16.350  1.00  0.00     0.006 C 
ENDROOT
BRANCH   1   2
ATOM      2  C   UNL     1      20.627  16.534 -16.718  1.00  0.00     0.053 C 
BRANCH   2   3
ATOM      3  C   UNL     1      20.671  16.842 -18.182  1.00  0.00     0.041 C 
ATOM      4  O   UNL     1      19.616  16.808 -18.868  1.00  0.00    -0.550 OA
ATOM      5  O   UNL     1      21.885  17.115 -18.798  1.00  0.00    -0.550 OA
ENDBRANCH   2   3
ENDBRANCH   1   2
BRANCH   1   6
ATOM      6  C   UNL     1      21.213  14.079 -16.318  1.00  0.00     0.000 C 
BRANCH   6   7
ATOM      7  C   UNL     1      19.875  13.942 -15.576  1.00  0.00    -0.003 C 
ATOM      8  C   UNL     1      19.224  12.592 -15.862  1.00  0.00     0.004 C 
ENDBRANCH   6   7
ENDBRANCH   1   6
TORSDOF 4
ENDMDL
MODEL 5
REMARK VINA RESULT:    -2.990      2.555      4.069
REMARK INTER + INTRA:          -3.866
REMARK INTER:                  -3.645
REMARK INTRA:                  -0.220
REMARK UNBOUND:                -0.176
REMARK SMILES CCCCCC(=O)[O-]
REMARK SMILES IDX 4 1 5 2 6 3 7 4 8 5 3 6 2 7 1 8
REMARK H PARENT
REMARK Flexibility Score: inf
ROOT
ATOM      1  C   UNL     1      19.074  14.361 -17.188  1.00  0.00     0.006 C 
ENDROOT
BRANCH   1   2
ATOM      2  C   UNL     1      19.962  14.347 -15.937  1.00  0.00     0.053 C 
BRANCH   2   3
ATOM      3  C   UNL     1      21.407  14.401 -16.323  1.00  0.00     0.041 C 
ATOM      4  O   UNL     1      22.027  15.496 -16.309  1.00  0.00    -0.550 OA
ATOM      5  O   UNL     1      22.055  13.248 -16.747  1.00  0.00    -0.550 OA
ENDBRANCH   2   3
ENDBRANCH   1   2
BRANCH   1   6
ATOM      6  C   UNL     1      18.374  13.014 -17.431  1.00  0.00     0.000 C 
BRANCH   6   7
ATOM      7  C   UNL     1      18.539  12.042 -16.253  1.00  0.00    -0.003 C 
ATOM      8  C   UNL     1      19.215  10.749 -16.698  1.00  0.00     0.004 C 
ENDBRANCH   6   7
ENDBRANCH   1   6
TORSDOF 4
ENDMDL
MODEL 6
REMARK VINA RESULT:    -2.988      2.751      4.168
REMARK INTER + INTRA:          -3.863
REMARK INTER:                  -3.784
REMARK INTRA:                  -0.079
REMARK UNBOUND:                -0.176
REMARK SMILES CCCCCC(=O)[O-]
REMARK SMILES IDX 4 1 5 2 6 3 7 4 8 5 3 6 2 7 1 8
REMARK H PARENT
REMARK Flexibility Score: inf
ROOT
ATOM      1  C   UNL     1      19.400  13.789 -16.593  1.00  0.00     0.006 C 
ENDROOT
BRANCH   1   2
ATOM      2  C   UNL     1      20.120  14.720 -15.609  1.00  0.00     0.053 C 
BRANCH   2   3
ATOM      3  C   UNL     1      20.992  15.686 -16.348  1.00  0.00     0.041 C 
ATOM      4  O   UNL     1      20.501  16.739 -16.833  1.00  0.00    -0.550 OA
ATOM      5  O   UNL     1      22.336  15.400 -16.544  1.00  0.00    -0.550 OA
ENDBRANCH   2   3
ENDBRANCH   1   2
BRANCH   1   6
ATOM      6  C   UNL     1      19.128  12.398 -16.000  1.00  0.00     0.000 C 
BRANCH   6   7
ATOM      7  C   UNL     1      17.871  11.739 -16.589  1.00  0.00    -0.003 C 
ATOM      8  C   UNL     1      17.586  12.261 -17.994  1.00  0.00     0.004 C 
ENDBRANCH   6   7
ENDBRANCH   1   6
TORSDOF 4
ENDMDL
MODEL 7
REMARK VINA RESULT:    -2.965      2.819      4.266
REMARK INTER + INTRA:          -3.835
REMARK INTER:                  -3.761
REMARK INTRA:                  -0.074
REMARK UNBOUND:                -0.176
REMARK SMILES CCCCCC(=O)[O-]
REMARK SMILES IDX 4 1 5 2 6 3 7 4 8 5 3 6 2 7 1 8
REMARK H PARENT
REMARK Flexibility Score: inf
ROOT
ATOM      1  C   UNL     1      19.440  13.833 -16.556  1.00  0.00     0.006 C 
ENDROOT
BRANCH   1   2
ATOM      2  C   UNL     1      20.249  14.745 -15.625  1.00  0.00     0.053 C 
BRANCH   2   3
ATOM      3  C   UNL     1      21.134  15.651 -16.421  1.00  0.00     0.041 C 
ATOM      4  O   UNL     1      22.353  15.375 -16.570  1.00  0.00    -0.550 OA
ATOM      5  O   UNL     1      20.623  16.826 -16.957  1.00  0.00    -0.550 OA
ENDBRANCH   2   3
ENDBRANCH   1   2
BRANCH   1   6
ATOM      6  C   UNL     1      19.370  12.383 -16.050  1.00  0.00     0.000 C 
BRANCH   6   7
ATOM      7  C   UNL     1      18.033  11.704 -16.384  1.00  0.00    -0.003 C 
ATOM      8  C   UNL     1      17.627  11.974 -17.830  1.00  0.00     0.004 C 
ENDBRANCH   6   7
ENDBRANCH   1   6
TORSDOF 4
ENDMDL
MODEL 8
REMARK VINA RESULT:    -2.904      2.418      4.584
REMARK INTER + INTRA:          -3.759
REMARK INTER:                  -3.643
REMARK INTRA:                  -0.117
REMARK UNBOUND:                -0.176
REMARK SMILES CCCCCC(=O)[O-]
REMARK SMILES IDX 4 1 5 2 6 3 7 4 8 5 3 6 2 7 1 8
REMARK H PARENT
REMARK Flexibility Score: inf
ROOT
ATOM      1  C   UNL     1      18.668  12.008 -16.273  1.00  0.00     0.006 C 
ENDROOT
BRANCH   1   2
ATOM      2  C   UNL     1      19.326  13.077 -15.391  1.00  0.00     0.053 C 
BRANCH   2   3
ATOM      3  C   UNL     1      19.942  14.145 -16.238  1.00  0.00     0.041 C 
ATOM      4  O   UNL     1      21.089  14.587 -15.966  1.00  0.00    -0.550 OA
ATOM      5  O   UNL     1      19.228  14.690 -17.298  1.00  0.00    -0.550 OA
ENDBRANCH   2   3
ENDBRANCH   1   2
BRANCH   1   6
ATOM      6  C   UNL     1      19.693  11.065 -16.923  1.00  0.00     0.000 C 
BRANCH   6   7
ATOM      7  C   UNL     1      19.081   9.713 -17.322  1.00  0.00    -0.003 C 
ATOM      8  C   UNL     1      19.405   8.638 -16.289  1.00  0.00     0.004 C 
ENDBRANCH   6   7
ENDBRANCH   1   6
TORSDOF 4
ENDMDL
MODEL 9
REMARK VINA RESULT:    -2.866      1.852      2.524
REMARK INTER + INTRA:          -3.713
REMARK INTER:                  -3.539
REMARK INTRA:                  -0.173
REMARK UNBOUND:                -0.176
REMARK SMILES CCCCCC(=O)[O-]
REMARK SMILES IDX 4 1 5 2 6 3 7 4 8 5 3 6 2 7 1 8
REMARK H PARENT
REMARK Flexibility Score: inf
ROOT
ATOM      1  C   UNL     1      19.160  13.364 -16.756  1.00  0.00     0.006 C 
ENDROOT
BRANCH   1   2
ATOM      2  C   UNL     1      18.601  11.999 -16.333  1.00  0.00     0.053 C 
BRANCH   2   3
ATOM      3  C   UNL     1      19.482  10.897 -16.830  1.00  0.00     0.041 C 
ATOM      4  O   UNL     1      19.338   9.725 -16.395  1.00  0.00    -0.550 OA
ATOM      5  O   UNL     1      20.497  11.175 -17.737  1.00  0.00    -0.550 OA
ENDBRANCH   2   3
ENDBRANCH   1   2
BRANCH   1   6
ATOM      6  C   UNL     1      19.830  14.113 -15.594  1.00  0.00     0.000 C 
BRANCH   6   7
ATOM      7  C   UNL     1      20.970  15.031 -16.061  1.00  0.00    -0.003 C 
ATOM      8  C   UNL     1      22.026  14.246 -16.833  1.00  0.00     0.004 C 
ENDBRANCH   6   7
ENDBRANCH   1   6
TORSDOF 4
ENDMDL
