MODEL 1
REMARK VINA RESULT:    -3.658      0.000      0.000
REMARK INTER + INTRA:          -5.435
REMARK INTER:                  -5.155
REMARK INTRA:                  -0.279
REMARK UNBOUND:                -0.279
REMARK SMILES C=CCCCCCCC(=O)[O-]
REMARK SMILES IDX 6 1 7 2 8 3 9 4 10 5 11 6 5 7 4 8 3 9 2 10 1 11
REMARK H PARENT
REMARK Flexibility Score: inf
ROOT
ATOM      1  C   UNL     1      61.993  32.697  60.420  1.00  0.00     0.000 C 
ENDROOT
BRANCH   1   2
ATOM      2  C   UNL     1      60.835  31.695  60.498  1.00  0.00     0.006 C 
BRANCH   2   3
ATOM      3  C   UNL     1      61.022  30.726  61.668  1.00  0.00     0.053 C 
BRANCH   3   4
ATOM      4  C   UNL     1      61.944  29.612  61.285  1.00  0.00     0.041 C 
ATOM      5  O   UNL     1      63.180  29.709  61.503  1.00  0.00    -0.550 OA
ATOM      6  O   UNL     1      61.432  28.445  60.733  1.00  0.00    -0.550 OA
ENDBRANCH   3   4
ENDBRANCH   2   3
ENDBRANCH   1   2
BRANCH   1   7
ATOM      7  C   UNL     1      61.470  34.130  60.244  1.00  0.00     0.000 C 
BRANCH   7   8
ATOM      8  C   UNL     1      62.429  35.186  60.817  1.00  0.00     0.004 C 
BRANCH   8   9
ATOM      9  C   UNL     1      63.858  34.652  60.993  1.00  0.00     0.027 C 
BRANCH   9  10
ATOM     10  C   UNL     1      64.711  35.624  61.762  1.00  0.00    -0.035 C 
ATOM     11  C   UNL     1      64.285  36.856  62.053  1.00  0.00     0.004 C 
ENDBRANCH   9  10
ENDBRANCH   8   9
ENDBRANCH   7   8
ENDBRANCH   1   7
TORSDOF 7
ENDMDL
MODEL 2
REMARK VINA RESULT:    -3.640     11.965     13.820
REMARK INTER + INTRA:          -5.409
REMARK INTER:                  -5.080
REMARK INTRA:                  -0.329
REMARK UNBOUND:                -0.279
REMARK SMILES C=CCCCCCCC(=O)[O-]
REMARK SMILES IDX 6 1 7 2 8 3 9 4 10 5 11 6 5 7 4 8 3 9 2 10 1 11
REMARK H PARENT
REMARK Flexibility Score: inf
ROOT
ATOM      1  C   UNL     1      57.766  29.097  51.114  1.00  0.00     0.000 C 
ENDROOT
BRANCH   1   2
ATOM      2  C   UNL     1      58.727  29.195  49.922  1.00  0.00     0.006 C 
BRANCH   2   3
ATOM      3  C   UNL     1      60.180  29.015  50.370  1.00  0.00     0.053 C 
BRANCH   3   4
ATOM      4  C   UNL     1      60.705  27.685  49.929  1.00  0.00     0.041 C 
ATOM      5  O   UNL     1      59.909  26.747  49.663  1.00  0.00    -0.550 OA
ATOM      6  O   UNL     1      62.071  27.497  49.765  1.00  0.00    -0.550 OA
ENDBRANCH   3   4
ENDBRANCH   2   3
ENDBRANCH   1   2
BRANCH   1   7
ATOM      7  C   UNL     1      56.639  28.092  50.830  1.00  0.00     0.000 C 
BRANCH   7   8
ATOM      8  C   UNL     1      55.260  28.762  50.733  1.00  0.00     0.004 C 
BRANCH   8   9
ATOM      9  C   UNL     1      54.158  27.784  50.296  1.00  0.00     0.027 C 
BRANCH   9  10
ATOM     10  C   UNL     1      54.720  26.413  50.036  1.00  0.00    -0.035 C 
ATOM     11  C   UNL     1      53.966  25.422  49.553  1.00  0.00     0.004 C 
ENDBRANCH   9  10
ENDBRANCH   8   9
ENDBRANCH   7   8
ENDBRANCH   1   7
TORSDOF 7
ENDMDL
MODEL 3
REMARK VINA RESULT:    -3.546     12.624     13.827
REMARK INTER + INTRA:          -5.276
REMARK INTER:                  -4.953
REMARK INTRA:                  -0.323
REMARK UNBOUND:                -0.279
REMARK SMILES C=CCCCCCCC(=O)[O-]
REMARK SMILES IDX 6 1 7 2 8 3 9 4 10 5 11 6 5 7 4 8 3 9 2 10 1 11
REMARK H PARENT
REMARK Flexibility Score: inf
ROOT
ATOM      1  C   UNL     1      55.702  28.751  51.038  1.00  0.00     0.000 C 
ENDROOT
BRANCH   1   2
ATOM      2  C   UNL     1      54.607  27.902  50.379  1.00  0.00     0.006 C 
BRANCH   2   3
ATOM      3  C   UNL     1      55.103  26.480  50.102  1.00  0.00     0.053 C 
BRANCH   3   4
ATOM      4  C   UNL     1      53.949  25.544  49.934  1.00  0.00     0.041 C 
ATOM      5  O   UNL     1      53.311  25.514  48.850  1.00  0.00    -0.550 OA
ATOM      6  O   UNL     1      53.608  24.670  50.958  1.00  0.00    -0.550 OA
ENDBRANCH   3   4
ENDBRANCH   2   3
ENDBRANCH   1   2
BRANCH   1   7
ATOM      7  C   UNL     1      57.094  28.164  50.759  1.00  0.00     0.000 C 
BRANCH   7   8
ATOM      8  C   UNL     1      58.198  29.233  50.761  1.00  0.00     0.004 C 
BRANCH   8   9
ATOM      9  C   UNL     1      59.207  29.042  49.618  1.00  0.00     0.027 C 
BRANCH   9  10
ATOM     10  C   UNL     1      59.748  27.638  49.600  1.00  0.00    -0.035 C 
ATOM     11  C   UNL     1      60.940  27.337  50.123  1.00  0.00     0.004 C 
ENDBRANCH   9  10
ENDBRANCH   8   9
ENDBRANCH   7   8
ENDBRANCH   1   7
TORSDOF 7
ENDMDL
MODEL 4
REMARK VINA RESULT:    -3.493     12.412     13.310
REMARK INTER + INTRA:          -5.201
REMARK INTER:                  -4.732
REMARK INTRA:                  -0.469
REMARK UNBOUND:                -0.279
REMARK SMILES C=CCCCCCCC(=O)[O-]
REMARK SMILES IDX 6 1 7 2 8 3 9 4 10 5 11 6 5 7 4 8 3 9 2 10 1 11
REMARK H PARENT
REMARK Flexibility Score: inf
ROOT
ATOM      1  C   UNL     1      59.721  28.365  49.662  1.00  0.00     0.000 C 
ENDROOT
BRANCH   1   2
ATOM      2  C   UNL     1      59.532  26.862  49.907  1.00  0.00     0.006 C 
BRANCH   2   3
ATOM      3  C   UNL     1      60.848  26.202  50.327  1.00  0.00     0.053 C 
BRANCH   3   4
ATOM      4  C   UNL     1      60.635  24.754  50.632  1.00  0.00     0.041 C 
ATOM      5  O   UNL     1      59.500  24.340  50.985  1.00  0.00    -0.550 OA
ATOM      6  O   UNL     1      61.679  23.850  50.478  1.00  0.00    -0.550 OA
ENDBRANCH   3   4
ENDBRANCH   2   3
ENDBRANCH   1   2
BRANCH   1   7
ATOM      7  C   UNL     1      58.476  29.153  50.093  1.00  0.00     0.000 C 
BRANCH   7   8
ATOM      8  C   UNL     1      57.560  28.349  51.029  1.00  0.00     0.004 C 
BRANCH   8   9
ATOM      9  C   UNL     1      56.076  28.707  50.854  1.00  0.00     0.027 C 
BRANCH   9  10
ATOM     10  C   UNL     1      55.249  27.479  50.584  1.00  0.00    -0.035 C 
ATOM     11  C   UNL     1      55.809  26.308  50.272  1.00  0.00     0.004 C 
ENDBRANCH   9  10
ENDBRANCH   8   9
ENDBRANCH   7   8
ENDBRANCH   1   7
TORSDOF 7
ENDMDL
MODEL 5
REMARK VINA RESULT:    -3.420     12.100     13.572
REMARK INTER + INTRA:          -5.099
REMARK INTER:                  -4.375
REMARK INTRA:                  -0.724
REMARK UNBOUND:                -0.279
REMARK SMILES C=CCCCCCCC(=O)[O-]
REMARK SMILES IDX 6 1 7 2 8 3 9 4 10 5 11 6 5 7 4 8 3 9 2 10 1 11
REMARK H PARENT
REMARK Flexibility Score: inf
ROOT
ATOM      1  C   UNL     1      57.123  26.085  51.331  1.00  0.00     0.000 C 
ENDROOT
BRANCH   1   2
ATOM      2  C   UNL     1      56.046  26.498  50.320  1.00  0.00     0.006 C 
BRANCH   2   3
ATOM      3  C   UNL     1      55.455  27.866  50.674  1.00  0.00     0.053 C 
BRANCH   3   4
ATOM      4  C   UNL     1      54.041  27.965  50.197  1.00  0.00     0.041 C 
ATOM      5  O   UNL     1      53.455  26.951  49.736  1.00  0.00    -0.550 OA
ATOM      6  O   UNL     1      53.352  29.167  50.309  1.00  0.00    -0.550 OA
ENDBRANCH   3   4
ENDBRANCH   2   3
ENDBRANCH   1   2
BRANCH   1   7
ATOM      7  C   UNL     1      58.446  25.757  50.622  1.00  0.00     0.000 C 
BRANCH   7   8
ATOM      8  C   UNL     1      59.525  26.826  50.856  1.00  0.00     0.004 C 
BRANCH   8   9
ATOM      9  C   UNL     1      59.676  27.784  49.665  1.00  0.00     0.027 C 
BRANCH   9  10
ATOM     10  C   UNL     1      59.013  29.106  49.945  1.00  0.00    -0.035 C 
ATOM     11  C   UNL     1      58.763  29.519  51.190  1.00  0.00     0.004 C 
ENDBRANCH   9  10
ENDBRANCH   8   9
ENDBRANCH   7   8
ENDBRANCH   1   7
TORSDOF 7
ENDMDL
MODEL 6
REMARK VINA RESULT:    -3.407      1.335      1.910
REMARK INTER + INTRA:          -5.080
REMARK INTER:                  -4.676
REMARK INTRA:                  -0.404
REMARK UNBOUND:                -0.279
REMARK SMILES C=CCCCCCCC(=O)[O-]
REMARK SMILES IDX 6 1 7 2 8 3 9 4 10 5 11 6 5 7 4 8 3 9 2 10 1 11
REMARK H PARENT
REMARK Flexibility Score: inf
ROOT
ATOM      1  C   UNL     1      61.132  31.923  60.395  1.00  0.00     0.000 C 
ENDROOT
BRANCH   1   2
ATOM      2  C   UNL     1      60.832  30.761  61.350  1.00  0.00     0.006 C 
BRANCH   2   3
ATOM      3  C   UNL     1      62.074  29.894  61.571  1.00  0.00     0.053 C 
BRANCH   3   4
ATOM      4  C   UNL     1      61.944  28.595  60.840  1.00  0.00     0.041 C 
ATOM      5  O   UNL     1      61.803  28.583  59.590  1.00  0.00    -0.550 OA
ATOM      6  O   UNL     1      62.030  27.395  61.535  1.00  0.00    -0.550 OA
ENDBRANCH   3   4
ENDBRANCH   2   3
ENDBRANCH   1   2
BRANCH   1   7
ATOM      7  C   UNL     1      62.604  32.350  60.495  1.00  0.00     0.000 C 
BRANCH   7   8
ATOM      8  C   UNL     1      62.797  33.862  60.300  1.00  0.00     0.004 C 
BRANCH   8   9
ATOM      9  C   UNL     1      61.477  34.642  60.390  1.00  0.00     0.027 C 
BRANCH   9  10
ATOM     10  C   UNL     1      61.704  36.034  60.917  1.00  0.00    -0.035 C 
ATOM     11  C   UNL     1      62.909  36.447  61.317  1.00  0.00     0.004 C 
ENDBRANCH   9  10
ENDBRANCH   8   9
ENDBRANCH   7   8
ENDBRANCH   1   7
TORSDOF 7
ENDMDL
MODEL 7
REMARK VINA RESULT:    -3.356      3.409      5.759
REMARK INTER + INTRA:          -5.009
REMARK INTER:                  -4.684
REMARK INTRA:                  -0.325
REMARK UNBOUND:                -0.279
REMARK SMILES C=CCCCCCCC(=O)[O-]
REMARK SMILES IDX 6 1 7 2 8 3 9 4 10 5 11 6 5 7 4 8 3 9 2 10 1 11
REMARK H PARENT
REMARK Flexibility Score: inf
ROOT
ATOM      1  C   UNL     1      62.064  33.580  59.860  1.00  0.00     0.000 C 
ENDROOT
BRANCH   1   2
ATOM      2  C   UNL     1      62.621  34.721  60.721  1.00  0.00     0.006 C 
BRANCH   2   3
ATOM      3  C   UNL     1      64.057  34.427  61.163  1.00  0.00     0.053 C 
BRANCH   3   4
ATOM      4  C   UNL     1      64.789  35.700  61.450  1.00  0.00     0.041 C 
ATOM      5  O   UNL     1      64.199  36.657  62.016  1.00  0.00    -0.550 OA
ATOM      6  O   UNL     1      66.137  35.812  61.136  1.00  0.00    -0.550 OA
ENDBRANCH   3   4
ENDBRANCH   2   3
ENDBRANCH   1   2
BRANCH   1   7
ATOM      7  C   UNL     1      62.389  32.214  60.482  1.00  0.00     0.000 C 
BRANCH   7   8
ATOM      8  C   UNL     1      61.128  31.410  60.838  1.00  0.00     0.004 C 
BRANCH   8   9
ATOM      9  C   UNL     1      61.441  30.161  61.676  1.00  0.00     0.027 C 
BRANCH   9  10
ATOM     10  C   UNL     1      62.864  29.715  61.476  1.00  0.00    -0.035 C 
ATOM     11  C   UNL     1      63.161  28.567  60.861  1.00  0.00     0.004 C 
ENDBRANCH   9  10
ENDBRANCH   8   9
ENDBRANCH   7   8
ENDBRANCH   1   7
TORSDOF 7
ENDMDL
MODEL 8
REMARK VINA RESULT:    -3.272      1.770      2.181
REMARK INTER + INTRA:          -4.891
REMARK INTER:                  -4.432
REMARK INTRA:                  -0.459
REMARK UNBOUND:                -0.279
REMARK SMILES C=CCCCCCCC(=O)[O-]
REMARK SMILES IDX 6 1 7 2 8 3 9 4 10 5 11 6 5 7 4 8 3 9 2 10 1 11
REMARK H PARENT
REMARK Flexibility Score: inf
ROOT
ATOM      1  C   UNL     1      61.526  32.962  60.494  1.00  0.00     0.000 C 
ENDROOT
BRANCH   1   2
ATOM      2  C   UNL     1      62.274  31.629  60.371  1.00  0.00     0.006 C 
BRANCH   2   3
ATOM      3  C   UNL     1      63.722  31.764  60.850  1.00  0.00     0.053 C 
BRANCH   3   4
ATOM      4  C   UNL     1      64.596  30.757  60.171  1.00  0.00     0.041 C 
ATOM      5  O   UNL     1      65.311  31.097  59.192  1.00  0.00    -0.550 OA
ATOM      6  O   UNL     1      64.658  29.455  60.650  1.00  0.00    -0.550 OA
ENDBRANCH   3   4
ENDBRANCH   2   3
ENDBRANCH   1   2
BRANCH   1   7
ATOM      7  C   UNL     1      62.468  34.147  60.238  1.00  0.00     0.000 C 
BRANCH   7   8
ATOM      8  C   UNL     1      61.912  35.474  60.779  1.00  0.00     0.004 C 
BRANCH   8   9
ATOM      9  C   UNL     1      63.011  36.392  61.335  1.00  0.00     0.027 C 
BRANCH   9  10
ATOM     10  C   UNL     1      64.237  35.606  61.713  1.00  0.00    -0.035 C 
ATOM     11  C   UNL     1      65.461  35.989  61.341  1.00  0.00     0.004 C 
ENDBRANCH   9  10
ENDBRANCH   8   9
ENDBRANCH   7   8
ENDBRANCH   1   7
TORSDOF 7
ENDMDL
MODEL 9
REMARK VINA RESULT:    -3.259     12.399     14.184
REMARK INTER + INTRA:          -4.872
REMARK INTER:                  -4.451
REMARK INTRA:                  -0.421
REMARK UNBOUND:                -0.279
REMARK SMILES C=CCCCCCCC(=O)[O-]
REMARK SMILES IDX 6 1 7 2 8 3 9 4 10 5 11 6 5 7 4 8 3 9 2 10 1 11
REMARK H PARENT
REMARK Flexibility Score: inf
ROOT
ATOM      1  C   UNL     1      57.777  26.434  51.964  1.00  0.00     0.000 C 
ENDROOT
BRANCH   1   2
ATOM      2  C   UNL     1      59.260  26.389  51.576  1.00  0.00     0.006 C 
BRANCH   2   3
ATOM      3  C   UNL     1      59.436  26.481  50.058  1.00  0.00     0.053 C 
BRANCH   3   4
ATOM      4  C   UNL     1      60.109  27.763  49.684  1.00  0.00     0.041 C 
ATOM      5  O   UNL     1      59.423  28.772  49.376  1.00  0.00    -0.550 OA
ATOM      6  O   UNL     1      61.495  27.857  49.723  1.00  0.00    -0.550 OA
ENDBRANCH   3   4
ENDBRANCH   2   3
ENDBRANCH   1   2
BRANCH   1   7
ATOM      7  C   UNL     1      56.881  26.378  50.718  1.00  0.00     0.000 C 
BRANCH   7   8
ATOM      8  C   UNL     1      55.938  27.586  50.611  1.00  0.00     0.004 C 
BRANCH   8   9
ATOM      9  C   UNL     1      54.500  27.183  50.250  1.00  0.00     0.027 C 
BRANCH   9  10
ATOM     10  C   UNL     1      54.455  25.800  49.658  1.00  0.00    -0.035 C 
ATOM     11  C   UNL     1      53.355  25.045  49.716  1.00  0.00     0.004 C 
ENDBRANCH   9  10
ENDBRANCH   8   9
ENDBRANCH   7   8
ENDBRANCH   1   7
TORSDOF 7
ENDMDL
