MODEL 1
REMARK VINA RESULT:    -3.356      0.000      0.000
REMARK INTER + INTRA:          -3.756
REMARK INTER:                  -3.749
REMARK INTRA:                  -0.008
REMARK UNBOUND:                -0.008
REMARK SMILES CCCC(=O)[O-]
REMARK SMILES IDX 3 1 4 2 5 3 6 4 2 5 1 6
REMARK H PARENT
REMARK Flexibility Score: inf
ROOT
ATOM      1  C   UNL     1      21.793 -11.581  22.146  1.00  0.00     0.052 C 
ENDROOT
BRANCH   1   2
ATOM      2  C   UNL     1      21.827 -12.785  21.258  1.00  0.00     0.041 C 
ATOM      3  O   UNL     1      20.814 -13.100  20.578  1.00  0.00    -0.550 OA
ATOM      4  O   UNL     1      22.960 -13.590  21.219  1.00  0.00    -0.550 OA
ENDBRANCH   1   2
BRANCH   1   5
ATOM      5  C   UNL     1      20.474 -11.523  22.920  1.00  0.00     0.003 C 
ATOM      6  C   UNL     1      20.637 -10.752  24.227  1.00  0.00     0.004 C 
ENDBRANCH   1   5
TORSDOF 2
ENDMDL
MODEL 2
REMARK VINA RESULT:    -3.350      0.700      1.455
REMARK INTER + INTRA:          -3.749
REMARK INTER:                  -3.742
REMARK INTRA:                  -0.007
REMARK UNBOUND:                -0.008
REMARK SMILES CCCC(=O)[O-]
REMARK SMILES IDX 3 1 4 2 5 3 6 4 2 5 1 6
REMARK H PARENT
REMARK Flexibility Score: inf
ROOT
ATOM      1  C   UNL     1      21.760 -11.018  22.445  1.00  0.00     0.052 C 
ENDROOT
BRANCH   1   2
ATOM      2  C   UNL     1      22.142 -12.185  21.591  1.00  0.00     0.041 C 
ATOM      3  O   UNL     1      23.352 -12.514  21.472  1.00  0.00    -0.550 OA
ATOM      4  O   UNL     1      21.167 -12.880  20.886  1.00  0.00    -0.550 OA
ENDBRANCH   1   2
BRANCH   1   5
ATOM      5  C   UNL     1      20.494 -11.330  23.246  1.00  0.00     0.003 C 
ATOM      6  C   UNL     1      20.533 -10.667  24.619  1.00  0.00     0.004 C 
ENDBRANCH   1   5
TORSDOF 2
ENDMDL
MODEL 3
REMARK VINA RESULT:    -3.266      2.821      3.687
REMARK INTER + INTRA:          -3.656
REMARK INTER:                  -3.649
REMARK INTRA:                  -0.007
REMARK UNBOUND:                -0.008
REMARK SMILES CCCC(=O)[O-]
REMARK SMILES IDX 3 1 4 2 5 3 6 4 2 5 1 6
REMARK H PARENT
REMARK Flexibility Score: inf
ROOT
ATOM      1  C   UNL     1      20.396 -11.638  22.773  1.00  0.00     0.052 C 
ENDROOT
BRANCH   1   2
ATOM      2  C   UNL     1      20.860 -10.693  23.836  1.00  0.00     0.041 C 
ATOM      3  O   UNL     1      20.462 -10.830  25.023  1.00  0.00    -0.550 OA
ATOM      4  O   UNL     1      21.692  -9.629  23.507  1.00  0.00    -0.550 OA
ENDBRANCH   1   2
BRANCH   1   5
ATOM      5  C   UNL     1      21.550 -11.997  21.834  1.00  0.00     0.003 C 
ATOM      6  C   UNL     1      21.135 -13.076  20.839  1.00  0.00     0.004 C 
ENDBRANCH   1   5
TORSDOF 2
ENDMDL
MODEL 4
REMARK VINA RESULT:    -3.249      2.481      4.260
REMARK INTER + INTRA:          -3.637
REMARK INTER:                  -3.618
REMARK INTRA:                  -0.019
REMARK UNBOUND:                -0.008
REMARK SMILES CCCC(=O)[O-]
REMARK SMILES IDX 3 1 4 2 5 3 6 4 2 5 1 6
REMARK H PARENT
REMARK Flexibility Score: inf
ROOT
ATOM      1  C   UNL     1      22.793 -14.323  20.886  1.00  0.00     0.052 C 
ENDROOT
BRANCH   1   2
ATOM      2  C   UNL     1      21.705 -13.298  20.852  1.00  0.00     0.041 C 
ATOM      3  O   UNL     1      21.686 -12.365  21.699  1.00  0.00    -0.550 OA
ATOM      4  O   UNL     1      20.682 -13.399  19.917  1.00  0.00    -0.550 OA
ENDBRANCH   1   2
BRANCH   1   5
ATOM      5  C   UNL     1      22.770 -15.173  19.613  1.00  0.00     0.003 C 
ATOM      6  C   UNL     1      23.145 -16.622  19.911  1.00  0.00     0.004 C 
ENDBRANCH   1   5
TORSDOF 2
ENDMDL
MODEL 5
REMARK VINA RESULT:    -3.242      1.575      1.974
REMARK INTER + INTRA:          -3.629
REMARK INTER:                  -3.611
REMARK INTRA:                  -0.018
REMARK UNBOUND:                -0.008
REMARK SMILES CCCC(=O)[O-]
REMARK SMILES IDX 3 1 4 2 5 3 6 4 2 5 1 6
REMARK H PARENT
REMARK Flexibility Score: inf
ROOT
ATOM      1  C   UNL     1      21.454 -10.570  23.320  1.00  0.00     0.052 C 
ENDROOT
BRANCH   1   2
ATOM      2  C   UNL     1      20.929 -11.675  22.459  1.00  0.00     0.041 C 
ATOM      3  O   UNL     1      19.742 -12.073  22.593  1.00  0.00    -0.550 OA
ATOM      4  O   UNL     1      21.766 -12.301  21.543  1.00  0.00    -0.550 OA
ENDBRANCH   1   2
BRANCH   1   5
ATOM      5  C   UNL     1      20.574 -10.393  24.560  1.00  0.00     0.003 C 
ATOM      6  C   UNL     1      20.620  -8.954  25.067  1.00  0.00     0.004 C 
ENDBRANCH   1   5
TORSDOF 2
ENDMDL
MODEL 6
REMARK VINA RESULT:    -3.227      1.978      3.687
REMARK INTER + INTRA:          -3.612
REMARK INTER:                  -3.603
REMARK INTRA:                  -0.010
REMARK UNBOUND:                -0.008
REMARK SMILES CCCC(=O)[O-]
REMARK SMILES IDX 3 1 4 2 5 3 6 4 2 5 1 6
REMARK H PARENT
REMARK Flexibility Score: inf
ROOT
ATOM      1  C   UNL     1      21.361 -13.148  20.883  1.00  0.00     0.052 C 
ENDROOT
BRANCH   1   2
ATOM      2  C   UNL     1      21.373 -12.018  21.863  1.00  0.00     0.041 C 
ATOM      3  O   UNL     1      22.393 -11.286  21.974  1.00  0.00    -0.550 OA
ATOM      4  O   UNL     1      20.279 -11.803  22.692  1.00  0.00    -0.550 OA
ENDBRANCH   1   2
BRANCH   1   5
ATOM      5  C   UNL     1      22.653 -13.961  20.986  1.00  0.00     0.003 C 
ATOM      6  C   UNL     1      22.748 -14.989  19.862  1.00  0.00     0.004 C 
ENDBRANCH   1   5
TORSDOF 2
ENDMDL
MODEL 7
REMARK VINA RESULT:    -3.223      6.750      7.556
REMARK INTER + INTRA:          -3.607
REMARK INTER:                  -3.602
REMARK INTRA:                  -0.005
REMARK UNBOUND:                -0.008
REMARK SMILES CCCC(=O)[O-]
REMARK SMILES IDX 3 1 4 2 5 3 6 4 2 5 1 6
REMARK H PARENT
REMARK Flexibility Score: inf
ROOT
ATOM      1  C   UNL     1      15.881 -13.745  19.610  1.00  0.00     0.052 C 
ENDROOT
BRANCH   1   2
ATOM      2  C   UNL     1      14.942 -13.792  20.774  1.00  0.00     0.041 C 
ATOM      3  O   UNL     1      15.023 -12.928  21.688  1.00  0.00    -0.550 OA
ATOM      4  O   UNL     1      14.011 -14.818  20.877  1.00  0.00    -0.550 OA
ENDBRANCH   1   2
BRANCH   1   5
ATOM      5  C   UNL     1      15.127 -13.383  18.328  1.00  0.00     0.003 C 
ATOM      6  C   UNL     1      16.065 -13.364  17.125  1.00  0.00     0.004 C 
ENDBRANCH   1   5
TORSDOF 2
ENDMDL
MODEL 8
REMARK VINA RESULT:    -3.100      6.579      7.066
REMARK INTER + INTRA:          -3.470
REMARK INTER:                  -3.465
REMARK INTRA:                  -0.005
REMARK UNBOUND:                -0.008
REMARK SMILES CCCC(=O)[O-]
REMARK SMILES IDX 3 1 4 2 5 3 6 4 2 5 1 6
REMARK H PARENT
REMARK Flexibility Score: inf
ROOT
ATOM      1  C   UNL     1      15.170 -13.801  18.487  1.00  0.00     0.052 C 
ENDROOT
BRANCH   1   2
ATOM      2  C   UNL     1      15.951 -13.193  17.366  1.00  0.00     0.041 C 
ATOM      3  O   UNL     1      15.560 -12.123  16.829  1.00  0.00    -0.550 OA
ATOM      4  O   UNL     1      17.083 -13.834  16.878  1.00  0.00    -0.550 OA
ENDBRANCH   1   2
BRANCH   1   5
ATOM      5  C   UNL     1      15.496 -13.101  19.808  1.00  0.00     0.003 C 
ATOM      6  C   UNL     1      14.713 -13.716  20.965  1.00  0.00     0.004 C 
ENDBRANCH   1   5
TORSDOF 2
ENDMDL
MODEL 9
REMARK VINA RESULT:    -3.072      2.879      3.716
REMARK INTER + INTRA:          -3.439
REMARK INTER:                  -3.422
REMARK INTRA:                  -0.017
REMARK UNBOUND:                -0.008
REMARK SMILES CCCC(=O)[O-]
REMARK SMILES IDX 3 1 4 2 5 3 6 4 2 5 1 6
REMARK H PARENT
REMARK Flexibility Score: inf
ROOT
ATOM      1  C   UNL     1      21.477 -11.074  22.613  1.00  0.00     0.052 C 
ENDROOT
BRANCH   1   2
ATOM      2  C   UNL     1      22.156  -9.741  22.601  1.00  0.00     0.041 C 
ATOM      3  O   UNL     1      23.252  -9.594  21.998  1.00  0.00    -0.550 OA
ATOM      4  O   UNL     1      21.604  -8.672  23.296  1.00  0.00    -0.550 OA
ENDBRANCH   1   2
BRANCH   1   5
ATOM      5  C   UNL     1      22.170 -12.038  21.647  1.00  0.00     0.003 C 
ATOM      6  C   UNL     1      21.159 -12.954  20.963  1.00  0.00     0.004 C 
ENDBRANCH   1   5
TORSDOF 2
ENDMDL
