MODEL 1
REMARK VINA RESULT:    -3.928      0.000      0.000
REMARK INTER + INTRA:          -4.636
REMARK INTER:                  -4.617
REMARK INTRA:                  -0.018
REMARK UNBOUND:                -0.018
REMARK SMILES CCCCC(=O)[O-]
REMARK SMILES IDX 4 1 5 2 6 3 7 4 3 5 2 6 1 7
REMARK H PARENT
REMARK Flexibility Score: inf
ROOT
ATOM      1  C   UNL     1      -9.285  22.588 -24.249  1.00  0.00     0.053 C 
ENDROOT
BRANCH   1   2
ATOM      2  C   UNL     1     -10.234  22.369 -25.387  1.00  0.00     0.041 C 
ATOM      3  O   UNL     1      -9.916  21.607 -26.338  1.00  0.00    -0.550 OA
ATOM      4  O   UNL     1     -11.454  23.032 -25.416  1.00  0.00    -0.550 OA
ENDBRANCH   1   2
BRANCH   1   5
ATOM      5  C   UNL     1      -9.997  23.164 -23.017  1.00  0.00     0.006 C 
BRANCH   5   6
ATOM      6  C   UNL     1      -9.252  22.845 -21.713  1.00  0.00    -0.003 C 
ATOM      7  C   UNL     1     -10.207  22.827 -20.523  1.00  0.00     0.004 C 
ENDBRANCH   5   6
ENDBRANCH   1   5
TORSDOF 3
ENDMDL
MODEL 2
REMARK VINA RESULT:    -3.655      3.154      4.398
REMARK INTER + INTRA:          -4.315
REMARK INTER:                  -4.297
REMARK INTRA:                  -0.017
REMARK UNBOUND:                -0.018
REMARK SMILES CCCCC(=O)[O-]
REMARK SMILES IDX 4 1 5 2 6 3 7 4 3 5 2 6 1 7
REMARK H PARENT
REMARK Flexibility Score: inf
ROOT
ATOM      1  C   UNL     1     -10.194  23.211 -22.309  1.00  0.00     0.053 C 
ENDROOT
BRANCH   1   2
ATOM      2  C   UNL     1      -9.631  22.748 -21.000  1.00  0.00     0.041 C 
ATOM      3  O   UNL     1     -10.321  22.021 -20.236  1.00  0.00    -0.550 OA
ATOM      4  O   UNL     1      -8.360  23.146 -20.608  1.00  0.00    -0.550 OA
ENDBRANCH   1   2
BRANCH   1   5
ATOM      5  C   UNL     1      -9.291  22.819 -23.487  1.00  0.00     0.006 C 
BRANCH   5   6
ATOM      6  C   UNL     1     -10.092  22.262 -24.673  1.00  0.00    -0.003 C 
ATOM      7  C   UNL     1      -9.782  23.029 -25.955  1.00  0.00     0.004 C 
ENDBRANCH   5   6
ENDBRANCH   1   5
TORSDOF 3
ENDMDL
MODEL 3
REMARK VINA RESULT:    -3.412      7.954      8.699
REMARK INTER + INTRA:          -4.029
REMARK INTER:                  -3.935
REMARK INTRA:                  -0.094
REMARK UNBOUND:                -0.018
REMARK SMILES CCCCC(=O)[O-]
REMARK SMILES IDX 4 1 5 2 6 3 7 4 3 5 2 6 1 7
REMARK H PARENT
REMARK Flexibility Score: inf
ROOT
ATOM      1  C   UNL     1      -4.749  26.320 -20.091  1.00  0.00     0.053 C 
ENDROOT
BRANCH   1   2
ATOM      2  C   UNL     1      -5.826  27.357 -20.172  1.00  0.00     0.041 C 
ATOM      3  O   UNL     1      -6.115  27.884 -21.279  1.00  0.00    -0.550 OA
ATOM      4  O   UNL     1      -6.487  27.768 -19.021  1.00  0.00    -0.550 OA
ENDBRANCH   1   2
BRANCH   1   5
ATOM      5  C   UNL     1      -3.349  26.942 -20.193  1.00  0.00     0.006 C 
BRANCH   5   6
ATOM      6  C   UNL     1      -3.041  27.877 -19.015  1.00  0.00    -0.003 C 
ATOM      7  C   UNL     1      -2.488  29.213 -19.503  1.00  0.00     0.004 C 
ENDBRANCH   5   6
ENDBRANCH   1   5
TORSDOF 3
ENDMDL
MODEL 4
REMARK VINA RESULT:    -3.321      9.099      9.709
REMARK INTER + INTRA:          -3.922
REMARK INTER:                  -3.789
REMARK INTRA:                  -0.133
REMARK UNBOUND:                -0.018
REMARK SMILES CCCCC(=O)[O-]
REMARK SMILES IDX 4 1 5 2 6 3 7 4 3 5 2 6 1 7
REMARK H PARENT
REMARK Flexibility Score: inf
ROOT
ATOM      1  C   UNL     1      -3.460  27.916 -20.720  1.00  0.00     0.053 C 
ENDROOT
BRANCH   1   2
ATOM      2  C   UNL     1      -2.815  28.493 -19.498  1.00  0.00     0.041 C 
ATOM      3  O   UNL     1      -2.259  29.622 -19.549  1.00  0.00    -0.550 OA
ATOM      4  O   UNL     1      -2.796  27.770 -18.312  1.00  0.00    -0.550 OA
ENDBRANCH   1   2
BRANCH   1   5
ATOM      5  C   UNL     1      -4.829  27.297 -20.404  1.00  0.00     0.006 C 
BRANCH   5   6
ATOM      6  C   UNL     1      -5.893  28.362 -20.103  1.00  0.00    -0.003 C 
ATOM      7  C   UNL     1      -6.466  28.186 -18.700  1.00  0.00     0.004 C 
ENDBRANCH   5   6
ENDBRANCH   1   5
TORSDOF 3
ENDMDL
MODEL 5
REMARK VINA RESULT:    -3.234      8.546      9.048
REMARK INTER + INTRA:          -3.820
REMARK INTER:                  -3.702
REMARK INTRA:                  -0.118
REMARK UNBOUND:                -0.018
REMARK SMILES CCCCC(=O)[O-]
REMARK SMILES IDX 4 1 5 2 6 3 7 4 3 5 2 6 1 7
REMARK H PARENT
REMARK Flexibility Score: inf
ROOT
ATOM      1  C   UNL     1      -4.190  28.296 -21.243  1.00  0.00     0.053 C 
ENDROOT
BRANCH   1   2
ATOM      2  C   UNL     1      -3.292  27.795 -20.154  1.00  0.00     0.041 C 
ATOM      3  O   UNL     1      -3.324  26.583 -19.815  1.00  0.00    -0.550 OA
ATOM      4  O   UNL     1      -2.444  28.673 -19.491  1.00  0.00    -0.550 OA
ENDBRANCH   1   2
BRANCH   1   5
ATOM      5  C   UNL     1      -5.667  28.007 -20.941  1.00  0.00     0.006 C 
BRANCH   5   6
ATOM      6  C   UNL     1      -6.234  28.941 -19.862  1.00  0.00    -0.003 C 
ATOM      7  C   UNL     1      -6.579  28.169 -18.592  1.00  0.00     0.004 C 
ENDBRANCH   5   6
ENDBRANCH   1   5
TORSDOF 3
ENDMDL
MODEL 6
REMARK VINA RESULT:    -3.224      8.056      8.627
REMARK INTER + INTRA:          -3.807
REMARK INTER:                  -3.759
REMARK INTRA:                  -0.048
REMARK UNBOUND:                -0.018
REMARK SMILES CCCCC(=O)[O-]
REMARK SMILES IDX 4 1 5 2 6 3 7 4 3 5 2 6 1 7
REMARK H PARENT
REMARK Flexibility Score: inf
ROOT
ATOM      1  C   UNL     1      -5.857  27.470 -20.252  1.00  0.00     0.053 C 
ENDROOT
BRANCH   1   2
ATOM      2  C   UNL     1      -4.521  26.796 -20.177  1.00  0.00     0.041 C 
ATOM      3  O   UNL     1      -4.442  25.540 -20.233  1.00  0.00    -0.550 OA
ATOM      4  O   UNL     1      -3.367  27.551 -20.012  1.00  0.00    -0.550 OA
ENDBRANCH   1   2
BRANCH   1   5
ATOM      5  C   UNL     1      -6.242  28.120 -18.916  1.00  0.00     0.006 C 
BRANCH   5   6
ATOM      6  C   UNL     1      -6.127  29.650 -18.959  1.00  0.00    -0.003 C 
ATOM      7  C   UNL     1      -6.980  30.297 -17.872  1.00  0.00     0.004 C 
ENDBRANCH   5   6
ENDBRANCH   1   5
TORSDOF 3
ENDMDL
MODEL 7
REMARK VINA RESULT:    -3.184      2.803      3.508
REMARK INTER + INTRA:          -3.761
REMARK INTER:                  -3.729
REMARK INTRA:                  -0.032
REMARK UNBOUND:                -0.018
REMARK SMILES CCCCC(=O)[O-]
REMARK SMILES IDX 4 1 5 2 6 3 7 4 3 5 2 6 1 7
REMARK H PARENT
REMARK Flexibility Score: inf
ROOT
ATOM      1  C   UNL     1      -9.259  24.425 -25.975  1.00  0.00     0.053 C 
ENDROOT
BRANCH   1   2
ATOM      2  C   UNL     1      -9.096  25.175 -27.261  1.00  0.00     0.041 C 
ATOM      3  O   UNL     1      -7.946  25.372 -27.738  1.00  0.00    -0.550 OA
ATOM      4  O   UNL     1     -10.209  25.686 -27.916  1.00  0.00    -0.550 OA
ENDBRANCH   1   2
BRANCH   1   5
ATOM      5  C   UNL     1     -10.223  23.240 -26.125  1.00  0.00     0.006 C 
BRANCH   5   6
ATOM      6  C   UNL     1     -10.388  22.455 -24.816  1.00  0.00    -0.003 C 
ATOM      7  C   UNL     1      -9.329  22.860 -23.794  1.00  0.00     0.004 C 
ENDBRANCH   5   6
ENDBRANCH   1   5
TORSDOF 3
ENDMDL
MODEL 8
REMARK VINA RESULT:    -3.169      8.201      8.796
REMARK INTER + INTRA:          -3.743
REMARK INTER:                  -3.653
REMARK INTRA:                  -0.089
REMARK UNBOUND:                -0.018
REMARK SMILES CCCCC(=O)[O-]
REMARK SMILES IDX 4 1 5 2 6 3 7 4 3 5 2 6 1 7
REMARK H PARENT
REMARK Flexibility Score: inf
ROOT
ATOM      1  C   UNL     1      -5.910  27.951 -20.702  1.00  0.00     0.053 C 
ENDROOT
BRANCH   1   2
ATOM      2  C   UNL     1      -6.335  28.739 -19.501  1.00  0.00     0.041 C 
ATOM      3  O   UNL     1      -6.490  28.165 -18.390  1.00  0.00    -0.550 OA
ATOM      4  O   UNL     1      -6.594  30.099 -19.614  1.00  0.00    -0.550 OA
ENDBRANCH   1   2
BRANCH   1   5
ATOM      5  C   UNL     1      -4.549  28.417 -21.236  1.00  0.00     0.006 C 
BRANCH   5   6
ATOM      6  C   UNL     1      -3.378  27.690 -20.559  1.00  0.00    -0.003 C 
ATOM      7  C   UNL     1      -3.755  26.256 -20.200  1.00  0.00     0.004 C 
ENDBRANCH   5   6
ENDBRANCH   1   5
TORSDOF 3
ENDMDL
MODEL 9
REMARK VINA RESULT:    -3.134      8.117      9.092
REMARK INTER + INTRA:          -3.702
REMARK INTER:                  -3.644
REMARK INTRA:                  -0.058
REMARK UNBOUND:                -0.018
REMARK SMILES CCCCC(=O)[O-]
REMARK SMILES IDX 4 1 5 2 6 3 7 4 3 5 2 6 1 7
REMARK H PARENT
REMARK Flexibility Score: inf
ROOT
ATOM      1  C   UNL     1      -5.538  28.645 -18.992  1.00  0.00     0.053 C 
ENDROOT
BRANCH   1   2
ATOM      2  C   UNL     1      -6.681  28.834 -18.043  1.00  0.00     0.041 C 
ATOM      3  O   UNL     1      -7.078  29.995 -17.753  1.00  0.00    -0.550 OA
ATOM      4  O   UNL     1      -7.286  27.733 -17.451  1.00  0.00    -0.550 OA
ENDBRANCH   1   2
BRANCH   1   5
ATOM      5  C   UNL     1      -5.901  27.689 -20.137  1.00  0.00     0.006 C 
BRANCH   5   6
ATOM      6  C   UNL     1      -5.087  26.388 -20.088  1.00  0.00    -0.003 C 
ATOM      7  C   UNL     1      -3.589  26.676 -20.094  1.00  0.00     0.004 C 
ENDBRANCH   5   6
ENDBRANCH   1   5
TORSDOF 3
ENDMDL
