MODEL 1
REMARK VINA RESULT:    -3.279      0.000      0.000
REMARK INTER + INTRA:          -4.130
REMARK INTER:                  -4.046
REMARK INTRA:                  -0.084
REMARK UNBOUND:                -0.084
REMARK SMILES CCCCCC(=O)[O-]
REMARK SMILES IDX 4 1 5 2 6 3 7 4 8 5 3 6 2 7 1 8
REMARK H PARENT
REMARK Flexibility Score: inf
ROOT
ATOM      1  C   UNL     1      28.200 -43.887   2.479  1.00  0.00     0.006 C 
ENDROOT
BRANCH   1   2
ATOM      2  C   UNL     1      27.866 -42.519   1.867  1.00  0.00     0.053 C 
BRANCH   2   3
ATOM      3  C   UNL     1      28.506 -42.341   0.524  1.00  0.00     0.041 C 
ATOM      4  O   UNL     1      29.427 -43.113   0.151  1.00  0.00    -0.550 OA
ATOM      5  O   UNL     1      28.100 -41.301  -0.305  1.00  0.00    -0.550 OA
ENDBRANCH   2   3
ENDBRANCH   1   2
BRANCH   1   6
ATOM      6  C   UNL     1      27.010 -44.859   2.411  1.00  0.00     0.000 C 
BRANCH   6   7
ATOM      7  C   UNL     1      27.311 -46.208   3.082  1.00  0.00    -0.003 C 
ATOM      8  C   UNL     1      26.903 -46.241   4.554  1.00  0.00     0.004 C 
ENDBRANCH   6   7
ENDBRANCH   1   6
TORSDOF 4
ENDMDL
MODEL 2
REMARK VINA RESULT:    -3.153      3.147      4.717
REMARK INTER + INTRA:          -3.974
REMARK INTER:                  -3.877
REMARK INTRA:                  -0.097
REMARK UNBOUND:                -0.084
REMARK SMILES CCCCCC(=O)[O-]
REMARK SMILES IDX 4 1 5 2 6 3 7 4 8 5 3 6 2 7 1 8
REMARK H PARENT
REMARK Flexibility Score: inf
ROOT
ATOM      1  C   UNL     1      28.288 -44.191   2.581  1.00  0.00     0.006 C 
ENDROOT
BRANCH   1   2
ATOM      2  C   UNL     1      27.037 -45.080   2.592  1.00  0.00     0.053 C 
BRANCH   2   3
ATOM      3  C   UNL     1      27.245 -46.321   3.406  1.00  0.00     0.041 C 
ATOM      4  O   UNL     1      27.524 -47.411   2.842  1.00  0.00    -0.550 OA
ATOM      5  O   UNL     1      27.101 -46.277   4.788  1.00  0.00    -0.550 OA
ENDBRANCH   2   3
ENDBRANCH   1   2
BRANCH   1   6
ATOM      6  C   UNL     1      28.065 -42.886   1.796  1.00  0.00     0.000 C 
BRANCH   6   7
ATOM      7  C   UNL     1      28.856 -42.848   0.479  1.00  0.00    -0.003 C 
ATOM      8  C   UNL     1      28.039 -43.335  -0.717  1.00  0.00     0.004 C 
ENDBRANCH   6   7
ENDBRANCH   1   6
TORSDOF 4
ENDMDL
MODEL 3
REMARK VINA RESULT:    -3.018      9.357     10.286
REMARK INTER + INTRA:          -3.807
REMARK INTER:                  -3.674
REMARK INTRA:                  -0.133
REMARK UNBOUND:                -0.084
REMARK SMILES CCCCCC(=O)[O-]
REMARK SMILES IDX 4 1 5 2 6 3 7 4 8 5 3 6 2 7 1 8
REMARK H PARENT
REMARK Flexibility Score: inf
ROOT
ATOM      1  C   UNL     1      35.582 -50.594   2.791  1.00  0.00     0.006 C 
ENDROOT
BRANCH   1   2
ATOM      2  C   UNL     1      34.342 -49.811   2.339  1.00  0.00     0.053 C 
BRANCH   2   3
ATOM      3  C   UNL     1      33.203 -50.723   1.998  1.00  0.00     0.041 C 
ATOM      4  O   UNL     1      33.071 -51.825   2.592  1.00  0.00    -0.550 OA
ATOM      5  O   UNL     1      32.302 -50.366   1.002  1.00  0.00    -0.550 OA
ENDBRANCH   2   3
ENDBRANCH   1   2
BRANCH   1   6
ATOM      6  C   UNL     1      36.105 -50.115   4.157  1.00  0.00     0.000 C 
BRANCH   6   7
ATOM      7  C   UNL     1      36.897 -51.203   4.899  1.00  0.00    -0.003 C 
ATOM      8  C   UNL     1      36.210 -52.567   4.860  1.00  0.00     0.004 C 
ENDBRANCH   6   7
ENDBRANCH   1   6
TORSDOF 4
ENDMDL
MODEL 4
REMARK VINA RESULT:    -3.013     10.540     11.635
REMARK INTER + INTRA:          -3.802
REMARK INTER:                  -3.633
REMARK INTRA:                  -0.169
REMARK UNBOUND:                -0.084
REMARK SMILES CCCCCC(=O)[O-]
REMARK SMILES IDX 4 1 5 2 6 3 7 4 8 5 3 6 2 7 1 8
REMARK H PARENT
REMARK Flexibility Score: inf
ROOT
ATOM      1  C   UNL     1      36.637 -49.831   5.357  1.00  0.00     0.006 C 
ENDROOT
BRANCH   1   2
ATOM      2  C   UNL     1      37.263 -51.204   5.075  1.00  0.00     0.053 C 
BRANCH   2   3
ATOM      3  C   UNL     1      36.249 -52.183   4.566  1.00  0.00     0.041 C 
ATOM      4  O   UNL     1      35.868 -53.138   5.291  1.00  0.00    -0.550 OA
ATOM      5  O   UNL     1      35.746 -52.053   3.277  1.00  0.00    -0.550 OA
ENDBRANCH   2   3
ENDBRANCH   1   2
BRANCH   1   6
ATOM      6  C   UNL     1      36.974 -48.805   4.261  1.00  0.00     0.000 C 
BRANCH   6   7
ATOM      7  C   UNL     1      35.777 -47.908   3.906  1.00  0.00    -0.003 C 
ATOM      8  C   UNL     1      34.901 -48.498   2.801  1.00  0.00     0.004 C 
ENDBRANCH   6   7
ENDBRANCH   1   6
TORSDOF 4
ENDMDL
MODEL 5
REMARK VINA RESULT:    -3.008      9.998     11.155
REMARK INTER + INTRA:          -3.795
REMARK INTER:                  -3.682
REMARK INTRA:                  -0.114
REMARK UNBOUND:                -0.084
REMARK SMILES CCCCCC(=O)[O-]
REMARK SMILES IDX 4 1 5 2 6 3 7 4 8 5 3 6 2 7 1 8
REMARK H PARENT
REMARK Flexibility Score: inf
ROOT
ATOM      1  C   UNL     1      35.991 -50.383   2.749  1.00  0.00     0.006 C 
ENDROOT
BRANCH   1   2
ATOM      2  C   UNL     1      35.589 -51.698   3.430  1.00  0.00     0.053 C 
BRANCH   2   3
ATOM      3  C   UNL     1      36.309 -51.894   4.730  1.00  0.00     0.041 C 
ATOM      4  O   UNL     1      36.717 -53.036   5.064  1.00  0.00    -0.550 OA
ATOM      5  O   UNL     1      36.503 -50.816   5.585  1.00  0.00    -0.550 OA
ENDBRANCH   2   3
ENDBRANCH   1   2
BRANCH   1   6
ATOM      6  C   UNL     1      34.847 -49.792   1.907  1.00  0.00     0.000 C 
BRANCH   6   7
ATOM      7  C   UNL     1      33.548 -50.606   2.025  1.00  0.00    -0.003 C 
ATOM      8  C   UNL     1      32.489 -50.181   1.008  1.00  0.00     0.004 C 
ENDBRANCH   6   7
ENDBRANCH   1   6
TORSDOF 4
ENDMDL
MODEL 6
REMARK VINA RESULT:    -2.989     17.197     17.824
REMARK INTER + INTRA:          -3.772
REMARK INTER:                  -3.664
REMARK INTRA:                  -0.109
REMARK UNBOUND:                -0.084
REMARK SMILES CCCCCC(=O)[O-]
REMARK SMILES IDX 4 1 5 2 6 3 7 4 8 5 3 6 2 7 1 8
REMARK H PARENT
REMARK Flexibility Score: inf
ROOT
ATOM      1  C   UNL     1      37.011 -53.050 -11.334  1.00  0.00     0.006 C 
ENDROOT
BRANCH   1   2
ATOM      2  C   UNL     1      35.948 -52.275 -12.124  1.00  0.00     0.053 C 
BRANCH   2   3
ATOM      3  C   UNL     1      35.541 -51.015 -11.421  1.00  0.00     0.041 C 
ATOM      4  O   UNL     1      34.366 -50.580 -11.529  1.00  0.00    -0.550 OA
ATOM      5  O   UNL     1      36.472 -50.309 -10.670  1.00  0.00    -0.550 OA
ENDBRANCH   2   3
ENDBRANCH   1   2
BRANCH   1   6
ATOM      6  C   UNL     1      36.809 -54.573 -11.429  1.00  0.00     0.000 C 
BRANCH   6   7
ATOM      7  C   UNL     1      35.978 -55.130 -10.263  1.00  0.00    -0.003 C 
ATOM      8  C   UNL     1      34.547 -55.482 -10.670  1.00  0.00     0.004 C 
ENDBRANCH   6   7
ENDBRANCH   1   6
TORSDOF 4
ENDMDL
MODEL 7
REMARK VINA RESULT:    -2.953     17.324     18.319
REMARK INTER + INTRA:          -3.727
REMARK INTER:                  -3.617
REMARK INTRA:                  -0.110
REMARK UNBOUND:                -0.084
REMARK SMILES CCCCCC(=O)[O-]
REMARK SMILES IDX 4 1 5 2 6 3 7 4 8 5 3 6 2 7 1 8
REMARK H PARENT
REMARK Flexibility Score: inf
ROOT
ATOM      1  C   UNL     1      36.870 -53.073 -11.303  1.00  0.00     0.006 C 
ENDROOT
BRANCH   1   2
ATOM      2  C   UNL     1      35.770 -54.051 -11.736  1.00  0.00     0.053 C 
BRANCH   2   3
ATOM      3  C   UNL     1      35.463 -55.052 -10.664  1.00  0.00     0.041 C 
ATOM      4  O   UNL     1      34.336 -55.612 -10.621  1.00  0.00    -0.550 OA
ATOM      5  O   UNL     1      36.415 -55.345  -9.695  1.00  0.00    -0.550 OA
ENDBRANCH   2   3
ENDBRANCH   1   2
BRANCH   1   6
ATOM      6  C   UNL     1      36.558 -51.626 -11.725  1.00  0.00     0.000 C 
BRANCH   6   7
ATOM      7  C   UNL     1      35.052 -51.320 -11.708  1.00  0.00    -0.003 C 
ATOM      8  C   UNL     1      34.747 -49.871 -11.329  1.00  0.00     0.004 C 
ENDBRANCH   6   7
ENDBRANCH   1   6
TORSDOF 4
ENDMDL
MODEL 8
REMARK VINA RESULT:    -2.913      8.962     10.100
REMARK INTER + INTRA:          -3.678
REMARK INTER:                  -3.590
REMARK INTRA:                  -0.088
REMARK UNBOUND:                -0.084
REMARK SMILES CCCCCC(=O)[O-]
REMARK SMILES IDX 4 1 5 2 6 3 7 4 8 5 3 6 2 7 1 8
REMARK H PARENT
REMARK Flexibility Score: inf
ROOT
ATOM      1  C   UNL     1      34.700 -49.867   2.401  1.00  0.00     0.006 C 
ENDROOT
BRANCH   1   2
ATOM      2  C   UNL     1      35.777 -50.610   3.204  1.00  0.00     0.053 C 
BRANCH   2   3
ATOM      3  C   UNL     1      36.201 -49.834   4.414  1.00  0.00     0.041 C 
ATOM      4  O   UNL     1      36.218 -48.576   4.389  1.00  0.00    -0.550 OA
ATOM      5  O   UNL     1      36.606 -50.506   5.562  1.00  0.00    -0.550 OA
ENDBRANCH   2   3
ENDBRANCH   1   2
BRANCH   1   6
ATOM      6  C   UNL     1      33.477 -50.755   2.111  1.00  0.00     0.000 C 
BRANCH   6   7
ATOM      7  C   UNL     1      32.553 -50.153   1.042  1.00  0.00    -0.003 C 
ATOM      8  C   UNL     1      33.268 -49.149   0.137  1.00  0.00     0.004 C 
ENDBRANCH   6   7
ENDBRANCH   1   6
TORSDOF 4
ENDMDL
MODEL 9
REMARK VINA RESULT:    -2.854      9.248      9.996
REMARK INTER + INTRA:          -3.606
REMARK INTER:                  -3.440
REMARK INTRA:                  -0.165
REMARK UNBOUND:                -0.084
REMARK SMILES CCCCCC(=O)[O-]
REMARK SMILES IDX 4 1 5 2 6 3 7 4 8 5 3 6 2 7 1 8
REMARK H PARENT
REMARK Flexibility Score: inf
ROOT
ATOM      1  C   UNL     1      36.743 -49.204   4.041  1.00  0.00     0.006 C 
ENDROOT
BRANCH   1   2
ATOM      2  C   UNL     1      35.849 -47.957   4.033  1.00  0.00     0.053 C 
BRANCH   2   3
ATOM      3  C   UNL     1      34.847 -47.999   2.919  1.00  0.00     0.041 C 
ATOM      4  O   UNL     1      34.398 -46.930   2.429  1.00  0.00    -0.550 OA
ATOM      5  O   UNL     1      34.390 -49.221   2.443  1.00  0.00    -0.550 OA
ENDBRANCH   2   3
ENDBRANCH   1   2
BRANCH   1   6
ATOM      6  C   UNL     1      36.588 -50.020   5.337  1.00  0.00     0.000 C 
BRANCH   6   7
ATOM      7  C   UNL     1      36.654 -51.535   5.090  1.00  0.00    -0.003 C 
ATOM      8  C   UNL     1      36.161 -51.931   3.699  1.00  0.00     0.004 C 
ENDBRANCH   6   7
ENDBRANCH   1   6
TORSDOF 4
ENDMDL
