MODEL 1
REMARK VINA RESULT:    -3.594      0.000      0.000
REMARK INTER + INTRA:          -3.594
REMARK INTER:                  -3.594
REMARK INTRA:                   0.000
REMARK UNBOUND:                 0.000
REMARK SMILES CC1(C)O[C@]2(C)CC[C@H]1CC2
REMARK SMILES IDX 1 1 2 2 9 3 10 4 11 5 5 6 4 7 7 8 8 9 6 10 3 11
REMARK H PARENT
REMARK Flexibility Score: inf
ROOT
ATOM      1  C   UNL     1     117.012 115.061 120.164  1.00  0.00     0.042 C 
ATOM      2  C   UNL     1     115.934 115.934 120.842  1.00  0.00     0.066 C 
ATOM      3  C   UNL     1     116.574 116.839 121.965  1.00  0.00     0.021 C 
ATOM      4  C   UNL     1     117.580 117.808 121.298  1.00  0.00     0.009 C 
ATOM      5  C   UNL     1     116.882 118.538 120.125  1.00  0.00     0.035 C 
ATOM      6  C   UNL     1     115.383 118.125 120.065  1.00  0.00     0.066 C 
ATOM      7  O   UNL     1     115.293 116.720 119.825  1.00  0.00    -0.369 OA
ATOM      8  C   UNL     1     114.713 118.455 121.430  1.00  0.00     0.035 C 
ATOM      9  C   UNL     1     115.462 117.727 122.572  1.00  0.00     0.009 C 
ATOM     10  C   UNL     1     114.671 118.867 118.928  1.00  0.00     0.042 C 
ATOM     11  C   UNL     1     114.881 114.979 121.445  1.00  0.00     0.042 C 
ENDROOT
TORSDOF 0
ENDMDL
MODEL 2
REMARK VINA RESULT:    -3.593      1.088      2.288
REMARK INTER + INTRA:          -3.593
REMARK INTER:                  -3.593
REMARK INTRA:                   0.000
REMARK UNBOUND:                 0.000
REMARK SMILES CC1(C)O[C@]2(C)CC[C@H]1CC2
REMARK SMILES IDX 1 1 2 2 9 3 10 4 11 5 5 6 4 7 7 8 8 9 6 10 3 11
REMARK H PARENT
REMARK Flexibility Score: inf
ROOT
ATOM      1  C   UNL     1     118.230 118.110 121.263  1.00  0.00     0.042 C 
ATOM      2  C   UNL     1     117.307 116.911 120.950  1.00  0.00     0.066 C 
ATOM      3  C   UNL     1     116.364 116.599 122.175  1.00  0.00     0.021 C 
ATOM      4  C   UNL     1     115.443 117.822 122.409  1.00  0.00     0.009 C 
ATOM      5  C   UNL     1     114.756 118.203 121.075  1.00  0.00     0.035 C 
ATOM      6  C   UNL     1     115.145 117.179 119.969  1.00  0.00     0.066 C 
ATOM      7  O   UNL     1     116.558 117.224 119.766  1.00  0.00    -0.369 OA
ATOM      8  C   UNL     1     114.741 115.752 120.439  1.00  0.00     0.035 C 
ATOM      9  C   UNL     1     115.429 115.428 121.787  1.00  0.00     0.009 C 
ATOM     10  C   UNL     1     114.444 117.526 118.652  1.00  0.00     0.042 C 
ATOM     11  C   UNL     1     118.215 115.702 120.637  1.00  0.00     0.042 C 
ENDROOT
TORSDOF 0
ENDMDL
MODEL 3
REMARK VINA RESULT:    -3.584      1.283      2.859
REMARK INTER + INTRA:          -3.584
REMARK INTER:                  -3.584
REMARK INTRA:                   0.000
REMARK UNBOUND:                 0.000
REMARK SMILES CC1(C)O[C@]2(C)CC[C@H]1CC2
REMARK SMILES IDX 1 1 2 2 9 3 10 4 11 5 5 6 4 7 7 8 8 9 6 10 3 11
REMARK H PARENT
REMARK Flexibility Score: inf
ROOT
ATOM      1  C   UNL     1     113.576 115.478 119.747  1.00  0.00     0.042 C 
ATOM      2  C   UNL     1     115.063 115.804 120.007  1.00  0.00     0.066 C 
ATOM      3  C   UNL     1     115.546 116.983 119.077  1.00  0.00     0.021 C 
ATOM      4  C   UNL     1     114.740 118.255 119.439  1.00  0.00     0.009 C 
ATOM      5  C   UNL     1     114.822 118.490 120.967  1.00  0.00     0.035 C 
ATOM      6  C   UNL     1     115.758 117.429 121.615  1.00  0.00     0.066 C 
ATOM      7  O   UNL     1     115.212 116.127 121.398  1.00  0.00    -0.369 OA
ATOM      8  C   UNL     1     117.159 117.514 120.942  1.00  0.00     0.035 C 
ATOM      9  C   UNL     1     117.023 117.301 119.416  1.00  0.00     0.009 C 
ATOM     10  C   UNL     1     115.876 117.671 123.123  1.00  0.00     0.042 C 
ATOM     11  C   UNL     1     115.871 114.519 119.724  1.00  0.00     0.042 C 
ENDROOT
TORSDOF 0
ENDMDL
MODEL 4
REMARK VINA RESULT:    -3.542      1.138      3.442
REMARK INTER + INTRA:          -3.542
REMARK INTER:                  -3.542
REMARK INTRA:                   0.000
REMARK UNBOUND:                 0.000
REMARK SMILES CC1(C)O[C@]2(C)CC[C@H]1CC2
REMARK SMILES IDX 1 1 2 2 9 3 10 4 11 5 5 6 4 7 7 8 8 9 6 10 3 11
REMARK H PARENT
REMARK Flexibility Score: inf
ROOT
ATOM      1  C   UNL     1     115.090 118.240 120.946  1.00  0.00     0.042 C 
ATOM      2  C   UNL     1     116.322 117.332 120.739  1.00  0.00     0.066 C 
ATOM      3  C   UNL     1     116.559 116.418 122.002  1.00  0.00     0.021 C 
ATOM      4  C   UNL     1     115.336 115.482 122.166  1.00  0.00     0.009 C 
ATOM      5  C   UNL     1     115.064 114.763 120.823  1.00  0.00     0.035 C 
ATOM      6  C   UNL     1     116.159 115.147 119.786  1.00  0.00     0.066 C 
ATOM      7  O   UNL     1     116.108 116.555 119.551  1.00  0.00    -0.369 OA
ATOM      8  C   UNL     1     117.555 114.776 120.367  1.00  0.00     0.035 C 
ATOM      9  C   UNL     1     117.769 115.495 121.720  1.00  0.00     0.009 C 
ATOM     10  C   UNL     1     115.921 114.415 118.462  1.00  0.00     0.042 C 
ATOM     11  C   UNL     1     117.537 118.254 120.497  1.00  0.00     0.042 C 
ENDROOT
TORSDOF 0
ENDMDL
MODEL 5
REMARK VINA RESULT:    -3.530      1.238      2.567
REMARK INTER + INTRA:          -3.530
REMARK INTER:                  -3.530
REMARK INTRA:                   0.000
REMARK UNBOUND:                 0.000
REMARK SMILES CC1(C)O[C@]2(C)CC[C@H]1CC2
REMARK SMILES IDX 1 1 2 2 9 3 10 4 11 5 5 6 4 7 7 8 8 9 6 10 3 11
REMARK H PARENT
REMARK Flexibility Score: inf
ROOT
ATOM      1  C   UNL     1     114.744 115.201 120.708  1.00  0.00     0.042 C 
ATOM      2  C   UNL     1     115.155 116.507 119.992  1.00  0.00     0.066 C 
ATOM      3  C   UNL     1     114.799 117.764 120.877  1.00  0.00     0.021 C 
ATOM      4  C   UNL     1     115.624 117.692 122.184  1.00  0.00     0.009 C 
ATOM      5  C   UNL     1     117.117 117.485 121.832  1.00  0.00     0.035 C 
ATOM      6  C   UNL     1     117.304 117.510 120.288  1.00  0.00     0.066 C 
ATOM      7  O   UNL     1     116.561 116.436 119.709  1.00  0.00    -0.369 OA
ATOM      8  C   UNL     1     116.763 118.861 119.736  1.00  0.00     0.035 C 
ATOM      9  C   UNL     1     115.278 119.036 120.136  1.00  0.00     0.009 C 
ATOM     10  C   UNL     1     118.783 117.340 119.926  1.00  0.00     0.042 C 
ATOM     11  C   UNL     1     114.397 116.552 118.648  1.00  0.00     0.042 C 
ENDROOT
TORSDOF 0
ENDMDL
MODEL 6
REMARK VINA RESULT:    -3.525      1.594      3.286
REMARK INTER + INTRA:          -3.525
REMARK INTER:                  -3.525
REMARK INTRA:                   0.000
REMARK UNBOUND:                 0.000
REMARK SMILES CC1(C)O[C@]2(C)CC[C@H]1CC2
REMARK SMILES IDX 1 1 2 2 9 3 10 4 11 5 5 6 4 7 7 8 8 9 6 10 3 11
REMARK H PARENT
REMARK Flexibility Score: inf
ROOT
ATOM      1  C   UNL     1     115.196 119.339 119.653  1.00  0.00     0.042 C 
ATOM      2  C   UNL     1     115.671 117.909 119.991  1.00  0.00     0.066 C 
ATOM      3  C   UNL     1     116.887 117.495 119.075  1.00  0.00     0.021 C 
ATOM      4  C   UNL     1     118.073 118.443 119.376  1.00  0.00     0.009 C 
ATOM      5  C   UNL     1     118.326 118.472 120.903  1.00  0.00     0.035 C 
ATOM      6  C   UNL     1     117.369 117.473 121.616  1.00  0.00     0.066 C 
ATOM      7  O   UNL     1     116.017 117.873 121.385  1.00  0.00    -0.369 OA
ATOM      8  C   UNL     1     117.590 116.052 121.021  1.00  0.00     0.035 C 
ATOM      9  C   UNL     1     117.354 116.079 119.492  1.00  0.00     0.009 C 
ATOM     10  C   UNL     1     117.632 117.467 123.125  1.00  0.00     0.042 C 
ATOM     11  C   UNL     1     114.472 116.962 119.770  1.00  0.00     0.042 C 
ENDROOT
TORSDOF 0
ENDMDL
MODEL 7
REMARK VINA RESULT:    -3.512      1.292      2.402
REMARK INTER + INTRA:          -3.512
REMARK INTER:                  -3.512
REMARK INTRA:                   0.000
REMARK UNBOUND:                 0.000
REMARK SMILES CC1(C)O[C@]2(C)CC[C@H]1CC2
REMARK SMILES IDX 1 1 2 2 9 3 10 4 11 5 5 6 4 7 7 8 8 9 6 10 3 11
REMARK H PARENT
REMARK Flexibility Score: inf
ROOT
ATOM      1  C   UNL     1     117.866 114.866 120.447  1.00  0.00     0.042 C 
ATOM      2  C   UNL     1     116.491 115.163 119.811  1.00  0.00     0.066 C 
ATOM      3  C   UNL     1     115.323 114.747 120.787  1.00  0.00     0.021 C 
ATOM      4  C   UNL     1     115.421 115.615 122.065  1.00  0.00     0.009 C 
ATOM      5  C   UNL     1     115.497 117.107 121.662  1.00  0.00     0.035 C 
ATOM      6  C   UNL     1     115.358 117.245 120.118  1.00  0.00     0.066 C 
ATOM      7  O   UNL     1     116.442 116.561 119.488  1.00  0.00    -0.369 OA
ATOM      8  C   UNL     1     114.016 116.595 119.673  1.00  0.00     0.035 C 
ATOM      9  C   UNL     1     113.975 115.115 120.122  1.00  0.00     0.009 C 
ATOM     10  C   UNL     1     115.398 118.721 119.709  1.00  0.00     0.042 C 
ATOM     11  C   UNL     1     116.412 114.363 118.493  1.00  0.00     0.042 C 
ENDROOT
TORSDOF 0
ENDMDL
MODEL 8
REMARK VINA RESULT:    -3.492      1.493      3.709
REMARK INTER + INTRA:          -3.492
REMARK INTER:                  -3.492
REMARK INTRA:                   0.000
REMARK UNBOUND:                 0.000
REMARK SMILES CC1(C)O[C@]2(C)CC[C@H]1CC2
REMARK SMILES IDX 1 1 2 2 9 3 10 4 11 5 5 6 4 7 7 8 8 9 6 10 3 11
REMARK H PARENT
REMARK Flexibility Score: inf
ROOT
ATOM      1  C   UNL     1     115.502 118.865 120.128  1.00  0.00     0.042 C 
ATOM      2  C   UNL     1     116.762 118.192 119.540  1.00  0.00     0.066 C 
ATOM      3  C   UNL     1     118.003 118.407 120.491  1.00  0.00     0.021 C 
ATOM      4  C   UNL     1     117.712 117.708 121.841  1.00  0.00     0.009 C 
ATOM      5  C   UNL     1     117.280 116.246 121.575  1.00  0.00     0.035 C 
ATOM      6  C   UNL     1     117.370 115.938 120.052  1.00  0.00     0.066 C 
ATOM      7  O   UNL     1     116.474 116.799 119.347  1.00  0.00    -0.369 OA
ATOM      8  C   UNL     1     118.824 116.206 119.569  1.00  0.00     0.035 C 
ATOM      9  C   UNL     1     119.220 117.669 119.881  1.00  0.00     0.009 C 
ATOM     10  C   UNL     1     116.976 114.483 119.778  1.00  0.00     0.042 C 
ATOM     11  C   UNL     1     117.019 118.826 118.156  1.00  0.00     0.042 C 
ENDROOT
TORSDOF 0
ENDMDL
MODEL 9
REMARK VINA RESULT:    -3.486      1.656      3.486
REMARK INTER + INTRA:          -3.486
REMARK INTER:                  -3.486
REMARK INTRA:                   0.000
REMARK UNBOUND:                 0.000
REMARK SMILES CC1(C)O[C@]2(C)CC[C@H]1CC2
REMARK SMILES IDX 1 1 2 2 9 3 10 4 11 5 5 6 4 7 7 8 8 9 6 10 3 11
REMARK H PARENT
REMARK Flexibility Score: inf
ROOT
ATOM      1  C   UNL     1     117.606 113.641 119.363  1.00  0.00     0.042 C 
ATOM      2  C   UNL     1     117.320 115.099 119.787  1.00  0.00     0.066 C 
ATOM      3  C   UNL     1     116.067 115.668 119.016  1.00  0.00     0.021 C 
ATOM      4  C   UNL     1     114.825 114.834 119.416  1.00  0.00     0.009 C 
ATOM      5  C   UNL     1     114.730 114.775 120.960  1.00  0.00     0.035 C 
ATOM      6  C   UNL     1     115.854 115.645 121.593  1.00  0.00     0.066 C 
ATOM      7  O   UNL     1     117.125 115.119 121.209  1.00  0.00    -0.369 OA
ATOM      8  C   UNL     1     115.723 117.103 121.062  1.00  0.00     0.035 C 
ATOM      9  C   UNL     1     115.796 117.107 119.516  1.00  0.00     0.009 C 
ATOM     10  C   UNL     1     115.750 115.623 123.121  1.00  0.00     0.042 C 
ATOM     11  C   UNL     1     118.582 115.927 119.464  1.00  0.00     0.042 C 
ENDROOT
TORSDOF 0
ENDMDL
