MODEL 1
REMARK VINA RESULT:     1.443      0.000      0.000
REMARK INTER + INTRA:           3.550
REMARK INTER:                   2.202
REMARK INTRA:                   1.347
REMARK UNBOUND:                 1.347
REMARK SMILES CC1=CCC[C@H](C)C(=O)C[C@@H](C(C)C)C(=O)C1
REMARK SMILES IDX 8 1 9 2 6 3 7 4 5 5 4 6 3 7 2 8 1 9 10 11 11 12 15 13 16 14
REMARK SMILES IDX 17 15 12 17 13 18 14 19
REMARK H PARENT
REMARK Flexibility Score: 70.00
ROOT
ATOM      1  C   UNL     1      76.250  74.477  72.510  1.00  0.00     0.136 C 
ATOM      2  O   UNL     1      77.148  74.091  71.775  1.00  0.00    -0.299 OA
ENDROOT
BRANCH   1   3
ATOM      3  C   UNL     1      76.042  75.959  72.723  1.00  0.00     0.053 C 
ATOM      4  C   UNL     1      74.914  76.495  71.833  1.00  0.00     0.016 C 
BRANCH   3   5
ATOM      5  C   UNL     1      75.753  76.217  74.223  1.00  0.00     0.015 C 
BRANCH   5   6
ATOM      6  C   UNL     1      76.688  75.506  75.221  1.00  0.00     0.028 C 
BRANCH   6   7
ATOM      7  C   UNL     1      76.130  75.205  76.595  1.00  0.00    -0.028 C 
ATOM      8  C   UNL     1      75.166  74.305  76.905  1.00  0.00    -0.070 CG0
ATOM      9  C   UNL     1      74.683  74.261  78.335  1.00  0.00     0.039 C 
ATOM     10  G   UNL     1      74.604  73.285  75.930  1.00  0.00     0.000 G0
ENDBRANCH   6   7
ENDBRANCH   5   6
ENDBRANCH   3   5
ENDBRANCH   1   3
BRANCH   1  11
ATOM     11  C   UNL     1      75.321  73.461  73.135  1.00  0.00     0.087 C 
BRANCH  11  12
ATOM     12  C   UNL     1      73.929  74.066  73.490  1.00  0.00     0.066 C 
BRANCH  12  13
ATOM     13  C   UNL     1      73.609  73.877  74.967  1.00  0.00     0.140 C 
ATOM     14  O   UNL     1      72.529  74.257  75.396  1.00  0.00    -0.299 OA
BRANCH  13  15
ATOM     15  C   UNL     1      74.600  73.263  75.935  1.00  0.00     0.106 CG0
ATOM     16  G   UNL     1      75.149  74.313  76.886  1.00  0.00     0.000 G0
ENDBRANCH  13  15
ENDBRANCH  12  13
BRANCH  12  17
ATOM     17  C   UNL     1      72.765  73.514  72.604  1.00  0.00    -0.006 C 
ATOM     18  C   UNL     1      72.167  74.611  71.709  1.00  0.00     0.008 C 
ATOM     19  C   UNL     1      73.151  72.291  71.751  1.00  0.00     0.008 C 
ENDBRANCH  12  17
ENDBRANCH  11  12
ENDBRANCH   1  11
TORSDOF 1
ENDMDL
MODEL 2
REMARK VINA RESULT:     1.906      1.665      3.961
REMARK INTER + INTRA:           4.256
REMARK INTER:                   1.925
REMARK INTRA:                   2.330
REMARK UNBOUND:                 1.347
REMARK SMILES CC1=CCC[C@H](C)C(=O)C[C@@H](C(C)C)C(=O)C1
REMARK SMILES IDX 8 1 9 2 6 3 7 4 5 5 4 6 3 7 2 8 1 9 10 11 11 12 15 13 16 14
REMARK SMILES IDX 17 15 12 17 13 18 14 19
REMARK H PARENT
REMARK Flexibility Score: 70.00
ROOT
ATOM      1  C   UNL     1      73.659  74.330  75.567  1.00  0.00     0.136 C 
ATOM      2  O   UNL     1      72.781  73.598  76.002  1.00  0.00    -0.299 OA
ENDROOT
BRANCH   1   3
ATOM      3  C   UNL     1      74.729  74.852  76.498  1.00  0.00     0.053 C 
ATOM      4  C   UNL     1      74.577  74.260  77.905  1.00  0.00     0.016 C 
BRANCH   3   5
ATOM      5  C   UNL     1      76.120  74.534  75.895  1.00  0.00     0.015 C 
BRANCH   5   6
ATOM      6  C   UNL     1      76.808  75.690  75.143  1.00  0.00     0.028 C 
BRANCH   6   7
ATOM      7  C   UNL     1      76.089  76.251  73.935  1.00  0.00    -0.028 C 
ATOM      8  C   UNL     1      75.989  75.684  72.709  1.00  0.00    -0.070 CG0
ATOM      9  C   UNL     1      75.320  76.485  71.619  1.00  0.00     0.039 C 
ATOM     10  G   UNL     1      76.430  74.266  72.386  1.00  0.00     0.000 G0
ENDBRANCH   6   7
ENDBRANCH   5   6
ENDBRANCH   3   5
ENDBRANCH   1   3
BRANCH   1  11
ATOM     11  C   UNL     1      73.694  74.640  74.088  1.00  0.00     0.087 C 
BRANCH  11  12
ATOM     12  C   UNL     1      74.060  73.394  73.226  1.00  0.00     0.066 C 
BRANCH  12  13
ATOM     13  C   UNL     1      75.569  73.240  73.096  1.00  0.00     0.140 C 
ATOM     14  O   UNL     1      76.116  72.275  73.610  1.00  0.00    -0.299 OA
BRANCH  13  15
ATOM     15  C   UNL     1      76.425  74.263  72.377  1.00  0.00     0.106 CG0
ATOM     16  G   UNL     1      75.973  75.675  72.708  1.00  0.00     0.000 G0
ENDBRANCH  13  15
ENDBRANCH  12  13
BRANCH  12  17
ATOM     17  C   UNL     1      73.387  73.393  71.815  1.00  0.00    -0.006 C 
ATOM     18  C   UNL     1      73.088  71.965  71.331  1.00  0.00     0.008 C 
ATOM     19  C   UNL     1      72.113  74.256  71.726  1.00  0.00     0.008 C 
ENDBRANCH  12  17
ENDBRANCH  11  12
ENDBRANCH   1  11
TORSDOF 1
ENDMDL
MODEL 3
REMARK VINA RESULT:     2.273      2.059      3.909
REMARK INTER + INTRA:           4.816
REMARK INTER:                   3.739
REMARK INTRA:                   1.077
REMARK UNBOUND:                 1.347
REMARK SMILES CC1=CCC[C@H](C)C(=O)C[C@@H](C(C)C)C(=O)C1
REMARK SMILES IDX 8 1 9 2 6 3 7 4 5 5 4 6 3 7 2 8 1 9 10 11 11 12 15 13 16 14
REMARK SMILES IDX 17 15 12 17 13 18 14 19
REMARK H PARENT
REMARK Flexibility Score: 70.00
ROOT
ATOM      1  C   UNL     1      74.240  73.853  75.873  1.00  0.00     0.136 C 
ATOM      2  O   UNL     1      74.626  72.692  75.833  1.00  0.00    -0.299 OA
ENDROOT
BRANCH   1   3
ATOM      3  C   UNL     1      74.902  74.829  76.820  1.00  0.00     0.053 C 
ATOM      4  C   UNL     1      75.014  74.243  78.233  1.00  0.00     0.016 C 
BRANCH   3   5
ATOM      5  C   UNL     1      76.289  75.217  76.253  1.00  0.00     0.015 C 
BRANCH   5   6
ATOM      6  C   UNL     1      76.279  76.041  74.951  1.00  0.00     0.028 C 
BRANCH   6   7
ATOM      7  C   UNL     1      76.806  75.365  73.703  1.00  0.00    -0.028 C 
ATOM      8  C   UNL     1      76.221  75.337  72.481  1.00  0.00    -0.070 CG0
ATOM      9  C   UNL     1      76.876  74.498  71.411  1.00  0.00     0.039 C 
ATOM     10  G   UNL     1      75.003  76.161  72.099  1.00  0.00     0.000 G0
ENDBRANCH   6   7
ENDBRANCH   5   6
ENDBRANCH   3   5
ENDBRANCH   1   3
BRANCH   1  11
ATOM     11  C   UNL     1      73.156  74.303  74.922  1.00  0.00     0.087 C 
BRANCH  11  12
ATOM     12  C   UNL     1      73.629  74.307  73.437  1.00  0.00     0.066 C 
BRANCH  12  13
ATOM     13  C   UNL     1      73.801  75.728  72.919  1.00  0.00     0.140 C 
ATOM     14  O   UNL     1      72.934  76.557  73.155  1.00  0.00    -0.299 OA
BRANCH  13  15
ATOM     15  C   UNL     1      74.999  76.145  72.089  1.00  0.00     0.106 CG0
ATOM     16  G   UNL     1      76.232  75.349  72.482  1.00  0.00     0.000 G0
ENDBRANCH  13  15
ENDBRANCH  12  13
BRANCH  12  17
ATOM     17  C   UNL     1      72.700  73.487  72.484  1.00  0.00    -0.006 C 
ATOM     18  C   UNL     1      71.928  74.403  71.521  1.00  0.00     0.008 C 
ATOM     19  C   UNL     1      73.427  72.384  71.692  1.00  0.00     0.008 C 
ENDBRANCH  12  17
ENDBRANCH  11  12
ENDBRANCH   1  11
TORSDOF 1
ENDMDL
MODEL 4
REMARK VINA RESULT:     2.547      2.011      4.270
REMARK INTER + INTRA:           5.234
REMARK INTER:                   3.175
REMARK INTRA:                   2.059
REMARK UNBOUND:                 1.347
REMARK SMILES CC1=CCC[C@H](C)C(=O)C[C@@H](C(C)C)C(=O)C1
REMARK SMILES IDX 8 1 9 2 6 3 7 4 5 5 4 6 3 7 2 8 1 9 10 11 11 12 15 13 16 14
REMARK SMILES IDX 17 15 12 17 13 18 14 19
REMARK H PARENT
REMARK Flexibility Score: 70.00
ROOT
ATOM      1  C   UNL     1      75.842  74.765  75.805  1.00  0.00     0.136 C 
ATOM      2  O   UNL     1      76.579  75.614  76.286  1.00  0.00    -0.299 OA
ENDROOT
BRANCH   1   3
ATOM      3  C   UNL     1      74.837  74.059  76.686  1.00  0.00     0.053 C 
ATOM      4  C   UNL     1      75.223  74.168  78.167  1.00  0.00     0.016 C 
BRANCH   3   5
ATOM      5  C   UNL     1      73.431  74.652  76.420  1.00  0.00     0.015 C 
BRANCH   5   6
ATOM      6  C   UNL     1      72.521  73.833  75.484  1.00  0.00     0.028 C 
BRANCH   6   7
ATOM      7  C   UNL     1      73.190  73.094  74.345  1.00  0.00    -0.028 C 
ATOM      8  C   UNL     1      73.391  73.548  73.084  1.00  0.00    -0.070 CG0
ATOM      9  C   UNL     1      73.977  72.587  72.080  1.00  0.00     0.039 C 
ATOM     10  G   UNL     1      73.144  74.981  72.643  1.00  0.00     0.000 G0
ENDBRANCH   6   7
ENDBRANCH   5   6
ENDBRANCH   3   5
ENDBRANCH   1   3
BRANCH   1  11
ATOM     11  C   UNL     1      75.904  74.491  74.320  1.00  0.00     0.087 C 
BRANCH  11  12
ATOM     12  C   UNL     1      75.563  75.749  73.467  1.00  0.00     0.066 C 
BRANCH  12  13
ATOM     13  C   UNL     1      74.057  75.962  73.380  1.00  0.00     0.140 C 
ATOM     14  O   UNL     1      73.557  76.920  73.952  1.00  0.00    -0.299 OA
BRANCH  13  15
ATOM     15  C   UNL     1      73.149  75.005  72.634  1.00  0.00     0.106 CG0
ATOM     16  G   UNL     1      73.397  73.572  73.074  1.00  0.00     0.000 G0
ENDBRANCH  13  15
ENDBRANCH  12  13
BRANCH  12  17
ATOM     17  C   UNL     1      76.194  75.723  72.037  1.00  0.00    -0.006 C 
ATOM     18  C   UNL     1      76.693  74.318  71.664  1.00  0.00     0.008 C 
ATOM     19  C   UNL     1      75.268  76.263  70.931  1.00  0.00     0.008 C 
ENDBRANCH  12  17
ENDBRANCH  11  12
ENDBRANCH   1  11
TORSDOF 1
ENDMDL
MODEL 5
REMARK VINA RESULT:     3.312      1.971      4.483
REMARK INTER + INTRA:           6.401
REMARK INTER:                   5.681
REMARK INTRA:                   0.720
REMARK UNBOUND:                 1.347
REMARK SMILES CC1=CCC[C@H](C)C(=O)C[C@@H](C(C)C)C(=O)C1
REMARK SMILES IDX 8 1 9 2 6 3 7 4 5 5 4 6 3 7 2 8 1 9 10 11 11 12 15 13 16 14
REMARK SMILES IDX 17 15 12 17 13 18 14 19
REMARK H PARENT
REMARK Flexibility Score: 70.00
ROOT
ATOM      1  C   UNL     1      75.837  75.331  75.710  1.00  0.00     0.136 C 
ATOM      2  O   UNL     1      75.803  76.512  76.024  1.00  0.00    -0.299 OA
ENDROOT
BRANCH   1   3
ATOM      3  C   UNL     1      75.092  74.312  76.543  1.00  0.00     0.053 C 
ATOM      4  C   UNL     1      75.245  74.602  78.041  1.00  0.00     0.016 C 
BRANCH   3   5
ATOM      5  C   UNL     1      73.604  74.303  76.114  1.00  0.00     0.015 C 
BRANCH   5   6
ATOM      6  C   UNL     1      73.209  73.233  75.077  1.00  0.00     0.028 C 
BRANCH   6   7
ATOM      7  C   UNL     1      72.464  73.708  73.847  1.00  0.00    -0.028 C 
ATOM      8  C   UNL     1      72.891  73.651  72.562  1.00  0.00    -0.070 CG0
ATOM      9  C   UNL     1      72.025  74.295  71.508  1.00  0.00     0.039 C 
ATOM     10  G   UNL     1      74.138  72.909  72.109  1.00  0.00     0.000 G0
ENDBRANCH   6   7
ENDBRANCH   5   6
ENDBRANCH   3   5
ENDBRANCH   1   3
BRANCH   1  11
ATOM     11  C   UNL     1      76.566  74.924  74.450  1.00  0.00     0.087 C 
BRANCH  11  12
ATOM     12  C   UNL     1      75.613  74.796  73.224  1.00  0.00     0.066 C 
BRANCH  12  13
ATOM     13  C   UNL     1      75.340  73.336  72.890  1.00  0.00     0.140 C 
ATOM     14  O   UNL     1      76.139  72.483  73.250  1.00  0.00    -0.299 OA
BRANCH  13  15
ATOM     15  C   UNL     1      74.125  72.903  72.094  1.00  0.00     0.106 CG0
ATOM     16  G   UNL     1      72.884  73.648  72.555  1.00  0.00     0.000 G0
ENDBRANCH  13  15
ENDBRANCH  12  13
BRANCH  12  17
ATOM     17  C   UNL     1      76.119  75.561  71.958  1.00  0.00    -0.006 C 
ATOM     18  C   UNL     1      75.005  76.412  71.327  1.00  0.00     0.008 C 
ATOM     19  C   UNL     1      77.368  76.429  72.206  1.00  0.00     0.008 C 
ENDBRANCH  12  17
ENDBRANCH  11  12
ENDBRANCH   1  11
TORSDOF 1
ENDMDL
MODEL 6
REMARK VINA RESULT:     3.317      1.796      4.542
REMARK INTER + INTRA:           6.410
REMARK INTER:                   3.920
REMARK INTRA:                   2.490
REMARK UNBOUND:                 1.347
REMARK SMILES CC1=CCC[C@H](C)C(=O)C[C@@H](C(C)C)C(=O)C1
REMARK SMILES IDX 8 1 9 2 6 3 7 4 5 5 4 6 3 7 2 8 1 9 10 11 11 12 15 13 16 14
REMARK SMILES IDX 17 15 12 17 13 18 14 19
REMARK H PARENT
REMARK Flexibility Score: 70.00
ROOT
ATOM      1  C   UNL     1      73.155  75.013  73.831  1.00  0.00     0.136 C 
ATOM      2  O   UNL     1      73.351  76.221  73.838  1.00  0.00    -0.299 OA
ENDROOT
BRANCH   1   3
ATOM      3  C   UNL     1      72.647  74.344  72.574  1.00  0.00     0.053 C 
ATOM      4  C   UNL     1      72.995  75.167  71.328  1.00  0.00     0.016 C 
BRANCH   3   5
ATOM      5  C   UNL     1      73.234  72.913  72.493  1.00  0.00     0.015 C 
BRANCH   5   6
ATOM      6  C   UNL     1      74.581  72.779  71.757  1.00  0.00     0.028 C 
BRANCH   6   7
ATOM      7  C   UNL     1      75.453  74.014  71.682  1.00  0.00    -0.028 C 
ATOM      8  C   UNL     1      76.131  74.597  72.699  1.00  0.00    -0.070 CG0
ATOM      9  C   UNL     1      76.843  75.896  72.411  1.00  0.00     0.039 C 
ATOM     10  G   UNL     1      76.290  73.985  74.081  1.00  0.00     0.000 G0
ENDBRANCH   6   7
ENDBRANCH   5   6
ENDBRANCH   3   5
ENDBRANCH   1   3
BRANCH   1  11
ATOM     11  C   UNL     1      73.496  74.205  75.062  1.00  0.00     0.087 C 
BRANCH  11  12
ATOM     12  C   UNL     1      74.600  74.878  75.931  1.00  0.00     0.066 C 
BRANCH  12  13
ATOM     13  C   UNL     1      75.921  74.958  75.178  1.00  0.00     0.140 C 
ATOM     14  O   UNL     1      76.704  75.859  75.442  1.00  0.00    -0.299 OA
BRANCH  13  15
ATOM     15  C   UNL     1      76.285  73.974  74.084  1.00  0.00     0.106 CG0
ATOM     16  G   UNL     1      76.129  74.610  72.712  1.00  0.00     0.000 G0
ENDBRANCH  13  15
ENDBRANCH  12  13
BRANCH  12  17
ATOM     17  C   UNL     1      74.804  74.192  77.321  1.00  0.00    -0.006 C 
ATOM     18  C   UNL     1      76.285  73.874  77.583  1.00  0.00     0.008 C 
ATOM     19  C   UNL     1      74.219  74.984  78.506  1.00  0.00     0.008 C 
ENDBRANCH  12  17
ENDBRANCH  11  12
ENDBRANCH   1  11
TORSDOF 1
ENDMDL
MODEL 7
REMARK VINA RESULT:     3.469      1.506      3.006
REMARK INTER + INTRA:           6.641
REMARK INTER:                   2.465
REMARK INTRA:                   4.177
REMARK UNBOUND:                 1.347
REMARK SMILES CC1=CCC[C@H](C)C(=O)C[C@@H](C(C)C)C(=O)C1
REMARK SMILES IDX 8 1 9 2 6 3 7 4 5 5 4 6 3 7 2 8 1 9 10 11 11 12 15 13 16 14
REMARK SMILES IDX 17 15 12 17 13 18 14 19
REMARK H PARENT
REMARK Flexibility Score: 70.00
ROOT
ATOM      1  C   UNL     1      74.351  73.165  72.490  1.00  0.00     0.136 C 
ATOM      2  O   UNL     1      74.301  72.281  71.647  1.00  0.00    -0.299 OA
ENDROOT
BRANCH   1   3
ATOM      3  C   UNL     1      73.138  74.033  72.737  1.00  0.00     0.053 C 
ATOM      4  C   UNL     1      71.976  73.638  71.818  1.00  0.00     0.016 C 
BRANCH   3   5
ATOM      5  C   UNL     1      72.742  73.930  74.231  1.00  0.00     0.015 C 
BRANCH   5   6
ATOM      6  C   UNL     1      73.753  73.215  75.148  1.00  0.00     0.028 C 
BRANCH   6   7
ATOM      7  C   UNL     1      74.058  73.869  76.479  1.00  0.00    -0.028 C 
ATOM      8  C   UNL     1      75.245  74.384  76.881  1.00  0.00    -0.070 CG0
ATOM      9  C   UNL     1      75.346  74.882  78.302  1.00  0.00     0.039 C 
ATOM     10  G   UNL     1      76.447  74.570  75.971  1.00  0.00     0.000 G0
ENDBRANCH   6   7
ENDBRANCH   5   6
ENDBRANCH   3   5
ENDBRANCH   1   3
BRANCH   1  11
ATOM     11  C   UNL     1      75.606  73.325  73.318  1.00  0.00     0.087 C 
BRANCH  11  12
ATOM     12  C   UNL     1      76.126  74.793  73.334  1.00  0.00     0.066 C 
BRANCH  12  13
ATOM     13  C   UNL     1      76.068  75.381  74.738  1.00  0.00     0.140 C 
ATOM     14  O   UNL     1      75.726  76.547  74.881  1.00  0.00    -0.299 OA
BRANCH  13  15
ATOM     15  C   UNL     1      76.452  74.579  75.965  1.00  0.00     0.106 CG0
ATOM     16  G   UNL     1      75.258  74.397  76.887  1.00  0.00     0.000 G0
ENDBRANCH  13  15
ENDBRANCH  12  13
BRANCH  12  17
ATOM     17  C   UNL     1      75.390  75.727  72.319  1.00  0.00    -0.006 C 
ATOM     18  C   UNL     1      74.352  76.618  73.020  1.00  0.00     0.008 C 
ATOM     19  C   UNL     1      76.334  76.593  71.463  1.00  0.00     0.008 C 
ENDBRANCH  12  17
ENDBRANCH  11  12
ENDBRANCH   1  11
TORSDOF 1
ENDMDL
MODEL 8
REMARK VINA RESULT:     3.470      1.772      4.209
REMARK INTER + INTRA:           6.643
REMARK INTER:                   4.560
REMARK INTRA:                   2.084
REMARK UNBOUND:                 1.347
REMARK SMILES CC1=CCC[C@H](C)C(=O)C[C@@H](C(C)C)C(=O)C1
REMARK SMILES IDX 8 1 9 2 6 3 7 4 5 5 4 6 3 7 2 8 1 9 10 11 11 12 15 13 16 14
REMARK SMILES IDX 17 15 12 17 13 18 14 19
REMARK H PARENT
REMARK Flexibility Score: 70.00
ROOT
ATOM      1  C   UNL     1      76.506  75.724  74.622  1.00  0.00     0.136 C 
ATOM      2  O   UNL     1      77.403  76.382  75.131  1.00  0.00    -0.299 OA
ENDROOT
BRANCH   1   3
ATOM      3  C   UNL     1      76.808  74.845  73.430  1.00  0.00     0.053 C 
ATOM      4  C   UNL     1      76.060  73.509  73.521  1.00  0.00     0.016 C 
BRANCH   3   5
ATOM      5  C   UNL     1      76.445  75.611  72.134  1.00  0.00     0.015 C 
BRANCH   5   6
ATOM      6  C   UNL     1      74.945  75.885  71.910  1.00  0.00     0.028 C 
BRANCH   6   7
ATOM      7  C   UNL     1      74.056  74.686  71.660  1.00  0.00    -0.028 C 
ATOM      8  C   UNL     1      73.127  74.169  72.501  1.00  0.00    -0.070 CG0
ATOM      9  C   UNL     1      72.439  72.893  72.084  1.00  0.00     0.039 C 
ATOM     10  G   UNL     1      72.677  74.837  73.789  1.00  0.00     0.000 G0
ENDBRANCH   6   7
ENDBRANCH   5   6
ENDBRANCH   3   5
ENDBRANCH   1   3
BRANCH   1  11
ATOM     11  C   UNL     1      75.129  75.750  75.243  1.00  0.00     0.087 C 
BRANCH  11  12
ATOM     12  C   UNL     1      74.596  74.323  75.572  1.00  0.00     0.066 C 
BRANCH  12  13
ATOM     13  C   UNL     1      73.188  74.123  75.029  1.00  0.00     0.140 C 
ATOM     14  O   UNL     1      72.442  73.329  75.584  1.00  0.00    -0.299 OA
BRANCH  13  15
ATOM     15  C   UNL     1      72.687  74.852  73.798  1.00  0.00     0.106 CG0
ATOM     16  G   UNL     1      73.133  74.143  72.531  1.00  0.00     0.000 G0
ENDBRANCH  13  15
ENDBRANCH  12  13
BRANCH  12  17
ATOM     17  C   UNL     1      74.649  73.974  77.095  1.00  0.00    -0.006 C 
ATOM     18  C   UNL     1      76.090  73.987  77.629  1.00  0.00     0.008 C 
ATOM     19  C   UNL     1      73.754  74.866  77.976  1.00  0.00     0.008 C 
ENDBRANCH  12  17
ENDBRANCH  11  12
ENDBRANCH   1  11
TORSDOF 1
ENDMDL
MODEL 9
REMARK VINA RESULT:     3.549      1.786      4.248
REMARK INTER + INTRA:           6.763
REMARK INTER:                   3.111
REMARK INTRA:                   3.652
REMARK UNBOUND:                 1.347
REMARK SMILES CC1=CCC[C@H](C)C(=O)C[C@@H](C(C)C)C(=O)C1
REMARK SMILES IDX 8 1 9 2 6 3 7 4 5 5 4 6 3 7 2 8 1 9 10 11 11 12 15 13 16 14
REMARK SMILES IDX 17 15 12 17 13 18 14 19
REMARK H PARENT
REMARK Flexibility Score: 70.00
ROOT
ATOM      1  C   UNL     1      75.357  75.839  74.000  1.00  0.00     0.136 C 
ATOM      2  O   UNL     1      74.348  76.416  74.380  1.00  0.00    -0.299 OA
ENDROOT
BRANCH   1   3
ATOM      3  C   UNL     1      75.846  76.042  72.584  1.00  0.00     0.053 C 
ATOM      4  C   UNL     1      76.872  74.971  72.192  1.00  0.00     0.016 C 
BRANCH   3   5
ATOM      5  C   UNL     1      74.629  76.042  71.626  1.00  0.00     0.015 C 
BRANCH   5   6
ATOM      6  C   UNL     1      73.326  75.447  72.193  1.00  0.00     0.028 C 
BRANCH   6   7
ATOM      7  C   UNL     1      72.948  74.053  71.737  1.00  0.00    -0.028 C 
ATOM      8  C   UNL     1      73.592  72.897  72.028  1.00  0.00    -0.070 CG0
ATOM      9  C   UNL     1      73.099  71.636  71.363  1.00  0.00     0.039 C 
ATOM     10  G   UNL     1      74.718  72.779  73.041  1.00  0.00     0.000 G0
ENDBRANCH   6   7
ENDBRANCH   5   6
ENDBRANCH   3   5
ENDBRANCH   1   3
BRANCH   1  11
ATOM     11  C   UNL     1      76.135  74.991  74.979  1.00  0.00     0.087 C 
BRANCH  11  12
ATOM     12  C   UNL     1      75.338  73.735  75.445  1.00  0.00     0.066 C 
BRANCH  12  13
ATOM     13  C   UNL     1      74.317  73.313  74.397  1.00  0.00     0.140 C 
ATOM     14  O   UNL     1      73.126  73.372  74.668  1.00  0.00    -0.299 OA
BRANCH  13  15
ATOM     15  C   UNL     1      74.728  72.786  73.037  1.00  0.00     0.106 CG0
ATOM     16  G   UNL     1      73.578  72.885  72.049  1.00  0.00     0.000 G0
ENDBRANCH  13  15
ENDBRANCH  12  13
BRANCH  12  17
ATOM     17  C   UNL     1      74.650  73.916  76.837  1.00  0.00    -0.006 C 
ATOM     18  C   UNL     1      75.569  74.639  77.834  1.00  0.00     0.008 C 
ATOM     19  C   UNL     1      73.282  74.623  76.775  1.00  0.00     0.008 C 
ENDBRANCH  12  17
ENDBRANCH  11  12
ENDBRANCH   1  11
TORSDOF 1
ENDMDL
