MODEL 1
REMARK VINA RESULT:    -4.143      0.000      0.000
REMARK INTER + INTRA:          -9.979
REMARK INTER:                  -7.776
REMARK INTRA:                  -2.203
REMARK UNBOUND:                -2.203
REMARK SMILES O=C([O-])CCCCCCCCCCCCCCC(=O)[O-]
REMARK SMILES IDX 10 1 9 2 8 3 7 4 6 5 5 6 4 7 2 8 1 9 3 10 11 11 12 12 13 13
REMARK SMILES IDX 14 14 15 15 16 16 17 17 18 18 19 19 20 20
REMARK H PARENT
REMARK Flexibility Score: inf
ROOT
ATOM      1  C   UNL     1      -7.347 -13.679  16.061  1.00  0.00     0.000 C 
ENDROOT
BRANCH   1   2
ATOM      2  C   UNL     1      -7.339 -13.782  17.600  1.00  0.00     0.000 C 
BRANCH   2   3
ATOM      3  C   UNL     1      -8.728 -13.903  18.250  1.00  0.00     0.000 C 
BRANCH   3   4
ATOM      4  C   UNL     1      -9.794 -14.442  17.284  1.00  0.00     0.000 C 
BRANCH   4   5
ATOM      5  C   UNL     1     -11.093 -13.631  17.389  1.00  0.00     0.000 C 
BRANCH   5   6
ATOM      6  C   UNL     1     -11.818 -13.472  16.041  1.00  0.00     0.006 C 
BRANCH   6   7
ATOM      7  C   UNL     1     -11.151 -14.231  14.881  1.00  0.00     0.053 C 
BRANCH   7   8
ATOM      8  C   UNL     1     -10.413 -13.320  13.947  1.00  0.00     0.041 C 
ATOM      9  O   UNL     1     -10.116 -12.149  14.307  1.00  0.00    -0.550 OA
ATOM     10  O   UNL     1     -10.085 -13.746  12.666  1.00  0.00    -0.550 OA
ENDBRANCH   7   8
ENDBRANCH   6   7
ENDBRANCH   5   6
ENDBRANCH   4   5
ENDBRANCH   3   4
ENDBRANCH   2   3
ENDBRANCH   1   2
BRANCH   1  11
ATOM     11  C   UNL     1      -6.922 -12.310  15.494  1.00  0.00     0.000 C 
BRANCH  11  12
ATOM     12  C   UNL     1      -7.201 -11.110  16.419  1.00  0.00     0.000 C 
BRANCH  12  13
ATOM     13  C   UNL     1      -7.718  -9.880  15.659  1.00  0.00     0.000 C 
BRANCH  13  14
ATOM     14  C   UNL     1      -9.069  -9.416  16.224  1.00  0.00     0.000 C 
BRANCH  14  15
ATOM     15  C   UNL     1      -9.646 -10.395  17.259  1.00  0.00     0.000 C 
BRANCH  15  16
ATOM     16  C   UNL     1     -10.108  -9.691  18.547  1.00  0.00     0.006 C 
BRANCH  16  17
ATOM     17  C   UNL     1      -9.266  -8.447  18.859  1.00  0.00     0.053 C 
BRANCH  17  18
ATOM     18  C   UNL     1      -8.120  -8.769  19.769  1.00  0.00     0.041 C 
ATOM     19  O   UNL     1      -6.969  -8.962  19.295  1.00  0.00    -0.550 OA
ATOM     20  O   UNL     1      -8.329  -8.888  21.136  1.00  0.00    -0.550 OA
ENDBRANCH  17  18
ENDBRANCH  16  17
ENDBRANCH  15  16
ENDBRANCH  14  15
ENDBRANCH  13  14
ENDBRANCH  12  13
ENDBRANCH  11  12
ENDBRANCH   1  11
TORSDOF 15
ENDMDL
MODEL 2
REMARK VINA RESULT:    -4.124      2.009      5.003
REMARK INTER + INTRA:          -9.945
REMARK INTER:                  -7.828
REMARK INTRA:                  -2.117
REMARK UNBOUND:                -2.203
REMARK SMILES O=C([O-])CCCCCCCCCCCCCCC(=O)[O-]
REMARK SMILES IDX 10 1 9 2 8 3 7 4 6 5 5 6 4 7 2 8 1 9 3 10 11 11 12 12 13 13
REMARK SMILES IDX 14 14 15 15 16 16 17 17 18 18 19 19 20 20
REMARK H PARENT
REMARK Flexibility Score: inf
ROOT
ATOM      1  C   UNL     1      -7.025 -14.218  13.760  1.00  0.00     0.000 C 
ENDROOT
BRANCH   1   2
ATOM      2  C   UNL     1      -8.320 -14.033  14.576  1.00  0.00     0.000 C 
BRANCH   2   3
ATOM      3  C   UNL     1      -9.522 -13.503  13.776  1.00  0.00     0.000 C 
BRANCH   3   4
ATOM      4  C   UNL     1     -10.182 -12.279  14.430  1.00  0.00     0.000 C 
BRANCH   4   5
ATOM      5  C   UNL     1      -9.156 -11.463  15.229  1.00  0.00     0.000 C 
BRANCH   5   6
ATOM      6  C   UNL     1      -9.761 -10.211  15.888  1.00  0.00     0.006 C 
BRANCH   6   7
ATOM      7  C   UNL     1      -8.781  -9.446  16.794  1.00  0.00     0.053 C 
BRANCH   7   8
ATOM      8  C   UNL     1      -9.425  -8.955  18.055  1.00  0.00     0.041 C 
ATOM      9  O   UNL     1     -10.149  -9.727  18.738  1.00  0.00    -0.550 OA
ATOM     10  O   UNL     1      -9.260  -7.636  18.457  1.00  0.00    -0.550 OA
ENDBRANCH   7   8
ENDBRANCH   6   7
ENDBRANCH   5   6
ENDBRANCH   4   5
ENDBRANCH   3   4
ENDBRANCH   2   3
ENDBRANCH   1   2
BRANCH   1  11
ATOM     11  C   UNL     1      -5.725 -13.845  14.500  1.00  0.00     0.000 C 
BRANCH  11  12
ATOM     12  C   UNL     1      -5.889 -12.786  15.606  1.00  0.00     0.000 C 
BRANCH  12  13
ATOM     13  C   UNL     1      -5.418 -13.281  16.980  1.00  0.00     0.000 C 
BRANCH  13  14
ATOM     14  C   UNL     1      -6.591 -13.863  17.784  1.00  0.00     0.000 C 
BRANCH  14  15
ATOM     15  C   UNL     1      -7.706 -12.835  18.032  1.00  0.00     0.000 C 
BRANCH  15  16
ATOM     16  C   UNL     1      -8.987 -13.477  18.594  1.00  0.00     0.006 C 
BRANCH  16  17
ATOM     17  C   UNL     1      -9.724 -14.314  17.540  1.00  0.00     0.053 C 
BRANCH  17  18
ATOM     18  C   UNL     1     -11.124 -13.825  17.325  1.00  0.00     0.041 C 
ATOM     19  O   UNL     1     -11.921 -14.482  16.604  1.00  0.00    -0.550 OA
ATOM     20  O   UNL     1     -11.538 -12.628  17.893  1.00  0.00    -0.550 OA
ENDBRANCH  17  18
ENDBRANCH  16  17
ENDBRANCH  15  16
ENDBRANCH  14  15
ENDBRANCH  13  14
ENDBRANCH  12  13
ENDBRANCH  11  12
ENDBRANCH   1  11
TORSDOF 15
ENDMDL
MODEL 3
REMARK VINA RESULT:    -4.099      1.346      1.849
REMARK INTER + INTRA:          -9.896
REMARK INTER:                  -7.353
REMARK INTRA:                  -2.543
REMARK UNBOUND:                -2.203
REMARK SMILES O=C([O-])CCCCCCCCCCCCCCC(=O)[O-]
REMARK SMILES IDX 10 1 9 2 8 3 7 4 6 5 5 6 4 7 2 8 1 9 3 10 11 11 12 12 13 13
REMARK SMILES IDX 14 14 15 15 16 16 17 17 18 18 19 19 20 20
REMARK H PARENT
REMARK Flexibility Score: inf
ROOT
ATOM      1  C   UNL     1      -6.353 -11.489  17.683  1.00  0.00     0.000 C 
ENDROOT
BRANCH   1   2
ATOM      2  C   UNL     1      -6.018 -12.994  17.729  1.00  0.00     0.000 C 
BRANCH   2   3
ATOM      3  C   UNL     1      -7.236 -13.927  17.841  1.00  0.00     0.000 C 
BRANCH   3   4
ATOM      4  C   UNL     1      -8.405 -13.292  18.610  1.00  0.00     0.000 C 
BRANCH   4   5
ATOM      5  C   UNL     1      -9.747 -13.622  17.941  1.00  0.00     0.000 C 
BRANCH   5   6
ATOM      6  C   UNL     1      -9.607 -14.581  16.746  1.00  0.00     0.006 C 
BRANCH   6   7
ATOM      7  C   UNL     1     -10.927 -14.849  16.002  1.00  0.00     0.053 C 
BRANCH   7   8
ATOM      8  C   UNL     1     -11.186 -13.853  14.913  1.00  0.00     0.041 C 
ATOM      9  O   UNL     1     -10.353 -13.706  13.978  1.00  0.00    -0.550 OA
ATOM     10  O   UNL     1     -12.326 -13.060  14.945  1.00  0.00    -0.550 OA
ENDBRANCH   7   8
ENDBRANCH   6   7
ENDBRANCH   5   6
ENDBRANCH   4   5
ENDBRANCH   3   4
ENDBRANCH   2   3
ENDBRANCH   1   2
BRANCH   1  11
ATOM     11  C   UNL     1      -5.966 -10.772  16.375  1.00  0.00     0.000 C 
BRANCH  11  12
ATOM     12  C   UNL     1      -7.152 -10.215  15.565  1.00  0.00     0.000 C 
BRANCH  12  13
ATOM     13  C   UNL     1      -8.308 -11.218  15.436  1.00  0.00     0.000 C 
BRANCH  13  14
ATOM     14  C   UNL     1      -9.640 -10.573  15.850  1.00  0.00     0.000 C 
BRANCH  14  15
ATOM     15  C   UNL     1      -9.456  -9.439  16.871  1.00  0.00     0.000 C 
BRANCH  15  16
ATOM     16  C   UNL     1      -9.876  -9.850  18.294  1.00  0.00     0.006 C 
BRANCH  16  17
ATOM     17  C   UNL     1      -8.944  -9.264  19.363  1.00  0.00     0.053 C 
BRANCH  17  18
ATOM     18  C   UNL     1      -8.301  -7.993  18.899  1.00  0.00     0.041 C 
ATOM     19  O   UNL     1      -7.088  -7.984  18.557  1.00  0.00    -0.550 OA
ATOM     20  O   UNL     1      -9.030  -6.811  18.877  1.00  0.00    -0.550 OA
ENDBRANCH  17  18
ENDBRANCH  16  17
ENDBRANCH  15  16
ENDBRANCH  14  15
ENDBRANCH  13  14
ENDBRANCH  12  13
ENDBRANCH  11  12
ENDBRANCH   1  11
TORSDOF 15
ENDMDL
MODEL 4
REMARK VINA RESULT:    -4.067      1.309      6.239
REMARK INTER + INTRA:          -9.837
REMARK INTER:                  -7.449
REMARK INTRA:                  -2.387
REMARK UNBOUND:                -2.203
REMARK SMILES O=C([O-])CCCCCCCCCCCCCCC(=O)[O-]
REMARK SMILES IDX 10 1 9 2 8 3 7 4 6 5 5 6 4 7 2 8 1 9 3 10 11 11 12 12 13 13
REMARK SMILES IDX 14 14 15 15 16 16 17 17 18 18 19 19 20 20
REMARK H PARENT
REMARK Flexibility Score: inf
ROOT
ATOM      1  C   UNL     1      -6.424 -11.922  16.548  1.00  0.00     0.000 C 
ENDROOT
BRANCH   1   2
ATOM      2  C   UNL     1      -7.389 -11.099  15.670  1.00  0.00     0.000 C 
BRANCH   2   3
ATOM      3  C   UNL     1      -7.563  -9.631  16.096  1.00  0.00     0.000 C 
BRANCH   3   4
ATOM      4  C   UNL     1      -9.018  -9.276  16.436  1.00  0.00     0.000 C 
BRANCH   4   5
ATOM      5  C   UNL     1      -9.096  -8.461  17.735  1.00  0.00     0.000 C 
BRANCH   5   6
ATOM      6  C   UNL     1      -9.637  -9.272  18.926  1.00  0.00     0.006 C 
BRANCH   6   7
ATOM      7  C   UNL     1      -8.658  -9.373  20.108  1.00  0.00     0.053 C 
BRANCH   7   8
ATOM      8  C   UNL     1      -8.951  -8.373  21.185  1.00  0.00     0.041 C 
ATOM      9  O   UNL     1      -9.537  -8.734  22.241  1.00  0.00    -0.550 OA
ATOM     10  O   UNL     1      -8.613  -7.037  21.012  1.00  0.00    -0.550 OA
ENDBRANCH   7   8
ENDBRANCH   6   7
ENDBRANCH   5   6
ENDBRANCH   4   5
ENDBRANCH   3   4
ENDBRANCH   2   3
ENDBRANCH   1   2
BRANCH   1  11
ATOM     11  C   UNL     1      -6.643 -11.785  18.068  1.00  0.00     0.000 C 
BRANCH  11  12
ATOM     12  C   UNL     1      -7.891 -12.505  18.611  1.00  0.00     0.000 C 
BRANCH  12  13
ATOM     13  C   UNL     1      -8.058 -13.920  18.040  1.00  0.00     0.000 C 
BRANCH  13  14
ATOM     14  C   UNL     1      -9.458 -14.104  17.433  1.00  0.00     0.000 C 
BRANCH  14  15
ATOM     15  C   UNL     1     -10.272 -12.800  17.417  1.00  0.00     0.000 C 
BRANCH  15  16
ATOM     16  C   UNL     1     -11.306 -12.762  16.278  1.00  0.00     0.006 C 
BRANCH  16  17
ATOM     17  C   UNL     1     -10.714 -12.202  14.979  1.00  0.00     0.053 C 
BRANCH  17  18
ATOM     18  C   UNL     1     -10.292 -13.295  14.046  1.00  0.00     0.041 C 
ATOM     19  O   UNL     1      -9.070 -13.548  13.877  1.00  0.00    -0.550 OA
ATOM     20  O   UNL     1     -11.247 -14.013  13.338  1.00  0.00    -0.550 OA
ENDBRANCH  17  18
ENDBRANCH  16  17
ENDBRANCH  15  16
ENDBRANCH  14  15
ENDBRANCH  13  14
ENDBRANCH  12  13
ENDBRANCH  11  12
ENDBRANCH   1  11
TORSDOF 15
ENDMDL
MODEL 5
REMARK VINA RESULT:    -4.034      1.099      6.181
REMARK INTER + INTRA:          -9.776
REMARK INTER:                  -7.704
REMARK INTRA:                  -2.071
REMARK UNBOUND:                -2.203
REMARK SMILES O=C([O-])CCCCCCCCCCCCCCC(=O)[O-]
REMARK SMILES IDX 10 1 9 2 8 3 7 4 6 5 5 6 4 7 2 8 1 9 3 10 11 11 12 12 13 13
REMARK SMILES IDX 14 14 15 15 16 16 17 17 18 18 19 19 20 20
REMARK H PARENT
REMARK Flexibility Score: inf
ROOT
ATOM      1  C   UNL     1      -6.939 -11.048  15.646  1.00  0.00     0.000 C 
ENDROOT
BRANCH   1   2
ATOM      2  C   UNL     1      -8.050  -9.991  15.482  1.00  0.00     0.000 C 
BRANCH   2   3
ATOM      3  C   UNL     1      -9.427 -10.406  16.030  1.00  0.00     0.000 C 
BRANCH   3   4
ATOM      4  C   UNL     1      -9.729  -9.798  17.408  1.00  0.00     0.000 C 
BRANCH   4   5
ATOM      5  C   UNL     1      -8.984  -8.468  17.597  1.00  0.00     0.000 C 
BRANCH   5   6
ATOM      6  C   UNL     1      -8.908  -8.023  19.068  1.00  0.00     0.006 C 
BRANCH   6   7
ATOM      7  C   UNL     1      -9.317  -9.113  20.073  1.00  0.00     0.053 C 
BRANCH   7   8
ATOM      8  C   UNL     1      -8.205  -9.483  21.006  1.00  0.00     0.041 C 
ATOM      9  O   UNL     1      -8.003  -8.808  22.051  1.00  0.00    -0.550 OA
ATOM     10  O   UNL     1      -7.366 -10.549  20.708  1.00  0.00    -0.550 OA
ENDBRANCH   7   8
ENDBRANCH   6   7
ENDBRANCH   5   6
ENDBRANCH   4   5
ENDBRANCH   3   4
ENDBRANCH   2   3
ENDBRANCH   1   2
BRANCH   1  11
ATOM     11  C   UNL     1      -7.388 -12.507  15.429  1.00  0.00     0.000 C 
BRANCH  11  12
ATOM     12  C   UNL     1      -6.931 -13.495  16.519  1.00  0.00     0.000 C 
BRANCH  12  13
ATOM     13  C   UNL     1      -7.104 -12.937  17.939  1.00  0.00     0.000 C 
BRANCH  13  14
ATOM     14  C   UNL     1      -8.550 -13.118  18.425  1.00  0.00     0.000 C 
BRANCH  14  15
ATOM     15  C   UNL     1      -9.227 -14.358  17.821  1.00  0.00     0.000 C 
BRANCH  15  16
ATOM     16  C   UNL     1     -10.576 -14.031  17.156  1.00  0.00     0.006 C 
BRANCH  16  17
ATOM     17  C   UNL     1     -10.715 -14.691  15.777  1.00  0.00     0.053 C 
BRANCH  17  18
ATOM     18  C   UNL     1     -11.242 -13.730  14.755  1.00  0.00     0.041 C 
ATOM     19  O   UNL     1     -12.025 -12.805  15.098  1.00  0.00    -0.550 OA
ATOM     20  O   UNL     1     -10.894 -13.876  13.419  1.00  0.00    -0.550 OA
ENDBRANCH  17  18
ENDBRANCH  16  17
ENDBRANCH  15  16
ENDBRANCH  14  15
ENDBRANCH  13  14
ENDBRANCH  12  13
ENDBRANCH  11  12
ENDBRANCH   1  11
TORSDOF 15
ENDMDL
MODEL 6
REMARK VINA RESULT:    -4.029      2.353      5.820
REMARK INTER + INTRA:          -9.765
REMARK INTER:                  -7.354
REMARK INTRA:                  -2.411
REMARK UNBOUND:                -2.203
REMARK SMILES O=C([O-])CCCCCCCCCCCCCCC(=O)[O-]
REMARK SMILES IDX 10 1 9 2 8 3 7 4 6 5 5 6 4 7 2 8 1 9 3 10 11 11 12 12 13 13
REMARK SMILES IDX 14 14 15 15 16 16 17 17 18 18 19 19 20 20
REMARK H PARENT
REMARK Flexibility Score: inf
ROOT
ATOM      1  C   UNL     1      -6.651 -13.536  17.205  1.00  0.00     0.000 C 
ENDROOT
BRANCH   1   2
ATOM      2  C   UNL     1      -6.507 -13.470  15.671  1.00  0.00     0.000 C 
BRANCH   2   3
ATOM      3  C   UNL     1      -5.993 -12.127  15.125  1.00  0.00     0.000 C 
BRANCH   3   4
ATOM      4  C   UNL     1      -5.949 -11.026  16.195  1.00  0.00     0.000 C 
BRANCH   4   5
ATOM      5  C   UNL     1      -5.900  -9.633  15.550  1.00  0.00     0.000 C 
BRANCH   5   6
ATOM      6  C   UNL     1      -7.294  -9.059  15.247  1.00  0.00     0.006 C 
BRANCH   6   7
ATOM      7  C   UNL     1      -7.278  -7.847  14.298  1.00  0.00     0.053 C 
BRANCH   7   8
ATOM      8  C   UNL     1      -7.132  -6.546  15.028  1.00  0.00     0.041 C 
ATOM      9  O   UNL     1      -7.339  -6.491  16.270  1.00  0.00    -0.550 OA
ATOM     10  O   UNL     1      -6.804  -5.388  14.336  1.00  0.00    -0.550 OA
ENDBRANCH   7   8
ENDBRANCH   6   7
ENDBRANCH   5   6
ENDBRANCH   4   5
ENDBRANCH   3   4
ENDBRANCH   2   3
ENDBRANCH   1   2
BRANCH   1  11
ATOM     11  C   UNL     1      -7.920 -14.248  17.714  1.00  0.00     0.000 C 
BRANCH  11  12
ATOM     12  C   UNL     1      -8.954 -13.327  18.387  1.00  0.00     0.000 C 
BRANCH  12  13
ATOM     13  C   UNL     1      -8.467 -11.876  18.513  1.00  0.00     0.000 C 
BRANCH  13  14
ATOM     14  C   UNL     1      -9.353 -10.928  17.690  1.00  0.00     0.000 C 
BRANCH  14  15
ATOM     15  C   UNL     1     -10.370 -11.679  16.815  1.00  0.00     0.000 C 
BRANCH  15  16
ATOM     16  C   UNL     1     -10.045 -11.580  15.314  1.00  0.00     0.006 C 
BRANCH  16  17
ATOM     17  C   UNL     1      -9.923 -12.962  14.657  1.00  0.00     0.053 C 
BRANCH  17  18
ATOM     18  C   UNL     1     -11.081 -13.846  15.009  1.00  0.00     0.041 C 
ATOM     19  O   UNL     1     -10.893 -14.906  15.662  1.00  0.00    -0.550 OA
ATOM     20  O   UNL     1     -12.361 -13.516  14.587  1.00  0.00    -0.550 OA
ENDBRANCH  17  18
ENDBRANCH  16  17
ENDBRANCH  15  16
ENDBRANCH  14  15
ENDBRANCH  13  14
ENDBRANCH  12  13
ENDBRANCH  11  12
ENDBRANCH   1  11
TORSDOF 15
ENDMDL
MODEL 7
REMARK VINA RESULT:    -4.007      1.840      2.532
REMARK INTER + INTRA:          -9.724
REMARK INTER:                  -7.431
REMARK INTRA:                  -2.293
REMARK UNBOUND:                -2.203
REMARK SMILES O=C([O-])CCCCCCCCCCCCCCC(=O)[O-]
REMARK SMILES IDX 10 1 9 2 8 3 7 4 6 5 5 6 4 7 2 8 1 9 3 10 11 11 12 12 13 13
REMARK SMILES IDX 14 14 15 15 16 16 17 17 18 18 19 19 20 20
REMARK H PARENT
REMARK Flexibility Score: inf
ROOT
ATOM      1  C   UNL     1      -7.248 -12.977  16.486  1.00  0.00     0.000 C 
ENDROOT
BRANCH   1   2
ATOM      2  C   UNL     1      -7.407 -13.870  17.734  1.00  0.00     0.000 C 
BRANCH   2   3
ATOM      3  C   UNL     1      -8.848 -14.004  18.255  1.00  0.00     0.000 C 
BRANCH   3   4
ATOM      4  C   UNL     1      -9.865 -14.273  17.135  1.00  0.00     0.000 C 
BRANCH   4   5
ATOM      5  C   UNL     1     -11.064 -13.320  17.241  1.00  0.00     0.000 C 
BRANCH   5   6
ATOM      6  C   UNL     1     -11.556 -12.813  15.875  1.00  0.00     0.006 C 
BRANCH   6   7
ATOM      7  C   UNL     1     -10.425 -12.404  14.916  1.00  0.00     0.053 C 
BRANCH   7   8
ATOM      8  C   UNL     1     -10.220 -13.396  13.811  1.00  0.00     0.041 C 
ATOM      9  O   UNL     1     -11.210 -13.974  13.287  1.00  0.00    -0.550 OA
ATOM     10  O   UNL     1      -8.937 -13.712  13.382  1.00  0.00    -0.550 OA
ENDBRANCH   7   8
ENDBRANCH   6   7
ENDBRANCH   5   6
ENDBRANCH   4   5
ENDBRANCH   3   4
ENDBRANCH   2   3
ENDBRANCH   1   2
BRANCH   1  11
ATOM     11  C   UNL     1      -6.416 -11.696  16.699  1.00  0.00     0.000 C 
BRANCH  11  12
ATOM     12  C   UNL     1      -6.085 -11.375  18.169  1.00  0.00     0.000 C 
BRANCH  12  13
ATOM     13  C   UNL     1      -6.839 -10.146  18.695  1.00  0.00     0.000 C 
BRANCH  13  14
ATOM     14  C   UNL     1      -8.199 -10.550  19.284  1.00  0.00     0.000 C 
BRANCH  14  15
ATOM     15  C   UNL     1      -9.377 -10.161  18.376  1.00  0.00     0.000 C 
BRANCH  15  16
ATOM     16  C   UNL     1      -9.160  -8.811  17.670  1.00  0.00     0.006 C 
BRANCH  16  17
ATOM     17  C   UNL     1      -8.977  -8.973  16.156  1.00  0.00     0.053 C 
BRANCH  17  18
ATOM     18  C   UNL     1      -7.842  -8.139  15.643  1.00  0.00     0.041 C 
ATOM     19  O   UNL     1      -7.670  -6.968  16.076  1.00  0.00    -0.550 OA
ATOM     20  O   UNL     1      -6.995  -8.642  14.665  1.00  0.00    -0.550 OA
ENDBRANCH  17  18
ENDBRANCH  16  17
ENDBRANCH  15  16
ENDBRANCH  14  15
ENDBRANCH  13  14
ENDBRANCH  12  13
ENDBRANCH  11  12
ENDBRANCH   1  11
TORSDOF 15
ENDMDL
MODEL 8
REMARK VINA RESULT:    -3.976      1.687      2.754
REMARK INTER + INTRA:          -9.667
REMARK INTER:                  -7.249
REMARK INTRA:                  -2.418
REMARK UNBOUND:                -2.203
REMARK SMILES O=C([O-])CCCCCCCCCCCCCCC(=O)[O-]
REMARK SMILES IDX 10 1 9 2 8 3 7 4 6 5 5 6 4 7 2 8 1 9 3 10 11 11 12 12 13 13
REMARK SMILES IDX 14 14 15 15 16 16 17 17 18 18 19 19 20 20
REMARK H PARENT
REMARK Flexibility Score: inf
ROOT
ATOM      1  C   UNL     1      -8.247 -10.392  15.625  1.00  0.00     0.000 C 
ENDROOT
BRANCH   1   2
ATOM      2  C   UNL     1      -9.743 -10.631  15.911  1.00  0.00     0.000 C 
BRANCH   2   3
ATOM      3  C   UNL     1     -10.108 -10.754  17.400  1.00  0.00     0.000 C 
BRANCH   3   4
ATOM      4  C   UNL     1     -10.763 -12.100  17.745  1.00  0.00     0.000 C 
BRANCH   4   5
ATOM      5  C   UNL     1      -9.701 -13.188  17.962  1.00  0.00     0.000 C 
BRANCH   5   6
ATOM      6  C   UNL     1      -9.751 -14.301  16.901  1.00  0.00     0.006 C 
BRANCH   6   7
ATOM      7  C   UNL     1     -11.133 -14.481  16.249  1.00  0.00     0.053 C 
BRANCH   7   8
ATOM      8  C   UNL     1     -11.204 -13.884  14.877  1.00  0.00     0.041 C 
ATOM      9  O   UNL     1     -12.320 -13.582  14.375  1.00  0.00    -0.550 OA
ATOM     10  O   UNL     1     -10.046 -13.694  14.135  1.00  0.00    -0.550 OA
ENDBRANCH   7   8
ENDBRANCH   6   7
ENDBRANCH   5   6
ENDBRANCH   4   5
ENDBRANCH   3   4
ENDBRANCH   2   3
ENDBRANCH   1   2
BRANCH   1  11
ATOM     11  C   UNL     1      -7.369 -11.660  15.626  1.00  0.00     0.000 C 
BRANCH  11  12
ATOM     12  C   UNL     1      -6.063 -11.544  16.433  1.00  0.00     0.000 C 
BRANCH  12  13
ATOM     13  C   UNL     1      -6.193 -10.614  17.648  1.00  0.00     0.000 C 
BRANCH  13  14
ATOM     14  C   UNL     1      -6.573 -11.409  18.907  1.00  0.00     0.000 C 
BRANCH  14  15
ATOM     15  C   UNL     1      -7.472 -10.609  19.863  1.00  0.00     0.000 C 
BRANCH  15  16
ATOM     16  C   UNL     1      -7.372  -9.090  19.637  1.00  0.00     0.006 C 
BRANCH  16  17
ATOM     17  C   UNL     1      -8.749  -8.413  19.641  1.00  0.00     0.053 C 
BRANCH  17  18
ATOM     18  C   UNL     1      -8.806  -7.269  18.675  1.00  0.00     0.041 C 
ATOM     19  O   UNL     1      -9.207  -6.137  19.057  1.00  0.00    -0.550 OA
ATOM     20  O   UNL     1      -8.449  -7.460  17.348  1.00  0.00    -0.550 OA
ENDBRANCH  17  18
ENDBRANCH  16  17
ENDBRANCH  15  16
ENDBRANCH  14  15
ENDBRANCH  13  14
ENDBRANCH  12  13
ENDBRANCH  11  12
ENDBRANCH   1  11
TORSDOF 15
ENDMDL
MODEL 9
REMARK VINA RESULT:    -3.963      1.442      2.233
REMARK INTER + INTRA:          -9.641
REMARK INTER:                  -7.247
REMARK INTRA:                  -2.394
REMARK UNBOUND:                -2.203
REMARK SMILES O=C([O-])CCCCCCCCCCCCCCC(=O)[O-]
REMARK SMILES IDX 10 1 9 2 8 3 7 4 6 5 5 6 4 7 2 8 1 9 3 10 11 11 12 12 13 13
REMARK SMILES IDX 14 14 15 15 16 16 17 17 18 18 19 19 20 20
REMARK H PARENT
REMARK Flexibility Score: inf
ROOT
ATOM      1  C   UNL     1      -6.787 -10.958  16.240  1.00  0.00     0.000 C 
ENDROOT
BRANCH   1   2
ATOM      2  C   UNL     1      -6.386 -12.169  17.107  1.00  0.00     0.000 C 
BRANCH   2   3
ATOM      3  C   UNL     1      -7.492 -12.695  18.037  1.00  0.00     0.000 C 
BRANCH   3   4
ATOM      4  C   UNL     1      -7.974 -14.102  17.653  1.00  0.00     0.000 C 
BRANCH   4   5
ATOM      5  C   UNL     1      -9.506 -14.193  17.709  1.00  0.00     0.000 C 
BRANCH   5   6
ATOM      6  C   UNL     1     -10.185 -12.828  17.917  1.00  0.00     0.006 C 
BRANCH   6   7
ATOM      7  C   UNL     1     -11.612 -12.746  17.348  1.00  0.00     0.053 C 
BRANCH   7   8
ATOM      8  C   UNL     1     -11.718 -13.339  15.975  1.00  0.00     0.041 C 
ATOM      9  O   UNL     1     -11.213 -12.742  14.987  1.00  0.00    -0.550 OA
ATOM     10  O   UNL     1     -12.406 -14.529  15.778  1.00  0.00    -0.550 OA
ENDBRANCH   7   8
ENDBRANCH   6   7
ENDBRANCH   5   6
ENDBRANCH   4   5
ENDBRANCH   3   4
ENDBRANCH   2   3
ENDBRANCH   1   2
BRANCH   1  11
ATOM     11  C   UNL     1      -8.127 -11.103  15.492  1.00  0.00     0.000 C 
BRANCH  11  12
ATOM     12  C   UNL     1      -9.179 -10.031  15.832  1.00  0.00     0.000 C 
BRANCH  12  13
ATOM     13  C   UNL     1      -8.560  -8.650  16.091  1.00  0.00     0.000 C 
BRANCH  13  14
ATOM     14  C   UNL     1      -8.896  -8.157  17.507  1.00  0.00     0.000 C 
BRANCH  14  15
ATOM     15  C   UNL     1      -9.662  -9.204  18.332  1.00  0.00     0.000 C 
BRANCH  15  16
ATOM     16  C   UNL     1      -9.154  -9.300  19.782  1.00  0.00     0.006 C 
BRANCH  16  17
ATOM     17  C   UNL     1      -7.624  -9.220  19.865  1.00  0.00     0.053 C 
BRANCH  17  18
ATOM     18  C   UNL     1      -7.177  -8.113  20.771  1.00  0.00     0.041 C 
ATOM     19  O   UNL     1      -7.987  -7.216  21.125  1.00  0.00    -0.550 OA
ATOM     20  O   UNL     1      -5.857  -8.055  21.199  1.00  0.00    -0.550 OA
ENDBRANCH  17  18
ENDBRANCH  16  17
ENDBRANCH  15  16
ENDBRANCH  14  15
ENDBRANCH  13  14
ENDBRANCH  12  13
ENDBRANCH  11  12
ENDBRANCH   1  11
TORSDOF 15
ENDMDL
