MODEL 1
REMARK VINA RESULT:    -3.695      0.000      0.000
REMARK INTER + INTRA:          -6.240
REMARK INTER:                  -5.639
REMARK INTRA:                  -0.601
REMARK UNBOUND:                -0.601
REMARK SMILES C[C@@H]1O[C@@H](Oc2cc(O)c3c(=O)c(O[C@H]4O[C@@H](C)[C@@H](O)[C@@H](O)[C@H]4O)c(-c4ccc(O)cc4)oc3c2)[C@H](O)[C@@H](O)[C@H]1O
REMARK SMILES IDX 6 1 7 2 8 3 10 4 34 5 35 6 33 7 25 8 13 9 11 10 12 11 5 12
REMARK SMILES IDX 4 13 1 14 2 15 40 16 3 17 38 18 36 19 41 20 39 22 37 24 9 26
REMARK SMILES IDX 26 28 27 29 32 30 28 31 31 32 29 33 30 34 14 36 15 37 23 38
REMARK SMILES IDX 16 39 21 40 17 41 19 42 18 43 24 44 22 46 20 48
REMARK H PARENT 41 21 39 23 37 25 9 27 30 35 24 45 22 47 20 49
REMARK Flexibility Score: inf
ROOT
ATOM      1  C   UNL     1      18.791  17.112   0.781  1.00  0.00     0.130 A 
ATOM      2  C   UNL     1      19.921  16.682   0.063  1.00  0.00     0.093 A 
ATOM      3  C   UNL     1      21.174  16.588   0.687  1.00  0.00     0.134 A 
ATOM      4  C   UNL     1      21.307  16.924   2.056  1.00  0.00     0.111 A 
ATOM      5  C   UNL     1      20.168  17.364   2.766  1.00  0.00     0.146 A 
ATOM      6  C   UNL     1      18.930  17.454   2.127  1.00  0.00     0.094 A 
ATOM      7  O   UNL     1      20.258  17.699   4.046  1.00  0.00    -0.452 OA
ATOM      8  C   UNL     1      21.392  17.646   4.735  1.00  0.00     0.180 A 
ATOM      9  C   UNL     1      22.575  17.189   4.125  1.00  0.00     0.214 A 
ATOM     10  C   UNL     1      22.531  16.848   2.756  1.00  0.00     0.239 A 
ATOM     11  O   UNL     1      23.581  16.493   2.156  1.00  0.00    -0.285 OA
ENDROOT
BRANCH   1  12
ATOM     12  O   UNL     1      17.517  17.222   0.204  1.00  0.00    -0.462 OA
BRANCH  12  13
ATOM     13  C   UNL     1      16.538  16.179   0.111  1.00  0.00     0.339 C 
ATOM     14  C   UNL     1      15.023  17.140  -3.101  1.00  0.00     0.042 C 
ATOM     15  C   UNL     1      15.400  17.280  -1.625  1.00  0.00     0.151 C 
ATOM     16  C   UNL     1      14.147  17.549  -0.761  1.00  0.00     0.174 C 
ATOM     17  O   UNL     1      16.047  16.084  -1.217  1.00  0.00    -0.335 OA
ATOM     18  C   UNL     1      14.539  17.621   0.726  1.00  0.00     0.180 C 
ATOM     19  C   UNL     1      15.379  16.389   1.115  1.00  0.00     0.214 C 
BRANCH  16  20
ATOM     20  O   UNL     1      13.542  18.754  -1.158  1.00  0.00    -0.388 OA
ATOM     21  H   UNL     1      13.133  19.149  -0.344  1.00  0.00     0.211 HD
ENDBRANCH  16  20
BRANCH  18  22
ATOM     22  O   UNL     1      15.261  18.803   0.972  1.00  0.00    -0.387 OA
ATOM     23  H   UNL     1      14.980  19.462   0.285  1.00  0.00     0.211 HD
ENDBRANCH  18  22
BRANCH  19  24
ATOM     24  O   UNL     1      14.550  15.255   1.132  1.00  0.00    -0.384 OA
ATOM     25  H   UNL     1      13.650  15.558   1.420  1.00  0.00     0.211 HD
ENDBRANCH  19  24
ENDBRANCH  12  13
ENDBRANCH   1  12
BRANCH   3  26
ATOM     26  O   UNL     1      22.275  16.162  -0.057  1.00  0.00    -0.507 OA
ATOM     27  H   UNL     1      23.185  16.023   0.368  1.00  0.00     0.293 HD
ENDBRANCH   3  26
BRANCH   8  28
ATOM     28  C   UNL     1      21.361  18.040   6.156  1.00  0.00     0.021 A 
ATOM     29  C   UNL     1      22.417  18.768   6.724  1.00  0.00     0.016 A 
ATOM     30  C   UNL     1      20.248  17.714   6.946  1.00  0.00     0.016 A 
ATOM     31  C   UNL     1      22.385  19.125   8.075  1.00  0.00     0.047 A 
ATOM     32  C   UNL     1      20.213  18.074   8.297  1.00  0.00     0.047 A 
ATOM     33  C   UNL     1      21.284  18.773   8.866  1.00  0.00     0.115 A 
BRANCH  33  34
ATOM     34  O   UNL     1      21.242  19.115  10.215  1.00  0.00    -0.508 OA
ATOM     35  H   UNL     1      21.978  18.839  10.854  1.00  0.00     0.293 HD
ENDBRANCH  33  34
ENDBRANCH   8  28
BRANCH   9  36
ATOM     36  O   UNL     1      23.737  17.073   4.915  1.00  0.00    -0.454 OA
BRANCH  36  37
ATOM     37  C   UNL     1      24.839  16.198   4.656  1.00  0.00     0.339 C 
ATOM     38  C   UNL     1      25.216  15.376   5.906  1.00  0.00     0.214 C 
ATOM     39  O   UNL     1      25.952  16.888   4.102  1.00  0.00    -0.335 OA
ATOM     40  C   UNL     1      25.948  16.216   6.968  1.00  0.00     0.180 C 
ATOM     41  C   UNL     1      26.591  17.782   5.003  1.00  0.00     0.151 C 
ATOM     42  C   UNL     1      27.029  17.113   6.332  1.00  0.00     0.174 C 
ATOM     43  C   UNL     1      25.840  19.119   5.140  1.00  0.00     0.042 C 
BRANCH  38  44
ATOM     44  O   UNL     1      24.071  14.787   6.471  1.00  0.00    -0.384 OA
ATOM     45  H   UNL     1      23.396  15.506   6.575  1.00  0.00     0.211 HD
ENDBRANCH  38  44
BRANCH  40  46
ATOM     46  O   UNL     1      25.070  16.937   7.798  1.00  0.00    -0.387 OA
ATOM     47  H   UNL     1      24.540  16.292   8.323  1.00  0.00     0.211 HD
ENDBRANCH  40  46
BRANCH  42  48
ATOM     48  O   UNL     1      27.468  18.085   7.248  1.00  0.00    -0.388 OA
ATOM     49  H   UNL     1      26.896  18.888   7.115  1.00  0.00     0.211 HD
ENDBRANCH  42  48
ENDBRANCH  36  37
ENDBRANCH   9  36
TORSDOF 13
ENDMDL
MODEL 2
REMARK VINA RESULT:    -2.833     14.074     17.084
REMARK INTER + INTRA:          -4.925
REMARK INTER:                  -3.829
REMARK INTRA:                  -1.095
REMARK UNBOUND:                -0.601
REMARK SMILES C[C@@H]1O[C@@H](Oc2cc(O)c3c(=O)c(O[C@H]4O[C@@H](C)[C@@H](O)[C@@H](O)[C@H]4O)c(-c4ccc(O)cc4)oc3c2)[C@H](O)[C@@H](O)[C@H]1O
REMARK SMILES IDX 6 1 7 2 8 3 10 4 34 5 35 6 33 7 25 8 13 9 11 10 12 11 5 12
REMARK SMILES IDX 4 13 1 14 2 15 40 16 3 17 38 18 36 19 41 20 39 22 37 24 9 26
REMARK SMILES IDX 26 28 27 29 32 30 28 31 31 32 29 33 30 34 14 36 15 37 23 38
REMARK SMILES IDX 16 39 21 40 17 41 19 42 18 43 24 44 22 46 20 48
REMARK H PARENT 41 21 39 23 37 25 9 27 30 35 24 45 22 47 20 49
REMARK Flexibility Score: inf
ROOT
ATOM      1  C   UNL     1       8.848   8.528  -2.143  1.00  0.00     0.130 A 
ATOM      2  C   UNL     1       8.258   8.553  -0.867  1.00  0.00     0.093 A 
ATOM      3  C   UNL     1       8.481   7.512   0.046  1.00  0.00     0.134 A 
ATOM      4  C   UNL     1       9.311   6.423  -0.314  1.00  0.00     0.111 A 
ATOM      5  C   UNL     1       9.891   6.402  -1.602  1.00  0.00     0.146 A 
ATOM      6  C   UNL     1       9.655   7.446  -2.499  1.00  0.00     0.094 A 
ATOM      7  O   UNL     1      10.662   5.392  -1.978  1.00  0.00    -0.452 OA
ATOM      8  C   UNL     1      10.941   4.356  -1.194  1.00  0.00     0.180 A 
ATOM      9  C   UNL     1      10.437   4.301   0.119  1.00  0.00     0.214 A 
ATOM     10  C   UNL     1       9.587   5.343   0.551  1.00  0.00     0.239 A 
ATOM     11  O   UNL     1       9.065   5.301   1.697  1.00  0.00    -0.285 OA
ENDROOT
BRANCH   1  12
ATOM     12  O   UNL     1       8.659   9.544  -3.093  1.00  0.00    -0.462 OA
BRANCH  12  13
ATOM     13  C   UNL     1       8.006  10.800  -2.868  1.00  0.00     0.339 C 
ATOM     14  C   UNL     1       8.906  12.456  -6.026  1.00  0.00     0.042 C 
ATOM     15  C   UNL     1       9.140  11.812  -4.659  1.00  0.00     0.151 C 
ATOM     16  C   UNL     1       9.947  12.756  -3.739  1.00  0.00     0.174 C 
ATOM     17  O   UNL     1       7.875  11.511  -4.088  1.00  0.00    -0.335 OA
ATOM     18  C   UNL     1      10.115  12.117  -2.348  1.00  0.00     0.180 C 
ATOM     19  C   UNL     1       8.749  11.650  -1.808  1.00  0.00     0.214 C 
BRANCH  16  20
ATOM     20  O   UNL     1      11.208  13.012  -4.305  1.00  0.00    -0.388 OA
ATOM     21  H   UNL     1      11.107  13.822  -4.871  1.00  0.00     0.211 HD
ENDBRANCH  16  20
BRANCH  18  22
ATOM     22  O   UNL     1      11.007  11.033  -2.426  1.00  0.00    -0.387 OA
ATOM     23  H   UNL     1      10.468  10.206  -2.320  1.00  0.00     0.211 HD
ENDBRANCH  18  22
BRANCH  19  24
ATOM     24  O   UNL     1       7.978  12.776  -1.473  1.00  0.00    -0.384 OA
ATOM     25  H   UNL     1       8.163  13.468  -2.161  1.00  0.00     0.211 HD
ENDBRANCH  19  24
ENDBRANCH  12  13
ENDBRANCH   1  12
BRANCH   3  26
ATOM     26  O   UNL     1       7.875   7.568   1.303  1.00  0.00    -0.507 OA
ATOM     27  H   UNL     1       7.428   8.412   1.642  1.00  0.00     0.293 HD
ENDBRANCH   3  26
BRANCH   8  28
ATOM     28  C   UNL     1      11.819   3.298  -1.726  1.00  0.00     0.021 A 
ATOM     29  C   UNL     1      11.352   1.983  -1.874  1.00  0.00     0.016 A 
ATOM     30  C   UNL     1      13.128   3.611  -2.123  1.00  0.00     0.016 A 
ATOM     31  C   UNL     1      12.196   0.984  -2.368  1.00  0.00     0.047 A 
ATOM     32  C   UNL     1      13.971   2.612  -2.620  1.00  0.00     0.047 A 
ATOM     33  C   UNL     1      13.511   1.296  -2.736  1.00  0.00     0.115 A 
BRANCH  33  34
ATOM     34  O   UNL     1      14.364   0.309  -3.221  1.00  0.00    -0.508 OA
ATOM     35  H   UNL     1      15.288   0.168  -2.829  1.00  0.00     0.293 HD
ENDBRANCH  33  34
ENDBRANCH   8  28
BRANCH   9  36
ATOM     36  O   UNL     1      10.824   3.225   0.943  1.00  0.00    -0.454 OA
BRANCH  36  37
ATOM     37  C   UNL     1      11.212   3.322   2.316  1.00  0.00     0.339 C 
ATOM     38  C   UNL     1      12.744   3.420   2.466  1.00  0.00     0.214 C 
ATOM     39  O   UNL     1      10.654   2.279   3.105  1.00  0.00    -0.335 OA
ATOM     40  C   UNL     1      13.451   2.076   2.213  1.00  0.00     0.180 C 
ATOM     41  C   UNL     1      11.177   0.989   2.822  1.00  0.00     0.151 C 
ATOM     42  C   UNL     1      12.724   0.913   2.917  1.00  0.00     0.174 C 
ATOM     43  C   UNL     1      10.551   0.361   1.564  1.00  0.00     0.042 C 
BRANCH  38  44
ATOM     44  O   UNL     1      13.261   4.400   1.601  1.00  0.00    -0.384 OA
ATOM     45  H   UNL     1      13.481   5.191   2.158  1.00  0.00     0.211 HD
ENDBRANCH  38  44
BRANCH  40  46
ATOM     46  O   UNL     1      13.675   1.823   0.848  1.00  0.00    -0.387 OA
ATOM     47  H   UNL     1      13.782   2.688   0.385  1.00  0.00     0.211 HD
ENDBRANCH  40  46
BRANCH  42  48
ATOM     48  O   UNL     1      13.184  -0.324   2.435  1.00  0.00    -0.388 OA
ATOM     49  H   UNL     1      14.170  -0.244   2.330  1.00  0.00     0.211 HD
ENDBRANCH  42  48
ENDBRANCH  36  37
ENDBRANCH   9  36
TORSDOF 13
ENDMDL
