MODEL 1
REMARK VINA RESULT:    -3.091      0.000      0.000
REMARK INTER + INTRA:         -11.973
REMARK INTER:                  -8.151
REMARK INTRA:                  -3.822
REMARK UNBOUND:                -3.822
REMARK SMILES CCCCCCCCCCCCCCCCCCCCCCCCCCCCCC(=O)[O-]
REMARK SMILES IDX 16 1 17 2 18 3 19 4 20 5 21 6 22 7 23 8 24 9 25 10 26 11
REMARK SMILES IDX 27 12 28 13 29 14 30 15 31 16 32 17 15 18 14 19 13 20 12 21
REMARK SMILES IDX 11 22 10 23 9 24 8 25 7 26 6 27 5 28 4 29 3 30 2 31 1 32
REMARK H PARENT
REMARK Flexibility Score: inf
ROOT
ATOM      1  C   UNL     1      -4.061  -0.888  -7.409  1.00  0.00     0.000 C 
ENDROOT
BRANCH   1   2
ATOM      2  C   UNL     1      -2.699  -1.542  -7.697  1.00  0.00     0.000 C 
BRANCH   2   3
ATOM      3  C   UNL     1      -1.595  -0.536  -8.092  1.00  0.00     0.000 C 
BRANCH   3   4
ATOM      4  C   UNL     1      -2.154   0.874  -8.355  1.00  0.00     0.000 C 
BRANCH   4   5
ATOM      5  C   UNL     1      -2.407   1.135  -9.849  1.00  0.00     0.000 C 
BRANCH   5   6
ATOM      6  C   UNL     1      -3.147   2.462 -10.095  1.00  0.00     0.000 C 
BRANCH   6   7
ATOM      7  C   UNL     1      -4.545   2.491  -9.457  1.00  0.00     0.000 C 
BRANCH   7   8
ATOM      8  C   UNL     1      -5.424   3.633  -9.991  1.00  0.00     0.000 C 
BRANCH   8   9
ATOM      9  C   UNL     1      -5.595   4.731  -8.929  1.00  0.00     0.000 C 
BRANCH   9  10
ATOM     10  C   UNL     1      -6.966   5.420  -9.002  1.00  0.00     0.000 C 
BRANCH  10  11
ATOM     11  C   UNL     1      -6.932   6.871  -8.498  1.00  0.00     0.000 C 
BRANCH  11  12
ATOM     12  C   UNL     1      -6.098   6.984  -7.213  1.00  0.00     0.000 C 
BRANCH  12  13
ATOM     13  C   UNL     1      -4.965   8.020  -7.324  1.00  0.00     0.006 C 
BRANCH  13  14
ATOM     14  C   UNL     1      -3.597   7.515  -6.831  1.00  0.00     0.053 C 
BRANCH  14  15
ATOM     15  C   UNL     1      -2.574   7.511  -7.926  1.00  0.00     0.041 C 
ATOM     16  O   UNL     1      -1.477   8.111  -7.770  1.00  0.00    -0.550 OA
ATOM     17  O   UNL     1      -2.816   6.814  -9.104  1.00  0.00    -0.550 OA
ENDBRANCH  14  15
ENDBRANCH  13  14
ENDBRANCH  12  13
ENDBRANCH  11  12
ENDBRANCH  10  11
ENDBRANCH   9  10
ENDBRANCH   8   9
ENDBRANCH   7   8
ENDBRANCH   6   7
ENDBRANCH   5   6
ENDBRANCH   4   5
ENDBRANCH   3   4
ENDBRANCH   2   3
ENDBRANCH   1   2
BRANCH   1  18
ATOM     18  C   UNL     1      -4.627  -1.270  -6.031  1.00  0.00     0.000 C 
BRANCH  18  19
ATOM     19  C   UNL     1      -4.527  -0.123  -5.012  1.00  0.00     0.000 C 
BRANCH  19  20
ATOM     20  C   UNL     1      -5.900   0.331  -4.494  1.00  0.00     0.000 C 
BRANCH  20  21
ATOM     21  C   UNL     1      -7.029  -0.345  -5.282  1.00  0.00     0.000 C 
BRANCH  21  22
ATOM     22  C   UNL     1      -7.911   0.691  -5.989  1.00  0.00     0.000 C 
BRANCH  22  23
ATOM     23  C   UNL     1      -7.161   1.343  -7.157  1.00  0.00     0.000 C 
BRANCH  23  24
ATOM     24  C   UNL     1      -8.081   1.522  -8.375  1.00  0.00    -0.000 C 
BRANCH  24  25
ATOM     25  C   UNL     1      -7.995   0.347  -9.361  1.00  0.00    -0.000 C 
BRANCH  25  26
ATOM     26  C   UNL     1      -6.616  -0.332  -9.357  1.00  0.00    -0.000 C 
BRANCH  26  27
ATOM     27  C   UNL     1      -6.737  -1.824  -9.698  1.00  0.00    -0.000 C 
BRANCH  27  28
ATOM     28  C   UNL     1      -7.132  -2.639  -8.458  1.00  0.00    -0.000 C 
BRANCH  28  29
ATOM     29  C   UNL     1      -7.440  -4.112  -8.780  1.00  0.00    -0.000 C 
BRANCH  29  30
ATOM     30  C   UNL     1      -6.999  -5.122  -7.705  1.00  0.00    -0.000 C 
BRANCH  30  31
ATOM     31  C   UNL     1      -6.329  -6.372  -8.298  1.00  0.00    -0.003 C 
ATOM     32  C   UNL     1      -5.216  -6.883  -7.388  1.00  0.00     0.004 C 
ENDBRANCH  30  31
ENDBRANCH  29  30
ENDBRANCH  28  29
ENDBRANCH  27  28
ENDBRANCH  26  27
ENDBRANCH  25  26
ENDBRANCH  24  25
ENDBRANCH  23  24
ENDBRANCH  22  23
ENDBRANCH  21  22
ENDBRANCH  20  21
ENDBRANCH  19  20
ENDBRANCH  18  19
ENDBRANCH   1  18
TORSDOF 28
ENDMDL
MODEL 2
REMARK VINA RESULT:    -2.970      5.369     11.370
REMARK INTER + INTRA:         -11.654
REMARK INTER:                  -9.361
REMARK INTRA:                  -2.293
REMARK UNBOUND:                -3.822
REMARK SMILES CCCCCCCCCCCCCCCCCCCCCCCCCCCCCC(=O)[O-]
REMARK SMILES IDX 16 1 17 2 18 3 19 4 20 5 21 6 22 7 23 8 24 9 25 10 26 11
REMARK SMILES IDX 27 12 28 13 29 14 30 15 31 16 32 17 15 18 14 19 13 20 12 21
REMARK SMILES IDX 11 22 10 23 9 24 8 25 7 26 6 27 5 28 4 29 3 30 2 31 1 32
REMARK H PARENT
REMARK Flexibility Score: inf
ROOT
ATOM      1  C   UNL     1      -3.624  -1.932  -7.492  1.00  0.00     0.000 C 
ENDROOT
BRANCH   1   2
ATOM      2  C   UNL     1      -4.517  -3.063  -6.956  1.00  0.00     0.000 C 
BRANCH   2   3
ATOM      3  C   UNL     1      -5.863  -3.202  -7.699  1.00  0.00     0.000 C 
BRANCH   3   4
ATOM      4  C   UNL     1      -6.403  -4.643  -7.670  1.00  0.00     0.000 C 
BRANCH   4   5
ATOM      5  C   UNL     1      -5.295  -5.678  -7.416  1.00  0.00     0.000 C 
BRANCH   5   6
ATOM      6  C   UNL     1      -5.815  -7.125  -7.493  1.00  0.00     0.000 C 
BRANCH   6   7
ATOM      7  C   UNL     1      -4.773  -8.102  -8.059  1.00  0.00     0.000 C 
BRANCH   7   8
ATOM      8  C   UNL     1      -5.093  -8.555  -9.492  1.00  0.00     0.000 C 
BRANCH   8   9
ATOM      9  C   UNL     1      -4.367  -9.869  -9.824  1.00  0.00     0.000 C 
BRANCH   9  10
ATOM     10  C   UNL     1      -2.847  -9.691  -9.961  1.00  0.00     0.000 C 
BRANCH  10  11
ATOM     11  C   UNL     1      -2.053 -10.569  -8.981  1.00  0.00     0.000 C 
BRANCH  11  12
ATOM     12  C   UNL     1      -0.567 -10.184  -8.984  1.00  0.00     0.000 C 
BRANCH  12  13
ATOM     13  C   UNL     1       0.289 -11.091  -8.080  1.00  0.00     0.006 C 
BRANCH  13  14
ATOM     14  C   UNL     1       1.146 -10.331  -7.052  1.00  0.00     0.053 C 
BRANCH  14  15
ATOM     15  C   UNL     1       2.435  -9.849  -7.644  1.00  0.00     0.041 C 
ATOM     16  O   UNL     1       2.447  -8.844  -8.403  1.00  0.00    -0.550 OA
ATOM     17  O   UNL     1       3.629 -10.488  -7.329  1.00  0.00    -0.550 OA
ENDBRANCH  14  15
ENDBRANCH  13  14
ENDBRANCH  12  13
ENDBRANCH  11  12
ENDBRANCH  10  11
ENDBRANCH   9  10
ENDBRANCH   8   9
ENDBRANCH   7   8
ENDBRANCH   6   7
ENDBRANCH   5   6
ENDBRANCH   4   5
ENDBRANCH   3   4
ENDBRANCH   2   3
ENDBRANCH   1   2
BRANCH   1  18
ATOM     18  C   UNL     1      -3.830  -0.603  -6.745  1.00  0.00     0.000 C 
BRANCH  18  19
ATOM     19  C   UNL     1      -4.636  -0.774  -5.447  1.00  0.00     0.000 C 
BRANCH  19  20
ATOM     20  C   UNL     1      -5.721   0.300  -5.278  1.00  0.00     0.000 C 
BRANCH  20  21
ATOM     21  C   UNL     1      -7.108  -0.274  -5.591  1.00  0.00     0.000 C 
BRANCH  21  22
ATOM     22  C   UNL     1      -7.649   0.273  -6.917  1.00  0.00     0.000 C 
BRANCH  22  23
ATOM     23  C   UNL     1      -6.694   1.317  -7.510  1.00  0.00     0.000 C 
BRANCH  23  24
ATOM     24  C   UNL     1      -6.290   0.945  -8.945  1.00  0.00    -0.000 C 
BRANCH  24  25
ATOM     25  C   UNL     1      -5.556   2.085  -9.669  1.00  0.00    -0.000 C 
BRANCH  25  26
ATOM     26  C   UNL     1      -4.051   2.116  -9.355  1.00  0.00    -0.000 C 
BRANCH  26  27
ATOM     27  C   UNL     1      -3.406   3.404  -9.883  1.00  0.00    -0.000 C 
BRANCH  27  28
ATOM     28  C   UNL     1      -4.148   4.643  -9.361  1.00  0.00    -0.000 C 
BRANCH  28  29
ATOM     29  C   UNL     1      -3.506   5.965  -9.820  1.00  0.00    -0.000 C 
BRANCH  29  30
ATOM     30  C   UNL     1      -3.458   7.073  -8.752  1.00  0.00    -0.000 C 
BRANCH  30  31
ATOM     31  C   UNL     1      -2.878   6.588  -7.414  1.00  0.00    -0.003 C 
ATOM     32  C   UNL     1      -3.507   7.333  -6.241  1.00  0.00     0.004 C 
ENDBRANCH  30  31
ENDBRANCH  29  30
ENDBRANCH  28  29
ENDBRANCH  27  28
ENDBRANCH  26  27
ENDBRANCH  25  26
ENDBRANCH  24  25
ENDBRANCH  23  24
ENDBRANCH  22  23
ENDBRANCH  21  22
ENDBRANCH  20  21
ENDBRANCH  19  20
ENDBRANCH  18  19
ENDBRANCH   1  18
TORSDOF 28
ENDMDL
MODEL 3
REMARK VINA RESULT:    -2.797      8.857     13.899
REMARK INTER + INTRA:         -11.197
REMARK INTER:                  -9.647
REMARK INTRA:                  -1.550
REMARK UNBOUND:                -3.822
REMARK SMILES CCCCCCCCCCCCCCCCCCCCCCCCCCCCCC(=O)[O-]
REMARK SMILES IDX 16 1 17 2 18 3 19 4 20 5 21 6 22 7 23 8 24 9 25 10 26 11
REMARK SMILES IDX 27 12 28 13 29 14 30 15 31 16 32 17 15 18 14 19 13 20 12 21
REMARK SMILES IDX 11 22 10 23 9 24 8 25 7 26 6 27 5 28 4 29 3 30 2 31 1 32
REMARK H PARENT
REMARK Flexibility Score: inf
ROOT
ATOM      1  C   UNL     1       1.141  -9.613  -8.540  1.00  0.00     0.000 C 
ENDROOT
BRANCH   1   2
ATOM      2  C   UNL     1       0.080 -10.640  -8.112  1.00  0.00     0.000 C 
BRANCH   2   3
ATOM      3  C   UNL     1      -0.642 -11.321  -9.295  1.00  0.00     0.000 C 
BRANCH   3   4
ATOM      4  C   UNL     1      -2.172 -11.162  -9.218  1.00  0.00     0.000 C 
BRANCH   4   5
ATOM      5  C   UNL     1      -2.653  -9.833  -9.822  1.00  0.00     0.000 C 
BRANCH   5   6
ATOM      6  C   UNL     1      -4.185  -9.770  -9.956  1.00  0.00     0.000 C 
BRANCH   6   7
ATOM      7  C   UNL     1      -4.784  -8.490  -9.353  1.00  0.00     0.000 C 
BRANCH   7   8
ATOM      8  C   UNL     1      -5.734  -8.768  -8.178  1.00  0.00     0.000 C 
BRANCH   8   9
ATOM      9  C   UNL     1      -5.913  -7.511  -7.312  1.00  0.00     0.000 C 
BRANCH   9  10
ATOM     10  C   UNL     1      -5.551  -6.218  -8.058  1.00  0.00     0.000 C 
BRANCH  10  11
ATOM     11  C   UNL     1      -4.823  -5.199  -7.167  1.00  0.00     0.000 C 
BRANCH  11  12
ATOM     12  C   UNL     1      -5.312  -3.773  -7.455  1.00  0.00     0.000 C 
BRANCH  12  13
ATOM     13  C   UNL     1      -4.410  -2.692  -6.832  1.00  0.00     0.006 C 
BRANCH  13  14
ATOM     14  C   UNL     1      -4.404  -1.356  -7.596  1.00  0.00     0.053 C 
BRANCH  14  15
ATOM     15  C   UNL     1      -3.014  -0.842  -7.815  1.00  0.00     0.041 C 
ATOM     16  O   UNL     1      -2.734   0.358  -7.552  1.00  0.00    -0.550 OA
ATOM     17  O   UNL     1      -2.019  -1.697  -8.275  1.00  0.00    -0.550 OA
ENDBRANCH  14  15
ENDBRANCH  13  14
ENDBRANCH  12  13
ENDBRANCH  11  12
ENDBRANCH  10  11
ENDBRANCH   9  10
ENDBRANCH   8   9
ENDBRANCH   7   8
ENDBRANCH   6   7
ENDBRANCH   5   6
ENDBRANCH   4   5
ENDBRANCH   3   4
ENDBRANCH   2   3
ENDBRANCH   1   2
BRANCH   1  18
ATOM     18  C   UNL     1       2.128  -9.267  -7.411  1.00  0.00     0.000 C 
BRANCH  18  19
ATOM     19  C   UNL     1       1.682  -9.818  -6.047  1.00  0.00     0.000 C 
BRANCH  19  20
ATOM     20  C   UNL     1       2.826 -10.498  -5.280  1.00  0.00     0.000 C 
BRANCH  20  21
ATOM     21  C   UNL     1       3.503 -11.566  -6.148  1.00  0.00     0.000 C 
BRANCH  21  22
ATOM     22  C   UNL     1       5.030 -11.441  -6.092  1.00  0.00     0.000 C 
BRANCH  22  23
ATOM     23  C   UNL     1       5.551 -10.570  -7.242  1.00  0.00     0.000 C 
BRANCH  23  24
ATOM     24  C   UNL     1       7.024 -10.190  -7.025  1.00  0.00    -0.000 C 
BRANCH  24  25
ATOM     25  C   UNL     1       7.949 -10.755  -8.115  1.00  0.00    -0.000 C 
BRANCH  25  26
ATOM     26  C   UNL     1       9.212  -9.904  -8.322  1.00  0.00    -0.000 C 
BRANCH  26  27
ATOM     27  C   UNL     1       9.199  -8.670  -7.410  1.00  0.00    -0.000 C 
BRANCH  27  28
ATOM     28  C   UNL     1       9.733  -7.435  -8.151  1.00  0.00    -0.000 C 
BRANCH  28  29
ATOM     29  C   UNL     1       9.922  -6.216  -7.230  1.00  0.00    -0.000 C 
BRANCH  29  30
ATOM     30  C   UNL     1      11.185  -5.380  -7.504  1.00  0.00    -0.000 C 
BRANCH  30  31
ATOM     31  C   UNL     1      11.036  -3.913  -7.075  1.00  0.00    -0.003 C 
ATOM     32  C   UNL     1      10.754  -3.803  -5.580  1.00  0.00     0.004 C 
ENDBRANCH  30  31
ENDBRANCH  29  30
ENDBRANCH  28  29
ENDBRANCH  27  28
ENDBRANCH  26  27
ENDBRANCH  25  26
ENDBRANCH  24  25
ENDBRANCH  23  24
ENDBRANCH  22  23
ENDBRANCH  21  22
ENDBRANCH  20  21
ENDBRANCH  19  20
ENDBRANCH  18  19
ENDBRANCH   1  18
TORSDOF 28
ENDMDL
MODEL 4
REMARK VINA RESULT:    -2.740     14.622     18.638
REMARK INTER + INTRA:         -11.046
REMARK INTER:                  -7.891
REMARK INTRA:                  -3.155
REMARK UNBOUND:                -3.822
REMARK SMILES CCCCCCCCCCCCCCCCCCCCCCCCCCCCCC(=O)[O-]
REMARK SMILES IDX 16 1 17 2 18 3 19 4 20 5 21 6 22 7 23 8 24 9 25 10 26 11
REMARK SMILES IDX 27 12 28 13 29 14 30 15 31 16 32 17 15 18 14 19 13 20 12 21
REMARK SMILES IDX 11 22 10 23 9 24 8 25 7 26 6 27 5 28 4 29 3 30 2 31 1 32
REMARK H PARENT
REMARK Flexibility Score: inf
ROOT
ATOM      1  C   UNL     1      -2.568   0.825   9.422  1.00  0.00     0.000 C 
ENDROOT
BRANCH   1   2
ATOM      2  C   UNL     1      -3.481  -0.346   9.023  1.00  0.00     0.000 C 
BRANCH   2   3
ATOM      3  C   UNL     1      -3.607  -0.547   7.497  1.00  0.00     0.000 C 
BRANCH   3   4
ATOM      4  C   UNL     1      -3.901  -2.010   7.121  1.00  0.00     0.000 C 
BRANCH   4   5
ATOM      5  C   UNL     1      -5.382  -2.377   7.308  1.00  0.00     0.000 C 
BRANCH   5   6
ATOM      6  C   UNL     1      -5.646  -3.088   8.647  1.00  0.00     0.000 C 
BRANCH   6   7
ATOM      7  C   UNL     1      -7.141  -3.328   8.909  1.00  0.00     0.000 C 
BRANCH   7   8
ATOM      8  C   UNL     1      -7.397  -4.275  10.092  1.00  0.00     0.000 C 
BRANCH   8   9
ATOM      9  C   UNL     1      -8.056  -5.579   9.614  1.00  0.00     0.000 C 
BRANCH   9  10
ATOM     10  C   UNL     1      -7.167  -6.374   8.645  1.00  0.00     0.000 C 
BRANCH  10  11
ATOM     11  C   UNL     1      -7.755  -7.748   8.287  1.00  0.00     0.000 C 
BRANCH  11  12
ATOM     12  C   UNL     1      -8.080  -8.550   9.555  1.00  0.00     0.000 C 
BRANCH  12  13
ATOM     13  C   UNL     1      -7.166  -9.774   9.741  1.00  0.00     0.006 C 
BRANCH  13  14
ATOM     14  C   UNL     1      -6.478 -10.251   8.450  1.00  0.00     0.053 C 
BRANCH  14  15
ATOM     15  C   UNL     1      -5.087 -10.746   8.706  1.00  0.00     0.041 C 
ATOM     16  O   UNL     1      -4.886 -11.959   8.978  1.00  0.00    -0.550 OA
ATOM     17  O   UNL     1      -4.009  -9.874   8.609  1.00  0.00    -0.550 OA
ENDBRANCH  14  15
ENDBRANCH  13  14
ENDBRANCH  12  13
ENDBRANCH  11  12
ENDBRANCH  10  11
ENDBRANCH   9  10
ENDBRANCH   8   9
ENDBRANCH   7   8
ENDBRANCH   6   7
ENDBRANCH   5   6
ENDBRANCH   4   5
ENDBRANCH   3   4
ENDBRANCH   2   3
ENDBRANCH   1   2
BRANCH   1  18
ATOM     18  C   UNL     1      -2.405   1.866   8.301  1.00  0.00     0.000 C 
BRANCH  18  19
ATOM     19  C   UNL     1      -2.829   3.277   8.738  1.00  0.00     0.000 C 
BRANCH  19  20
ATOM     20  C   UNL     1      -3.489   3.295  10.124  1.00  0.00     0.000 C 
BRANCH  20  21
ATOM     21  C   UNL     1      -4.729   4.197  10.125  1.00  0.00     0.000 C 
BRANCH  21  22
ATOM     22  C   UNL     1      -5.868   3.577   9.307  1.00  0.00     0.000 C 
BRANCH  22  23
ATOM     23  C   UNL     1      -6.617   2.518  10.125  1.00  0.00     0.000 C 
BRANCH  23  24
ATOM     24  C   UNL     1      -7.928   2.110   9.434  1.00  0.00    -0.000 C 
BRANCH  24  25
ATOM     25  C   UNL     1      -7.809   2.089   7.902  1.00  0.00    -0.000 C 
BRANCH  25  26
ATOM     26  C   UNL     1      -6.920   0.944   7.391  1.00  0.00    -0.000 C 
BRANCH  26  27
ATOM     27  C   UNL     1      -6.371   1.257   5.992  1.00  0.00    -0.000 C 
BRANCH  27  28
ATOM     28  C   UNL     1      -7.514   1.458   4.986  1.00  0.00    -0.000 C 
BRANCH  28  29
ATOM     29  C   UNL     1      -7.838   0.186   4.182  1.00  0.00    -0.000 C 
BRANCH  29  30
ATOM     30  C   UNL     1      -6.896  -1.005   4.436  1.00  0.00    -0.000 C 
BRANCH  30  31
ATOM     31  C   UNL     1      -7.607  -2.363   4.333  1.00  0.00    -0.003 C 
ATOM     32  C   UNL     1      -6.600  -3.501   4.198  1.00  0.00     0.004 C 
ENDBRANCH  30  31
ENDBRANCH  29  30
ENDBRANCH  28  29
ENDBRANCH  27  28
ENDBRANCH  26  27
ENDBRANCH  25  26
ENDBRANCH  24  25
ENDBRANCH  23  24
ENDBRANCH  22  23
ENDBRANCH  21  22
ENDBRANCH  20  21
ENDBRANCH  19  20
ENDBRANCH  18  19
ENDBRANCH   1  18
TORSDOF 28
ENDMDL
MODEL 5
REMARK VINA RESULT:    -2.661      8.333     13.109
REMARK INTER + INTRA:         -10.839
REMARK INTER:                  -8.741
REMARK INTRA:                  -2.098
REMARK UNBOUND:                -3.822
REMARK SMILES CCCCCCCCCCCCCCCCCCCCCCCCCCCCCC(=O)[O-]
REMARK SMILES IDX 16 1 17 2 18 3 19 4 20 5 21 6 22 7 23 8 24 9 25 10 26 11
REMARK SMILES IDX 27 12 28 13 29 14 30 15 31 16 32 17 15 18 14 19 13 20 12 21
REMARK SMILES IDX 11 22 10 23 9 24 8 25 7 26 6 27 5 28 4 29 3 30 2 31 1 32
REMARK H PARENT
REMARK Flexibility Score: inf
ROOT
ATOM      1  C   UNL     1       0.181 -11.190  -7.943  1.00  0.00     0.000 C 
ENDROOT
BRANCH   1   2
ATOM      2  C   UNL     1      -1.343 -11.023  -8.057  1.00  0.00     0.000 C 
BRANCH   2   3
ATOM      3  C   UNL     1      -1.838 -10.782  -9.500  1.00  0.00     0.000 C 
BRANCH   3   4
ATOM      4  C   UNL     1      -2.799  -9.583  -9.597  1.00  0.00     0.000 C 
BRANCH   4   5
ATOM      5  C   UNL     1      -4.195  -9.990 -10.097  1.00  0.00     0.000 C 
BRANCH   5   6
ATOM      6  C   UNL     1      -5.309  -9.101  -9.516  1.00  0.00     0.000 C 
BRANCH   6   7
ATOM      7  C   UNL     1      -4.832  -8.249  -8.329  1.00  0.00     0.000 C 
BRANCH   7   8
ATOM      8  C   UNL     1      -5.988  -7.745  -7.451  1.00  0.00     0.000 C 
BRANCH   8   9
ATOM      9  C   UNL     1      -6.671  -6.528  -8.095  1.00  0.00     0.000 C 
BRANCH   9  10
ATOM     10  C   UNL     1      -5.687  -5.388  -8.404  1.00  0.00     0.000 C 
BRANCH  10  11
ATOM     11  C   UNL     1      -5.057  -4.786  -7.139  1.00  0.00     0.000 C 
BRANCH  11  12
ATOM     12  C   UNL     1      -4.290  -3.498  -7.471  1.00  0.00     0.000 C 
BRANCH  12  13
ATOM     13  C   UNL     1      -4.764  -2.288  -6.645  1.00  0.00     0.006 C 
BRANCH  13  14
ATOM     14  C   UNL     1      -3.888  -1.033  -6.803  1.00  0.00     0.053 C 
BRANCH  14  15
ATOM     15  C   UNL     1      -3.098  -1.056  -8.076  1.00  0.00     0.041 C 
ATOM     16  O   UNL     1      -1.881  -1.381  -8.059  1.00  0.00    -0.550 OA
ATOM     17  O   UNL     1      -3.714  -0.755  -9.284  1.00  0.00    -0.550 OA
ENDBRANCH  14  15
ENDBRANCH  13  14
ENDBRANCH  12  13
ENDBRANCH  11  12
ENDBRANCH  10  11
ENDBRANCH   9  10
ENDBRANCH   8   9
ENDBRANCH   7   8
ENDBRANCH   6   7
ENDBRANCH   5   6
ENDBRANCH   4   5
ENDBRANCH   3   4
ENDBRANCH   2   3
ENDBRANCH   1   2
BRANCH   1  18
ATOM     18  C   UNL     1       0.958  -9.991  -8.514  1.00  0.00     0.000 C 
BRANCH  18  19
ATOM     19  C   UNL     1       1.792  -9.264  -7.447  1.00  0.00     0.000 C 
BRANCH  19  20
ATOM     20  C   UNL     1       1.643  -9.889  -6.052  1.00  0.00     0.000 C 
BRANCH  20  21
ATOM     21  C   UNL     1       3.008 -10.319  -5.501  1.00  0.00     0.000 C 
BRANCH  21  22
ATOM     22  C   UNL     1       3.813 -11.095  -6.550  1.00  0.00     0.000 C 
BRANCH  22  23
ATOM     23  C   UNL     1       5.319 -10.978  -6.282  1.00  0.00     0.000 C 
BRANCH  23  24
ATOM     24  C   UNL     1       6.069 -10.507  -7.538  1.00  0.00    -0.000 C 
BRANCH  24  25
ATOM     25  C   UNL     1       5.124  -9.981  -8.631  1.00  0.00    -0.000 C 
BRANCH  25  26
ATOM     26  C   UNL     1       5.761 -10.006 -10.030  1.00  0.00    -0.000 C 
BRANCH  26  27
ATOM     27  C   UNL     1       7.186  -9.437  -9.995  1.00  0.00    -0.000 C 
BRANCH  27  28
ATOM     28  C   UNL     1       7.162  -7.906  -9.866  1.00  0.00    -0.000 C 
BRANCH  28  29
ATOM     29  C   UNL     1       8.566  -7.295  -9.704  1.00  0.00    -0.000 C 
BRANCH  29  30
ATOM     30  C   UNL     1       9.264  -7.609  -8.369  1.00  0.00    -0.000 C 
BRANCH  30  31
ATOM     31  C   UNL     1      10.394  -8.640  -8.513  1.00  0.00    -0.003 C 
ATOM     32  C   UNL     1      10.881  -8.724  -9.956  1.00  0.00     0.004 C 
ENDBRANCH  30  31
ENDBRANCH  29  30
ENDBRANCH  28  29
ENDBRANCH  27  28
ENDBRANCH  26  27
ENDBRANCH  25  26
ENDBRANCH  24  25
ENDBRANCH  23  24
ENDBRANCH  22  23
ENDBRANCH  21  22
ENDBRANCH  20  21
ENDBRANCH  19  20
ENDBRANCH  18  19
ENDBRANCH   1  18
TORSDOF 28
ENDMDL
MODEL 6
REMARK VINA RESULT:    -2.609      9.591     14.350
REMARK INTER + INTRA:         -10.701
REMARK INTER:                  -8.616
REMARK INTRA:                  -2.085
REMARK UNBOUND:                -3.822
REMARK SMILES CCCCCCCCCCCCCCCCCCCCCCCCCCCCCC(=O)[O-]
REMARK SMILES IDX 16 1 17 2 18 3 19 4 20 5 21 6 22 7 23 8 24 9 25 10 26 11
REMARK SMILES IDX 27 12 28 13 29 14 30 15 31 16 32 17 15 18 14 19 13 20 12 21
REMARK SMILES IDX 11 22 10 23 9 24 8 25 7 26 6 27 5 28 4 29 3 30 2 31 1 32
REMARK H PARENT
REMARK Flexibility Score: inf
ROOT
ATOM      1  C   UNL     1       0.855 -10.239  -7.185  1.00  0.00     0.000 C 
ENDROOT
BRANCH   1   2
ATOM      2  C   UNL     1       0.320 -11.461  -7.950  1.00  0.00     0.000 C 
BRANCH   2   3
ATOM      3  C   UNL     1      -1.222 -11.534  -8.009  1.00  0.00     0.000 C 
BRANCH   3   4
ATOM      4  C   UNL     1      -1.798 -10.780  -9.221  1.00  0.00     0.000 C 
BRANCH   4   5
ATOM      5  C   UNL     1      -2.780  -9.671  -8.808  1.00  0.00     0.000 C 
BRANCH   5   6
ATOM      6  C   UNL     1      -3.953  -9.530  -9.795  1.00  0.00     0.000 C 
BRANCH   6   7
ATOM      7  C   UNL     1      -5.040  -8.566  -9.294  1.00  0.00     0.000 C 
BRANCH   7   8
ATOM      8  C   UNL     1      -4.927  -8.266  -7.791  1.00  0.00     0.000 C 
BRANCH   8   9
ATOM      9  C   UNL     1      -5.899  -7.148  -7.384  1.00  0.00     0.000 C 
BRANCH   9  10
ATOM     10  C   UNL     1      -5.582  -5.807  -8.063  1.00  0.00     0.000 C 
BRANCH  10  11
ATOM     11  C   UNL     1      -4.669  -4.909  -7.215  1.00  0.00     0.000 C 
BRANCH  11  12
ATOM     12  C   UNL     1      -5.155  -3.453  -7.242  1.00  0.00     0.000 C 
BRANCH  12  13
ATOM     13  C   UNL     1      -4.214  -2.493  -6.491  1.00  0.00     0.006 C 
BRANCH  13  14
ATOM     14  C   UNL     1      -4.211  -1.055  -7.038  1.00  0.00     0.053 C 
BRANCH  14  15
ATOM     15  C   UNL     1      -2.953  -0.743  -7.790  1.00  0.00     0.041 C 
ATOM     16  O   UNL     1      -2.101  -1.647  -8.000  1.00  0.00    -0.550 OA
ATOM     17  O   UNL     1      -2.739   0.535  -8.292  1.00  0.00    -0.550 OA
ENDBRANCH  14  15
ENDBRANCH  13  14
ENDBRANCH  12  13
ENDBRANCH  11  12
ENDBRANCH  10  11
ENDBRANCH   9  10
ENDBRANCH   8   9
ENDBRANCH   7   8
ENDBRANCH   6   7
ENDBRANCH   5   6
ENDBRANCH   4   5
ENDBRANCH   3   4
ENDBRANCH   2   3
ENDBRANCH   1   2
BRANCH   1  18
ATOM     18  C   UNL     1       1.977 -10.598  -6.195  1.00  0.00     0.000 C 
BRANCH  18  19
ATOM     19  C   UNL     1       3.145 -11.337  -6.869  1.00  0.00     0.000 C 
BRANCH  19  20
ATOM     20  C   UNL     1       3.893 -10.460  -7.884  1.00  0.00     0.000 C 
BRANCH  20  21
ATOM     21  C   UNL     1       5.189 -11.143  -8.341  1.00  0.00     0.000 C 
BRANCH  21  22
ATOM     22  C   UNL     1       6.411 -10.261  -8.058  1.00  0.00     0.000 C 
BRANCH  22  23
ATOM     23  C   UNL     1       6.955 -10.516  -6.647  1.00  0.00     0.000 C 
BRANCH  23  24
ATOM     24  C   UNL     1       8.001 -11.642  -6.652  1.00  0.00    -0.000 C 
BRANCH  24  25
ATOM     25  C   UNL     1       9.130 -11.408  -5.635  1.00  0.00    -0.000 C 
BRANCH  25  26
ATOM     26  C   UNL     1      10.513 -11.295  -6.297  1.00  0.00    -0.000 C 
BRANCH  26  27
ATOM     27  C   UNL     1      10.388 -11.249  -7.825  1.00  0.00    -0.000 C 
BRANCH  27  28
ATOM     28  C   UNL     1      10.815  -9.878  -8.370  1.00  0.00    -0.000 C 
BRANCH  28  29
ATOM     29  C   UNL     1       9.621  -8.975  -8.726  1.00  0.00    -0.000 C 
BRANCH  29  30
ATOM     30  C   UNL     1       9.315  -7.863  -7.705  1.00  0.00    -0.000 C 
BRANCH  30  31
ATOM     31  C   UNL     1       9.664  -6.461  -8.226  1.00  0.00    -0.003 C 
ATOM     32  C   UNL     1      11.155  -6.174  -8.073  1.00  0.00     0.004 C 
ENDBRANCH  30  31
ENDBRANCH  29  30
ENDBRANCH  28  29
ENDBRANCH  27  28
ENDBRANCH  26  27
ENDBRANCH  25  26
ENDBRANCH  24  25
ENDBRANCH  23  24
ENDBRANCH  22  23
ENDBRANCH  21  22
ENDBRANCH  20  21
ENDBRANCH  19  20
ENDBRANCH  18  19
ENDBRANCH   1  18
TORSDOF 28
ENDMDL
MODEL 7
REMARK VINA RESULT:    -2.603     11.180     15.434
REMARK INTER + INTRA:         -10.687
REMARK INTER:                  -8.652
REMARK INTRA:                  -2.034
REMARK UNBOUND:                -3.822
REMARK SMILES CCCCCCCCCCCCCCCCCCCCCCCCCCCCCC(=O)[O-]
REMARK SMILES IDX 16 1 17 2 18 3 19 4 20 5 21 6 22 7 23 8 24 9 25 10 26 11
REMARK SMILES IDX 27 12 28 13 29 14 30 15 31 16 32 17 15 18 14 19 13 20 12 21
REMARK SMILES IDX 11 22 10 23 9 24 8 25 7 26 6 27 5 28 4 29 3 30 2 31 1 32
REMARK H PARENT
REMARK Flexibility Score: inf
ROOT
ATOM      1  C   UNL     1      -7.741  -2.315   6.310  1.00  0.00     0.000 C 
ENDROOT
BRANCH   1   2
ATOM      2  C   UNL     1      -8.124  -3.596   7.070  1.00  0.00     0.000 C 
BRANCH   2   3
ATOM      3  C   UNL     1      -8.125  -4.866   6.192  1.00  0.00     0.000 C 
BRANCH   3   4
ATOM      4  C   UNL     1      -8.058  -6.157   7.029  1.00  0.00     0.000 C 
BRANCH   4   5
ATOM      5  C   UNL     1      -7.915  -5.872   8.534  1.00  0.00     0.000 C 
BRANCH   5   6
ATOM      6  C   UNL     1      -6.444  -5.758   8.971  1.00  0.00     0.000 C 
BRANCH   6   7
ATOM      7  C   UNL     1      -6.242  -4.762  10.125  1.00  0.00     0.000 C 
BRANCH   7   8
ATOM      8  C   UNL     1      -6.742  -3.349   9.790  1.00  0.00     0.000 C 
BRANCH   8   9
ATOM      9  C   UNL     1      -5.598  -2.327   9.896  1.00  0.00     0.000 C 
BRANCH   9  10
ATOM     10  C   UNL     1      -4.325  -2.780   9.165  1.00  0.00     0.000 C 
BRANCH  10  11
ATOM     11  C   UNL     1      -4.475  -2.755   7.636  1.00  0.00     0.000 C 
BRANCH  11  12
ATOM     12  C   UNL     1      -3.787  -1.519   7.039  1.00  0.00     0.000 C 
BRANCH  12  13
ATOM     13  C   UNL     1      -4.371  -0.195   7.565  1.00  0.00     0.006 C 
BRANCH  13  14
ATOM     14  C   UNL     1      -3.423   1.010   7.434  1.00  0.00     0.053 C 
BRANCH  14  15
ATOM     15  C   UNL     1      -2.849   1.418   8.757  1.00  0.00     0.041 C 
ATOM     16  O   UNL     1      -1.601   1.503   8.906  1.00  0.00    -0.550 OA
ATOM     17  O   UNL     1      -3.693   1.738   9.814  1.00  0.00    -0.550 OA
ENDBRANCH  14  15
ENDBRANCH  13  14
ENDBRANCH  12  13
ENDBRANCH  11  12
ENDBRANCH  10  11
ENDBRANCH   9  10
ENDBRANCH   8   9
ENDBRANCH   7   8
ENDBRANCH   6   7
ENDBRANCH   5   6
ENDBRANCH   4   5
ENDBRANCH   3   4
ENDBRANCH   2   3
ENDBRANCH   1   2
BRANCH   1  18
ATOM     18  C   UNL     1      -6.913  -2.597   5.044  1.00  0.00     0.000 C 
BRANCH  18  19
ATOM     19  C   UNL     1      -6.402  -1.311   4.374  1.00  0.00     0.000 C 
BRANCH  19  20
ATOM     20  C   UNL     1      -7.541  -0.413   3.871  1.00  0.00     0.000 C 
BRANCH  20  21
ATOM     21  C   UNL     1      -6.989   0.911   3.326  1.00  0.00     0.000 C 
BRANCH  21  22
ATOM     22  C   UNL     1      -8.108   1.780   2.739  1.00  0.00     0.000 C 
BRANCH  22  23
ATOM     23  C   UNL     1      -7.787   2.185   1.295  1.00  0.00     0.000 C 
BRANCH  23  24
ATOM     24  C   UNL     1      -7.202   3.605   1.236  1.00  0.00    -0.000 C 
BRANCH  24  25
ATOM     25  C   UNL     1      -7.959   4.518   0.258  1.00  0.00    -0.000 C 
BRANCH  25  26
ATOM     26  C   UNL     1      -7.276   4.613  -1.116  1.00  0.00    -0.000 C 
BRANCH  26  27
ATOM     27  C   UNL     1      -6.678   6.009  -1.337  1.00  0.00    -0.000 C 
BRANCH  27  28
ATOM     28  C   UNL     1      -7.528   6.819  -2.327  1.00  0.00    -0.000 C 
BRANCH  28  29
ATOM     29  C   UNL     1      -6.954   6.815  -3.755  1.00  0.00    -0.000 C 
BRANCH  29  30
ATOM     30  C   UNL     1      -5.821   7.826  -4.007  1.00  0.00    -0.000 C 
BRANCH  30  31
ATOM     31  C   UNL     1      -5.094   7.591  -5.340  1.00  0.00    -0.003 C 
ATOM     32  C   UNL     1      -3.590   7.792  -5.189  1.00  0.00     0.004 C 
ENDBRANCH  30  31
ENDBRANCH  29  30
ENDBRANCH  28  29
ENDBRANCH  27  28
ENDBRANCH  26  27
ENDBRANCH  25  26
ENDBRANCH  24  25
ENDBRANCH  23  24
ENDBRANCH  22  23
ENDBRANCH  21  22
ENDBRANCH  20  21
ENDBRANCH  19  20
ENDBRANCH  18  19
ENDBRANCH   1  18
TORSDOF 28
ENDMDL
MODEL 8
REMARK VINA RESULT:    -2.585     10.373     14.847
REMARK INTER + INTRA:         -10.639
REMARK INTER:                  -9.214
REMARK INTRA:                  -1.425
REMARK UNBOUND:                -3.822
REMARK SMILES CCCCCCCCCCCCCCCCCCCCCCCCCCCCCC(=O)[O-]
REMARK SMILES IDX 16 1 17 2 18 3 19 4 20 5 21 6 22 7 23 8 24 9 25 10 26 11
REMARK SMILES IDX 27 12 28 13 29 14 30 15 31 16 32 17 15 18 14 19 13 20 12 21
REMARK SMILES IDX 11 22 10 23 9 24 8 25 7 26 6 27 5 28 4 29 3 30 2 31 1 32
REMARK H PARENT
REMARK Flexibility Score: inf
ROOT
ATOM      1  C   UNL     1      -8.058  -0.764   4.571  1.00  0.00     0.000 C 
ENDROOT
BRANCH   1   2
ATOM      2  C   UNL     1      -7.675  -1.963   5.456  1.00  0.00     0.000 C 
BRANCH   2   3
ATOM      3  C   UNL     1      -6.465  -2.764   4.929  1.00  0.00     0.000 C 
BRANCH   3   4
ATOM      4  C   UNL     1      -6.877  -4.120   4.327  1.00  0.00     0.000 C 
BRANCH   4   5
ATOM      5  C   UNL     1      -7.800  -4.919   5.262  1.00  0.00     0.000 C 
BRANCH   5   6
ATOM      6  C   UNL     1      -7.540  -4.611   6.748  1.00  0.00     0.000 C 
BRANCH   6   7
ATOM      7  C   UNL     1      -7.351  -5.879   7.595  1.00  0.00     0.000 C 
BRANCH   7   8
ATOM      8  C   UNL     1      -7.371  -5.598   9.105  1.00  0.00     0.000 C 
BRANCH   8   9
ATOM      9  C   UNL     1      -7.367  -4.085   9.379  1.00  0.00     0.000 C 
BRANCH   9  10
ATOM     10  C   UNL     1      -6.107  -3.619  10.125  1.00  0.00     0.000 C 
BRANCH  10  11
ATOM     11  C   UNL     1      -4.830  -3.751   9.280  1.00  0.00     0.000 C 
BRANCH  11  12
ATOM     12  C   UNL     1      -3.905  -2.546   9.497  1.00  0.00     0.000 C 
BRANCH  12  13
ATOM     13  C   UNL     1      -3.871  -1.592   8.289  1.00  0.00     0.006 C 
BRANCH  13  14
ATOM     14  C   UNL     1      -3.832  -0.100   8.662  1.00  0.00     0.053 C 
BRANCH  14  15
ATOM     15  C   UNL     1      -4.223   0.777   7.512  1.00  0.00     0.041 C 
ATOM     16  O   UNL     1      -5.344   0.629   6.955  1.00  0.00    -0.550 OA
ATOM     17  O   UNL     1      -3.366   1.780   7.077  1.00  0.00    -0.550 OA
ENDBRANCH  14  15
ENDBRANCH  13  14
ENDBRANCH  12  13
ENDBRANCH  11  12
ENDBRANCH  10  11
ENDBRANCH   9  10
ENDBRANCH   8   9
ENDBRANCH   7   8
ENDBRANCH   6   7
ENDBRANCH   5   6
ENDBRANCH   4   5
ENDBRANCH   3   4
ENDBRANCH   2   3
ENDBRANCH   1   2
BRANCH   1  18
ATOM     18  C   UNL     1      -6.871  -0.215   3.762  1.00  0.00     0.000 C 
BRANCH  18  19
ATOM     19  C   UNL     1      -7.306   0.416   2.429  1.00  0.00     0.000 C 
BRANCH  19  20
ATOM     20  C   UNL     1      -7.882   1.829   2.602  1.00  0.00     0.000 C 
BRANCH  20  21
ATOM     21  C   UNL     1      -7.755   2.631   1.302  1.00  0.00     0.000 C 
BRANCH  21  22
ATOM     22  C   UNL     1      -7.899   4.136   1.561  1.00  0.00     0.000 C 
BRANCH  22  23
ATOM     23  C   UNL     1      -7.802   4.929   0.252  1.00  0.00     0.000 C 
BRANCH  23  24
ATOM     24  C   UNL     1      -7.010   4.149  -0.810  1.00  0.00    -0.000 C 
BRANCH  24  25
ATOM     25  C   UNL     1      -7.508   4.420  -2.239  1.00  0.00    -0.000 C 
BRANCH  25  26
ATOM     26  C   UNL     1      -7.664   5.919  -2.540  1.00  0.00    -0.000 C 
BRANCH  26  27
ATOM     27  C   UNL     1      -6.322   6.650  -2.401  1.00  0.00    -0.000 C 
BRANCH  27  28
ATOM     28  C   UNL     1      -6.282   7.897  -3.297  1.00  0.00    -0.000 C 
BRANCH  28  29
ATOM     29  C   UNL     1      -4.942   8.064  -4.037  1.00  0.00    -0.000 C 
BRANCH  29  30
ATOM     30  C   UNL     1      -4.886   7.426  -5.437  1.00  0.00    -0.000 C 
BRANCH  30  31
ATOM     31  C   UNL     1      -3.452   7.124  -5.899  1.00  0.00    -0.003 C 
ATOM     32  C   UNL     1      -3.198   7.676  -7.298  1.00  0.00     0.004 C 
ENDBRANCH  30  31
ENDBRANCH  29  30
ENDBRANCH  28  29
ENDBRANCH  27  28
ENDBRANCH  26  27
ENDBRANCH  25  26
ENDBRANCH  24  25
ENDBRANCH  23  24
ENDBRANCH  22  23
ENDBRANCH  21  22
ENDBRANCH  20  21
ENDBRANCH  19  20
ENDBRANCH  18  19
ENDBRANCH   1  18
TORSDOF 28
ENDMDL
MODEL 9
REMARK VINA RESULT:    -2.554      1.272      2.159
REMARK INTER + INTRA:         -10.557
REMARK INTER:                  -8.151
REMARK INTRA:                  -2.405
REMARK UNBOUND:                -3.822
REMARK SMILES CCCCCCCCCCCCCCCCCCCCCCCCCCCCCC(=O)[O-]
REMARK SMILES IDX 16 1 17 2 18 3 19 4 20 5 21 6 22 7 23 8 24 9 25 10 26 11
REMARK SMILES IDX 27 12 28 13 29 14 30 15 31 16 32 17 15 18 14 19 13 20 12 21
REMARK SMILES IDX 11 22 10 23 9 24 8 25 7 26 6 27 5 28 4 29 3 30 2 31 1 32
REMARK H PARENT
REMARK Flexibility Score: inf
ROOT
ATOM      1  C   UNL     1      -4.142  -1.180  -7.321  1.00  0.00     0.000 C 
ENDROOT
BRANCH   1   2
ATOM      2  C   UNL     1      -2.641  -1.476  -7.482  1.00  0.00     0.000 C 
BRANCH   2   3
ATOM      3  C   UNL     1      -1.846  -0.328  -8.142  1.00  0.00     0.000 C 
BRANCH   3   4
ATOM      4  C   UNL     1      -2.744   0.864  -8.522  1.00  0.00     0.000 C 
BRANCH   4   5
ATOM      5  C   UNL     1      -3.739   0.514  -9.641  1.00  0.00     0.000 C 
BRANCH   5   6
ATOM      6  C   UNL     1      -4.643   1.703 -10.014  1.00  0.00     0.000 C 
BRANCH   6   7
ATOM      7  C   UNL     1      -5.468   2.219  -8.824  1.00  0.00     0.000 C 
BRANCH   7   8
ATOM      8  C   UNL     1      -6.624   3.137  -9.251  1.00  0.00     0.000 C 
BRANCH   8   9
ATOM      9  C   UNL     1      -6.132   4.582  -9.437  1.00  0.00     0.000 C 
BRANCH   9  10
ATOM     10  C   UNL     1      -7.234   5.623  -9.186  1.00  0.00     0.000 C 
BRANCH  10  11
ATOM     11  C   UNL     1      -6.701   6.910  -8.538  1.00  0.00     0.000 C 
BRANCH  11  12
ATOM     12  C   UNL     1      -6.225   6.644  -7.103  1.00  0.00     0.000 C 
BRANCH  12  13
ATOM     13  C   UNL     1      -4.904   7.360  -6.768  1.00  0.00     0.006 C 
BRANCH  13  14
ATOM     14  C   UNL     1      -4.196   7.983  -7.983  1.00  0.00     0.053 C 
BRANCH  14  15
ATOM     15  C   UNL     1      -2.926   7.264  -8.322  1.00  0.00     0.041 C 
ATOM     16  O   UNL     1      -1.900   7.913  -8.657  1.00  0.00    -0.550 OA
ATOM     17  O   UNL     1      -2.865   5.878  -8.233  1.00  0.00    -0.550 OA
ENDBRANCH  14  15
ENDBRANCH  13  14
ENDBRANCH  12  13
ENDBRANCH  11  12
ENDBRANCH  10  11
ENDBRANCH   9  10
ENDBRANCH   8   9
ENDBRANCH   7   8
ENDBRANCH   6   7
ENDBRANCH   5   6
ENDBRANCH   4   5
ENDBRANCH   3   4
ENDBRANCH   2   3
ENDBRANCH   1   2
BRANCH   1  18
ATOM     18  C   UNL     1      -4.589  -1.143  -5.850  1.00  0.00     0.000 C 
BRANCH  18  19
ATOM     19  C   UNL     1      -5.138   0.232  -5.434  1.00  0.00     0.000 C 
BRANCH  19  20
ATOM     20  C   UNL     1      -6.650   0.210  -5.166  1.00  0.00     0.000 C 
BRANCH  20  21
ATOM     21  C   UNL     1      -7.308  -0.989  -5.860  1.00  0.00     0.000 C 
BRANCH  21  22
ATOM     22  C   UNL     1      -8.006  -0.566  -7.158  1.00  0.00     0.000 C 
BRANCH  22  23
ATOM     23  C   UNL     1      -7.225  -1.054  -8.384  1.00  0.00     0.000 C 
BRANCH  23  24
ATOM     24  C   UNL     1      -8.125  -1.869  -9.326  1.00  0.00    -0.000 C 
BRANCH  24  25
ATOM     25  C   UNL     1      -7.835  -3.377  -9.265  1.00  0.00    -0.000 C 
BRANCH  25  26
ATOM     26  C   UNL     1      -7.089  -3.788  -7.986  1.00  0.00    -0.000 C 
BRANCH  26  27
ATOM     27  C   UNL     1      -6.905  -5.310  -7.921  1.00  0.00    -0.000 C 
BRANCH  27  28
ATOM     28  C   UNL     1      -5.446  -5.674  -7.607  1.00  0.00    -0.000 C 
BRANCH  28  29
ATOM     29  C   UNL     1      -5.283  -7.117  -7.097  1.00  0.00    -0.000 C 
BRANCH  29  30
ATOM     30  C   UNL     1      -6.493  -8.037  -7.342  1.00  0.00    -0.000 C 
BRANCH  30  31
ATOM     31  C   UNL     1      -6.666  -9.101  -6.248  1.00  0.00    -0.003 C 
ATOM     32  C   UNL     1      -7.917  -8.835  -5.416  1.00  0.00     0.004 C 
ENDBRANCH  30  31
ENDBRANCH  29  30
ENDBRANCH  28  29
ENDBRANCH  27  28
ENDBRANCH  26  27
ENDBRANCH  25  26
ENDBRANCH  24  25
ENDBRANCH  23  24
ENDBRANCH  22  23
ENDBRANCH  21  22
ENDBRANCH  20  21
ENDBRANCH  19  20
ENDBRANCH  18  19
ENDBRANCH   1  18
TORSDOF 28
ENDMDL
