MODEL 1
REMARK VINA RESULT:    -3.382      0.000      0.000
REMARK INTER + INTRA:          -8.064
REMARK INTER:                  -5.754
REMARK INTRA:                  -2.310
REMARK UNBOUND:                -2.310
REMARK SMILES CCCCCCCCCCCCCC(=O)[O-]
REMARK SMILES IDX 8 1 9 2 10 3 11 4 12 5 13 6 14 7 15 8 16 9 7 10 6 11 5 12
REMARK SMILES IDX 4 13 3 14 2 15 1 16
REMARK H PARENT
REMARK Flexibility Score: inf
ROOT
ATOM      1  C   UNL     1       0.229   1.981 -11.411  1.00  0.00     0.000 C 
ENDROOT
BRANCH   1   2
ATOM      2  C   UNL     1      -1.239   1.519 -11.435  1.00  0.00     0.000 C 
BRANCH   2   3
ATOM      3  C   UNL     1      -2.138   2.359 -12.366  1.00  0.00     0.000 C 
BRANCH   3   4
ATOM      4  C   UNL     1      -3.366   2.922 -11.634  1.00  0.00     0.000 C 
BRANCH   4   5
ATOM      5  C   UNL     1      -3.640   2.142 -10.340  1.00  0.00     0.006 C 
BRANCH   5   6
ATOM      6  C   UNL     1      -4.430   2.972  -9.318  1.00  0.00     0.053 C 
BRANCH   6   7
ATOM      7  C   UNL     1      -5.807   2.423  -9.104  1.00  0.00     0.041 C 
ATOM      8  O   UNL     1      -6.490   2.792  -8.112  1.00  0.00    -0.550 OA
ATOM      9  O   UNL     1      -6.324   1.480  -9.983  1.00  0.00    -0.550 OA
ENDBRANCH   6   7
ENDBRANCH   5   6
ENDBRANCH   4   5
ENDBRANCH   3   4
ENDBRANCH   2   3
ENDBRANCH   1   2
BRANCH   1  10
ATOM     10  C   UNL     1       0.664   2.511 -10.036  1.00  0.00     0.000 C 
BRANCH  10  11
ATOM     11  C   UNL     1      -0.157   1.910  -8.884  1.00  0.00    -0.000 C 
BRANCH  11  12
ATOM     12  C   UNL     1      -0.852   2.981  -8.028  1.00  0.00    -0.000 C 
BRANCH  12  13
ATOM     13  C   UNL     1      -0.540   4.390  -8.556  1.00  0.00    -0.000 C 
BRANCH  13  14
ATOM     14  C   UNL     1      -1.770   5.317  -8.553  1.00  0.00    -0.000 C 
BRANCH  14  15
ATOM     15  C   UNL     1      -2.122   5.928  -9.921  1.00  0.00    -0.003 C 
ATOM     16  C   UNL     1      -1.033   5.710 -10.971  1.00  0.00     0.004 C 
ENDBRANCH  14  15
ENDBRANCH  13  14
ENDBRANCH  12  13
ENDBRANCH  11  12
ENDBRANCH  10  11
ENDBRANCH   1  10
TORSDOF 12
ENDMDL
MODEL 2
REMARK VINA RESULT:    -3.372      1.024      3.330
REMARK INTER + INTRA:          -8.047
REMARK INTER:                  -6.280
REMARK INTRA:                  -1.767
REMARK UNBOUND:                -2.310
REMARK SMILES CCCCCCCCCCCCCC(=O)[O-]
REMARK SMILES IDX 8 1 9 2 10 3 11 4 12 5 13 6 14 7 15 8 16 9 7 10 6 11 5 12
REMARK SMILES IDX 4 13 3 14 2 15 1 16
REMARK H PARENT
REMARK Flexibility Score: inf
ROOT
ATOM      1  C   UNL     1      -0.370   4.605  -8.869  1.00  0.00     0.000 C 
ENDROOT
BRANCH   1   2
ATOM      2  C   UNL     1      -1.376   5.661  -9.359  1.00  0.00     0.000 C 
BRANCH   2   3
ATOM      3  C   UNL     1      -2.793   5.485  -8.775  1.00  0.00     0.000 C 
BRANCH   3   4
ATOM      4  C   UNL     1      -3.885   5.942  -9.754  1.00  0.00     0.000 C 
BRANCH   4   5
ATOM      5  C   UNL     1      -4.991   4.884  -9.879  1.00  0.00     0.006 C 
BRANCH   5   6
ATOM      6  C   UNL     1      -4.610   3.563  -9.197  1.00  0.00     0.053 C 
BRANCH   6   7
ATOM      7  C   UNL     1      -5.820   2.768  -8.814  1.00  0.00     0.041 C 
ATOM      8  O   UNL     1      -6.033   1.643  -9.339  1.00  0.00    -0.550 OA
ATOM      9  O   UNL     1      -6.730   3.284  -7.900  1.00  0.00    -0.550 OA
ENDBRANCH   6   7
ENDBRANCH   5   6
ENDBRANCH   4   5
ENDBRANCH   3   4
ENDBRANCH   2   3
ENDBRANCH   1   2
BRANCH   1  10
ATOM     10  C   UNL     1      -1.052   3.369  -8.261  1.00  0.00     0.000 C 
BRANCH  10  11
ATOM     11  C   UNL     1      -0.170   2.112  -8.336  1.00  0.00    -0.000 C 
BRANCH  11  12
ATOM     12  C   UNL     1       0.639   2.032  -9.639  1.00  0.00    -0.000 C 
BRANCH  12  13
ATOM     13  C   UNL     1      -0.177   1.353 -10.749  1.00  0.00    -0.000 C 
BRANCH  13  14
ATOM     14  C   UNL     1      -0.640   2.336 -11.841  1.00  0.00    -0.000 C 
BRANCH  14  15
ATOM     15  C   UNL     1      -2.147   2.649 -11.830  1.00  0.00    -0.003 C 
ATOM     16  C   UNL     1      -3.013   1.412 -11.594  1.00  0.00     0.004 C 
ENDBRANCH  14  15
ENDBRANCH  13  14
ENDBRANCH  12  13
ENDBRANCH  11  12
ENDBRANCH  10  11
ENDBRANCH   1  10
TORSDOF 12
ENDMDL
MODEL 3
REMARK VINA RESULT:    -3.345      1.094      2.825
REMARK INTER + INTRA:          -8.003
REMARK INTER:                  -6.197
REMARK INTRA:                  -1.806
REMARK UNBOUND:                -2.310
REMARK SMILES CCCCCCCCCCCCCC(=O)[O-]
REMARK SMILES IDX 8 1 9 2 10 3 11 4 12 5 13 6 14 7 15 8 16 9 7 10 6 11 5 12
REMARK SMILES IDX 4 13 3 14 2 15 1 16
REMARK H PARENT
REMARK Flexibility Score: inf
ROOT
ATOM      1  C   UNL     1      -1.001   4.873  -8.193  1.00  0.00     0.000 C 
ENDROOT
BRANCH   1   2
ATOM      2  C   UNL     1      -2.131   5.675  -8.863  1.00  0.00     0.000 C 
BRANCH   2   3
ATOM      3  C   UNL     1      -3.480   4.928  -8.906  1.00  0.00     0.000 C 
BRANCH   3   4
ATOM      4  C   UNL     1      -3.980   4.714 -10.343  1.00  0.00     0.000 C 
BRANCH   4   5
ATOM      5  C   UNL     1      -4.057   3.218 -10.682  1.00  0.00     0.006 C 
BRANCH   5   6
ATOM      6  C   UNL     1      -4.323   2.354  -9.442  1.00  0.00     0.053 C 
BRANCH   6   7
ATOM      7  C   UNL     1      -5.788   2.113  -9.238  1.00  0.00     0.041 C 
ATOM      8  O   UNL     1      -6.360   2.529  -8.196  1.00  0.00    -0.550 OA
ATOM      9  O   UNL     1      -6.513   1.401 -10.184  1.00  0.00    -0.550 OA
ENDBRANCH   6   7
ENDBRANCH   5   6
ENDBRANCH   4   5
ENDBRANCH   3   4
ENDBRANCH   2   3
ENDBRANCH   1   2
BRANCH   1  10
ATOM     10  C   UNL     1      -1.297   3.366  -8.129  1.00  0.00     0.000 C 
BRANCH  10  11
ATOM     11  C   UNL     1      -0.022   2.511  -8.205  1.00  0.00    -0.000 C 
BRANCH  11  12
ATOM     12  C   UNL     1      -0.007   1.574  -9.423  1.00  0.00    -0.000 C 
BRANCH  12  13
ATOM     13  C   UNL     1       0.850   2.161 -10.554  1.00  0.00    -0.000 C 
BRANCH  13  14
ATOM     14  C   UNL     1       0.026   2.964 -11.578  1.00  0.00    -0.000 C 
BRANCH  14  15
ATOM     15  C   UNL     1       0.282   4.481 -11.567  1.00  0.00    -0.003 C 
ATOM     16  C   UNL     1      -0.818   5.278 -12.266  1.00  0.00     0.004 C 
ENDBRANCH  14  15
ENDBRANCH  13  14
ENDBRANCH  12  13
ENDBRANCH  11  12
ENDBRANCH  10  11
ENDBRANCH   1  10
TORSDOF 12
ENDMDL
MODEL 4
REMARK VINA RESULT:    -3.344      1.105      3.322
REMARK INTER + INTRA:          -8.000
REMARK INTER:                  -6.145
REMARK INTRA:                  -1.854
REMARK UNBOUND:                -2.310
REMARK SMILES CCCCCCCCCCCCCC(=O)[O-]
REMARK SMILES IDX 8 1 9 2 10 3 11 4 12 5 13 6 14 7 15 8 16 9 7 10 6 11 5 12
REMARK SMILES IDX 4 13 3 14 2 15 1 16
REMARK H PARENT
REMARK Flexibility Score: inf
ROOT
ATOM      1  C   UNL     1      -1.791   5.286 -10.020  1.00  0.00     0.000 C 
ENDROOT
BRANCH   1   2
ATOM      2  C   UNL     1      -2.898   5.723  -9.044  1.00  0.00     0.000 C 
BRANCH   2   3
ATOM      3  C   UNL     1      -4.237   4.986  -9.256  1.00  0.00     0.000 C 
BRANCH   3   4
ATOM      4  C   UNL     1      -4.094   3.784 -10.203  1.00  0.00     0.000 C 
BRANCH   4   5
ATOM      5  C   UNL     1      -4.176   2.460  -9.428  1.00  0.00     0.006 C 
BRANCH   5   6
ATOM      6  C   UNL     1      -5.583   2.196  -8.876  1.00  0.00     0.053 C 
BRANCH   6   7
ATOM      7  C   UNL     1      -6.610   2.166  -9.966  1.00  0.00     0.041 C 
ATOM      8  O   UNL     1      -6.594   1.247 -10.827  1.00  0.00    -0.550 OA
ATOM      9  O   UNL     1      -7.565   3.171 -10.049  1.00  0.00    -0.550 OA
ENDBRANCH   6   7
ENDBRANCH   5   6
ENDBRANCH   4   5
ENDBRANCH   3   4
ENDBRANCH   2   3
ENDBRANCH   1   2
BRANCH   1  10
ATOM     10  C   UNL     1      -0.538   4.758  -9.303  1.00  0.00     0.000 C 
BRANCH  10  11
ATOM     11  C   UNL     1      -0.877   3.771  -8.173  1.00  0.00    -0.000 C 
BRANCH  11  12
ATOM     12  C   UNL     1      -0.497   2.322  -8.517  1.00  0.00    -0.000 C 
BRANCH  12  13
ATOM     13  C   UNL     1       0.533   2.282  -9.656  1.00  0.00    -0.000 C 
BRANCH  13  14
ATOM     14  C   UNL     1       0.110   1.365 -10.817  1.00  0.00    -0.000 C 
BRANCH  14  15
ATOM     15  C   UNL     1      -1.071   1.885 -11.655  1.00  0.00    -0.003 C 
ATOM     16  C   UNL     1      -2.076   0.792 -12.015  1.00  0.00     0.004 C 
ENDBRANCH  14  15
ENDBRANCH  13  14
ENDBRANCH  12  13
ENDBRANCH  11  12
ENDBRANCH  10  11
ENDBRANCH   1  10
TORSDOF 12
ENDMDL
MODEL 5
REMARK VINA RESULT:    -3.341      1.173      3.341
REMARK INTER + INTRA:          -7.996
REMARK INTER:                  -6.556
REMARK INTRA:                  -1.440
REMARK UNBOUND:                -2.310
REMARK SMILES CCCCCCCCCCCCCC(=O)[O-]
REMARK SMILES IDX 8 1 9 2 10 3 11 4 12 5 13 6 14 7 15 8 16 9 7 10 6 11 5 12
REMARK SMILES IDX 4 13 3 14 2 15 1 16
REMARK H PARENT
REMARK Flexibility Score: inf
ROOT
ATOM      1  C   UNL     1      -3.604   5.433  -9.230  1.00  0.00     0.000 C 
ENDROOT
BRANCH   1   2
ATOM      2  C   UNL     1      -3.984   5.145 -10.693  1.00  0.00     0.000 C 
BRANCH   2   3
ATOM      3  C   UNL     1      -3.083   4.093 -11.372  1.00  0.00     0.000 C 
BRANCH   3   4
ATOM      4  C   UNL     1      -3.383   2.668 -10.880  1.00  0.00     0.000 C 
BRANCH   4   5
ATOM      5  C   UNL     1      -4.895   2.403 -10.850  1.00  0.00     0.006 C 
BRANCH   5   6
ATOM      6  C   UNL     1      -5.381   1.968  -9.461  1.00  0.00     0.053 C 
BRANCH   6   7
ATOM      7  C   UNL     1      -6.561   2.772  -9.010  1.00  0.00     0.041 C 
ATOM      8  O   UNL     1      -7.500   3.025  -9.809  1.00  0.00    -0.550 OA
ATOM      9  O   UNL     1      -6.608   3.270  -7.714  1.00  0.00    -0.550 OA
ENDBRANCH   6   7
ENDBRANCH   5   6
ENDBRANCH   4   5
ENDBRANCH   3   4
ENDBRANCH   2   3
ENDBRANCH   1   2
BRANCH   1  10
ATOM     10  C   UNL     1      -2.313   6.256  -9.100  1.00  0.00     0.000 C 
BRANCH  10  11
ATOM     11  C   UNL     1      -1.284   5.596  -8.169  1.00  0.00    -0.000 C 
BRANCH  11  12
ATOM     12  C   UNL     1      -0.570   4.404  -8.825  1.00  0.00    -0.000 C 
BRANCH  12  13
ATOM     13  C   UNL     1      -0.999   3.081  -8.172  1.00  0.00    -0.000 C 
BRANCH  13  14
ATOM     14  C   UNL     1       0.005   1.939  -8.411  1.00  0.00    -0.000 C 
BRANCH  14  15
ATOM     15  C   UNL     1       0.678   1.950  -9.794  1.00  0.00    -0.003 C 
ATOM     16  C   UNL     1      -0.119   1.187 -10.853  1.00  0.00     0.004 C 
ENDBRANCH  14  15
ENDBRANCH  13  14
ENDBRANCH  12  13
ENDBRANCH  11  12
ENDBRANCH  10  11
ENDBRANCH   1  10
TORSDOF 12
ENDMDL
MODEL 6
REMARK VINA RESULT:    -3.338      1.442      2.500
REMARK INTER + INTRA:          -7.989
REMARK INTER:                  -6.066
REMARK INTRA:                  -1.924
REMARK UNBOUND:                -2.310
REMARK SMILES CCCCCCCCCCCCCC(=O)[O-]
REMARK SMILES IDX 8 1 9 2 10 3 11 4 12 5 13 6 14 7 15 8 16 9 7 10 6 11 5 12
REMARK SMILES IDX 4 13 3 14 2 15 1 16
REMARK H PARENT
REMARK Flexibility Score: inf
ROOT
ATOM      1  C   UNL     1      -0.192   1.760  -9.942  1.00  0.00     0.000 C 
ENDROOT
BRANCH   1   2
ATOM      2  C   UNL     1      -0.163   2.249  -8.484  1.00  0.00     0.000 C 
BRANCH   2   3
ATOM      3  C   UNL     1      -1.351   3.159  -8.110  1.00  0.00     0.000 C 
BRANCH   3   4
ATOM      4  C   UNL     1      -2.578   2.906  -9.001  1.00  0.00     0.000 C 
BRANCH   4   5
ATOM      5  C   UNL     1      -3.571   4.074  -8.915  1.00  0.00     0.006 C 
BRANCH   5   6
ATOM      6  C   UNL     1      -4.823   3.836  -9.771  1.00  0.00     0.053 C 
BRANCH   6   7
ATOM      7  C   UNL     1      -5.812   2.952  -9.074  1.00  0.00     0.041 C 
ATOM      8  O   UNL     1      -6.398   3.353  -8.034  1.00  0.00    -0.550 OA
ATOM      9  O   UNL     1      -6.061   1.674  -9.556  1.00  0.00    -0.550 OA
ENDBRANCH   6   7
ENDBRANCH   5   6
ENDBRANCH   4   5
ENDBRANCH   3   4
ENDBRANCH   2   3
ENDBRANCH   1   2
BRANCH   1  10
ATOM     10  C   UNL     1       1.089   2.110 -10.715  1.00  0.00     0.000 C 
BRANCH  10  11
ATOM     11  C   UNL     1       1.057   3.532 -11.299  1.00  0.00    -0.000 C 
BRANCH  11  12
ATOM     12  C   UNL     1      -0.346   3.948 -11.770  1.00  0.00    -0.000 C 
BRANCH  12  13
ATOM     13  C   UNL     1      -0.747   5.301 -11.165  1.00  0.00    -0.000 C 
BRANCH  13  14
ATOM     14  C   UNL     1       0.321   5.875 -10.215  1.00  0.00    -0.000 C 
BRANCH  14  15
ATOM     15  C   UNL     1      -0.212   6.337  -8.848  1.00  0.00    -0.003 C 
ATOM     16  C   UNL     1      -1.450   7.227  -8.959  1.00  0.00     0.004 C 
ENDBRANCH  14  15
ENDBRANCH  13  14
ENDBRANCH  12  13
ENDBRANCH  11  12
ENDBRANCH  10  11
ENDBRANCH   1  10
TORSDOF 12
ENDMDL
MODEL 7
REMARK VINA RESULT:    -3.288      1.209      3.542
REMARK INTER + INTRA:          -7.905
REMARK INTER:                  -5.838
REMARK INTRA:                  -2.067
REMARK UNBOUND:                -2.310
REMARK SMILES CCCCCCCCCCCCCC(=O)[O-]
REMARK SMILES IDX 8 1 9 2 10 3 11 4 12 5 13 6 14 7 15 8 16 9 7 10 6 11 5 12
REMARK SMILES IDX 4 13 3 14 2 15 1 16
REMARK H PARENT
REMARK Flexibility Score: inf
ROOT
ATOM      1  C   UNL     1      -0.176   5.827  -9.185  1.00  0.00     0.000 C 
ENDROOT
BRANCH   1   2
ATOM      2  C   UNL     1      -1.473   5.863  -8.359  1.00  0.00     0.000 C 
BRANCH   2   3
ATOM      3  C   UNL     1      -2.750   5.658  -9.201  1.00  0.00     0.000 C 
BRANCH   3   4
ATOM      4  C   UNL     1      -3.601   4.486  -8.690  1.00  0.00     0.000 C 
BRANCH   4   5
ATOM      5  C   UNL     1      -4.365   3.816  -9.841  1.00  0.00     0.006 C 
BRANCH   5   6
ATOM      6  C   UNL     1      -4.844   2.404  -9.477  1.00  0.00     0.053 C 
BRANCH   6   7
ATOM      7  C   UNL     1      -6.305   2.225  -9.758  1.00  0.00     0.041 C 
ATOM      8  O   UNL     1      -7.155   2.962  -9.194  1.00  0.00    -0.550 OA
ATOM      9  O   UNL     1      -6.727   1.220 -10.620  1.00  0.00    -0.550 OA
ENDBRANCH   6   7
ENDBRANCH   5   6
ENDBRANCH   4   5
ENDBRANCH   3   4
ENDBRANCH   2   3
ENDBRANCH   1   2
BRANCH   1  10
ATOM     10  C   UNL     1      -0.420   6.026 -10.689  1.00  0.00     0.000 C 
BRANCH  10  11
ATOM     11  C   UNL     1       0.093   4.847 -11.531  1.00  0.00    -0.000 C 
BRANCH  11  12
ATOM     12  C   UNL     1      -1.010   3.829 -11.861  1.00  0.00    -0.000 C 
BRANCH  12  13
ATOM     13  C   UNL     1      -0.617   2.422 -11.385  1.00  0.00    -0.000 C 
BRANCH  13  14
ATOM     14  C   UNL     1      -1.109   2.111  -9.959  1.00  0.00    -0.000 C 
BRANCH  14  15
ATOM     15  C   UNL     1      -0.003   2.057  -8.891  1.00  0.00    -0.003 C 
ATOM     16  C   UNL     1      -0.490   2.481  -7.505  1.00  0.00     0.004 C 
ENDBRANCH  14  15
ENDBRANCH  13  14
ENDBRANCH  12  13
ENDBRANCH  11  12
ENDBRANCH  10  11
ENDBRANCH   1  10
TORSDOF 12
ENDMDL
MODEL 8
REMARK VINA RESULT:    -3.222      1.611      2.511
REMARK INTER + INTRA:          -7.792
REMARK INTER:                  -5.742
REMARK INTRA:                  -2.050
REMARK UNBOUND:                -2.310
REMARK SMILES CCCCCCCCCCCCCC(=O)[O-]
REMARK SMILES IDX 8 1 9 2 10 3 11 4 12 5 13 6 14 7 15 8 16 9 7 10 6 11 5 12
REMARK SMILES IDX 4 13 3 14 2 15 1 16
REMARK H PARENT
REMARK Flexibility Score: inf
ROOT
ATOM      1  C   UNL     1      -2.070   4.240 -12.065  1.00  0.00     0.000 C 
ENDROOT
BRANCH   1   2
ATOM      2  C   UNL     1      -2.872   5.507 -11.719  1.00  0.00     0.000 C 
BRANCH   2   3
ATOM      3  C   UNL     1      -4.327   5.222 -11.292  1.00  0.00     0.000 C 
BRANCH   3   4
ATOM      4  C   UNL     1      -4.565   5.527  -9.805  1.00  0.00     0.000 C 
BRANCH   4   5
ATOM      5  C   UNL     1      -5.365   4.402  -9.133  1.00  0.00     0.006 C 
BRANCH   5   6
ATOM      6  C   UNL     1      -6.189   3.592 -10.142  1.00  0.00     0.053 C 
BRANCH   6   7
ATOM      7  C   UNL     1      -6.238   2.139  -9.781  1.00  0.00     0.041 C 
ATOM      8  O   UNL     1      -5.734   1.737  -8.699  1.00  0.00    -0.550 OA
ATOM      9  O   UNL     1      -6.811   1.224 -10.655  1.00  0.00    -0.550 OA
ENDBRANCH   6   7
ENDBRANCH   5   6
ENDBRANCH   4   5
ENDBRANCH   3   4
ENDBRANCH   2   3
ENDBRANCH   1   2
BRANCH   1  10
ATOM     10  C   UNL     1      -2.603   2.985 -11.356  1.00  0.00     0.000 C 
BRANCH  10  11
ATOM     11  C   UNL     1      -1.644   2.468 -10.272  1.00  0.00    -0.000 C 
BRANCH  11  12
ATOM     12  C   UNL     1      -2.035   2.937  -8.862  1.00  0.00    -0.000 C 
BRANCH  12  13
ATOM     13  C   UNL     1      -0.944   3.837  -8.262  1.00  0.00    -0.000 C 
BRANCH  13  14
ATOM     14  C   UNL     1      -1.337   5.326  -8.243  1.00  0.00    -0.000 C 
BRANCH  14  15
ATOM     15  C   UNL     1      -0.209   6.296  -8.632  1.00  0.00    -0.003 C 
ATOM     16  C   UNL     1       0.378   6.008 -10.014  1.00  0.00     0.004 C 
ENDBRANCH  14  15
ENDBRANCH  13  14
ENDBRANCH  12  13
ENDBRANCH  11  12
ENDBRANCH  10  11
ENDBRANCH   1  10
TORSDOF 12
ENDMDL
MODEL 9
REMARK VINA RESULT:    -3.192      1.686      3.595
REMARK INTER + INTRA:          -7.742
REMARK INTER:                  -6.108
REMARK INTRA:                  -1.634
REMARK UNBOUND:                -2.310
REMARK SMILES CCCCCCCCCCCCCC(=O)[O-]
REMARK SMILES IDX 8 1 9 2 10 3 11 4 12 5 13 6 14 7 15 8 16 9 7 10 6 11 5 12
REMARK SMILES IDX 4 13 3 14 2 15 1 16
REMARK H PARENT
REMARK Flexibility Score: inf
ROOT
ATOM      1  C   UNL     1      -1.870   6.500 -11.586  1.00  0.00     0.000 C 
ENDROOT
BRANCH   1   2
ATOM      2  C   UNL     1      -3.127   7.289 -11.180  1.00  0.00     0.000 C 
BRANCH   2   3
ATOM      3  C   UNL     1      -3.905   6.655 -10.008  1.00  0.00     0.000 C 
BRANCH   3   4
ATOM      4  C   UNL     1      -4.283   5.192 -10.287  1.00  0.00     0.000 C 
BRANCH   4   5
ATOM      5  C   UNL     1      -4.226   4.354  -9.001  1.00  0.00     0.006 C 
BRANCH   5   6
ATOM      6  C   UNL     1      -4.386   2.853  -9.278  1.00  0.00     0.053 C 
BRANCH   6   7
ATOM      7  C   UNL     1      -5.811   2.413  -9.144  1.00  0.00     0.041 C 
ATOM      8  O   UNL     1      -6.547   2.907  -8.251  1.00  0.00    -0.550 OA
ATOM      9  O   UNL     1      -6.317   1.432  -9.988  1.00  0.00    -0.550 OA
ENDBRANCH   6   7
ENDBRANCH   5   6
ENDBRANCH   4   5
ENDBRANCH   3   4
ENDBRANCH   2   3
ENDBRANCH   1   2
BRANCH   1  10
ATOM     10  C   UNL     1      -0.566   7.226 -11.222  1.00  0.00     0.000 C 
BRANCH  10  11
ATOM     11  C   UNL     1       0.231   6.497 -10.128  1.00  0.00    -0.000 C 
BRANCH  11  12
ATOM     12  C   UNL     1      -0.359   6.707  -8.725  1.00  0.00    -0.000 C 
BRANCH  12  13
ATOM     13  C   UNL     1      -0.911   5.390  -8.160  1.00  0.00    -0.000 C 
BRANCH  13  14
ATOM     14  C   UNL     1      -0.516   4.163  -9.003  1.00  0.00    -0.000 C 
BRANCH  14  15
ATOM     15  C   UNL     1      -0.592   2.817  -8.260  1.00  0.00    -0.003 C 
ATOM     16  C   UNL     1       0.085   1.677  -9.019  1.00  0.00     0.004 C 
ENDBRANCH  14  15
ENDBRANCH  13  14
ENDBRANCH  12  13
ENDBRANCH  11  12
ENDBRANCH  10  11
ENDBRANCH   1  10
TORSDOF 12
ENDMDL
