MODEL 1
REMARK VINA RESULT:    -3.473      0.000      0.000
REMARK INTER + INTRA:          -4.093
REMARK INTER:                  -4.083
REMARK INTRA:                  -0.010
REMARK UNBOUND:                -0.010
REMARK SMILES [NH3+][C@H](CO)C(=O)[O-]
REMARK SMILES IDX 3 1 2 2 1 3 5 7 6 8 7 9 4 10
REMARK H PARENT 1 4 1 5 1 6 4 11
REMARK Flexibility Score: inf
ROOT
ATOM      1  C   UNL     1      28.961   4.691 143.096  1.00  0.00     0.227 C 
ENDROOT
BRANCH   1   2
ATOM      2  C   UNL     1      29.868   3.673 142.381  1.00  0.00     0.253 C 
BRANCH   2   3
ATOM      3  N   UNL     1      30.699   2.951 143.350  1.00  0.00    -0.348 N 
ATOM      4  H   UNL     1      30.191   2.118 143.728  1.00  0.00     0.345 HD
ATOM      5  H   UNL     1      31.585   2.636 142.892  1.00  0.00     0.345 HD
ATOM      6  H   UNL     1      30.949   3.586 144.143  1.00  0.00     0.345 HD
ENDBRANCH   2   3
BRANCH   2   7
ATOM      7  C   UNL     1      29.046   2.706 141.569  1.00  0.00     0.102 C 
ATOM      8  O   UNL     1      29.584   1.699 141.037  1.00  0.00    -0.544 OA
ATOM      9  O   UNL     1      27.681   2.914 141.417  1.00  0.00    -0.544 OA
ENDBRANCH   2   7
ENDBRANCH   1   2
BRANCH   1  10
ATOM     10  O   UNL     1      29.665   5.869 143.386  1.00  0.00    -0.390 OA
ATOM     11  H   UNL     1      30.455   5.884 142.785  1.00  0.00     0.210 HD
ENDBRANCH   1  10
TORSDOF 4
ENDMDL
MODEL 2
REMARK VINA RESULT:    -3.445      2.002      2.557
REMARK INTER + INTRA:          -4.060
REMARK INTER:                  -3.919
REMARK INTRA:                  -0.141
REMARK UNBOUND:                -0.010
REMARK SMILES [NH3+][C@H](CO)C(=O)[O-]
REMARK SMILES IDX 3 1 2 2 1 3 5 7 6 8 7 9 4 10
REMARK H PARENT 1 4 1 5 1 6 4 11
REMARK Flexibility Score: inf
ROOT
ATOM      1  C   UNL     1      30.217   3.898 142.729  1.00  0.00     0.227 C 
ENDROOT
BRANCH   1   2
ATOM      2  C   UNL     1      28.929   3.448 142.016  1.00  0.00     0.253 C 
BRANCH   2   3
ATOM      3  N   UNL     1      29.009   2.029 141.650  1.00  0.00    -0.348 N 
ATOM      4  H   UNL     1      29.983   1.668 141.773  1.00  0.00     0.345 HD
ATOM      5  H   UNL     1      28.356   1.472 142.249  1.00  0.00     0.345 HD
ATOM      6  H   UNL     1      28.723   1.906 140.651  1.00  0.00     0.345 HD
ENDBRANCH   2   3
BRANCH   2   7
ATOM      7  C   UNL     1      27.724   3.701 142.883  1.00  0.00     0.102 C 
ATOM      8  O   UNL     1      27.853   4.227 144.021  1.00  0.00    -0.544 OA
ATOM      9  O   UNL     1      26.456   3.367 142.423  1.00  0.00    -0.544 OA
ENDBRANCH   2   7
ENDBRANCH   1   2
BRANCH   1  10
ATOM     10  O   UNL     1      30.755   2.852 143.494  1.00  0.00    -0.390 OA
ATOM     11  H   UNL     1      31.059   2.158 142.854  1.00  0.00     0.210 HD
ENDBRANCH   1  10
TORSDOF 4
ENDMDL
MODEL 3
REMARK VINA RESULT:    -3.394      2.174      2.640
REMARK INTER + INTRA:          -3.999
REMARK INTER:                  -3.993
REMARK INTRA:                  -0.006
REMARK UNBOUND:                -0.010
REMARK SMILES [NH3+][C@H](CO)C(=O)[O-]
REMARK SMILES IDX 3 1 2 2 1 3 5 7 6 8 7 9 4 10
REMARK H PARENT 1 4 1 5 1 6 4 11
REMARK Flexibility Score: inf
ROOT
ATOM      1  C   UNL     1      30.025   3.344 142.551  1.00  0.00     0.227 C 
ENDROOT
BRANCH   1   2
ATOM      2  C   UNL     1      29.008   4.293 143.211  1.00  0.00     0.253 C 
BRANCH   2   3
ATOM      3  N   UNL     1      29.514   5.671 143.216  1.00  0.00    -0.348 N 
ATOM      4  H   UNL     1      29.923   5.919 142.285  1.00  0.00     0.345 HD
ATOM      5  H   UNL     1      28.735   6.333 143.438  1.00  0.00     0.345 HD
ATOM      6  H   UNL     1      30.251   5.773 143.951  1.00  0.00     0.345 HD
ENDBRANCH   2   3
BRANCH   2   7
ATOM      7  C   UNL     1      27.679   4.223 142.505  1.00  0.00     0.102 C 
ATOM      8  O   UNL     1      27.424   4.997 141.544  1.00  0.00    -0.544 OA
ATOM      9  O   UNL     1      26.731   3.289 142.903  1.00  0.00    -0.544 OA
ENDBRANCH   2   7
ENDBRANCH   1   2
BRANCH   1  10
ATOM     10  O   UNL     1      30.920   2.833 143.503  1.00  0.00    -0.390 OA
ATOM     11  H   UNL     1      31.501   3.587 143.782  1.00  0.00     0.210 HD
ENDBRANCH   1  10
TORSDOF 4
ENDMDL
MODEL 4
REMARK VINA RESULT:    -3.337     15.520     16.225
REMARK INTER + INTRA:          -3.932
REMARK INTER:                  -3.551
REMARK INTRA:                  -0.381
REMARK UNBOUND:                -0.010
REMARK SMILES [NH3+][C@H](CO)C(=O)[O-]
REMARK SMILES IDX 3 1 2 2 1 3 5 7 6 8 7 9 4 10
REMARK H PARENT 1 4 1 5 1 6 4 11
REMARK Flexibility Score: inf
ROOT
ATOM      1  C   UNL     1      24.361  17.511 134.867  1.00  0.00     0.227 C 
ENDROOT
BRANCH   1   2
ATOM      2  C   UNL     1      25.548  17.334 133.904  1.00  0.00     0.253 C 
BRANCH   2   3
ATOM      3  N   UNL     1      25.931  18.620 133.312  1.00  0.00    -0.348 N 
ATOM      4  H   UNL     1      26.149  18.511 132.294  1.00  0.00     0.345 HD
ATOM      5  H   UNL     1      25.151  19.309 133.425  1.00  0.00     0.345 HD
ATOM      6  H   UNL     1      26.774  18.998 133.803  1.00  0.00     0.345 HD
ENDBRANCH   2   3
BRANCH   2   7
ATOM      7  C   UNL     1      26.723  16.712 134.614  1.00  0.00     0.102 C 
ATOM      8  O   UNL     1      27.676  17.428 135.021  1.00  0.00    -0.544 OA
ATOM      9  O   UNL     1      26.751  15.341 134.838  1.00  0.00    -0.544 OA
ENDBRANCH   2   7
ENDBRANCH   1   2
BRANCH   1  10
ATOM     10  O   UNL     1      24.772  17.355 136.199  1.00  0.00    -0.390 OA
ATOM     11  H   UNL     1      25.311  16.523 136.236  1.00  0.00     0.210 HD
ENDBRANCH   1  10
TORSDOF 4
ENDMDL
MODEL 5
REMARK VINA RESULT:    -3.281     15.682     16.301
REMARK INTER + INTRA:          -3.867
REMARK INTER:                  -3.502
REMARK INTRA:                  -0.365
REMARK UNBOUND:                -0.010
REMARK SMILES [NH3+][C@H](CO)C(=O)[O-]
REMARK SMILES IDX 3 1 2 2 1 3 5 7 6 8 7 9 4 10
REMARK H PARENT 1 4 1 5 1 6 4 11
REMARK Flexibility Score: inf
ROOT
ATOM      1  C   UNL     1      24.448  17.528 134.791  1.00  0.00     0.227 C 
ENDROOT
BRANCH   1   2
ATOM      2  C   UNL     1      25.578  17.388 133.755  1.00  0.00     0.253 C 
BRANCH   2   3
ATOM      3  N   UNL     1      25.975  18.703 133.241  1.00  0.00    -0.348 N 
ATOM      4  H   UNL     1      26.250  19.340 134.025  1.00  0.00     0.345 HD
ATOM      5  H   UNL     1      26.782  18.598 132.584  1.00  0.00     0.345 HD
ATOM      6  H   UNL     1      25.178  19.133 132.717  1.00  0.00     0.345 HD
ENDBRANCH   2   3
BRANCH   2   7
ATOM      7  C   UNL     1      26.764  16.676 134.352  1.00  0.00     0.102 C 
ATOM      8  O   UNL     1      26.821  15.417 134.351  1.00  0.00    -0.544 OA
ATOM      9  O   UNL     1      27.811  17.409 134.895  1.00  0.00    -0.544 OA
ENDBRANCH   2   7
ENDBRANCH   1   2
BRANCH   1  10
ATOM     10  O   UNL     1      24.936  17.323 136.091  1.00  0.00    -0.390 OA
ATOM     11  H   UNL     1      24.146  17.305 136.691  1.00  0.00     0.210 HD
ENDBRANCH   1  10
TORSDOF 4
ENDMDL
MODEL 6
REMARK VINA RESULT:    -3.279      1.603      1.645
REMARK INTER + INTRA:          -3.864
REMARK INTER:                  -3.495
REMARK INTRA:                  -0.368
REMARK UNBOUND:                -0.010
REMARK SMILES [NH3+][C@H](CO)C(=O)[O-]
REMARK SMILES IDX 3 1 2 2 1 3 5 7 6 8 7 9 4 10
REMARK H PARENT 1 4 1 5 1 6 4 11
REMARK Flexibility Score: inf
ROOT
ATOM      1  C   UNL     1      28.266   3.891 143.249  1.00  0.00     0.227 C 
ENDROOT
BRANCH   1   2
ATOM      2  C   UNL     1      29.562   3.633 142.459  1.00  0.00     0.253 C 
BRANCH   2   3
ATOM      3  N   UNL     1      30.533   2.903 143.283  1.00  0.00    -0.348 N 
ATOM      4  H   UNL     1      30.091   2.572 144.171  1.00  0.00     0.345 HD
ATOM      5  H   UNL     1      30.900   2.080 142.752  1.00  0.00     0.345 HD
ATOM      6  H   UNL     1      31.339   3.529 143.515  1.00  0.00     0.345 HD
ENDBRANCH   2   3
BRANCH   2   7
ATOM      7  C   UNL     1      29.270   2.872 141.192  1.00  0.00     0.102 C 
ATOM      8  O   UNL     1      29.520   1.639 141.114  1.00  0.00    -0.544 OA
ATOM      9  O   UNL     1      28.708   3.527 140.104  1.00  0.00    -0.544 OA
ENDBRANCH   2   7
ENDBRANCH   1   2
BRANCH   1  10
ATOM     10  O   UNL     1      27.246   3.022 142.832  1.00  0.00    -0.390 OA
ATOM     11  H   UNL     1      27.494   2.117 143.153  1.00  0.00     0.210 HD
ENDBRANCH   1  10
TORSDOF 4
ENDMDL
MODEL 7
REMARK VINA RESULT:    -3.185      2.026      2.062
REMARK INTER + INTRA:          -3.753
REMARK INTER:                  -3.538
REMARK INTRA:                  -0.216
REMARK UNBOUND:                -0.010
REMARK SMILES [NH3+][C@H](CO)C(=O)[O-]
REMARK SMILES IDX 3 1 2 2 1 3 5 7 6 8 7 9 4 10
REMARK H PARENT 1 4 1 5 1 6 4 11
REMARK Flexibility Score: inf
ROOT
ATOM      1  C   UNL     1      30.205   3.934 142.838  1.00  0.00     0.227 C 
ENDROOT
BRANCH   1   2
ATOM      2  C   UNL     1      28.806   3.573 142.307  1.00  0.00     0.253 C 
BRANCH   2   3
ATOM      3  N   UNL     1      27.997   4.782 142.116  1.00  0.00    -0.348 N 
ATOM      4  H   UNL     1      27.025   4.640 142.475  1.00  0.00     0.345 HD
ATOM      5  H   UNL     1      28.437   5.586 142.621  1.00  0.00     0.345 HD
ATOM      6  H   UNL     1      27.954   5.020 141.098  1.00  0.00     0.345 HD
ENDBRANCH   2   3
BRANCH   2   7
ATOM      7  C   UNL     1      28.909   2.800 141.018  1.00  0.00     0.102 C 
ATOM      8  O   UNL     1      29.402   1.640 141.006  1.00  0.00    -0.544 OA
ATOM      9  O   UNL     1      28.444   3.360 139.835  1.00  0.00    -0.544 OA
ENDBRANCH   2   7
ENDBRANCH   1   2
BRANCH   1  10
ATOM     10  O   UNL     1      30.813   2.822 143.439  1.00  0.00    -0.390 OA
ATOM     11  H   UNL     1      31.360   3.168 144.191  1.00  0.00     0.210 HD
ENDBRANCH   1  10
TORSDOF 4
ENDMDL
MODEL 8
REMARK VINA RESULT:    -3.151     15.855     16.578
REMARK INTER + INTRA:          -3.713
REMARK INTER:                  -3.390
REMARK INTRA:                  -0.323
REMARK UNBOUND:                -0.010
REMARK SMILES [NH3+][C@H](CO)C(=O)[O-]
REMARK SMILES IDX 3 1 2 2 1 3 5 7 6 8 7 9 4 10
REMARK H PARENT 1 4 1 5 1 6 4 11
REMARK Flexibility Score: inf
ROOT
ATOM      1  C   UNL     1      26.359  16.438 135.496  1.00  0.00     0.227 C 
ENDROOT
BRANCH   1   2
ATOM      2  C   UNL     1      25.710  16.963 134.203  1.00  0.00     0.253 C 
BRANCH   2   3
ATOM      3  N   UNL     1      24.606  17.878 134.513  1.00  0.00    -0.348 N 
ATOM      4  H   UNL     1      24.831  18.461 135.353  1.00  0.00     0.345 HD
ATOM      5  H   UNL     1      24.426  18.506 133.696  1.00  0.00     0.345 HD
ATOM      6  H   UNL     1      23.735  17.329 134.702  1.00  0.00     0.345 HD
ENDBRANCH   2   3
BRANCH   2   7
ATOM      7  C   UNL     1      26.732  17.647 133.333  1.00  0.00     0.102 C 
ATOM      8  O   UNL     1      26.658  18.886 133.113  1.00  0.00    -0.544 OA
ATOM      9  O   UNL     1      27.774  16.914 132.780  1.00  0.00    -0.544 OA
ENDBRANCH   2   7
ENDBRANCH   1   2
BRANCH   1  10
ATOM     10  O   UNL     1      27.579  17.087 135.741  1.00  0.00    -0.390 OA
ATOM     11  H   UNL     1      27.711  17.733 135.000  1.00  0.00     0.210 HD
ENDBRANCH   1  10
TORSDOF 4
ENDMDL
MODEL 9
REMARK VINA RESULT:    -3.043      1.877      3.041
REMARK INTER + INTRA:          -3.587
REMARK INTER:                  -3.369
REMARK INTRA:                  -0.218
REMARK UNBOUND:                -0.010
REMARK SMILES [NH3+][C@H](CO)C(=O)[O-]
REMARK SMILES IDX 3 1 2 2 1 3 5 7 6 8 7 9 4 10
REMARK H PARENT 1 4 1 5 1 6 4 11
REMARK Flexibility Score: inf
ROOT
ATOM      1  C   UNL     1      28.845   3.882 141.251  1.00  0.00     0.227 C 
ENDROOT
BRANCH   1   2
ATOM      2  C   UNL     1      28.763   3.755 142.783  1.00  0.00     0.253 C 
BRANCH   2   3
ATOM      3  N   UNL     1      30.071   3.398 143.343  1.00  0.00    -0.348 N 
ATOM      4  H   UNL     1      29.975   2.638 144.056  1.00  0.00     0.345 HD
ATOM      5  H   UNL     1      30.708   3.074 142.578  1.00  0.00     0.345 HD
ATOM      6  H   UNL     1      30.503   4.238 143.794  1.00  0.00     0.345 HD
ENDBRANCH   2   3
BRANCH   2   7
ATOM      7  C   UNL     1      28.260   5.036 143.397  1.00  0.00     0.102 C 
ATOM      8  O   UNL     1      27.107   5.093 143.902  1.00  0.00    -0.544 OA
ATOM      9  O   UNL     1      29.076   6.160 143.422  1.00  0.00    -0.544 OA
ENDBRANCH   2   7
ENDBRANCH   1   2
BRANCH   1  10
ATOM     10  O   UNL     1      29.272   5.165 140.878  1.00  0.00    -0.390 OA
ATOM     11  H   UNL     1      29.927   5.044 140.142  1.00  0.00     0.210 HD
ENDBRANCH   1  10
TORSDOF 4
ENDMDL
