MODEL 1
REMARK VINA RESULT:    13.951      0.000      0.000
REMARK INTER + INTRA:          20.995
REMARK INTER:                  19.660
REMARK INTRA:                   1.334
REMARK UNBOUND:                 1.334
REMARK SMILES CC1=CCC(=C(C)C)C(=O)CC(C)=CCC1
REMARK SMILES IDX 12 1 14 2 13 3 15 4 16 5 2 6 1 7 3 8 11 10 9 11 10 12 5 13
REMARK SMILES IDX 6 14 7 15 8 16 4 17
REMARK H PARENT
REMARK Flexibility Score: 60.00
ROOT
ATOM      1  C   UNL     1     143.415  56.760  14.512  1.00  0.00    -0.070 C 
ATOM      2  C   UNL     1     144.247  55.868  13.905  1.00  0.00    -0.027 C 
ATOM      3  C   UNL     1     142.253  57.270  13.690  1.00  0.00     0.039 C 
ENDROOT
BRANCH   2   4
ATOM      4  C   UNL     1     145.526  55.192  14.385  1.00  0.00     0.032 C 
BRANCH   4   5
ATOM      5  C   UNL     1     145.398  54.168  15.520  1.00  0.00     0.034 C 
BRANCH   5   6
ATOM      6  C   UNL     1     146.406  54.234  16.676  1.00  0.00    -0.077 C 
ATOM      7  C   UNL     1     147.242  52.989  16.879  1.00  0.00     0.039 C 
ATOM      8  C   UNL     1     146.597  55.225  17.597  1.00  0.00    -0.023 CG0
ATOM      9  G   UNL     1     145.919  56.572  17.761  1.00  0.00     0.000 G0
ENDBRANCH   5   6
ENDBRANCH   4   5
ENDBRANCH   2   4
BRANCH   1  10
ATOM     10  C   UNL     1     143.527  57.293  15.932  1.00  0.00     0.111 C 
BRANCH  10  11
ATOM     11  C   UNL     1     144.770  58.108  16.125  1.00  0.00     0.163 C 
ATOM     12  O   UNL     1     144.740  59.341  15.867  1.00  0.00    -0.294 OA
BRANCH  11  13
ATOM     13  C   UNL     1     146.035  57.469  16.572  1.00  0.00    -0.002 C 
ATOM     14  C   UNL     1     147.208  57.665  15.903  1.00  0.00    -0.069 C 
ATOM     15  C   UNL     1     147.296  58.641  14.751  1.00  0.00     0.039 C 
ATOM     16  C   UNL     1     148.474  56.933  16.288  1.00  0.00     0.039 C 
BRANCH  13  17
ATOM     17  C   UNL     1     145.937  56.579  17.793  1.00  0.00     0.066 CG0
ATOM     18  G   UNL     1     146.595  55.231  17.568  1.00  0.00     0.000 G0
ENDBRANCH  13  17
ENDBRANCH  11  13
ENDBRANCH  10  11
ENDBRANCH   1  10
TORSDOF 0
ENDMDL
MODEL 2
REMARK VINA RESULT:    14.520      1.554      2.727
REMARK INTER + INTRA:          21.796
REMARK INTER:                  20.699
REMARK INTRA:                   1.097
REMARK UNBOUND:                 1.334
REMARK SMILES CC1=CCC(=C(C)C)C(=O)CC(C)=CCC1
REMARK SMILES IDX 12 1 14 2 13 3 15 4 16 5 2 6 1 7 3 8 11 10 9 11 10 12 5 13
REMARK SMILES IDX 6 14 7 15 8 16 4 17
REMARK H PARENT
REMARK Flexibility Score: 60.00
ROOT
ATOM      1  C   UNL     1     145.569  55.240  14.775  1.00  0.00    -0.070 C 
ATOM      2  C   UNL     1     145.811  54.120  15.515  1.00  0.00    -0.027 C 
ATOM      3  C   UNL     1     144.200  55.352  14.145  1.00  0.00     0.039 C 
ENDROOT
BRANCH   2   4
ATOM      4  C   UNL     1     147.064  53.640  16.239  1.00  0.00     0.032 C 
BRANCH   4   5
ATOM      5  C   UNL     1     146.953  53.391  17.748  1.00  0.00     0.034 C 
BRANCH   5   6
ATOM      6  C   UNL     1     145.832  54.099  18.521  1.00  0.00    -0.077 C 
ATOM      7  C   UNL     1     144.751  53.194  19.070  1.00  0.00     0.039 C 
ATOM      8  C   UNL     1     145.629  55.436  18.711  1.00  0.00    -0.023 CG0
ATOM      9  G   UNL     1     146.442  56.638  18.265  1.00  0.00     0.000 G0
ENDBRANCH   5   6
ENDBRANCH   4   5
ENDBRANCH   2   4
BRANCH   1  10
ATOM     10  C   UNL     1     146.529  56.392  14.523  1.00  0.00     0.111 C 
BRANCH  10  11
ATOM     11  C   UNL     1     146.928  57.075  15.796  1.00  0.00     0.163 C 
ATOM     12  O   UNL     1     148.104  57.514  15.912  1.00  0.00    -0.294 OA
BRANCH  11  13
ATOM     13  C   UNL     1     145.970  57.197  16.924  1.00  0.00    -0.002 C 
ATOM     14  C   UNL     1     144.750  57.789  16.764  1.00  0.00    -0.069 C 
ATOM     15  C   UNL     1     144.272  58.233  15.400  1.00  0.00     0.039 C 
ATOM     16  C   UNL     1     143.816  58.012  17.932  1.00  0.00     0.039 C 
BRANCH  13  17
ATOM     17  C   UNL     1     146.435  56.648  18.256  1.00  0.00     0.066 CG0
ATOM     18  G   UNL     1     145.617  55.447  18.693  1.00  0.00     0.000 G0
ENDBRANCH  13  17
ENDBRANCH  11  13
ENDBRANCH  10  11
ENDBRANCH   1  10
TORSDOF 0
ENDMDL
MODEL 3
REMARK VINA RESULT:    14.627      0.878      1.105
REMARK INTER + INTRA:          21.947
REMARK INTER:                  21.910
REMARK INTRA:                   0.037
REMARK UNBOUND:                 1.334
REMARK SMILES CC1=CCC(=C(C)C)C(=O)CC(C)=CCC1
REMARK SMILES IDX 12 1 14 2 13 3 15 4 16 5 2 6 1 7 3 8 11 10 9 11 10 12 5 13
REMARK SMILES IDX 6 14 7 15 8 16 4 17
REMARK H PARENT
REMARK Flexibility Score: 60.00
ROOT
ATOM      1  C   UNL     1     144.202  56.018  14.721  1.00  0.00    -0.070 C 
ATOM      2  C   UNL     1     144.864  54.864  14.423  1.00  0.00    -0.027 C 
ATOM      3  C   UNL     1     143.634  56.793  13.554  1.00  0.00     0.039 C 
ENDROOT
BRANCH   2   4
ATOM      4  C   UNL     1     145.603  53.867  15.309  1.00  0.00     0.032 C 
BRANCH   4   5
ATOM      5  C   UNL     1     146.655  54.429  16.274  1.00  0.00     0.034 C 
BRANCH   5   6
ATOM      6  C   UNL     1     146.285  54.558  17.759  1.00  0.00    -0.077 C 
ATOM      7  C   UNL     1     145.830  53.279  18.427  1.00  0.00     0.039 C 
ATOM      8  C   UNL     1     146.229  55.679  18.537  1.00  0.00    -0.023 CG0
ATOM      9  G   UNL     1     146.540  57.129  18.216  1.00  0.00     0.000 G0
ENDBRANCH   5   6
ENDBRANCH   4   5
ENDBRANCH   2   4
BRANCH   1  10
ATOM     10  C   UNL     1     143.968  56.606  16.103  1.00  0.00     0.111 C 
BRANCH  10  11
ATOM     11  C   UNL     1     144.892  57.752  16.386  1.00  0.00     0.163 C 
ATOM     12  O   UNL     1     144.464  58.930  16.248  1.00  0.00    -0.294 OA
BRANCH  11  13
ATOM     13  C   UNL     1     146.303  57.511  16.779  1.00  0.00    -0.002 C 
ATOM     14  C   UNL     1     147.321  57.592  15.873  1.00  0.00    -0.069 C 
ATOM     15  C   UNL     1     147.068  58.054  14.456  1.00  0.00     0.039 C 
ATOM     16  C   UNL     1     148.744  57.242  16.244  1.00  0.00     0.039 C 
BRANCH  13  17
ATOM     17  C   UNL     1     146.538  57.153  18.232  1.00  0.00     0.066 CG0
ATOM     18  G   UNL     1     146.232  55.694  18.514  1.00  0.00     0.000 G0
ENDBRANCH  13  17
ENDBRANCH  11  13
ENDBRANCH  10  11
ENDBRANCH   1  10
TORSDOF 0
ENDMDL
MODEL 4
REMARK VINA RESULT:    14.792      1.586      4.402
REMARK INTER + INTRA:          22.179
REMARK INTER:                  20.017
REMARK INTRA:                   2.163
REMARK UNBOUND:                 1.334
REMARK SMILES CC1=CCC(=C(C)C)C(=O)CC(C)=CCC1
REMARK SMILES IDX 12 1 14 2 13 3 15 4 16 5 2 6 1 7 3 8 11 10 9 11 10 12 5 13
REMARK SMILES IDX 6 14 7 15 8 16 4 17
REMARK H PARENT
REMARK Flexibility Score: 60.00
ROOT
ATOM      1  C   UNL     1     147.621  57.507  16.302  1.00  0.00    -0.070 C 
ATOM      2  C   UNL     1     147.176  58.234  15.238  1.00  0.00    -0.027 C 
ATOM      3  C   UNL     1     149.043  56.999  16.229  1.00  0.00     0.039 C 
ENDROOT
BRANCH   2   4
ATOM      4  C   UNL     1     145.815  58.850  14.935  1.00  0.00     0.032 C 
BRANCH   4   5
ATOM      5  C   UNL     1     144.580  58.147  15.514  1.00  0.00     0.034 C 
BRANCH   5   6
ATOM      6  C   UNL     1     143.997  56.952  14.746  1.00  0.00    -0.077 C 
ATOM      7  C   UNL     1     142.593  57.145  14.214  1.00  0.00     0.039 C 
ATOM      8  C   UNL     1     144.534  55.712  14.548  1.00  0.00    -0.023 CG0
ATOM      9  G   UNL     1     145.866  55.126  14.977  1.00  0.00     0.000 G0
ENDBRANCH   5   6
ENDBRANCH   4   5
ENDBRANCH   2   4
BRANCH   1  10
ATOM     10  C   UNL     1     146.840  57.157  17.559  1.00  0.00     0.111 C 
BRANCH  10  11
ATOM     11  C   UNL     1     145.742  56.176  17.279  1.00  0.00     0.163 C 
ATOM     12  O   UNL     1     144.599  56.380  17.771  1.00  0.00    -0.294 OA
BRANCH  11  13
ATOM     13  C   UNL     1     146.001  54.956  16.472  1.00  0.00    -0.002 C 
ATOM     14  C   UNL     1     146.345  53.773  17.058  1.00  0.00    -0.069 C 
ATOM     15  C   UNL     1     146.355  53.621  18.563  1.00  0.00     0.039 C 
ATOM     16  C   UNL     1     146.715  52.558  16.238  1.00  0.00     0.039 C 
BRANCH  13  17
ATOM     17  C   UNL     1     145.881  55.112  14.971  1.00  0.00     0.066 CG0
ATOM     18  G   UNL     1     144.550  55.719  14.568  1.00  0.00     0.000 G0
ENDBRANCH  13  17
ENDBRANCH  11  13
ENDBRANCH  10  11
ENDBRANCH   1  10
TORSDOF 0
ENDMDL
MODEL 5
REMARK VINA RESULT:    14.816      1.535      3.493
REMARK INTER + INTRA:          22.213
REMARK INTER:                  19.903
REMARK INTRA:                   2.311
REMARK UNBOUND:                 1.334
REMARK SMILES CC1=CCC(=C(C)C)C(=O)CC(C)=CCC1
REMARK SMILES IDX 12 1 14 2 13 3 15 4 16 5 2 6 1 7 3 8 11 10 9 11 10 12 5 13
REMARK SMILES IDX 6 14 7 15 8 16 4 17
REMARK H PARENT
REMARK Flexibility Score: 60.00
ROOT
ATOM      1  C   UNL     1     144.410  58.193  16.221  1.00  0.00    -0.070 C 
ATOM      2  C   UNL     1     145.430  59.024  15.862  1.00  0.00    -0.027 C 
ATOM      3  C   UNL     1     143.585  58.611  17.416  1.00  0.00     0.039 C 
ENDROOT
BRANCH   2   4
ATOM      4  C   UNL     1     146.489  58.909  14.771  1.00  0.00     0.032 C 
BRANCH   4   5
ATOM      5  C   UNL     1     147.502  57.764  14.891  1.00  0.00     0.034 C 
BRANCH   5   6
ATOM      6  C   UNL     1     148.168  57.523  16.253  1.00  0.00    -0.077 C 
ATOM      7  C   UNL     1     149.638  57.875  16.328  1.00  0.00     0.039 C 
ATOM      8  C   UNL     1     147.643  56.959  17.381  1.00  0.00    -0.023 CG0
ATOM      9  G   UNL     1     146.251  56.428  17.670  1.00  0.00     0.000 G0
ENDBRANCH   5   6
ENDBRANCH   4   5
ENDBRANCH   2   4
BRANCH   1  10
ATOM     10  C   UNL     1     144.010  56.893  15.542  1.00  0.00     0.111 C 
BRANCH  10  11
ATOM     11  C   UNL     1     145.169  55.949  15.417  1.00  0.00     0.163 C 
ATOM     12  O   UNL     1     145.553  55.601  14.268  1.00  0.00    -0.294 OA
BRANCH  11  13
ATOM     13  C   UNL     1     145.830  55.394  16.626  1.00  0.00    -0.002 C 
ATOM     14  C   UNL     1     146.013  54.051  16.786  1.00  0.00    -0.069 C 
ATOM     15  C   UNL     1     145.662  53.079  15.682  1.00  0.00     0.039 C 
ATOM     16  C   UNL     1     146.586  53.474  18.060  1.00  0.00     0.039 C 
BRANCH  13  17
ATOM     17  C   UNL     1     146.266  56.402  17.669  1.00  0.00     0.066 CG0
ATOM     18  G   UNL     1     147.647  56.959  17.379  1.00  0.00     0.000 G0
ENDBRANCH  13  17
ENDBRANCH  11  13
ENDBRANCH  10  11
ENDBRANCH   1  10
TORSDOF 0
ENDMDL
MODEL 6
REMARK VINA RESULT:    15.110      1.719      3.831
REMARK INTER + INTRA:          22.628
REMARK INTER:                  21.270
REMARK INTRA:                   1.357
REMARK UNBOUND:                 1.334
REMARK SMILES CC1=CCC(=C(C)C)C(=O)CC(C)=CCC1
REMARK SMILES IDX 12 1 14 2 13 3 15 4 16 5 2 6 1 7 3 8 11 10 9 11 10 12 5 13
REMARK SMILES IDX 6 14 7 15 8 16 4 17
REMARK H PARENT
REMARK Flexibility Score: 60.00
ROOT
ATOM      1  C   UNL     1     144.937  58.246  16.516  1.00  0.00    -0.070 C 
ATOM      2  C   UNL     1     145.868  58.530  15.561  1.00  0.00    -0.027 C 
ATOM      3  C   UNL     1     144.037  59.382  16.943  1.00  0.00     0.039 C 
ENDROOT
BRANCH   2   4
ATOM      4  C   UNL     1     146.964  57.675  14.933  1.00  0.00     0.032 C 
BRANCH   4   5
ATOM      5  C   UNL     1     146.543  56.682  13.842  1.00  0.00     0.034 C 
BRANCH   5   6
ATOM      6  C   UNL     1     145.375  55.731  14.136  1.00  0.00    -0.077 C 
ATOM      7  C   UNL     1     144.101  56.010  13.368  1.00  0.00     0.039 C 
ATOM      8  C   UNL     1     145.297  54.720  15.052  1.00  0.00    -0.023 CG0
ATOM      9  G   UNL     1     146.324  54.190  16.035  1.00  0.00     0.000 G0
ENDBRANCH   5   6
ENDBRANCH   4   5
ENDBRANCH   2   4
BRANCH   1  10
ATOM     10  C   UNL     1     144.704  56.904  17.192  1.00  0.00     0.111 C 
BRANCH  10  11
ATOM     11  C   UNL     1     145.992  56.222  17.539  1.00  0.00     0.163 C 
ATOM     12  O   UNL     1     146.982  56.923  17.884  1.00  0.00    -0.294 OA
BRANCH  11  13
ATOM     13  C   UNL     1     146.122  54.746  17.436  1.00  0.00    -0.002 C 
ATOM     14  C   UNL     1     146.080  53.947  18.542  1.00  0.00    -0.069 C 
ATOM     15  C   UNL     1     145.776  54.521  19.908  1.00  0.00     0.039 C 
ATOM     16  C   UNL     1     146.319  52.457  18.455  1.00  0.00     0.039 C 
BRANCH  13  17
ATOM     17  C   UNL     1     146.320  54.190  16.042  1.00  0.00     0.066 CG0
ATOM     18  G   UNL     1     145.299  54.736  15.061  1.00  0.00     0.000 G0
ENDBRANCH  13  17
ENDBRANCH  11  13
ENDBRANCH  10  11
ENDBRANCH   1  10
TORSDOF 0
ENDMDL
MODEL 7
REMARK VINA RESULT:    15.237      1.626      3.792
REMARK INTER + INTRA:          22.806
REMARK INTER:                  21.825
REMARK INTRA:                   0.981
REMARK UNBOUND:                 1.334
REMARK SMILES CC1=CCC(=C(C)C)C(=O)CC(C)=CCC1
REMARK SMILES IDX 12 1 14 2 13 3 15 4 16 5 2 6 1 7 3 8 11 10 9 11 10 12 5 13
REMARK SMILES IDX 6 14 7 15 8 16 4 17
REMARK H PARENT
REMARK Flexibility Score: 60.00
ROOT
ATOM      1  C   UNL     1     146.192  54.214  17.424  1.00  0.00    -0.070 C 
ATOM      2  C   UNL     1     146.315  54.015  16.081  1.00  0.00    -0.027 C 
ATOM      3  C   UNL     1     146.798  53.161  18.323  1.00  0.00     0.039 C 
ENDROOT
BRANCH   2   4
ATOM      4  C   UNL     1     145.795  54.814  14.891  1.00  0.00     0.032 C 
BRANCH   4   5
ATOM      5  C   UNL     1     144.291  55.116  14.849  1.00  0.00     0.034 C 
BRANCH   5   6
ATOM      6  C   UNL     1     143.845  56.529  14.447  1.00  0.00    -0.077 C 
ATOM      7  C   UNL     1     143.275  56.657  13.051  1.00  0.00     0.039 C 
ATOM      8  C   UNL     1     143.966  57.700  15.140  1.00  0.00    -0.023 CG0
ATOM      9  G   UNL     1     144.534  57.985  16.518  1.00  0.00     0.000 G0
ENDBRANCH   5   6
ENDBRANCH   4   5
ENDBRANCH   2   4
BRANCH   1  10
ATOM     10  C   UNL     1     145.516  55.387  18.115  1.00  0.00     0.111 C 
BRANCH  10  11
ATOM     11  C   UNL     1     146.244  56.674  17.871  1.00  0.00     0.163 C 
ATOM     12  O   UNL     1     147.074  57.079  18.729  1.00  0.00    -0.294 OA
BRANCH  11  13
ATOM     13  C   UNL     1     145.965  57.487  16.660  1.00  0.00    -0.002 C 
ATOM     14  C   UNL     1     146.944  57.780  15.755  1.00  0.00    -0.069 C 
ATOM     15  C   UNL     1     148.328  57.185  15.884  1.00  0.00     0.039 C 
ATOM     16  C   UNL     1     146.691  58.696  14.579  1.00  0.00     0.039 C 
BRANCH  13  17
ATOM     17  C   UNL     1     144.542  57.982  16.503  1.00  0.00     0.066 CG0
ATOM     18  G   UNL     1     143.979  57.669  15.129  1.00  0.00     0.000 G0
ENDBRANCH  13  17
ENDBRANCH  11  13
ENDBRANCH  10  11
ENDBRANCH   1  10
TORSDOF 0
ENDMDL
MODEL 8
REMARK VINA RESULT:    15.616      1.742      3.785
REMARK INTER + INTRA:          23.341
REMARK INTER:                  21.909
REMARK INTRA:                   1.432
REMARK UNBOUND:                 1.334
REMARK SMILES CC1=CCC(=C(C)C)C(=O)CC(C)=CCC1
REMARK SMILES IDX 12 1 14 2 13 3 15 4 16 5 2 6 1 7 3 8 11 10 9 11 10 12 5 13
REMARK SMILES IDX 6 14 7 15 8 16 4 17
REMARK H PARENT
REMARK Flexibility Score: 60.00
ROOT
ATOM      1  C   UNL     1     148.166  57.525  16.260  1.00  0.00    -0.070 C 
ATOM      2  C   UNL     1     147.741  56.853  17.368  1.00  0.00    -0.027 C 
ATOM      3  C   UNL     1     149.661  57.655  16.080  1.00  0.00     0.039 C 
ENDROOT
BRANCH   2   4
ATOM      4  C   UNL     1     146.341  56.576  17.904  1.00  0.00     0.032 C 
BRANCH   4   5
ATOM      5  C   UNL     1     145.894  55.110  17.980  1.00  0.00     0.034 C 
BRANCH   5   6
ATOM      6  C   UNL     1     146.189  54.197  16.781  1.00  0.00    -0.077 C 
ATOM      7  C   UNL     1     147.209  53.107  17.032  1.00  0.00     0.039 C 
ATOM      8  C   UNL     1     145.725  54.282  15.500  1.00  0.00    -0.023 CG0
ATOM      9  G   UNL     1     144.758  55.258  14.855  1.00  0.00     0.000 G0
ENDBRANCH   5   6
ENDBRANCH   4   5
ENDBRANCH   2   4
BRANCH   1  10
ATOM     10  C   UNL     1     147.296  58.152  15.182  1.00  0.00     0.111 C 
BRANCH  10  11
ATOM     11  C   UNL     1     146.440  57.132  14.493  1.00  0.00     0.163 C 
ATOM     12  O   UNL     1     146.817  56.668  13.383  1.00  0.00    -0.294 OA
BRANCH  11  13
ATOM     13  C   UNL     1     145.146  56.704  15.082  1.00  0.00    -0.002 C 
ATOM     14  C   UNL     1     144.374  57.563  15.809  1.00  0.00    -0.069 C 
ATOM     15  C   UNL     1     144.743  59.024  15.939  1.00  0.00     0.039 C 
ATOM     16  C   UNL     1     143.110  57.104  16.501  1.00  0.00     0.039 C 
BRANCH  13  17
ATOM     17  C   UNL     1     144.751  55.261  14.846  1.00  0.00     0.066 CG0
ATOM     18  G   UNL     1     145.721  54.292  15.495  1.00  0.00     0.000 G0
ENDBRANCH  13  17
ENDBRANCH  11  13
ENDBRANCH  10  11
ENDBRANCH   1  10
TORSDOF 0
ENDMDL
MODEL 9
REMARK VINA RESULT:    15.694      1.848      3.860
REMARK INTER + INTRA:          23.450
REMARK INTER:                  21.355
REMARK INTRA:                   2.095
REMARK UNBOUND:                 1.334
REMARK SMILES CC1=CCC(=C(C)C)C(=O)CC(C)=CCC1
REMARK SMILES IDX 12 1 14 2 13 3 15 4 16 5 2 6 1 7 3 8 11 10 9 11 10 12 5 13
REMARK SMILES IDX 6 14 7 15 8 16 4 17
REMARK H PARENT
REMARK Flexibility Score: 60.00
ROOT
ATOM      1  C   UNL     1     145.876  54.862  15.877  1.00  0.00    -0.070 C 
ATOM      2  C   UNL     1     146.095  55.163  17.188  1.00  0.00    -0.027 C 
ATOM      3  C   UNL     1     145.867  53.395  15.511  1.00  0.00     0.039 C 
ENDROOT
BRANCH   2   4
ATOM      4  C   UNL     1     146.227  56.500  17.909  1.00  0.00     0.032 C 
BRANCH   4   5
ATOM      5  C   UNL     1     147.502  57.314  17.653  1.00  0.00     0.034 C 
BRANCH   5   6
ATOM      6  C   UNL     1     147.957  57.514  16.200  1.00  0.00    -0.077 C 
ATOM      7  C   UNL     1     149.332  56.974  15.871  1.00  0.00     0.039 C 
ATOM      8  C   UNL     1     147.332  58.182  15.186  1.00  0.00    -0.023 CG0
ATOM      9  G   UNL     1     145.996  58.902  15.146  1.00  0.00     0.000 G0
ENDBRANCH   5   6
ENDBRANCH   4   5
ENDBRANCH   2   4
BRANCH   1  10
ATOM     10  C   UNL     1     145.633  55.845  14.743  1.00  0.00     0.111 C 
BRANCH  10  11
ATOM     11  C   UNL     1     144.545  56.822  15.075  1.00  0.00     0.163 C 
ATOM     12  O   UNL     1     143.360  56.554  14.739  1.00  0.00    -0.294 OA
BRANCH  11  13
ATOM     13  C   UNL     1     144.859  58.107  15.750  1.00  0.00    -0.002 C 
ATOM     14  C   UNL     1     144.150  58.533  16.836  1.00  0.00    -0.069 C 
ATOM     15  C   UNL     1     143.097  57.656  17.475  1.00  0.00     0.039 C 
ATOM     16  C   UNL     1     144.394  59.889  17.461  1.00  0.00     0.039 C 
BRANCH  13  17
ATOM     17  C   UNL     1     145.990  58.916  15.152  1.00  0.00     0.066 CG0
ATOM     18  G   UNL     1     147.310  58.168  15.197  1.00  0.00     0.000 G0
ENDBRANCH  13  17
ENDBRANCH  11  13
ENDBRANCH  10  11
ENDBRANCH   1  10
TORSDOF 0
ENDMDL
