MODEL 1
REMARK VINA RESULT:    -6.467      0.000      0.000
REMARK INTER + INTRA:          -9.380
REMARK INTER:                  -8.925
REMARK INTRA:                  -0.455
REMARK UNBOUND:                -0.455
REMARK SMILES C[C@@H]1OC(=O)[C@H](C)[C@@H]1C[C@H](O)[C@](C)(O)[C@@H]1CC[C@]2(O)C3=CC(=O)[C@H]4C[C@H](O)[C@@H](O)C[C@]4(C)[C@@H]3CC[C@@]12C
REMARK SMILES IDX 12 1 13 2 10 3 9 4 8 5 7 6 6 7 4 8 2 9 3 10 5 11 1 12 11 13
REMARK SMILES IDX 15 15 16 16 36 17 17 18 18 19 35 20 37 21 20 22 34 23 33 24
REMARK SMILES IDX 21 25 31 26 22 27 24 28 30 29 32 30 23 31 25 32 28 33 26 34
REMARK SMILES IDX 19 35 29 37 27 39 14 41
REMARK H PARENT 11 14 19 36 29 38 27 40 14 42
REMARK Flexibility Score: inf
ROOT
ATOM      1  C   UNL     1      -3.812  31.337  55.653  1.00  0.00     0.091 C 
ATOM      2  C   UNL     1      -4.987  30.327  55.498  1.00  0.00     0.045 C 
ENDROOT
BRANCH   1   3
ATOM      3  C   UNL     1      -2.958  31.357  54.323  1.00  0.00     0.146 C 
BRANCH   3   4
ATOM      4  C   UNL     1      -2.851  29.978  53.592  1.00  0.00     0.043 C 
BRANCH   4   5
ATOM      5  C   UNL     1      -1.594  29.073  53.793  1.00  0.00     0.046 C 
ATOM      6  C   UNL     1      -2.601  26.929  52.665  1.00  0.00     0.020 C 
ATOM      7  C   UNL     1      -1.741  27.526  53.777  1.00  0.00     0.103 C 
ATOM      8  C   UNL     1      -0.325  27.125  53.577  1.00  0.00     0.309 C 
ATOM      9  C   UNL     1      -0.226  29.395  53.123  1.00  0.00     0.177 C 
ATOM     10  O   UNL     1       0.496  28.178  53.228  1.00  0.00    -0.462 OA
ATOM     11  O   UNL     1       0.104  25.950  53.724  1.00  0.00    -0.252 OA
ATOM     12  C   UNL     1      -0.264  29.813  51.657  1.00  0.00     0.053 C 
ENDBRANCH   4   5
ENDBRANCH   3   4
BRANCH   3  13
ATOM     13  O   UNL     1      -1.691  31.911  54.593  1.00  0.00    -0.390 OA
ATOM     14  H   UNL     1      -1.039  31.183  54.748  1.00  0.00     0.211 HD
ENDBRANCH   3  13
ENDBRANCH   1   3
BRANCH   1  15
ATOM     15  C   UNL     1      -2.900  31.061  56.929  1.00  0.00     0.032 C 
ATOM     16  C   UNL     1      -2.781  29.585  57.423  1.00  0.00     0.010 C 
ATOM     17  C   UNL     1      -3.155  31.862  58.246  1.00  0.00     0.006 C 
ATOM     18  C   UNL     1      -2.567  29.633  58.951  1.00  0.00     0.041 C 
ATOM     19  C   UNL     1      -2.206  31.098  59.226  1.00  0.00     0.092 C 
ATOM     20  C   UNL     1      -2.782  33.374  58.237  1.00  0.00     0.011 C 
ATOM     21  C   UNL     1      -4.660  31.751  58.669  1.00  0.00     0.015 C 
ATOM     22  C   UNL     1      -2.379  31.697  60.617  1.00  0.00    -0.031 C 
ATOM     23  C   UNL     1      -2.788  34.002  59.662  1.00  0.00     0.009 C 
ATOM     24  C   UNL     1      -1.991  33.183  60.733  1.00  0.00     0.025 C 
ATOM     25  C   UNL     1      -3.099  31.077  61.569  1.00  0.00     0.050 C 
ATOM     26  C   UNL     1      -2.061  33.715  62.226  1.00  0.00    -0.013 C 
ATOM     27  C   UNL     1      -3.626  31.802  62.733  1.00  0.00     0.159 C 
ATOM     28  C   UNL     1      -3.435  33.293  62.839  1.00  0.00     0.070 C 
ATOM     29  C   UNL     1      -1.847  35.276  62.338  1.00  0.00     0.042 C 
ATOM     30  C   UNL     1      -0.899  33.047  63.026  1.00  0.00     0.013 C 
ATOM     31  O   UNL     1      -4.313  31.179  63.586  1.00  0.00    -0.295 OA
ATOM     32  C   UNL     1      -3.635  33.809  64.287  1.00  0.00     0.047 C 
ATOM     33  C   UNL     1      -2.929  36.012  63.150  1.00  0.00     0.143 C 
ATOM     34  C   UNL     1      -3.181  35.279  64.485  1.00  0.00     0.143 C 
BRANCH  19  35
ATOM     35  O   UNL     1      -0.835  31.179  58.867  1.00  0.00    -0.385 OA
ATOM     36  H   UNL     1      -0.413  30.287  58.817  1.00  0.00     0.211 HD
ENDBRANCH  19  35
BRANCH  33  37
ATOM     37  O   UNL     1      -2.499  37.326  63.396  1.00  0.00    -0.390 OA
ATOM     38  H   UNL     1      -1.713  37.268  63.998  1.00  0.00     0.211 HD
ENDBRANCH  33  37
BRANCH  34  39
ATOM     39  O   UNL     1      -4.110  35.983  65.273  1.00  0.00    -0.390 OA
ATOM     40  H   UNL     1      -4.575  35.319  65.850  1.00  0.00     0.211 HD
ENDBRANCH  34  39
ENDBRANCH   1  15
BRANCH   1  41
ATOM     41  O   UNL     1      -4.379  32.619  55.804  1.00  0.00    -0.387 OA
ATOM     42  H   UNL     1      -4.435  33.056  54.913  1.00  0.00     0.211 HD
ENDBRANCH   1  41
TORSDOF 9
ENDMDL
MODEL 2
REMARK VINA RESULT:    -6.298      2.361      8.663
REMARK INTER + INTRA:          -9.146
REMARK INTER:                  -8.382
REMARK INTRA:                  -0.764
REMARK UNBOUND:                -0.455
REMARK SMILES C[C@@H]1OC(=O)[C@H](C)[C@@H]1C[C@H](O)[C@](C)(O)[C@@H]1CC[C@]2(O)C3=CC(=O)[C@H]4C[C@H](O)[C@@H](O)C[C@]4(C)[C@@H]3CC[C@@]12C
REMARK SMILES IDX 12 1 13 2 10 3 9 4 8 5 7 6 6 7 4 8 2 9 3 10 5 11 1 12 11 13
REMARK SMILES IDX 15 15 16 16 36 17 17 18 18 19 35 20 37 21 20 22 34 23 33 24
REMARK SMILES IDX 21 25 31 26 22 27 24 28 30 29 32 30 23 31 25 32 28 33 26 34
REMARK SMILES IDX 19 35 29 37 27 39 14 41
REMARK H PARENT 11 14 19 36 29 38 27 40 14 42
REMARK Flexibility Score: inf
ROOT
ATOM      1  C   UNL     1      -0.699  33.255  61.743  1.00  0.00     0.091 C 
ATOM      2  C   UNL     1      -0.645  32.994  63.277  1.00  0.00     0.045 C 
ENDROOT
BRANCH   1   3
ATOM      3  C   UNL     1      -0.720  34.813  61.475  1.00  0.00     0.146 C 
BRANCH   3   4
ATOM      4  C   UNL     1      -2.149  35.442  61.390  1.00  0.00     0.043 C 
BRANCH   4   5
ATOM      5  C   UNL     1      -2.679  36.019  60.038  1.00  0.00     0.046 C 
ATOM      6  C   UNL     1      -5.125  35.099  60.272  1.00  0.00     0.020 C 
ATOM      7  C   UNL     1      -3.931  35.394  59.364  1.00  0.00     0.103 C 
ATOM      8  C   UNL     1      -4.290  36.474  58.410  1.00  0.00     0.309 C 
ATOM      9  C   UNL     1      -2.745  37.550  59.760  1.00  0.00     0.177 C 
ATOM     10  O   UNL     1      -3.612  37.652  58.641  1.00  0.00    -0.462 OA
ATOM     11  O   UNL     1      -5.116  36.339  57.468  1.00  0.00    -0.252 OA
ATOM     12  C   UNL     1      -3.292  38.427  60.882  1.00  0.00     0.053 C 
ENDBRANCH   4   5
ENDBRANCH   3   4
BRANCH   3  13
ATOM     13  O   UNL     1       0.052  35.097  60.331  1.00  0.00    -0.390 OA
ATOM     14  H   UNL     1       0.518  35.961  60.453  1.00  0.00     0.211 HD
ENDBRANCH   3  13
ENDBRANCH   1   3
BRANCH   1  15
ATOM     15  C   UNL     1      -1.909  32.519  61.015  1.00  0.00     0.032 C 
ATOM     16  C   UNL     1      -2.583  31.327  61.764  1.00  0.00     0.010 C 
ATOM     17  C   UNL     1      -1.716  31.970  59.565  1.00  0.00     0.006 C 
ATOM     18  C   UNL     1      -3.103  30.350  60.688  1.00  0.00     0.041 C 
ATOM     19  C   UNL     1      -3.046  31.166  59.391  1.00  0.00     0.092 C 
ATOM     20  C   UNL     1      -1.593  33.021  58.421  1.00  0.00     0.011 C 
ATOM     21  C   UNL     1      -0.450  31.048  59.495  1.00  0.00     0.015 C 
ATOM     22  C   UNL     1      -3.007  30.473  58.034  1.00  0.00    -0.031 C 
ATOM     23  C   UNL     1      -1.707  32.383  57.006  1.00  0.00     0.009 C 
ATOM     24  C   UNL     1      -2.934  31.425  56.825  1.00  0.00     0.025 C 
ATOM     25  C   UNL     1      -2.741  29.160  57.917  1.00  0.00     0.050 C 
ATOM     26  C   UNL     1      -3.034  30.658  55.440  1.00  0.00    -0.013 C 
ATOM     27  C   UNL     1      -2.287  28.573  56.650  1.00  0.00     0.159 C 
ATOM     28  C   UNL     1      -2.027  29.463  55.461  1.00  0.00     0.070 C 
ATOM     29  C   UNL     1      -2.775  31.593  54.193  1.00  0.00     0.042 C 
ATOM     30  C   UNL     1      -4.491  30.118  55.298  1.00  0.00     0.013 C 
ATOM     31  O   UNL     1      -2.031  27.340  56.599  1.00  0.00    -0.295 OA
ATOM     32  C   UNL     1      -2.002  28.670  54.130  1.00  0.00     0.047 C 
ATOM     33  C   UNL     1      -1.726  31.058  53.201  1.00  0.00     0.143 C 
ATOM     34  C   UNL     1      -2.012  29.578  52.872  1.00  0.00     0.143 C 
BRANCH  19  35
ATOM     35  O   UNL     1      -4.210  31.975  59.453  1.00  0.00    -0.385 OA
ATOM     36  H   UNL     1      -4.787  31.736  60.218  1.00  0.00     0.211 HD
ENDBRANCH  19  35
BRANCH  33  37
ATOM     37  O   UNL     1      -1.773  31.830  52.029  1.00  0.00    -0.390 OA
ATOM     38  H   UNL     1      -2.559  32.428  52.104  1.00  0.00     0.211 HD
ENDBRANCH  33  37
BRANCH  34  39
ATOM     39  O   UNL     1      -1.109  29.098  51.906  1.00  0.00    -0.390 OA
ATOM     40  H   UNL     1      -1.640  28.834  51.107  1.00  0.00     0.211 HD
ENDBRANCH  34  39
ENDBRANCH   1  15
BRANCH   1  41
ATOM     41  O   UNL     1       0.498  32.754  61.191  1.00  0.00    -0.387 OA
ATOM     42  H   UNL     1       0.360  31.808  60.920  1.00  0.00     0.211 HD
ENDBRANCH   1  41
TORSDOF 9
ENDMDL
MODEL 3
REMARK VINA RESULT:    -6.247      1.876      9.421
REMARK INTER + INTRA:          -9.077
REMARK INTER:                  -8.423
REMARK INTRA:                  -0.654
REMARK UNBOUND:                -0.455
REMARK SMILES C[C@@H]1OC(=O)[C@H](C)[C@@H]1C[C@H](O)[C@](C)(O)[C@@H]1CC[C@]2(O)C3=CC(=O)[C@H]4C[C@H](O)[C@@H](O)C[C@]4(C)[C@@H]3CC[C@@]12C
REMARK SMILES IDX 12 1 13 2 10 3 9 4 8 5 7 6 6 7 4 8 2 9 3 10 5 11 1 12 11 13
REMARK SMILES IDX 15 15 16 16 36 17 17 18 18 19 35 20 37 21 20 22 34 23 33 24
REMARK SMILES IDX 21 25 31 26 22 27 24 28 30 29 32 30 23 31 25 32 28 33 26 34
REMARK SMILES IDX 19 35 29 37 27 39 14 41
REMARK H PARENT 11 14 19 36 29 38 27 40 14 42
REMARK Flexibility Score: inf
ROOT
ATOM      1  C   UNL     1      -0.459  33.237  61.869  1.00  0.00     0.091 C 
ATOM      2  C   UNL     1      -0.383  32.945  63.396  1.00  0.00     0.045 C 
ENDROOT
BRANCH   1   3
ATOM      3  C   UNL     1      -0.433  34.800  61.630  1.00  0.00     0.146 C 
BRANCH   3   4
ATOM      4  C   UNL     1      -1.839  35.454  61.428  1.00  0.00     0.043 C 
BRANCH   4   5
ATOM      5  C   UNL     1      -2.592  36.100  62.636  1.00  0.00     0.046 C 
ATOM      6  C   UNL     1      -4.095  37.709  61.210  1.00  0.00     0.020 C 
ATOM      7  C   UNL     1      -3.269  37.489  62.476  1.00  0.00     0.103 C 
ATOM      8  C   UNL     1      -4.166  37.488  63.659  1.00  0.00     0.309 C 
ATOM      9  C   UNL     1      -3.507  35.268  63.582  1.00  0.00     0.177 C 
ATOM     10  O   UNL     1      -4.272  36.251  64.261  1.00  0.00    -0.462 OA
ATOM     11  O   UNL     1      -4.765  38.507  64.093  1.00  0.00    -0.252 OA
ATOM     12  C   UNL     1      -4.462  34.281  62.917  1.00  0.00     0.053 C 
ENDBRANCH   4   5
ENDBRANCH   3   4
BRANCH   3  13
ATOM     13  O   UNL     1       0.443  35.092  60.566  1.00  0.00    -0.390 OA
ATOM     14  H   UNL     1       0.045  34.781  59.715  1.00  0.00     0.211 HD
ENDBRANCH   3  13
ENDBRANCH   1   3
BRANCH   1  15
ATOM     15  C   UNL     1      -1.709  32.557  61.153  1.00  0.00     0.032 C 
ATOM     16  C   UNL     1      -2.413  31.380  61.898  1.00  0.00     0.010 C 
ATOM     17  C   UNL     1      -1.563  32.022  59.692  1.00  0.00     0.006 C 
ATOM     18  C   UNL     1      -2.988  30.438  60.818  1.00  0.00     0.041 C 
ATOM     19  C   UNL     1      -2.924  31.269  59.532  1.00  0.00     0.092 C 
ATOM     20  C   UNL     1      -1.421  33.084  58.561  1.00  0.00     0.011 C 
ATOM     21  C   UNL     1      -0.333  31.055  59.586  1.00  0.00     0.015 C 
ATOM     22  C   UNL     1      -2.935  30.595  58.165  1.00  0.00    -0.031 C 
ATOM     23  C   UNL     1      -1.584  32.470  57.139  1.00  0.00     0.009 C 
ATOM     24  C   UNL     1      -2.848  31.561  56.967  1.00  0.00     0.025 C 
ATOM     25  C   UNL     1      -2.720  29.274  58.026  1.00  0.00     0.050 C 
ATOM     26  C   UNL     1      -3.001  30.817  55.575  1.00  0.00    -0.013 C 
ATOM     27  C   UNL     1      -2.310  28.689  56.742  1.00  0.00     0.159 C 
ATOM     28  C   UNL     1      -2.039  29.586  55.561  1.00  0.00     0.070 C 
ATOM     29  C   UNL     1      -2.730  31.760  54.336  1.00  0.00     0.042 C 
ATOM     30  C   UNL     1      -4.480  30.333  55.452  1.00  0.00     0.013 C 
ATOM     31  O   UNL     1      -2.101  27.449  56.670  1.00  0.00    -0.295 OA
ATOM     32  C   UNL     1      -2.067  28.812  54.219  1.00  0.00     0.047 C 
ATOM     33  C   UNL     1      -1.719  31.201  53.318  1.00  0.00     0.143 C 
ATOM     34  C   UNL     1      -2.066  29.737  52.974  1.00  0.00     0.143 C 
BRANCH  19  35
ATOM     35  O   UNL     1      -4.056  32.120  59.626  1.00  0.00    -0.385 OA
ATOM     36  H   UNL     1      -3.816  33.070  59.497  1.00  0.00     0.211 HD
ENDBRANCH  19  35
BRANCH  33  37
ATOM     37  O   UNL     1      -1.758  31.990  52.157  1.00  0.00    -0.390 OA
ATOM     38  H   UNL     1      -2.349  32.763  52.349  1.00  0.00     0.211 HD
ENDBRANCH  33  37
BRANCH  34  39
ATOM     39  O   UNL     1      -1.199  29.238  51.985  1.00  0.00    -0.390 OA
ATOM     40  H   UNL     1      -1.185  29.897  51.241  1.00  0.00     0.211 HD
ENDBRANCH  34  39
ENDBRANCH   1  15
BRANCH   1  41
ATOM     41  O   UNL     1       0.708  32.707  61.282  1.00  0.00    -0.387 OA
ATOM     42  H   UNL     1       0.481  31.857  60.819  1.00  0.00     0.211 HD
ENDBRANCH   1  41
TORSDOF 9
ENDMDL
MODEL 4
REMARK VINA RESULT:    -6.118      2.772     10.096
REMARK INTER + INTRA:          -8.898
REMARK INTER:                  -8.784
REMARK INTRA:                  -0.114
REMARK UNBOUND:                -0.455
REMARK SMILES C[C@@H]1OC(=O)[C@H](C)[C@@H]1C[C@H](O)[C@](C)(O)[C@@H]1CC[C@]2(O)C3=CC(=O)[C@H]4C[C@H](O)[C@@H](O)C[C@]4(C)[C@@H]3CC[C@@]12C
REMARK SMILES IDX 12 1 13 2 10 3 9 4 8 5 7 6 6 7 4 8 2 9 3 10 5 11 1 12 11 13
REMARK SMILES IDX 15 15 16 16 36 17 17 18 18 19 35 20 37 21 20 22 34 23 33 24
REMARK SMILES IDX 21 25 31 26 22 27 24 28 30 29 32 30 23 31 25 32 28 33 26 34
REMARK SMILES IDX 19 35 29 37 27 39 14 41
REMARK H PARENT 11 14 19 36 29 38 27 40 14 42
REMARK Flexibility Score: inf
ROOT
ATOM      1  C   UNL     1      -3.291  31.525  58.023  1.00  0.00     0.091 C 
ATOM      2  C   UNL     1      -3.578  32.936  57.431  1.00  0.00     0.045 C 
ENDROOT
BRANCH   1   3
ATOM      3  C   UNL     1      -1.810  31.478  58.575  1.00  0.00     0.146 C 
BRANCH   3   4
ATOM      4  C   UNL     1      -1.670  31.793  60.100  1.00  0.00     0.043 C 
BRANCH   4   5
ATOM      5  C   UNL     1      -1.444  33.261  60.587  1.00  0.00     0.046 C 
ATOM      6  C   UNL     1      -3.621  33.419  62.041  1.00  0.00     0.020 C 
ATOM      7  C   UNL     1      -2.647  34.107  61.086  1.00  0.00     0.103 C 
ATOM      8  C   UNL     1      -1.932  35.192  61.806  1.00  0.00     0.309 C 
ATOM      9  C   UNL     1      -0.224  33.663  61.467  1.00  0.00     0.177 C 
ATOM     10  O   UNL     1      -0.591  34.929  61.994  1.00  0.00    -0.462 OA
ATOM     11  O   UNL     1      -2.476  36.258  62.197  1.00  0.00    -0.252 OA
ATOM     12  C   UNL     1       0.119  32.734  62.628  1.00  0.00     0.053 C 
ENDBRANCH   4   5
ENDBRANCH   3   4
BRANCH   3  13
ATOM     13  O   UNL     1      -0.995  32.314  57.786  1.00  0.00    -0.390 OA
ATOM     14  H   UNL     1      -1.538  33.056  57.420  1.00  0.00     0.211 HD
ENDBRANCH   3  13
ENDBRANCH   1   3
BRANCH   1  15
ATOM     15  C   UNL     1      -3.573  30.337  57.002  1.00  0.00     0.032 C 
ATOM     16  C   UNL     1      -2.834  28.984  57.250  1.00  0.00     0.010 C 
ATOM     17  C   UNL     1      -3.382  30.575  55.470  1.00  0.00     0.006 C 
ATOM     18  C   UNL     1      -2.619  28.324  55.871  1.00  0.00     0.041 C 
ATOM     19  C   UNL     1      -3.543  29.114  54.937  1.00  0.00     0.092 C 
ATOM     20  C   UNL     1      -4.416  31.502  54.764  1.00  0.00     0.011 C 
ATOM     21  C   UNL     1      -1.955  31.159  55.183  1.00  0.00     0.015 C 
ATOM     22  C   UNL     1      -3.303  29.130  53.431  1.00  0.00    -0.031 C 
ATOM     23  C   UNL     1      -4.320  31.434  53.212  1.00  0.00     0.009 C 
ATOM     24  C   UNL     1      -4.304  29.981  52.627  1.00  0.00     0.025 C 
ATOM     25  C   UNL     1      -2.145  28.703  52.895  1.00  0.00     0.050 C 
ATOM     26  C   UNL     1      -4.090  29.851  51.060  1.00  0.00    -0.013 C 
ATOM     27  C   UNL     1      -1.732  29.092  51.540  1.00  0.00     0.159 C 
ATOM     28  C   UNL     1      -2.573  30.059  50.747  1.00  0.00     0.070 C 
ATOM     29  C   UNL     1      -4.982  30.855  50.228  1.00  0.00     0.042 C 
ATOM     30  C   UNL     1      -4.524  28.413  50.637  1.00  0.00     0.013 C 
ATOM     31  O   UNL     1      -0.628  28.682  51.093  1.00  0.00    -0.295 OA
ATOM     32  C   UNL     1      -2.256  30.006  49.231  1.00  0.00     0.047 C 
ATOM     33  C   UNL     1      -4.206  31.691  49.193  1.00  0.00     0.143 C 
ATOM     34  C   UNL     1      -3.281  30.778  48.360  1.00  0.00     0.143 C 
BRANCH  19  35
ATOM     35  O   UNL     1      -4.825  28.558  55.185  1.00  0.00    -0.385 OA
ATOM     36  H   UNL     1      -4.773  27.602  55.428  1.00  0.00     0.211 HD
ENDBRANCH  19  35
BRANCH  33  37
ATOM     37  O   UNL     1      -5.124  32.341  48.353  1.00  0.00    -0.390 OA
ATOM     38  H   UNL     1      -5.220  33.269  48.688  1.00  0.00     0.211 HD
ENDBRANCH  33  37
BRANCH  34  39
ATOM     39  O   UNL     1      -2.625  31.514  47.357  1.00  0.00    -0.390 OA
ATOM     40  H   UNL     1      -3.305  31.757  46.672  1.00  0.00     0.211 HD
ENDBRANCH  34  39
ENDBRANCH   1  15
BRANCH   1  41
ATOM     41  O   UNL     1      -4.151  31.352  59.127  1.00  0.00    -0.387 OA
ATOM     42  H   UNL     1      -3.748  30.692  59.752  1.00  0.00     0.211 HD
ENDBRANCH   1  41
TORSDOF 9
ENDMDL
MODEL 5
REMARK VINA RESULT:    -5.969      2.990     10.059
REMARK INTER + INTRA:          -8.693
REMARK INTER:                  -8.713
REMARK INTRA:                   0.020
REMARK UNBOUND:                -0.455
REMARK SMILES C[C@@H]1OC(=O)[C@H](C)[C@@H]1C[C@H](O)[C@](C)(O)[C@@H]1CC[C@]2(O)C3=CC(=O)[C@H]4C[C@H](O)[C@@H](O)C[C@]4(C)[C@@H]3CC[C@@]12C
REMARK SMILES IDX 12 1 13 2 10 3 9 4 8 5 7 6 6 7 4 8 2 9 3 10 5 11 1 12 11 13
REMARK SMILES IDX 15 15 16 16 36 17 17 18 18 19 35 20 37 21 20 22 34 23 33 24
REMARK SMILES IDX 21 25 31 26 22 27 24 28 30 29 32 30 23 31 25 32 28 33 26 34
REMARK SMILES IDX 19 35 29 37 27 39 14 41
REMARK H PARENT 11 14 19 36 29 38 27 40 14 42
REMARK Flexibility Score: inf
ROOT
ATOM      1  C   UNL     1      -3.149  30.778  57.662  1.00  0.00     0.091 C 
ATOM      2  C   UNL     1      -4.399  30.946  58.575  1.00  0.00     0.045 C 
ENDROOT
BRANCH   1   3
ATOM      3  C   UNL     1      -2.726  32.188  57.087  1.00  0.00     0.146 C 
BRANCH   3   4
ATOM      4  C   UNL     1      -1.590  32.908  57.887  1.00  0.00     0.043 C 
BRANCH   4   5
ATOM      5  C   UNL     1      -1.928  33.732  59.171  1.00  0.00     0.046 C 
ATOM      6  C   UNL     1      -0.283  32.459  60.770  1.00  0.00     0.020 C 
ATOM      7  C   UNL     1      -1.640  33.134  60.575  1.00  0.00     0.103 C 
ATOM      8  C   UNL     1      -1.706  34.362  61.408  1.00  0.00     0.309 C 
ATOM      9  C   UNL     1      -1.644  35.259  59.273  1.00  0.00     0.177 C 
ATOM     10  O   UNL     1      -1.719  35.524  60.664  1.00  0.00    -0.462 OA
ATOM     11  O   UNL     1      -1.762  34.360  62.666  1.00  0.00    -0.252 OA
ATOM     12  C   UNL     1      -0.290  35.739  58.759  1.00  0.00     0.053 C 
ENDBRANCH   4   5
ENDBRANCH   3   4
BRANCH   3  13
ATOM     13  O   UNL     1      -3.871  32.998  56.953  1.00  0.00    -0.390 OA
ATOM     14  H   UNL     1      -3.766  33.814  57.502  1.00  0.00     0.211 HD
ENDBRANCH   3  13
ENDBRANCH   1   3
BRANCH   1  15
ATOM     15  C   UNL     1      -3.350  29.708  56.500  1.00  0.00     0.032 C 
ATOM     16  C   UNL     1      -2.508  28.395  56.577  1.00  0.00     0.010 C 
ATOM     17  C   UNL     1      -3.190  30.150  55.010  1.00  0.00     0.006 C 
ATOM     18  C   UNL     1      -2.256  27.931  55.127  1.00  0.00     0.041 C 
ATOM     19  C   UNL     1      -3.245  28.759  54.298  1.00  0.00     0.092 C 
ATOM     20  C   UNL     1      -4.298  31.076  54.425  1.00  0.00     0.011 C 
ATOM     21  C   UNL     1      -1.815  30.872  54.799  1.00  0.00     0.015 C 
ATOM     22  C   UNL     1      -3.021  28.981  52.807  1.00  0.00    -0.031 C 
ATOM     23  C   UNL     1      -4.212  31.210  52.876  1.00  0.00     0.009 C 
ATOM     24  C   UNL     1      -4.090  29.847  52.114  1.00  0.00     0.025 C 
ATOM     25  C   UNL     1      -1.839  28.714  52.222  1.00  0.00     0.050 C 
ATOM     26  C   UNL     1      -3.882  29.930  50.544  1.00  0.00    -0.013 C 
ATOM     27  C   UNL     1      -1.468  29.299  50.927  1.00  0.00     0.159 C 
ATOM     28  C   UNL     1      -2.387  30.291  50.260  1.00  0.00     0.070 C 
ATOM     29  C   UNL     1      -4.854  30.959  49.843  1.00  0.00     0.042 C 
ATOM     30  C   UNL     1      -4.209  28.527  49.944  1.00  0.00     0.013 C 
ATOM     31  O   UNL     1      -0.341  29.033  50.432  1.00  0.00    -0.295 OA
ATOM     32  C   UNL     1      -2.081  30.451  48.750  1.00  0.00     0.047 C 
ATOM     33  C   UNL     1      -4.153  31.974  48.922  1.00  0.00     0.143 C 
ATOM     34  C   UNL     1      -3.169  31.246  47.981  1.00  0.00     0.143 C 
BRANCH  19  35
ATOM     35  O   UNL     1      -4.480  28.081  54.474  1.00  0.00    -0.385 OA
ATOM     36  H   UNL     1      -5.253  28.675  54.320  1.00  0.00     0.211 HD
ENDBRANCH  19  35
BRANCH  33  37
ATOM     37  O   UNL     1      -5.125  32.653  48.168  1.00  0.00    -0.390 OA
ATOM     38  H   UNL     1      -4.820  33.592  48.077  1.00  0.00     0.211 HD
ENDBRANCH  33  37
BRANCH  34  39
ATOM     39  O   UNL     1      -2.580  32.149  47.079  1.00  0.00    -0.390 OA
ATOM     40  H   UNL     1      -3.022  32.020  46.197  1.00  0.00     0.211 HD
ENDBRANCH  34  39
ENDBRANCH   1  15
BRANCH   1  41
ATOM     41  O   UNL     1      -2.092  30.327  58.479  1.00  0.00    -0.387 OA
ATOM     42  H   UNL     1      -2.100  30.838  59.332  1.00  0.00     0.211 HD
ENDBRANCH   1  41
TORSDOF 9
ENDMDL
MODEL 6
REMARK VINA RESULT:    -5.821      2.190      9.542
REMARK INTER + INTRA:          -8.488
REMARK INTER:                  -8.534
REMARK INTRA:                   0.046
REMARK UNBOUND:                -0.455
REMARK SMILES C[C@@H]1OC(=O)[C@H](C)[C@@H]1C[C@H](O)[C@](C)(O)[C@@H]1CC[C@]2(O)C3=CC(=O)[C@H]4C[C@H](O)[C@@H](O)C[C@]4(C)[C@@H]3CC[C@@]12C
REMARK SMILES IDX 12 1 13 2 10 3 9 4 8 5 7 6 6 7 4 8 2 9 3 10 5 11 1 12 11 13
REMARK SMILES IDX 15 15 16 16 36 17 17 18 18 19 35 20 37 21 20 22 34 23 33 24
REMARK SMILES IDX 21 25 31 26 22 27 24 28 30 29 32 30 23 31 25 32 28 33 26 34
REMARK SMILES IDX 19 35 29 37 27 39 14 41
REMARK H PARENT 11 14 19 36 29 38 27 40 14 42
REMARK Flexibility Score: inf
ROOT
ATOM      1  C   UNL     1      -4.211  33.243  58.419  1.00  0.00     0.091 C 
ATOM      2  C   UNL     1      -4.885  34.241  57.433  1.00  0.00     0.045 C 
ENDROOT
BRANCH   1   3
ATOM      3  C   UNL     1      -2.736  33.724  58.727  1.00  0.00     0.146 C 
BRANCH   3   4
ATOM      4  C   UNL     1      -2.033  32.968  59.902  1.00  0.00     0.043 C 
BRANCH   4   5
ATOM      5  C   UNL     1      -2.033  33.573  61.343  1.00  0.00     0.046 C 
ATOM      6  C   UNL     1      -3.032  31.463  62.541  1.00  0.00     0.020 C 
ATOM      7  C   UNL     1      -2.973  32.986  62.432  1.00  0.00     0.103 C 
ATOM      8  C   UNL     1      -2.346  33.546  63.657  1.00  0.00     0.309 C 
ATOM      9  C   UNL     1      -0.718  33.984  62.068  1.00  0.00     0.177 C 
ATOM     10  O   UNL     1      -1.105  34.103  63.428  1.00  0.00    -0.462 OA
ATOM     11  O   UNL     1      -2.887  33.536  64.794  1.00  0.00    -0.252 OA
ATOM     12  C   UNL     1       0.449  33.004  61.978  1.00  0.00     0.053 C 
ENDBRANCH   4   5
ENDBRANCH   3   4
BRANCH   3  13
ATOM     13  O   UNL     1      -2.734  35.119  58.921  1.00  0.00    -0.390 OA
ATOM     14  H   UNL     1      -3.594  35.498  58.611  1.00  0.00     0.211 HD
ENDBRANCH   3  13
ENDBRANCH   1   3
BRANCH   1  15
ATOM     15  C   UNL     1      -4.240  31.733  57.916  1.00  0.00     0.032 C 
ATOM     16  C   UNL     1      -3.650  30.645  58.868  1.00  0.00     0.010 C 
ATOM     17  C   UNL     1      -3.621  31.370  56.528  1.00  0.00     0.006 C 
ATOM     18  C   UNL     1      -3.083  29.520  57.975  1.00  0.00     0.041 C 
ATOM     19  C   UNL     1      -3.680  29.809  56.593  1.00  0.00     0.092 C 
ATOM     20  C   UNL     1      -4.383  31.866  55.263  1.00  0.00     0.011 C 
ATOM     21  C   UNL     1      -2.150  31.905  56.431  1.00  0.00     0.015 C 
ATOM     22  C   UNL     1      -3.030  29.257  55.330  1.00  0.00    -0.031 C 
ATOM     23  C   UNL     1      -3.860  31.208  53.952  1.00  0.00     0.009 C 
ATOM     24  C   UNL     1      -3.735  29.647  54.017  1.00  0.00     0.025 C 
ATOM     25  C   UNL     1      -1.786  28.747  55.341  1.00  0.00     0.050 C 
ATOM     26  C   UNL     1      -3.098  28.935  52.750  1.00  0.00    -0.013 C 
ATOM     27  C   UNL     1      -0.997  28.609  54.109  1.00  0.00     0.159 C 
ATOM     28  C   UNL     1      -1.548  29.123  52.803  1.00  0.00     0.070 C 
ATOM     29  C   UNL     1      -3.685  29.464  51.382  1.00  0.00     0.042 C 
ATOM     30  C   UNL     1      -3.450  27.417  52.830  1.00  0.00     0.013 C 
ATOM     31  O   UNL     1       0.172  28.144  54.176  1.00  0.00    -0.295 OA
ATOM     32  C   UNL     1      -0.823  28.508  51.579  1.00  0.00     0.047 C 
ATOM     33  C   UNL     1      -2.622  29.889  50.353  1.00  0.00     0.143 C 
ATOM     34  C   UNL     1      -1.535  28.799  50.232  1.00  0.00     0.143 C 
BRANCH  19  35
ATOM     35  O   UNL     1      -5.001  29.296  56.684  1.00  0.00    -0.385 OA
ATOM     36  H   UNL     1      -5.645  29.839  56.169  1.00  0.00     0.211 HD
ENDBRANCH  19  35
BRANCH  33  37
ATOM     37  O   UNL     1      -3.244  30.088  49.110  1.00  0.00    -0.390 OA
ATOM     38  H   UNL     1      -3.461  31.053  49.043  1.00  0.00     0.211 HD
ENDBRANCH  33  37
BRANCH  34  39
ATOM     39  O   UNL     1      -0.599  29.136  49.238  1.00  0.00    -0.390 OA
ATOM     40  H   UNL     1      -0.089  29.925  49.564  1.00  0.00     0.211 HD
ENDBRANCH  34  39
ENDBRANCH   1  15
BRANCH   1  41
ATOM     41  O   UNL     1      -4.929  33.302  59.631  1.00  0.00    -0.387 OA
ATOM     42  H   UNL     1      -4.803  32.449  60.125  1.00  0.00     0.211 HD
ENDBRANCH   1  41
TORSDOF 9
ENDMDL
MODEL 7
REMARK VINA RESULT:    -5.808      1.951      2.992
REMARK INTER + INTRA:          -8.470
REMARK INTER:                  -7.974
REMARK INTRA:                  -0.496
REMARK UNBOUND:                -0.455
REMARK SMILES C[C@@H]1OC(=O)[C@H](C)[C@@H]1C[C@H](O)[C@](C)(O)[C@@H]1CC[C@]2(O)C3=CC(=O)[C@H]4C[C@H](O)[C@@H](O)C[C@]4(C)[C@@H]3CC[C@@]12C
REMARK SMILES IDX 12 1 13 2 10 3 9 4 8 5 7 6 6 7 4 8 2 9 3 10 5 11 1 12 11 13
REMARK SMILES IDX 15 15 16 16 36 17 17 18 18 19 35 20 37 21 20 22 34 23 33 24
REMARK SMILES IDX 21 25 31 26 22 27 24 28 30 29 32 30 23 31 25 32 28 33 26 34
REMARK SMILES IDX 19 35 29 37 27 39 14 41
REMARK H PARENT 11 14 19 36 29 38 27 40 14 42
REMARK Flexibility Score: inf
ROOT
ATOM      1  C   UNL     1      -3.882  29.642  56.646  1.00  0.00     0.091 C 
ATOM      2  C   UNL     1      -2.758  28.565  56.654  1.00  0.00     0.045 C 
ENDROOT
BRANCH   1   3
ATOM      3  C   UNL     1      -4.583  29.659  55.229  1.00  0.00     0.146 C 
BRANCH   3   4
ATOM      4  C   UNL     1      -3.796  28.914  54.101  1.00  0.00     0.043 C 
BRANCH   4   5
ATOM      5  C   UNL     1      -2.851  29.704  53.140  1.00  0.00     0.046 C 
ATOM      6  C   UNL     1      -0.718  28.238  53.564  1.00  0.00     0.020 C 
ATOM      7  C   UNL     1      -1.311  29.626  53.327  1.00  0.00     0.103 C 
ATOM      8  C   UNL     1      -0.855  30.141  52.011  1.00  0.00     0.309 C 
ATOM      9  C   UNL     1      -3.108  29.783  51.606  1.00  0.00     0.177 C 
ATOM     10  O   UNL     1      -1.869  30.231  51.080  1.00  0.00    -0.462 OA
ATOM     11  O   UNL     1       0.331  30.483  51.759  1.00  0.00    -0.252 OA
ATOM     12  C   UNL     1      -3.492  28.482  50.908  1.00  0.00     0.053 C 
ENDBRANCH   4   5
ENDBRANCH   3   4
BRANCH   3  13
ATOM     13  O   UNL     1      -4.878  30.991  54.874  1.00  0.00    -0.390 OA
ATOM     14  H   UNL     1      -4.711  31.120  53.907  1.00  0.00     0.211 HD
ENDBRANCH   3  13
ENDBRANCH   1   3
BRANCH   1  15
ATOM     15  C   UNL     1      -3.377  31.092  57.066  1.00  0.00     0.032 C 
ATOM     16  C   UNL     1      -2.101  31.644  56.355  1.00  0.00     0.010 C 
ATOM     17  C   UNL     1      -3.114  31.410  58.573  1.00  0.00     0.006 C 
ATOM     18  C   UNL     1      -1.388  32.575  57.360  1.00  0.00     0.041 C 
ATOM     19  C   UNL     1      -2.439  32.815  58.450  1.00  0.00     0.092 C 
ATOM     20  C   UNL     1      -4.361  31.514  59.501  1.00  0.00     0.011 C 
ATOM     21  C   UNL     1      -2.152  30.341  59.196  1.00  0.00     0.015 C 
ATOM     22  C   UNL     1      -2.027  33.267  59.846  1.00  0.00    -0.031 C 
ATOM     23  C   UNL     1      -4.023  32.123  60.894  1.00  0.00     0.009 C 
ATOM     24  C   UNL     1      -3.193  33.450  60.836  1.00  0.00     0.025 C 
ATOM     25  C   UNL     1      -0.749  33.204  60.261  1.00  0.00     0.050 C 
ATOM     26  C   UNL     1      -2.721  34.051  62.226  1.00  0.00    -0.013 C 
ATOM     27  C   UNL     1      -0.398  33.223  61.688  1.00  0.00     0.159 C 
ATOM     28  C   UNL     1      -1.489  33.231  62.729  1.00  0.00     0.070 C 
ATOM     29  C   UNL     1      -3.867  34.071  63.313  1.00  0.00     0.042 C 
ATOM     30  C   UNL     1      -2.305  35.536  61.988  1.00  0.00     0.013 C 
ATOM     31  O   UNL     1       0.813  33.141  62.025  1.00  0.00    -0.295 OA
ATOM     32  C   UNL     1      -0.974  33.700  64.113  1.00  0.00     0.047 C 
ATOM     33  C   UNL     1      -3.479  33.438  64.662  1.00  0.00     0.143 C 
ATOM     34  C   UNL     1      -2.112  33.982  65.130  1.00  0.00     0.143 C 
BRANCH  19  35
ATOM     35  O   UNL     1      -3.287  33.804  57.886  1.00  0.00    -0.385 OA
ATOM     36  H   UNL     1      -3.514  34.511  58.537  1.00  0.00     0.211 HD
ENDBRANCH  19  35
BRANCH  33  37
ATOM     37  O   UNL     1      -4.468  33.745  65.611  1.00  0.00    -0.390 OA
ATOM     38  H   UNL     1      -4.012  34.174  66.380  1.00  0.00     0.211 HD
ENDBRANCH  33  37
BRANCH  34  39
ATOM     39  O   UNL     1      -1.780  33.474  66.399  1.00  0.00    -0.390 OA
ATOM     40  H   UNL     1      -2.147  32.551  66.455  1.00  0.00     0.211 HD
ENDBRANCH  34  39
ENDBRANCH   1  15
BRANCH   1  41
ATOM     41  O   UNL     1      -4.854  29.241  57.585  1.00  0.00    -0.387 OA
ATOM     42  H   UNL     1      -4.482  29.345  58.501  1.00  0.00     0.211 HD
ENDBRANCH   1  41
TORSDOF 9
ENDMDL
MODEL 8
REMARK VINA RESULT:    -5.468      2.618      3.841
REMARK INTER + INTRA:          -8.001
REMARK INTER:                  -8.031
REMARK INTRA:                   0.030
REMARK UNBOUND:                -0.455
REMARK SMILES C[C@@H]1OC(=O)[C@H](C)[C@@H]1C[C@H](O)[C@](C)(O)[C@@H]1CC[C@]2(O)C3=CC(=O)[C@H]4C[C@H](O)[C@@H](O)C[C@]4(C)[C@@H]3CC[C@@]12C
REMARK SMILES IDX 12 1 13 2 10 3 9 4 8 5 7 6 6 7 4 8 2 9 3 10 5 11 1 12 11 13
REMARK SMILES IDX 15 15 16 16 36 17 17 18 18 19 35 20 37 21 20 22 34 23 33 24
REMARK SMILES IDX 21 25 31 26 22 27 24 28 30 29 32 30 23 31 25 32 28 33 26 34
REMARK SMILES IDX 19 35 29 37 27 39 14 41
REMARK H PARENT 11 14 19 36 29 38 27 40 14 42
REMARK Flexibility Score: inf
ROOT
ATOM      1  C   UNL     1      -3.741  29.213  56.005  1.00  0.00     0.091 C 
ATOM      2  C   UNL     1      -5.011  28.321  55.891  1.00  0.00     0.045 C 
ENDROOT
BRANCH   1   3
ATOM      3  C   UNL     1      -2.465  28.362  55.621  1.00  0.00     0.146 C 
BRANCH   3   4
ATOM      4  C   UNL     1      -2.442  27.848  54.144  1.00  0.00     0.043 C 
BRANCH   4   5
ATOM      5  C   UNL     1      -1.832  28.732  53.009  1.00  0.00     0.046 C 
ATOM      6  C   UNL     1       0.681  28.289  53.618  1.00  0.00     0.020 C 
ATOM      7  C   UNL     1      -0.384  29.277  53.142  1.00  0.00     0.103 C 
ATOM      8  C   UNL     1      -0.110  29.659  51.733  1.00  0.00     0.309 C 
ATOM      9  C   UNL     1      -2.046  28.407  51.501  1.00  0.00     0.177 C 
ATOM     10  O   UNL     1      -1.050  29.176  50.846  1.00  0.00    -0.462 OA
ATOM     11  O   UNL     1       0.867  30.365  51.369  1.00  0.00    -0.252 OA
ATOM     12  C   UNL     1      -1.887  26.948  51.086  1.00  0.00     0.053 C 
ENDBRANCH   4   5
ENDBRANCH   3   4
BRANCH   3  13
ATOM     13  O   UNL     1      -2.313  27.311  56.548  1.00  0.00    -0.390 OA
ATOM     14  H   UNL     1      -1.393  27.321  56.912  1.00  0.00     0.211 HD
ENDBRANCH   3  13
ENDBRANCH   1   3
BRANCH   1  15
ATOM     15  C   UNL     1      -3.575  29.906  57.429  1.00  0.00     0.032 C 
ATOM     16  C   UNL     1      -4.740  29.733  58.454  1.00  0.00     0.010 C 
ATOM     17  C   UNL     1      -3.248  31.431  57.511  1.00  0.00     0.006 C 
ATOM     18  C   UNL     1      -4.760  30.999  59.338  1.00  0.00     0.041 C 
ATOM     19  C   UNL     1      -3.413  31.671  59.047  1.00  0.00     0.092 C 
ATOM     20  C   UNL     1      -1.821  31.873  57.067  1.00  0.00     0.011 C 
ATOM     21  C   UNL     1      -4.279  32.256  56.666  1.00  0.00     0.015 C 
ATOM     22  C   UNL     1      -3.207  33.157  59.319  1.00  0.00    -0.031 C 
ATOM     23  C   UNL     1      -1.497  33.343  57.465  1.00  0.00     0.009 C 
ATOM     24  C   UNL     1      -1.807  33.691  58.961  1.00  0.00     0.025 C 
ATOM     25  C   UNL     1      -4.242  33.984  59.550  1.00  0.00     0.050 C 
ATOM     26  C   UNL     1      -1.606  35.205  59.392  1.00  0.00    -0.013 C 
ATOM     27  C   UNL     1      -4.119  35.439  59.393  1.00  0.00     0.159 C 
ATOM     28  C   UNL     1      -2.830  36.032  58.882  1.00  0.00     0.070 C 
ATOM     29  C   UNL     1      -0.249  35.823  58.868  1.00  0.00     0.042 C 
ATOM     30  C   UNL     1      -1.547  35.254  60.950  1.00  0.00     0.013 C 
ATOM     31  O   UNL     1      -5.125  36.168  59.601  1.00  0.00    -0.295 OA
ATOM     32  C   UNL     1      -2.713  37.544  59.203  1.00  0.00     0.047 C 
ATOM     33  C   UNL     1      -0.403  37.163  58.126  1.00  0.00     0.143 C 
ATOM     34  C   UNL     1      -1.298  38.121  58.940  1.00  0.00     0.143 C 
BRANCH  19  35
ATOM     35  O   UNL     1      -2.492  30.934  59.838  1.00  0.00    -0.385 OA
ATOM     36  H   UNL     1      -1.941  31.523  60.408  1.00  0.00     0.211 HD
ENDBRANCH  19  35
BRANCH  33  37
ATOM     37  O   UNL     1       0.868  37.731  57.943  1.00  0.00    -0.390 OA
ATOM     38  H   UNL     1       0.911  38.541  58.513  1.00  0.00     0.211 HD
ENDBRANCH  33  37
BRANCH  34  39
ATOM     39  O   UNL     1      -1.383  39.378  58.314  1.00  0.00    -0.390 OA
ATOM     40  H   UNL     1      -1.242  39.235  57.339  1.00  0.00     0.211 HD
ENDBRANCH  34  39
ENDBRANCH   1  15
BRANCH   1  41
ATOM     41  O   UNL     1      -3.861  30.238  55.045  1.00  0.00    -0.387 OA
ATOM     42  H   UNL     1      -4.597  30.009  54.416  1.00  0.00     0.211 HD
ENDBRANCH   1  41
TORSDOF 9
ENDMDL
