MODEL 1
REMARK VINA RESULT:    -4.369      0.000      0.000
REMARK INTER + INTRA:          -4.642
REMARK INTER:                  -4.625
REMARK INTRA:                  -0.017
REMARK UNBOUND:                -0.017
REMARK SMILES O=C([O-])c1cccnc1
REMARK SMILES IDX 4 1 5 2 9 3 6 4 8 5 7 6 2 7 1 8 3 9
REMARK H PARENT
REMARK Flexibility Score: inf
ROOT
ATOM      1  C   UNL     1      -3.111  37.277  17.432  1.00  0.00     0.016 A 
ATOM      2  C   UNL     1      -3.722  36.022  17.597  1.00  0.00     0.013 A 
ATOM      3  C   UNL     1      -3.081  38.155  18.528  1.00  0.00     0.120 A 
ATOM      4  C   UNL     1      -4.279  35.671  18.829  1.00  0.00     0.021 A 
ATOM      5  N   UNL     1      -3.632  37.789  19.716  1.00  0.00    -0.264 NA
ATOM      6  C   UNL     1      -4.224  36.578  19.888  1.00  0.00     0.111 A 
ENDROOT
BRANCH   1   7
ATOM      7  C   UNL     1      -2.516  37.668  16.136  1.00  0.00     0.073 C 
ATOM      8  O   UNL     1      -1.440  37.144  15.740  1.00  0.00    -0.545 OA
ATOM      9  O   UNL     1      -3.135  38.622  15.335  1.00  0.00    -0.545 OA
ENDBRANCH   1   7
TORSDOF 1
ENDMDL
MODEL 2
REMARK VINA RESULT:    -4.325      0.906      1.600
REMARK INTER + INTRA:          -4.595
REMARK INTER:                  -4.578
REMARK INTRA:                  -0.017
REMARK UNBOUND:                -0.017
REMARK SMILES O=C([O-])c1cccnc1
REMARK SMILES IDX 4 1 5 2 9 3 6 4 8 5 7 6 2 7 1 8 3 9
REMARK H PARENT
REMARK Flexibility Score: inf
ROOT
ATOM      1  C   UNL     1      -3.114  37.305  17.453  1.00  0.00     0.016 A 
ATOM      2  C   UNL     1      -3.094  38.200  18.536  1.00  0.00     0.013 A 
ATOM      3  C   UNL     1      -3.697  36.041  17.641  1.00  0.00     0.120 A 
ATOM      4  C   UNL     1      -3.646  37.827  19.763  1.00  0.00     0.021 A 
ATOM      5  N   UNL     1      -4.227  35.702  18.847  1.00  0.00    -0.264 NA
ATOM      6  C   UNL     1      -4.214  36.560  19.901  1.00  0.00     0.111 A 
ENDROOT
BRANCH   1   7
ATOM      7  C   UNL     1      -2.534  37.680  16.145  1.00  0.00     0.073 C 
ATOM      8  O   UNL     1      -1.448  37.173  15.756  1.00  0.00    -0.545 OA
ATOM      9  O   UNL     1      -3.180  38.600  15.326  1.00  0.00    -0.545 OA
ENDBRANCH   1   7
TORSDOF 1
ENDMDL
MODEL 3
REMARK VINA RESULT:    -4.305      3.474      4.391
REMARK INTER + INTRA:          -4.574
REMARK INTER:                  -4.551
REMARK INTRA:                  -0.022
REMARK UNBOUND:                -0.017
REMARK SMILES O=C([O-])c1cccnc1
REMARK SMILES IDX 4 1 5 2 9 3 6 4 8 5 7 6 2 7 1 8 3 9
REMARK H PARENT
REMARK Flexibility Score: inf
ROOT
ATOM      1  C   UNL     1      -4.309  37.026  19.692  1.00  0.00     0.016 A 
ATOM      2  C   UNL     1      -3.521  38.103  19.251  1.00  0.00     0.013 A 
ATOM      3  C   UNL     1      -4.386  35.880  18.885  1.00  0.00     0.120 A 
ATOM      4  C   UNL     1      -2.837  38.019  18.037  1.00  0.00     0.021 A 
ATOM      5  N   UNL     1      -3.711  35.824  17.706  1.00  0.00    -0.264 NA
ATOM      6  C   UNL     1      -2.945  36.859  17.270  1.00  0.00     0.111 A 
ENDROOT
BRANCH   1   7
ATOM      7  C   UNL     1      -5.042  37.096  20.975  1.00  0.00     0.073 C 
ATOM      8  O   UNL     1      -6.024  36.337  21.194  1.00  0.00    -0.545 OA
ATOM      9  O   UNL     1      -4.657  38.001  21.958  1.00  0.00    -0.545 OA
ENDBRANCH   1   7
TORSDOF 1
ENDMDL
MODEL 4
REMARK VINA RESULT:    -4.263      4.134      5.135
REMARK INTER + INTRA:          -4.529
REMARK INTER:                  -4.506
REMARK INTRA:                  -0.023
REMARK UNBOUND:                -0.017
REMARK SMILES O=C([O-])c1cccnc1
REMARK SMILES IDX 4 1 5 2 9 3 6 4 8 5 7 6 2 7 1 8 3 9
REMARK H PARENT
REMARK Flexibility Score: inf
ROOT
ATOM      1  C   UNL     1      -4.955  37.906  21.947  1.00  0.00     0.016 A 
ATOM      2  C   UNL     1      -5.089  36.963  22.981  1.00  0.00     0.013 A 
ATOM      3  C   UNL     1      -4.717  39.247  22.292  1.00  0.00     0.120 A 
ATOM      4  C   UNL     1      -4.986  37.366  24.313  1.00  0.00     0.021 A 
ATOM      5  N   UNL     1      -4.622  39.613  23.598  1.00  0.00    -0.264 NA
ATOM      6  C   UNL     1      -4.749  38.710  24.606  1.00  0.00     0.111 A 
ENDROOT
BRANCH   1   7
ATOM      7  C   UNL     1      -5.061  37.500  20.529  1.00  0.00     0.073 C 
ATOM      8  O   UNL     1      -5.617  36.414  20.213  1.00  0.00    -0.545 OA
ATOM      9  O   UNL     1      -4.548  38.312  19.523  1.00  0.00    -0.545 OA
ENDBRANCH   1   7
TORSDOF 1
ENDMDL
MODEL 5
REMARK VINA RESULT:    -4.261      5.650      6.657
REMARK INTER + INTRA:          -4.526
REMARK INTER:                  -4.505
REMARK INTRA:                  -0.022
REMARK UNBOUND:                -0.017
REMARK SMILES O=C([O-])c1cccnc1
REMARK SMILES IDX 4 1 5 2 9 3 6 4 8 5 7 6 2 7 1 8 3 9
REMARK H PARENT
REMARK Flexibility Score: inf
ROOT
ATOM      1  C   UNL     1      -5.160  37.471  23.247  1.00  0.00     0.016 A 
ATOM      2  C   UNL     1      -5.499  36.455  22.336  1.00  0.00     0.013 A 
ATOM      3  C   UNL     1      -4.733  38.709  22.739  1.00  0.00     0.120 A 
ATOM      4  C   UNL     1      -5.410  36.688  20.963  1.00  0.00     0.021 A 
ATOM      5  N   UNL     1      -4.654  38.909  21.396  1.00  0.00    -0.264 NA
ATOM      6  C   UNL     1      -4.981  37.935  20.507  1.00  0.00     0.111 A 
ENDROOT
BRANCH   1   7
ATOM      7  C   UNL     1      -5.247  37.245  24.706  1.00  0.00     0.073 C 
ATOM      8  O   UNL     1      -6.107  36.456  25.182  1.00  0.00    -0.545 OA
ATOM      9  O   UNL     1      -4.380  37.901  25.574  1.00  0.00    -0.545 OA
ENDBRANCH   1   7
TORSDOF 1
ENDMDL
MODEL 6
REMARK VINA RESULT:    -4.229      4.441      5.581
REMARK INTER + INTRA:          -4.493
REMARK INTER:                  -4.470
REMARK INTRA:                  -0.022
REMARK UNBOUND:                -0.017
REMARK SMILES O=C([O-])c1cccnc1
REMARK SMILES IDX 4 1 5 2 9 3 6 4 8 5 7 6 2 7 1 8 3 9
REMARK H PARENT
REMARK Flexibility Score: inf
ROOT
ATOM      1  C   UNL     1      -4.985  37.762  22.256  1.00  0.00     0.016 A 
ATOM      2  C   UNL     1      -4.727  39.089  22.640  1.00  0.00     0.013 A 
ATOM      3  C   UNL     1      -5.089  36.784  23.260  1.00  0.00     0.120 A 
ATOM      4  C   UNL     1      -4.580  39.411  23.990  1.00  0.00     0.021 A 
ATOM      5  N   UNL     1      -4.940  37.125  24.568  1.00  0.00    -0.264 NA
ATOM      6  C   UNL     1      -4.691  38.405  24.950  1.00  0.00     0.111 A 
ENDROOT
BRANCH   1   7
ATOM      7  C   UNL     1      -5.144  37.399  20.831  1.00  0.00     0.073 C 
ATOM      8  O   UNL     1      -5.759  36.350  20.501  1.00  0.00    -0.545 OA
ATOM      9  O   UNL     1      -4.614  38.211  19.834  1.00  0.00    -0.545 OA
ENDBRANCH   1   7
TORSDOF 1
ENDMDL
MODEL 7
REMARK VINA RESULT:    -4.219      4.090      5.092
REMARK INTER + INTRA:          -4.482
REMARK INTER:                  -4.460
REMARK INTRA:                  -0.022
REMARK UNBOUND:                -0.017
REMARK SMILES O=C([O-])c1cccnc1
REMARK SMILES IDX 4 1 5 2 9 3 6 4 8 5 7 6 2 7 1 8 3 9
REMARK H PARENT
REMARK Flexibility Score: inf
ROOT
ATOM      1  C   UNL     1      -4.914  37.997  21.842  1.00  0.00     0.016 A 
ATOM      2  C   UNL     1      -5.070  37.088  22.903  1.00  0.00     0.013 A 
ATOM      3  C   UNL     1      -4.684  39.349  22.149  1.00  0.00     0.120 A 
ATOM      4  C   UNL     1      -4.995  37.534  24.224  1.00  0.00     0.021 A 
ATOM      5  N   UNL     1      -4.617  39.757  23.444  1.00  0.00    -0.264 NA
ATOM      6  C   UNL     1      -4.766  38.887  24.477  1.00  0.00     0.111 A 
ENDROOT
BRANCH   1   7
ATOM      7  C   UNL     1      -4.990  37.546  20.436  1.00  0.00     0.073 C 
ATOM      8  O   UNL     1      -4.471  38.230  19.513  1.00  0.00    -0.545 OA
ATOM      9  O   UNL     1      -5.636  36.358  20.111  1.00  0.00    -0.545 OA
ENDBRANCH   1   7
TORSDOF 1
ENDMDL
MODEL 8
REMARK VINA RESULT:    -4.165      2.951      3.664
REMARK INTER + INTRA:          -4.425
REMARK INTER:                  -4.402
REMARK INTRA:                  -0.023
REMARK UNBOUND:                -0.017
REMARK SMILES O=C([O-])c1cccnc1
REMARK SMILES IDX 4 1 5 2 9 3 6 4 8 5 7 6 2 7 1 8 3 9
REMARK H PARENT
REMARK Flexibility Score: inf
ROOT
ATOM      1  C   UNL     1      -3.465  37.399  18.882  1.00  0.00     0.016 A 
ATOM      2  C   UNL     1      -3.523  36.654  17.690  1.00  0.00     0.013 A 
ATOM      3  C   UNL     1      -2.330  38.192  19.119  1.00  0.00     0.120 A 
ATOM      4  C   UNL     1      -2.470  36.714  16.776  1.00  0.00     0.021 A 
ATOM      5  N   UNL     1      -1.318  38.231  18.212  1.00  0.00    -0.264 NA
ATOM      6  C   UNL     1      -1.364  37.516  17.057  1.00  0.00     0.111 A 
ENDROOT
BRANCH   1   7
ATOM      7  C   UNL     1      -4.570  37.349  19.864  1.00  0.00     0.073 C 
ATOM      8  O   UNL     1      -5.377  36.382  19.873  1.00  0.00    -0.545 OA
ATOM      9  O   UNL     1      -4.734  38.372  20.791  1.00  0.00    -0.545 OA
ENDBRANCH   1   7
TORSDOF 1
ENDMDL
MODEL 9
REMARK VINA RESULT:    -4.046      1.691      2.298
REMARK INTER + INTRA:          -4.299
REMARK INTER:                  -4.280
REMARK INTRA:                  -0.019
REMARK UNBOUND:                -0.017
REMARK SMILES O=C([O-])c1cccnc1
REMARK SMILES IDX 4 1 5 2 9 3 6 4 8 5 7 6 2 7 1 8 3 9
REMARK H PARENT
REMARK Flexibility Score: inf
ROOT
ATOM      1  C   UNL     1      -3.154  37.439  18.729  1.00  0.00     0.016 A 
ATOM      2  C   UNL     1      -3.696  38.195  19.783  1.00  0.00     0.013 A 
ATOM      3  C   UNL     1      -3.783  36.232  18.380  1.00  0.00     0.120 A 
ATOM      4  C   UNL     1      -4.832  37.743  20.457  1.00  0.00     0.021 A 
ATOM      5  N   UNL     1      -4.887  35.815  19.054  1.00  0.00    -0.264 NA
ATOM      6  C   UNL     1      -5.420  36.537  20.074  1.00  0.00     0.111 A 
ENDROOT
BRANCH   1   7
ATOM      7  C   UNL     1      -1.951  37.900  18.003  1.00  0.00     0.073 C 
ATOM      8  O   UNL     1      -0.940  38.312  18.633  1.00  0.00    -0.545 OA
ATOM      9  O   UNL     1      -1.919  37.887  16.612  1.00  0.00    -0.545 OA
ENDBRANCH   1   7
TORSDOF 1
ENDMDL
