MODEL 1
REMARK VINA RESULT:    -4.736      0.000      0.000
REMARK INTER + INTRA:          -9.925
REMARK INTER:                  -8.889
REMARK INTRA:                  -1.036
REMARK UNBOUND:                -1.036
REMARK SMILES O=C([O-])CCCCCCCCCCCCCCC(=O)[O-]
REMARK SMILES IDX 10 1 9 2 8 3 7 4 6 5 5 6 4 7 2 8 1 9 3 10 11 11 12 12 13 13
REMARK SMILES IDX 14 14 15 15 16 16 17 17 18 18 19 19 20 20
REMARK H PARENT
REMARK Flexibility Score: inf
ROOT
ATOM      1  C   UNL     1       1.949  10.202  83.408  1.00  0.00     0.000 C 
ENDROOT
BRANCH   1   2
ATOM      2  C   UNL     1       3.229   9.424  83.044  1.00  0.00     0.000 C 
BRANCH   2   3
ATOM      3  C   UNL     1       4.327  10.259  82.354  1.00  0.00     0.000 C 
BRANCH   3   4
ATOM      4  C   UNL     1       5.705   9.579  82.266  1.00  0.00     0.000 C 
BRANCH   4   5
ATOM      5  C   UNL     1       5.669   8.257  81.486  1.00  0.00     0.000 C 
BRANCH   5   6
ATOM      6  C   UNL     1       6.980   8.033  80.724  1.00  0.00     0.006 C 
BRANCH   6   7
ATOM      7  C   UNL     1       7.002   6.652  80.061  1.00  0.00     0.053 C 
BRANCH   7   8
ATOM      8  C   UNL     1       8.360   6.356  79.509  1.00  0.00     0.041 C 
ATOM      9  O   UNL     1       8.758   5.165  79.408  1.00  0.00    -0.550 OA
ATOM     10  O   UNL     1       9.206   7.397  79.147  1.00  0.00    -0.550 OA
ENDBRANCH   7   8
ENDBRANCH   6   7
ENDBRANCH   5   6
ENDBRANCH   4   5
ENDBRANCH   3   4
ENDBRANCH   2   3
ENDBRANCH   1   2
BRANCH   1  11
ATOM     11  C   UNL     1       1.702  10.377  84.919  1.00  0.00     0.000 C 
BRANCH  11  12
ATOM     12  C   UNL     1       2.975  10.398  85.791  1.00  0.00     0.000 C 
BRANCH  12  13
ATOM     13  C   UNL     1       2.968   9.417  86.979  1.00  0.00     0.000 C 
BRANCH  13  14
ATOM     14  C   UNL     1       1.985   8.239  86.840  1.00  0.00     0.000 C 
BRANCH  14  15
ATOM     15  C   UNL     1       2.536   7.066  85.999  1.00  0.00     0.000 C 
BRANCH  15  16
ATOM     16  C   UNL     1       1.447   6.043  85.634  1.00  0.00     0.006 C 
BRANCH  16  17
ATOM     17  C   UNL     1       0.483   5.778  86.799  1.00  0.00     0.053 C 
BRANCH  17  18
ATOM     18  C   UNL     1       0.968   4.667  87.680  1.00  0.00     0.041 C 
ATOM     19  O   UNL     1       1.727   3.775  87.217  1.00  0.00    -0.550 OA
ATOM     20  O   UNL     1       0.554   4.598  89.005  1.00  0.00    -0.550 OA
ENDBRANCH  17  18
ENDBRANCH  16  17
ENDBRANCH  15  16
ENDBRANCH  14  15
ENDBRANCH  13  14
ENDBRANCH  12  13
ENDBRANCH  11  12
ENDBRANCH   1  11
TORSDOF 15
ENDMDL
MODEL 2
REMARK VINA RESULT:    -4.730      1.336      1.960
REMARK INTER + INTRA:          -9.913
REMARK INTER:                  -8.575
REMARK INTRA:                  -1.338
REMARK UNBOUND:                -1.036
REMARK SMILES O=C([O-])CCCCCCCCCCCCCCC(=O)[O-]
REMARK SMILES IDX 10 1 9 2 8 3 7 4 6 5 5 6 4 7 2 8 1 9 3 10 11 11 12 12 13 13
REMARK SMILES IDX 14 14 15 15 16 16 17 17 18 18 19 19 20 20
REMARK H PARENT
REMARK Flexibility Score: inf
ROOT
ATOM      1  C   UNL     1       1.574  10.022  83.075  1.00  0.00     0.000 C 
ENDROOT
BRANCH   1   2
ATOM      2  C   UNL     1       3.061   9.949  82.675  1.00  0.00     0.000 C 
BRANCH   2   3
ATOM      3  C   UNL     1       3.770   8.629  83.038  1.00  0.00     0.000 C 
BRANCH   3   4
ATOM      4  C   UNL     1       4.870   8.188  82.055  1.00  0.00     0.000 C 
BRANCH   4   5
ATOM      5  C   UNL     1       5.948   9.261  81.846  1.00  0.00     0.000 C 
BRANCH   5   6
ATOM      6  C   UNL     1       7.179   8.674  81.145  1.00  0.00     0.006 C 
BRANCH   6   7
ATOM      7  C   UNL     1       6.827   7.374  80.414  1.00  0.00     0.053 C 
BRANCH   7   8
ATOM      8  C   UNL     1       8.044   6.788  79.772  1.00  0.00     0.041 C 
ATOM      9  O   UNL     1       8.219   5.541  79.766  1.00  0.00    -0.550 OA
ATOM     10  O   UNL     1       9.009   7.621  79.219  1.00  0.00    -0.550 OA
ENDBRANCH   7   8
ENDBRANCH   6   7
ENDBRANCH   5   6
ENDBRANCH   4   5
ENDBRANCH   3   4
ENDBRANCH   2   3
ENDBRANCH   1   2
BRANCH   1  11
ATOM     11  C   UNL     1       1.169  11.299  83.838  1.00  0.00     0.000 C 
BRANCH  11  12
ATOM     12  C   UNL     1       1.005  11.125  85.363  1.00  0.00     0.000 C 
BRANCH  12  13
ATOM     13  C   UNL     1       2.297  11.307  86.182  1.00  0.00     0.000 C 
BRANCH  13  14
ATOM     14  C   UNL     1       3.007   9.997  86.572  1.00  0.00     0.000 C 
BRANCH  14  15
ATOM     15  C   UNL     1       2.315   9.235  87.724  1.00  0.00     0.000 C 
BRANCH  15  16
ATOM     16  C   UNL     1       1.605   7.958  87.241  1.00  0.00     0.006 C 
BRANCH  16  17
ATOM     17  C   UNL     1       2.288   7.343  86.011  1.00  0.00     0.053 C 
BRANCH  17  18
ATOM     18  C   UNL     1       1.779   5.963  85.723  1.00  0.00     0.041 C 
ATOM     19  O   UNL     1       0.540   5.746  85.656  1.00  0.00    -0.550 OA
ATOM     20  O   UNL     1       2.672   4.912  85.562  1.00  0.00    -0.550 OA
ENDBRANCH  17  18
ENDBRANCH  16  17
ENDBRANCH  15  16
ENDBRANCH  14  15
ENDBRANCH  13  14
ENDBRANCH  12  13
ENDBRANCH  11  12
ENDBRANCH   1  11
TORSDOF 15
ENDMDL
MODEL 3
REMARK VINA RESULT:    -4.689      0.983      7.870
REMARK INTER + INTRA:          -9.837
REMARK INTER:                  -8.860
REMARK INTRA:                  -0.977
REMARK UNBOUND:                -1.036
REMARK SMILES O=C([O-])CCCCCCCCCCCCCCC(=O)[O-]
REMARK SMILES IDX 10 1 9 2 8 3 7 4 6 5 5 6 4 7 2 8 1 9 3 10 11 11 12 12 13 13
REMARK SMILES IDX 14 14 15 15 16 16 17 17 18 18 19 19 20 20
REMARK H PARENT
REMARK Flexibility Score: inf
ROOT
ATOM      1  C   UNL     1       0.489  10.145  83.853  1.00  0.00     0.000 C 
ENDROOT
BRANCH   1   2
ATOM      2  C   UNL     1       1.166  10.035  85.233  1.00  0.00     0.000 C 
BRANCH   2   3
ATOM      3  C   UNL     1       0.606   8.927  86.148  1.00  0.00     0.000 C 
BRANCH   3   4
ATOM      4  C   UNL     1       1.668   8.066  86.854  1.00  0.00     0.000 C 
BRANCH   4   5
ATOM      5  C   UNL     1       2.695   7.469  85.881  1.00  0.00     0.000 C 
BRANCH   5   6
ATOM      6  C   UNL     1       2.340   6.020  85.528  1.00  0.00     0.006 C 
BRANCH   6   7
ATOM      7  C   UNL     1       1.476   5.383  86.621  1.00  0.00     0.053 C 
BRANCH   7   8
ATOM      8  C   UNL     1       2.030   4.053  87.021  1.00  0.00     0.041 C 
ATOM      9  O   UNL     1       3.049   3.591  86.442  1.00  0.00    -0.550 OA
ATOM     10  O   UNL     1       1.396   3.301  88.002  1.00  0.00    -0.550 OA
ENDBRANCH   7   8
ENDBRANCH   6   7
ENDBRANCH   5   6
ENDBRANCH   4   5
ENDBRANCH   3   4
ENDBRANCH   2   3
ENDBRANCH   1   2
BRANCH   1  11
ATOM     11  C   UNL     1       1.430   9.942  82.649  1.00  0.00     0.000 C 
BRANCH  11  12
ATOM     12  C   UNL     1       2.905   9.675  83.011  1.00  0.00     0.000 C 
BRANCH  12  13
ATOM     13  C   UNL     1       3.935  10.461  82.177  1.00  0.00     0.000 C 
BRANCH  13  14
ATOM     14  C   UNL     1       5.392   9.987  82.332  1.00  0.00     0.000 C 
BRANCH  14  15
ATOM     15  C   UNL     1       5.631   8.543  81.842  1.00  0.00     0.000 C 
BRANCH  15  16
ATOM     16  C   UNL     1       6.955   8.395  81.072  1.00  0.00     0.006 C 
BRANCH  16  17
ATOM     17  C   UNL     1       6.950   7.181  80.133  1.00  0.00     0.053 C 
BRANCH  17  18
ATOM     18  C   UNL     1       8.328   6.845  79.649  1.00  0.00     0.041 C 
ATOM     19  O   UNL     1       9.197   7.750  79.532  1.00  0.00    -0.550 OA
ATOM     20  O   UNL     1       8.642   5.538  79.297  1.00  0.00    -0.550 OA
ENDBRANCH  17  18
ENDBRANCH  16  17
ENDBRANCH  15  16
ENDBRANCH  14  15
ENDBRANCH  13  14
ENDBRANCH  12  13
ENDBRANCH  11  12
ENDBRANCH   1  11
TORSDOF 15
ENDMDL
MODEL 4
REMARK VINA RESULT:    -4.671      2.009      3.397
REMARK INTER + INTRA:          -9.803
REMARK INTER:                  -8.341
REMARK INTRA:                  -1.461
REMARK UNBOUND:                -1.036
REMARK SMILES O=C([O-])CCCCCCCCCCCCCCC(=O)[O-]
REMARK SMILES IDX 10 1 9 2 8 3 7 4 6 5 5 6 4 7 2 8 1 9 3 10 11 11 12 12 13 13
REMARK SMILES IDX 14 14 15 15 16 16 17 17 18 18 19 19 20 20
REMARK H PARENT
REMARK Flexibility Score: inf
ROOT
ATOM      1  C   UNL     1       4.999  10.423  82.677  1.00  0.00     0.000 C 
ENDROOT
BRANCH   1   2
ATOM      2  C   UNL     1       4.567   9.005  82.253  1.00  0.00     0.000 C 
BRANCH   2   3
ATOM      3  C   UNL     1       5.657   8.174  81.549  1.00  0.00     0.000 C 
BRANCH   3   4
ATOM      4  C   UNL     1       7.032   8.858  81.445  1.00  0.00     0.000 C 
BRANCH   4   5
ATOM      5  C   UNL     1       7.591   8.860  80.014  1.00  0.00     0.000 C 
BRANCH   5   6
ATOM      6  C   UNL     1       8.944   8.141  79.952  1.00  0.00     0.006 C 
BRANCH   6   7
ATOM      7  C   UNL     1       8.931   7.038  78.889  1.00  0.00     0.053 C 
BRANCH   7   8
ATOM      8  C   UNL     1       8.620   5.714  79.510  1.00  0.00     0.041 C 
ATOM      9  O   UNL     1       7.434   5.418  79.813  1.00  0.00    -0.550 OA
ATOM     10  O   UNL     1       9.647   4.822  79.798  1.00  0.00    -0.550 OA
ENDBRANCH   7   8
ENDBRANCH   6   7
ENDBRANCH   5   6
ENDBRANCH   4   5
ENDBRANCH   3   4
ENDBRANCH   2   3
ENDBRANCH   1   2
BRANCH   1  11
ATOM     11  C   UNL     1       4.379  11.566  81.849  1.00  0.00     0.000 C 
BRANCH  11  12
ATOM     12  C   UNL     1       2.878  11.401  81.529  1.00  0.00     0.000 C 
BRANCH  12  13
ATOM     13  C   UNL     1       1.941  11.443  82.751  1.00  0.00     0.000 C 
BRANCH  13  14
ATOM     14  C   UNL     1       0.799  10.410  82.727  1.00  0.00     0.000 C 
BRANCH  14  15
ATOM     15  C   UNL     1       0.843   9.409  83.902  1.00  0.00     0.000 C 
BRANCH  15  16
ATOM     16  C   UNL     1       1.516  10.000  85.153  1.00  0.00     0.006 C 
BRANCH  16  17
ATOM     17  C   UNL     1       2.761   9.208  85.573  1.00  0.00     0.053 C 
BRANCH  17  18
ATOM     18  C   UNL     1       2.403   7.862  86.128  1.00  0.00     0.041 C 
ATOM     19  O   UNL     1       1.617   7.769  87.108  1.00  0.00    -0.550 OA
ATOM     20  O   UNL     1       2.964   6.713  85.584  1.00  0.00    -0.550 OA
ENDBRANCH  17  18
ENDBRANCH  16  17
ENDBRANCH  15  16
ENDBRANCH  14  15
ENDBRANCH  13  14
ENDBRANCH  12  13
ENDBRANCH  11  12
ENDBRANCH   1  11
TORSDOF 15
ENDMDL
MODEL 5
REMARK VINA RESULT:    -4.655      1.817      3.303
REMARK INTER + INTRA:          -9.773
REMARK INTER:                  -8.874
REMARK INTRA:                  -0.899
REMARK UNBOUND:                -1.036
REMARK SMILES O=C([O-])CCCCCCCCCCCCCCC(=O)[O-]
REMARK SMILES IDX 10 1 9 2 8 3 7 4 6 5 5 6 4 7 2 8 1 9 3 10 11 11 12 12 13 13
REMARK SMILES IDX 14 14 15 15 16 16 17 17 18 18 19 19 20 20
REMARK H PARENT
REMARK Flexibility Score: inf
ROOT
ATOM      1  C   UNL     1       5.013   8.829  82.025  1.00  0.00     0.000 C 
ENDROOT
BRANCH   1   2
ATOM      2  C   UNL     1       6.198   8.106  81.356  1.00  0.00     0.000 C 
BRANCH   2   3
ATOM      3  C   UNL     1       7.138   9.013  80.537  1.00  0.00     0.000 C 
BRANCH   3   4
ATOM      4  C   UNL     1       8.635   8.868  80.867  1.00  0.00     0.000 C 
BRANCH   4   5
ATOM      5  C   UNL     1       9.526   8.880  79.616  1.00  0.00     0.000 C 
BRANCH   5   6
ATOM      6  C   UNL     1      10.150   7.502  79.372  1.00  0.00     0.006 C 
BRANCH   6   7
ATOM      7  C   UNL     1       9.142   6.550  78.718  1.00  0.00     0.053 C 
BRANCH   7   8
ATOM      8  C   UNL     1       8.877   5.376  79.605  1.00  0.00     0.041 C 
ATOM      9  O   UNL     1       9.804   4.570  79.882  1.00  0.00    -0.550 OA
ATOM     10  O   UNL     1       7.596   5.144  80.089  1.00  0.00    -0.550 OA
ENDBRANCH   7   8
ENDBRANCH   6   7
ENDBRANCH   5   6
ENDBRANCH   4   5
ENDBRANCH   3   4
ENDBRANCH   2   3
ENDBRANCH   1   2
BRANCH   1  11
ATOM     11  C   UNL     1       5.249  10.323  82.325  1.00  0.00     0.000 C 
BRANCH  11  12
ATOM     12  C   UNL     1       4.363  10.913  83.442  1.00  0.00     0.000 C 
BRANCH  12  13
ATOM     13  C   UNL     1       2.931  11.282  83.012  1.00  0.00     0.000 C 
BRANCH  13  14
ATOM     14  C   UNL     1       1.829  10.366  83.576  1.00  0.00     0.000 C 
BRANCH  14  15
ATOM     15  C   UNL     1       2.354   9.010  84.097  1.00  0.00     0.000 C 
BRANCH  15  16
ATOM     16  C   UNL     1       1.851   8.690  85.515  1.00  0.00     0.006 C 
BRANCH  16  17
ATOM     17  C   UNL     1       2.515   7.436  86.099  1.00  0.00     0.053 C 
BRANCH  17  18
ATOM     18  C   UNL     1       1.894   6.179  85.568  1.00  0.00     0.041 C 
ATOM     19  O   UNL     1       0.669   6.151  85.278  1.00  0.00    -0.550 OA
ATOM     20  O   UNL     1       2.662   5.030  85.425  1.00  0.00    -0.550 OA
ENDBRANCH  17  18
ENDBRANCH  16  17
ENDBRANCH  15  16
ENDBRANCH  14  15
ENDBRANCH  13  14
ENDBRANCH  12  13
ENDBRANCH  11  12
ENDBRANCH   1  11
TORSDOF 15
ENDMDL
MODEL 6
REMARK VINA RESULT:    -4.603      3.201      4.851
REMARK INTER + INTRA:          -9.674
REMARK INTER:                  -8.385
REMARK INTRA:                  -1.289
REMARK UNBOUND:                -1.036
REMARK SMILES O=C([O-])CCCCCCCCCCCCCCC(=O)[O-]
REMARK SMILES IDX 10 1 9 2 8 3 7 4 6 5 5 6 4 7 2 8 1 9 3 10 11 11 12 12 13 13
REMARK SMILES IDX 14 14 15 15 16 16 17 17 18 18 19 19 20 20
REMARK H PARENT
REMARK Flexibility Score: inf
ROOT
ATOM      1  C   UNL     1       5.284  10.382  82.265  1.00  0.00     0.000 C 
ENDROOT
BRANCH   1   2
ATOM      2  C   UNL     1       5.646   8.957  81.801  1.00  0.00     0.000 C 
BRANCH   2   3
ATOM      3  C   UNL     1       7.133   8.741  81.455  1.00  0.00     0.000 C 
BRANCH   3   4
ATOM      4  C   UNL     1       7.525   9.105  80.012  1.00  0.00     0.000 C 
BRANCH   4   5
ATOM      5  C   UNL     1       9.039   9.290  79.833  1.00  0.00     0.000 C 
BRANCH   5   6
ATOM      6  C   UNL     1       9.749   7.936  79.714  1.00  0.00     0.006 C 
BRANCH   6   7
ATOM      7  C   UNL     1       8.974   6.989  78.793  1.00  0.00     0.053 C 
BRANCH   7   8
ATOM      8  C   UNL     1       8.706   5.689  79.482  1.00  0.00     0.041 C 
ATOM      9  O   UNL     1       7.535   5.390  79.837  1.00  0.00    -0.550 OA
ATOM     10  O   UNL     1       9.756   4.827  79.775  1.00  0.00    -0.550 OA
ENDBRANCH   7   8
ENDBRANCH   6   7
ENDBRANCH   5   6
ENDBRANCH   4   5
ENDBRANCH   3   4
ENDBRANCH   2   3
ENDBRANCH   1   2
BRANCH   1  11
ATOM     11  C   UNL     1       4.780  11.319  81.150  1.00  0.00     0.000 C 
BRANCH  11  12
ATOM     12  C   UNL     1       4.128  12.628  81.642  1.00  0.00     0.000 C 
BRANCH  12  13
ATOM     13  C   UNL     1       2.899  13.088  80.835  1.00  0.00     0.000 C 
BRANCH  13  14
ATOM     14  C   UNL     1       1.978  11.951  80.353  1.00  0.00     0.000 C 
BRANCH  14  15
ATOM     15  C   UNL     1       0.685  11.804  81.184  1.00  0.00     0.000 C 
BRANCH  15  16
ATOM     16  C   UNL     1       0.961  11.311  82.616  1.00  0.00     0.006 C 
BRANCH  16  17
ATOM     17  C   UNL     1       1.651   9.941  82.636  1.00  0.00     0.053 C 
BRANCH  17  18
ATOM     18  C   UNL     1       1.888   9.458  84.035  1.00  0.00     0.041 C 
ATOM     19  O   UNL     1       2.675   8.498  84.250  1.00  0.00    -0.550 OA
ATOM     20  O   UNL     1       1.215  10.047  85.098  1.00  0.00    -0.550 OA
ENDBRANCH  17  18
ENDBRANCH  16  17
ENDBRANCH  15  16
ENDBRANCH  14  15
ENDBRANCH  13  14
ENDBRANCH  12  13
ENDBRANCH  11  12
ENDBRANCH   1  11
TORSDOF 15
ENDMDL
MODEL 7
REMARK VINA RESULT:    -4.601      2.282      7.648
REMARK INTER + INTRA:          -9.671
REMARK INTER:                  -7.973
REMARK INTRA:                  -1.697
REMARK UNBOUND:                -1.036
REMARK SMILES O=C([O-])CCCCCCCCCCCCCCC(=O)[O-]
REMARK SMILES IDX 10 1 9 2 8 3 7 4 6 5 5 6 4 7 2 8 1 9 3 10 11 11 12 12 13 13
REMARK SMILES IDX 14 14 15 15 16 16 17 17 18 18 19 19 20 20
REMARK H PARENT
REMARK Flexibility Score: inf
ROOT
ATOM      1  C   UNL     1       3.169  12.541  80.237  1.00  0.00     0.000 C 
ENDROOT
BRANCH   1   2
ATOM      2  C   UNL     1       1.780  11.878  80.326  1.00  0.00     0.000 C 
BRANCH   2   3
ATOM      3  C   UNL     1       0.929  12.307  81.538  1.00  0.00     0.000 C 
BRANCH   3   4
ATOM      4  C   UNL     1       0.507  11.162  82.476  1.00  0.00     0.000 C 
BRANCH   4   5
ATOM      5  C   UNL     1       1.572  10.061  82.591  1.00  0.00     0.000 C 
BRANCH   5   6
ATOM      6  C   UNL     1       2.156  10.006  84.007  1.00  0.00     0.006 C 
BRANCH   6   7
ATOM      7  C   UNL     1       2.516   8.569  84.398  1.00  0.00     0.053 C 
BRANCH   7   8
ATOM      8  C   UNL     1       2.471   8.403  85.884  1.00  0.00     0.041 C 
ATOM      9  O   UNL     1       1.809   7.462  86.397  1.00  0.00    -0.550 OA
ATOM     10  O   UNL     1       3.124   9.313  86.706  1.00  0.00    -0.550 OA
ENDBRANCH   7   8
ENDBRANCH   6   7
ENDBRANCH   5   6
ENDBRANCH   4   5
ENDBRANCH   3   4
ENDBRANCH   2   3
ENDBRANCH   1   2
BRANCH   1  11
ATOM     11  C   UNL     1       3.714  13.089  81.570  1.00  0.00     0.000 C 
BRANCH  11  12
ATOM     12  C   UNL     1       4.765  12.197  82.263  1.00  0.00     0.000 C 
BRANCH  12  13
ATOM     13  C   UNL     1       5.094  10.885  81.527  1.00  0.00     0.000 C 
BRANCH  13  14
ATOM     14  C   UNL     1       5.485   9.709  82.442  1.00  0.00     0.000 C 
BRANCH  14  15
ATOM     15  C   UNL     1       5.606   8.359  81.702  1.00  0.00     0.000 C 
BRANCH  15  16
ATOM     16  C   UNL     1       6.891   8.264  80.860  1.00  0.00     0.006 C 
BRANCH  16  17
ATOM     17  C   UNL     1       6.983   6.941  80.088  1.00  0.00     0.053 C 
BRANCH  17  18
ATOM     18  C   UNL     1       8.349   6.729  79.508  1.00  0.00     0.041 C 
ATOM     19  O   UNL     1       9.059   7.717  79.180  1.00  0.00    -0.550 OA
ATOM     20  O   UNL     1       8.824   5.440  79.299  1.00  0.00    -0.550 OA
ENDBRANCH  17  18
ENDBRANCH  16  17
ENDBRANCH  15  16
ENDBRANCH  14  15
ENDBRANCH  13  14
ENDBRANCH  12  13
ENDBRANCH  11  12
ENDBRANCH   1  11
TORSDOF 15
ENDMDL
MODEL 8
REMARK VINA RESULT:    -4.594      1.655      8.019
REMARK INTER + INTRA:          -9.659
REMARK INTER:                  -8.626
REMARK INTRA:                  -1.033
REMARK UNBOUND:                -1.036
REMARK SMILES O=C([O-])CCCCCCCCCCCCCCC(=O)[O-]
REMARK SMILES IDX 10 1 9 2 8 3 7 4 6 5 5 6 4 7 2 8 1 9 3 10 11 11 12 12 13 13
REMARK SMILES IDX 14 14 15 15 16 16 17 17 18 18 19 19 20 20
REMARK H PARENT
REMARK Flexibility Score: inf
ROOT
ATOM      1  C   UNL     1       3.361  10.275  83.468  1.00  0.00     0.000 C 
ENDROOT
BRANCH   1   2
ATOM      2  C   UNL     1       2.018   9.522  83.544  1.00  0.00     0.000 C 
BRANCH   2   3
ATOM      3  C   UNL     1       0.953  10.177  84.446  1.00  0.00     0.000 C 
BRANCH   3   4
ATOM      4  C   UNL     1       0.270   9.225  85.444  1.00  0.00     0.000 C 
BRANCH   4   5
ATOM      5  C   UNL     1       0.986   9.168  86.801  1.00  0.00     0.000 C 
BRANCH   5   6
ATOM      6  C   UNL     1       1.445   7.741  87.121  1.00  0.00     0.006 C 
BRANCH   6   7
ATOM      7  C   UNL     1       1.120   6.787  85.967  1.00  0.00     0.053 C 
BRANCH   7   8
ATOM      8  C   UNL     1       2.317   5.963  85.614  1.00  0.00     0.041 C 
ATOM      9  O   UNL     1       2.425   4.785  86.045  1.00  0.00    -0.550 OA
ATOM     10  O   UNL     1       3.337   6.511  84.847  1.00  0.00    -0.550 OA
ENDBRANCH   7   8
ENDBRANCH   6   7
ENDBRANCH   5   6
ENDBRANCH   4   5
ENDBRANCH   3   4
ENDBRANCH   2   3
ENDBRANCH   1   2
BRANCH   1  11
ATOM     11  C   UNL     1       4.255   9.891  82.273  1.00  0.00     0.000 C 
BRANCH  11  12
ATOM     12  C   UNL     1       4.769   8.437  82.282  1.00  0.00     0.000 C 
BRANCH  12  13
ATOM     13  C   UNL     1       6.089   8.207  81.520  1.00  0.00     0.000 C 
BRANCH  13  14
ATOM     14  C   UNL     1       6.680   9.463  80.853  1.00  0.00     0.000 C 
BRANCH  14  15
ATOM     15  C   UNL     1       7.620   9.153  79.668  1.00  0.00     0.000 C 
BRANCH  15  16
ATOM     16  C   UNL     1       8.800   8.253  80.075  1.00  0.00     0.006 C 
BRANCH  16  17
ATOM     17  C   UNL     1       9.089   7.165  79.031  1.00  0.00     0.053 C 
BRANCH  17  18
ATOM     18  C   UNL     1       8.663   5.810  79.508  1.00  0.00     0.041 C 
ATOM     19  O   UNL     1       9.516   4.897  79.668  1.00  0.00    -0.550 OA
ATOM     20  O   UNL     1       7.319   5.546  79.744  1.00  0.00    -0.550 OA
ENDBRANCH  17  18
ENDBRANCH  16  17
ENDBRANCH  15  16
ENDBRANCH  14  15
ENDBRANCH  13  14
ENDBRANCH  12  13
ENDBRANCH  11  12
ENDBRANCH   1  11
TORSDOF 15
ENDMDL
MODEL 9
REMARK VINA RESULT:    -4.455      1.477      8.381
REMARK INTER + INTRA:          -9.398
REMARK INTER:                  -8.413
REMARK INTRA:                  -0.985
REMARK UNBOUND:                -1.036
REMARK SMILES O=C([O-])CCCCCCCCCCCCCCC(=O)[O-]
REMARK SMILES IDX 10 1 9 2 8 3 7 4 6 5 5 6 4 7 2 8 1 9 3 10 11 11 12 12 13 13
REMARK SMILES IDX 14 14 15 15 16 16 17 17 18 18 19 19 20 20
REMARK H PARENT
REMARK Flexibility Score: inf
ROOT
ATOM      1  C   UNL     1       2.328   7.988  86.438  1.00  0.00     0.000 C 
ENDROOT
BRANCH   1   2
ATOM      2  C   UNL     1       0.827   8.055  86.783  1.00  0.00     0.000 C 
BRANCH   2   3
ATOM      3  C   UNL     1      -0.077   7.128  85.945  1.00  0.00     0.000 C 
BRANCH   3   4
ATOM      4  C   UNL     1      -0.339   5.743  86.562  1.00  0.00     0.000 C 
BRANCH   4   5
ATOM      5  C   UNL     1      -0.182   5.730  88.089  1.00  0.00     0.000 C 
BRANCH   5   6
ATOM      6  C   UNL     1       0.635   4.516  88.548  1.00  0.00     0.006 C 
BRANCH   6   7
ATOM      7  C   UNL     1       1.590   4.048  87.444  1.00  0.00     0.053 C 
BRANCH   7   8
ATOM      8  C   UNL     1       2.374   2.858  87.899  1.00  0.00     0.041 C 
ATOM      9  O   UNL     1       1.858   2.023  88.687  1.00  0.00    -0.550 OA
ATOM     10  O   UNL     1       3.691   2.695  87.489  1.00  0.00    -0.550 OA
ENDBRANCH   7   8
ENDBRANCH   6   7
ENDBRANCH   5   6
ENDBRANCH   4   5
ENDBRANCH   3   4
ENDBRANCH   2   3
ENDBRANCH   1   2
BRANCH   1  11
ATOM     11  C   UNL     1       2.648   7.956  84.931  1.00  0.00     0.000 C 
BRANCH  11  12
ATOM     12  C   UNL     1       2.490   9.306  84.200  1.00  0.00     0.000 C 
BRANCH  12  13
ATOM     13  C   UNL     1       3.194   9.393  82.833  1.00  0.00     0.000 C 
BRANCH  13  14
ATOM     14  C   UNL     1       4.418  10.328  82.793  1.00  0.00     0.000 C 
BRANCH  14  15
ATOM     15  C   UNL     1       5.408  10.005  81.652  1.00  0.00     0.000 C 
BRANCH  15  16
ATOM     16  C   UNL     1       6.075   8.629  81.825  1.00  0.00     0.006 C 
BRANCH  16  17
ATOM     17  C   UNL     1       7.394   8.521  81.048  1.00  0.00     0.053 C 
BRANCH  17  18
ATOM     18  C   UNL     1       7.287   7.561  79.901  1.00  0.00     0.041 C 
ATOM     19  O   UNL     1       6.343   6.727  79.858  1.00  0.00    -0.550 OA
ATOM     20  O   UNL     1       8.248   7.566  78.898  1.00  0.00    -0.550 OA
ENDBRANCH  17  18
ENDBRANCH  16  17
ENDBRANCH  15  16
ENDBRANCH  14  15
ENDBRANCH  13  14
ENDBRANCH  12  13
ENDBRANCH  11  12
ENDBRANCH   1  11
TORSDOF 15
ENDMDL
