MODEL 1
REMARK VINA RESULT:    -4.135      0.000      0.000
REMARK INTER + INTRA:          -4.401
REMARK INTER:                  -4.377
REMARK INTRA:                  -0.024
REMARK UNBOUND:                -0.024
REMARK SMILES O=C([O-])c1cccnc1
REMARK SMILES IDX 4 1 5 2 9 3 6 4 8 5 7 6 2 7 1 8 3 9
REMARK H PARENT
REMARK Flexibility Score: inf
ROOT
ATOM      1  C   UNL     1      31.516  16.319  -8.099  1.00  0.00     0.016 A 
ATOM      2  C   UNL     1      30.329  15.974  -8.764  1.00  0.00     0.013 A 
ATOM      3  C   UNL     1      32.696  15.637  -8.442  1.00  0.00     0.120 A 
ATOM      4  C   UNL     1      30.336  14.977  -9.741  1.00  0.00     0.021 A 
ATOM      5  N   UNL     1      32.677  14.669  -9.398  1.00  0.00    -0.264 NA
ATOM      6  C   UNL     1      31.533  14.328 -10.048  1.00  0.00     0.111 A 
ENDROOT
BRANCH   1   7
ATOM      7  C   UNL     1      31.520  17.373  -7.062  1.00  0.00     0.073 C 
ATOM      8  O   UNL     1      32.602  17.758  -6.544  1.00  0.00    -0.545 OA
ATOM      9  O   UNL     1      30.329  17.956  -6.645  1.00  0.00    -0.545 OA
ENDBRANCH   1   7
TORSDOF 1
ENDMDL
MODEL 2
REMARK VINA RESULT:    -3.775      2.937      3.578
REMARK INTER + INTRA:          -4.019
REMARK INTER:                  -4.002
REMARK INTRA:                  -0.017
REMARK UNBOUND:                -0.024
REMARK SMILES O=C([O-])c1cccnc1
REMARK SMILES IDX 4 1 5 2 9 3 6 4 8 5 7 6 2 7 1 8 3 9
REMARK H PARENT
REMARK Flexibility Score: inf
ROOT
ATOM      1  C   UNL     1      32.888  15.279  -9.217  1.00  0.00     0.016 A 
ATOM      2  C   UNL     1      31.723  14.901  -9.903  1.00  0.00     0.013 A 
ATOM      3  C   UNL     1      32.759  16.106  -8.088  1.00  0.00     0.120 A 
ATOM      4  C   UNL     1      30.475  15.344  -9.463  1.00  0.00     0.021 A 
ATOM      5  N   UNL     1      31.531  16.524  -7.679  1.00  0.00    -0.264 NA
ATOM      6  C   UNL     1      30.397  16.164  -8.337  1.00  0.00     0.111 A 
ENDROOT
BRANCH   1   7
ATOM      7  C   UNL     1      34.216  14.817  -9.675  1.00  0.00     0.073 C 
ATOM      8  O   UNL     1      35.061  15.637 -10.122  1.00  0.00    -0.545 OA
ATOM      9  O   UNL     1      34.551  13.469  -9.617  1.00  0.00    -0.545 OA
ENDBRANCH   1   7
TORSDOF 1
ENDMDL
MODEL 3
REMARK VINA RESULT:    -3.524     13.798     15.334
REMARK INTER + INTRA:          -3.754
REMARK INTER:                  -3.737
REMARK INTRA:                  -0.016
REMARK UNBOUND:                -0.024
REMARK SMILES O=C([O-])c1cccnc1
REMARK SMILES IDX 4 1 5 2 9 3 6 4 8 5 7 6 2 7 1 8 3 9
REMARK H PARENT
REMARK Flexibility Score: inf
ROOT
ATOM      1  C   UNL     1      34.283  22.646   4.446  1.00  0.00     0.016 A 
ATOM      2  C   UNL     1      35.125  23.193   5.427  1.00  0.00     0.013 A 
ATOM      3  C   UNL     1      32.993  23.185   4.298  1.00  0.00     0.120 A 
ATOM      4  C   UNL     1      34.678  24.246   6.228  1.00  0.00     0.021 A 
ATOM      5  N   UNL     1      32.582  24.211   5.090  1.00  0.00    -0.264 NA
ATOM      6  C   UNL     1      33.390  24.747   6.043  1.00  0.00     0.111 A 
ENDROOT
BRANCH   1   7
ATOM      7  C   UNL     1      34.745  21.530   3.593  1.00  0.00     0.073 C 
ATOM      8  O   UNL     1      35.123  21.742   2.410  1.00  0.00    -0.545 OA
ATOM      9  O   UNL     1      34.770  20.231   4.085  1.00  0.00    -0.545 OA
ENDBRANCH   1   7
TORSDOF 1
ENDMDL
MODEL 4
REMARK VINA RESULT:    -3.186     19.468     19.668
REMARK INTER + INTRA:          -3.396
REMARK INTER:                  -3.375
REMARK INTRA:                  -0.021
REMARK UNBOUND:                -0.024
REMARK SMILES O=C([O-])c1cccnc1
REMARK SMILES IDX 4 1 5 2 9 3 6 4 8 5 7 6 2 7 1 8 3 9
REMARK H PARENT
REMARK Flexibility Score: inf
ROOT
ATOM      1  C   UNL     1      16.710  22.337   2.950  1.00  0.00     0.016 A 
ATOM      2  C   UNL     1      16.955  21.180   3.707  1.00  0.00     0.013 A 
ATOM      3  C   UNL     1      15.865  22.236   1.831  1.00  0.00     0.120 A 
ATOM      4  C   UNL     1      16.367  19.967   3.345  1.00  0.00     0.021 A 
ATOM      5  N   UNL     1      15.304  21.042   1.499  1.00  0.00    -0.264 NA
ATOM      6  C   UNL     1      15.536  19.917   2.226  1.00  0.00     0.111 A 
ENDROOT
BRANCH   1   7
ATOM      7  C   UNL     1      17.328  23.627   3.323  1.00  0.00     0.073 C 
ATOM      8  O   UNL     1      17.508  23.924   4.534  1.00  0.00    -0.545 OA
ATOM      9  O   UNL     1      17.719  24.531   2.343  1.00  0.00    -0.545 OA
ENDBRANCH   1   7
TORSDOF 1
ENDMDL
MODEL 5
REMARK VINA RESULT:    -3.119     15.081     16.259
REMARK INTER + INTRA:          -3.325
REMARK INTER:                  -3.301
REMARK INTRA:                  -0.024
REMARK UNBOUND:                -0.024
REMARK SMILES O=C([O-])c1cccnc1
REMARK SMILES IDX 4 1 5 2 9 3 6 4 8 5 7 6 2 7 1 8 3 9
REMARK H PARENT
REMARK Flexibility Score: inf
ROOT
ATOM      1  C   UNL     1      32.953  24.001   5.954  1.00  0.00     0.016 A 
ATOM      2  C   UNL     1      34.346  24.177   5.987  1.00  0.00     0.013 A 
ATOM      3  C   UNL     1      32.376  23.448   4.798  1.00  0.00     0.120 A 
ATOM      4  C   UNL     1      35.125  23.806   4.889  1.00  0.00     0.021 A 
ATOM      5  N   UNL     1      33.158  23.095   3.742  1.00  0.00    -0.264 NA
ATOM      6  C   UNL     1      34.507  23.261   3.764  1.00  0.00     0.111 A 
ENDROOT
BRANCH   1   7
ATOM      7  C   UNL     1      32.117  24.391   7.110  1.00  0.00     0.073 C 
ATOM      8  O   UNL     1      32.586  25.125   8.021  1.00  0.00    -0.545 OA
ATOM      9  O   UNL     1      30.801  23.955   7.207  1.00  0.00    -0.545 OA
ENDBRANCH   1   7
TORSDOF 1
ENDMDL
MODEL 6
REMARK VINA RESULT:    -3.094     22.745     23.233
REMARK INTER + INTRA:          -3.299
REMARK INTER:                  -3.282
REMARK INTRA:                  -0.017
REMARK UNBOUND:                -0.024
REMARK SMILES O=C([O-])c1cccnc1
REMARK SMILES IDX 4 1 5 2 9 3 6 4 8 5 7 6 2 7 1 8 3 9
REMARK H PARENT
REMARK Flexibility Score: inf
ROOT
ATOM      1  C   UNL     1      16.361  21.755   7.939  1.00  0.00     0.016 A 
ATOM      2  C   UNL     1      17.221  22.001   9.021  1.00  0.00     0.013 A 
ATOM      3  C   UNL     1      16.073  22.813   7.061  1.00  0.00     0.120 A 
ATOM      4  C   UNL     1      17.768  23.272   9.207  1.00  0.00     0.021 A 
ATOM      5  N   UNL     1      16.620  24.042   7.263  1.00  0.00    -0.264 NA
ATOM      6  C   UNL     1      17.453  24.291   8.308  1.00  0.00     0.111 A 
ENDROOT
BRANCH   1   7
ATOM      7  C   UNL     1      15.775  20.413   7.733  1.00  0.00     0.073 C 
ATOM      8  O   UNL     1      16.083  19.728   6.722  1.00  0.00    -0.545 OA
ATOM      9  O   UNL     1      14.875  19.888   8.653  1.00  0.00    -0.545 OA
ENDBRANCH   1   7
TORSDOF 1
ENDMDL
MODEL 7
REMARK VINA RESULT:    -3.092     22.437     23.103
REMARK INTER + INTRA:          -3.296
REMARK INTER:                  -3.280
REMARK INTRA:                  -0.016
REMARK UNBOUND:                -0.024
REMARK SMILES O=C([O-])c1cccnc1
REMARK SMILES IDX 4 1 5 2 9 3 6 4 8 5 7 6 2 7 1 8 3 9
REMARK H PARENT
REMARK Flexibility Score: inf
ROOT
ATOM      1  C   UNL     1      17.371  23.087   8.635  1.00  0.00     0.016 A 
ATOM      2  C   UNL     1      17.473  21.836   9.264  1.00  0.00     0.013 A 
ATOM      3  C   UNL     1      16.758  23.152   7.372  1.00  0.00     0.120 A 
ATOM      4  C   UNL     1      16.973  20.693   8.637  1.00  0.00     0.021 A 
ATOM      5  N   UNL     1      16.278  22.023   6.783  1.00  0.00    -0.264 NA
ATOM      6  C   UNL     1      16.372  20.807   7.383  1.00  0.00     0.111 A 
ENDROOT
BRANCH   1   7
ATOM      7  C   UNL     1      17.898  24.304   9.289  1.00  0.00     0.073 C 
ATOM      8  O   UNL     1      17.195  24.941  10.119  1.00  0.00    -0.545 OA
ATOM      9  O   UNL     1      19.177  24.762   8.999  1.00  0.00    -0.545 OA
ENDBRANCH   1   7
TORSDOF 1
ENDMDL
MODEL 8
REMARK VINA RESULT:    -3.083     19.694     19.941
REMARK INTER + INTRA:          -3.287
REMARK INTER:                  -3.263
REMARK INTRA:                  -0.024
REMARK UNBOUND:                -0.024
REMARK SMILES O=C([O-])c1cccnc1
REMARK SMILES IDX 4 1 5 2 9 3 6 4 8 5 7 6 2 7 1 8 3 9
REMARK H PARENT
REMARK Flexibility Score: inf
ROOT
ATOM      1  C   UNL     1      16.354  22.139   2.511  1.00  0.00     0.016 A 
ATOM      2  C   UNL     1      17.123  21.784   3.631  1.00  0.00     0.013 A 
ATOM      3  C   UNL     1      16.374  23.478   2.084  1.00  0.00     0.120 A 
ATOM      4  C   UNL     1      17.883  22.748   4.294  1.00  0.00     0.021 A 
ATOM      5  N   UNL     1      17.125  24.399   2.747  1.00  0.00    -0.264 NA
ATOM      6  C   UNL     1      17.872  24.065   3.833  1.00  0.00     0.111 A 
ENDROOT
BRANCH   1   7
ATOM      7  C   UNL     1      15.544  21.126   1.801  1.00  0.00     0.073 C 
ATOM      8  O   UNL     1      14.875  21.441   0.781  1.00  0.00    -0.545 OA
ATOM      9  O   UNL     1      15.509  19.811   2.249  1.00  0.00    -0.545 OA
ENDBRANCH   1   7
TORSDOF 1
ENDMDL
MODEL 9
REMARK VINA RESULT:    -2.861     20.537     21.594
REMARK INTER + INTRA:          -3.052
REMARK INTER:                  -3.029
REMARK INTRA:                  -0.023
REMARK UNBOUND:                -0.024
REMARK SMILES O=C([O-])c1cccnc1
REMARK SMILES IDX 4 1 5 2 9 3 6 4 8 5 7 6 2 7 1 8 3 9
REMARK H PARENT
REMARK Flexibility Score: inf
ROOT
ATOM      1  C   UNL     1      16.722  22.367   6.042  1.00  0.00     0.016 A 
ATOM      2  C   UNL     1      17.194  21.920   4.798  1.00  0.00     0.013 A 
ATOM      3  C   UNL     1      16.644  23.752   6.268  1.00  0.00     0.120 A 
ATOM      4  C   UNL     1      17.574  22.840   3.820  1.00  0.00     0.021 A 
ATOM      5  N   UNL     1      17.020  24.629   5.297  1.00  0.00    -0.264 NA
ATOM      6  C   UNL     1      17.479  24.205   4.090  1.00  0.00     0.111 A 
ENDROOT
BRANCH   1   7
ATOM      7  C   UNL     1      16.317  21.402   7.086  1.00  0.00     0.073 C 
ATOM      8  O   UNL     1      16.054  20.207   6.787  1.00  0.00    -0.545 OA
ATOM      9  O   UNL     1      16.224  21.799   8.415  1.00  0.00    -0.545 OA
ENDBRANCH   1   7
TORSDOF 1
ENDMDL
