MODEL 1
REMARK VINA RESULT:    -3.648      0.000      0.000
REMARK INTER + INTRA:          -5.496
REMARK INTER:                  -5.141
REMARK INTRA:                  -0.356
REMARK UNBOUND:                -0.356
REMARK SMILES C=CCCCCCCC(=O)[O-]
REMARK SMILES IDX 6 1 7 2 8 3 9 4 10 5 11 6 5 7 4 8 3 9 2 10 1 11
REMARK H PARENT
REMARK Flexibility Score: inf
ROOT
ATOM      1  C   UNL     1     -46.176 -28.005   2.818  1.00  0.00     0.000 C 
ENDROOT
BRANCH   1   2
ATOM      2  C   UNL     1     -46.300 -28.152   4.338  1.00  0.00     0.006 C 
BRANCH   2   3
ATOM      3  C   UNL     1     -46.186 -26.793   5.033  1.00  0.00     0.053 C 
BRANCH   3   4
ATOM      4  C   UNL     1     -45.643 -26.956   6.418  1.00  0.00     0.041 C 
ATOM      5  O   UNL     1     -45.107 -28.042   6.764  1.00  0.00    -0.550 OA
ATOM      6  O   UNL     1     -45.772 -25.926   7.341  1.00  0.00    -0.550 OA
ENDBRANCH   3   4
ENDBRANCH   2   3
ENDBRANCH   1   2
BRANCH   1   7
ATOM      7  C   UNL     1     -46.151 -26.527   2.408  1.00  0.00     0.000 C 
BRANCH   7   8
ATOM      8  C   UNL     1     -45.079 -26.271   1.339  1.00  0.00     0.004 C 
BRANCH   8   9
ATOM      9  C   UNL     1     -44.804 -27.514   0.483  1.00  0.00     0.027 C 
BRANCH   9  10
ATOM     10  C   UNL     1     -43.617 -27.311  -0.421  1.00  0.00    -0.035 C 
ATOM     11  C   UNL     1     -42.450 -27.922  -0.201  1.00  0.00     0.004 C 
ENDBRANCH   9  10
ENDBRANCH   8   9
ENDBRANCH   7   8
ENDBRANCH   1   7
TORSDOF 7
ENDMDL
MODEL 2
REMARK VINA RESULT:    -3.554      3.881      6.040
REMARK INTER + INTRA:          -5.364
REMARK INTER:                  -4.945
REMARK INTRA:                  -0.420
REMARK UNBOUND:                -0.356
REMARK SMILES C=CCCCCCCC(=O)[O-]
REMARK SMILES IDX 6 1 7 2 8 3 9 4 10 5 11 6 5 7 4 8 3 9 2 10 1 11
REMARK H PARENT
REMARK Flexibility Score: inf
ROOT
ATOM      1  C   UNL     1     -45.558 -26.625   1.501  1.00  0.00     0.000 C 
ENDROOT
BRANCH   1   2
ATOM      2  C   UNL     1     -45.642 -28.025   0.884  1.00  0.00     0.006 C 
BRANCH   2   3
ATOM      3  C   UNL     1     -44.420 -28.314   0.008  1.00  0.00     0.053 C 
BRANCH   3   4
ATOM      4  C   UNL     1     -44.427 -27.438  -1.206  1.00  0.00     0.041 C 
ATOM      5  O   UNL     1     -45.396 -27.476  -2.009  1.00  0.00    -0.550 OA
ATOM      6  O   UNL     1     -43.341 -26.615  -1.474  1.00  0.00    -0.550 OA
ENDBRANCH   3   4
ENDBRANCH   2   3
ENDBRANCH   1   2
BRANCH   1   7
ATOM      7  C   UNL     1     -46.189 -26.599   2.898  1.00  0.00     0.000 C 
BRANCH   7   8
ATOM      8  C   UNL     1     -46.368 -28.022   3.448  1.00  0.00     0.004 C 
BRANCH   8   9
ATOM      9  C   UNL     1     -45.986 -28.122   4.931  1.00  0.00     0.027 C 
BRANCH   9  10
ATOM     10  C   UNL     1     -46.040 -26.778   5.608  1.00  0.00    -0.035 C 
ATOM     11  C   UNL     1     -45.434 -26.551   6.775  1.00  0.00     0.004 C 
ENDBRANCH   9  10
ENDBRANCH   8   9
ENDBRANCH   7   8
ENDBRANCH   1   7
TORSDOF 7
ENDMDL
MODEL 3
REMARK VINA RESULT:    -3.514      1.642      2.757
REMARK INTER + INTRA:          -5.308
REMARK INTER:                  -4.901
REMARK INTRA:                  -0.407
REMARK UNBOUND:                -0.356
REMARK SMILES C=CCCCCCCC(=O)[O-]
REMARK SMILES IDX 6 1 7 2 8 3 9 4 10 5 11 6 5 7 4 8 3 9 2 10 1 11
REMARK H PARENT
REMARK Flexibility Score: inf
ROOT
ATOM      1  C   UNL     1     -44.703 -26.644   0.819  1.00  0.00     0.000 C 
ENDROOT
BRANCH   1   2
ATOM      2  C   UNL     1     -45.723 -26.121   1.836  1.00  0.00     0.006 C 
BRANCH   2   3
ATOM      3  C   UNL     1     -46.605 -27.257   2.364  1.00  0.00     0.053 C 
BRANCH   3   4
ATOM      4  C   UNL     1     -46.296 -27.534   3.802  1.00  0.00     0.041 C 
ATOM      5  O   UNL     1     -45.965 -28.693   4.166  1.00  0.00    -0.550 OA
ATOM      6  O   UNL     1     -46.421 -26.525   4.747  1.00  0.00    -0.550 OA
ENDBRANCH   3   4
ENDBRANCH   2   3
ENDBRANCH   1   2
BRANCH   1   7
ATOM      7  C   UNL     1     -45.007 -28.095   0.431  1.00  0.00     0.000 C 
BRANCH   7   8
ATOM      8  C   UNL     1     -43.754 -28.791  -0.122  1.00  0.00     0.004 C 
BRANCH   8   9
ATOM      9  C   UNL     1     -42.697 -27.787  -0.599  1.00  0.00     0.027 C 
BRANCH   9  10
ATOM     10  C   UNL     1     -41.313 -28.191  -0.161  1.00  0.00    -0.035 C 
ATOM     11  C   UNL     1     -40.990 -29.467   0.065  1.00  0.00     0.004 C 
ENDBRANCH   9  10
ENDBRANCH   8   9
ENDBRANCH   7   8
ENDBRANCH   1   7
TORSDOF 7
ENDMDL
MODEL 4
REMARK VINA RESULT:    -3.500      3.311      5.423
REMARK INTER + INTRA:          -5.288
REMARK INTER:                  -4.699
REMARK INTRA:                  -0.589
REMARK UNBOUND:                -0.356
REMARK SMILES C=CCCCCCCC(=O)[O-]
REMARK SMILES IDX 6 1 7 2 8 3 9 4 10 5 11 6 5 7 4 8 3 9 2 10 1 11
REMARK H PARENT
REMARK Flexibility Score: inf
ROOT
ATOM      1  C   UNL     1     -46.049 -28.971   3.411  1.00  0.00     0.000 C 
ENDROOT
BRANCH   1   2
ATOM      2  C   UNL     1     -46.863 -27.748   2.971  1.00  0.00     0.006 C 
BRANCH   2   3
ATOM      3  C   UNL     1     -46.000 -26.483   2.975  1.00  0.00     0.053 C 
BRANCH   3   4
ATOM      4  C   UNL     1     -45.866 -25.936   1.589  1.00  0.00     0.041 C 
ATOM      5  O   UNL     1     -46.785 -25.232   1.095  1.00  0.00    -0.550 OA
ATOM      6  O   UNL     1     -44.747 -26.244   0.826  1.00  0.00    -0.550 OA
ENDBRANCH   3   4
ENDBRANCH   2   3
ENDBRANCH   1   2
BRANCH   1   7
ATOM      7  C   UNL     1     -46.521 -29.485   4.776  1.00  0.00     0.000 C 
BRANCH   7   8
ATOM      8  C   UNL     1     -45.333 -29.949   5.630  1.00  0.00     0.004 C 
BRANCH   8   9
ATOM      9  C   UNL     1     -44.978 -28.938   6.728  1.00  0.00     0.027 C 
BRANCH   9  10
ATOM     10  C   UNL     1     -45.971 -27.806   6.779  1.00  0.00    -0.035 C 
ATOM     11  C   UNL     1     -45.589 -26.529   6.704  1.00  0.00     0.004 C 
ENDBRANCH   9  10
ENDBRANCH   8   9
ENDBRANCH   7   8
ENDBRANCH   1   7
TORSDOF 7
ENDMDL
MODEL 5
REMARK VINA RESULT:    -3.395      3.156      5.590
REMARK INTER + INTRA:          -5.140
REMARK INTER:                  -4.763
REMARK INTRA:                  -0.377
REMARK UNBOUND:                -0.356
REMARK SMILES C=CCCCCCCC(=O)[O-]
REMARK SMILES IDX 6 1 7 2 8 3 9 4 10 5 11 6 5 7 4 8 3 9 2 10 1 11
REMARK H PARENT
REMARK Flexibility Score: inf
ROOT
ATOM      1  C   UNL     1     -46.345 -28.059   3.080  1.00  0.00     0.000 C 
ENDROOT
BRANCH   1   2
ATOM      2  C   UNL     1     -46.492 -27.906   1.562  1.00  0.00     0.006 C 
BRANCH   2   3
ATOM      3  C   UNL     1     -45.175 -28.223   0.847  1.00  0.00     0.053 C 
BRANCH   3   4
ATOM      4  C   UNL     1     -44.532 -26.966   0.352  1.00  0.00     0.041 C 
ATOM      5  O   UNL     1     -44.760 -25.869   0.926  1.00  0.00    -0.550 OA
ATOM      6  O   UNL     1     -43.719 -26.998  -0.774  1.00  0.00    -0.550 OA
ENDBRANCH   3   4
ENDBRANCH   2   3
ENDBRANCH   1   2
BRANCH   1   7
ATOM      7  C   UNL     1     -46.554 -26.717   3.792  1.00  0.00     0.000 C 
BRANCH   7   8
ATOM      8  C   UNL     1     -46.913 -26.928   5.270  1.00  0.00     0.004 C 
BRANCH   8   9
ATOM      9  C   UNL     1     -45.752 -26.567   6.206  1.00  0.00     0.027 C 
BRANCH   9  10
ATOM     10  C   UNL     1     -45.308 -27.754   7.019  1.00  0.00    -0.035 C 
ATOM     11  C   UNL     1     -45.120 -28.956   6.469  1.00  0.00     0.004 C 
ENDBRANCH   9  10
ENDBRANCH   8   9
ENDBRANCH   7   8
ENDBRANCH   1   7
TORSDOF 7
ENDMDL
MODEL 6
REMARK VINA RESULT:    -3.212      4.545      6.615
REMARK INTER + INTRA:          -4.882
REMARK INTER:                  -4.565
REMARK INTRA:                  -0.317
REMARK UNBOUND:                -0.356
REMARK SMILES C=CCCCCCCC(=O)[O-]
REMARK SMILES IDX 6 1 7 2 8 3 9 4 10 5 11 6 5 7 4 8 3 9 2 10 1 11
REMARK H PARENT
REMARK Flexibility Score: inf
ROOT
ATOM      1  C   UNL     1     -44.109 -27.108   0.360  1.00  0.00     0.000 C 
ENDROOT
BRANCH   1   2
ATOM      2  C   UNL     1     -43.932 -28.119  -0.779  1.00  0.00     0.006 C 
BRANCH   2   3
ATOM      3  C   UNL     1     -45.285 -28.524  -1.370  1.00  0.00     0.053 C 
BRANCH   3   4
ATOM      4  C   UNL     1     -45.431 -27.988  -2.759  1.00  0.00     0.041 C 
ATOM      5  O   UNL     1     -46.139 -28.599  -3.602  1.00  0.00    -0.550 OA
ATOM      6  O   UNL     1     -44.747 -26.840  -3.137  1.00  0.00    -0.550 OA
ENDBRANCH   3   4
ENDBRANCH   2   3
ENDBRANCH   1   2
BRANCH   1   7
ATOM      7  C   UNL     1     -45.456 -27.304   1.065  1.00  0.00     0.000 C 
BRANCH   7   8
ATOM      8  C   UNL     1     -45.838 -26.059   1.879  1.00  0.00     0.004 C 
BRANCH   8   9
ATOM      9  C   UNL     1     -46.877 -26.372   2.964  1.00  0.00     0.027 C 
BRANCH   9  10
ATOM     10  C   UNL     1     -46.284 -27.201   4.073  1.00  0.00    -0.035 C 
ATOM     11  C   UNL     1     -46.076 -26.702   5.294  1.00  0.00     0.004 C 
ENDBRANCH   9  10
ENDBRANCH   8   9
ENDBRANCH   7   8
ENDBRANCH   1   7
TORSDOF 7
ENDMDL
MODEL 7
REMARK VINA RESULT:    -3.210      5.858      7.414
REMARK INTER + INTRA:          -4.879
REMARK INTER:                  -4.358
REMARK INTRA:                  -0.521
REMARK UNBOUND:                -0.356
REMARK SMILES C=CCCCCCCC(=O)[O-]
REMARK SMILES IDX 6 1 7 2 8 3 9 4 10 5 11 6 5 7 4 8 3 9 2 10 1 11
REMARK H PARENT
REMARK Flexibility Score: inf
ROOT
ATOM      1  C   UNL     1     -45.502 -29.770  -2.013  1.00  0.00     0.000 C 
ENDROOT
BRANCH   1   2
ATOM      2  C   UNL     1     -46.373 -28.656  -2.604  1.00  0.00     0.006 C 
BRANCH   2   3
ATOM      3  C   UNL     1     -46.353 -28.695  -4.134  1.00  0.00     0.053 C 
BRANCH   3   4
ATOM      4  C   UNL     1     -45.523 -27.575  -4.676  1.00  0.00     0.041 C 
ATOM      5  O   UNL     1     -45.317 -27.481  -5.915  1.00  0.00    -0.550 OA
ATOM      6  O   UNL     1     -44.936 -26.662  -3.809  1.00  0.00    -0.550 OA
ENDBRANCH   3   4
ENDBRANCH   2   3
ENDBRANCH   1   2
BRANCH   1   7
ATOM      7  C   UNL     1     -44.961 -29.374  -0.634  1.00  0.00     0.000 C 
BRANCH   7   8
ATOM      8  C   UNL     1     -44.924 -27.847  -0.475  1.00  0.00     0.004 C 
BRANCH   8   9
ATOM      9  C   UNL     1     -43.490 -27.299  -0.473  1.00  0.00     0.027 C 
BRANCH   9  10
ATOM     10  C   UNL     1     -42.475 -28.411  -0.428  1.00  0.00    -0.035 C 
ATOM     11  C   UNL     1     -41.195 -28.185  -0.120  1.00  0.00     0.004 C 
ENDBRANCH   9  10
ENDBRANCH   8   9
ENDBRANCH   7   8
ENDBRANCH   1   7
TORSDOF 7
ENDMDL
MODEL 8
REMARK VINA RESULT:    -3.181      3.645      5.802
REMARK INTER + INTRA:          -4.838
REMARK INTER:                  -4.576
REMARK INTRA:                  -0.262
REMARK UNBOUND:                -0.356
REMARK SMILES C=CCCCCCCC(=O)[O-]
REMARK SMILES IDX 6 1 7 2 8 3 9 4 10 5 11 6 5 7 4 8 3 9 2 10 1 11
REMARK H PARENT
REMARK Flexibility Score: inf
ROOT
ATOM      1  C   UNL     1     -45.287 -26.659   1.330  1.00  0.00     0.000 C 
ENDROOT
BRANCH   1   2
ATOM      2  C   UNL     1     -44.826 -27.742   0.348  1.00  0.00     0.006 C 
BRANCH   2   3
ATOM      3  C   UNL     1     -43.533 -27.327  -0.360  1.00  0.00     0.053 C 
BRANCH   3   4
ATOM      4  C   UNL     1     -42.539 -28.445  -0.332  1.00  0.00     0.041 C 
ATOM      5  O   UNL     1     -42.931 -29.641  -0.305  1.00  0.00    -0.550 OA
ATOM      6  O   UNL     1     -41.179 -28.165  -0.288  1.00  0.00    -0.550 OA
ENDBRANCH   3   4
ENDBRANCH   2   3
ENDBRANCH   1   2
BRANCH   1   7
ATOM      7  C   UNL     1     -46.428 -27.170   2.217  1.00  0.00     0.000 C 
BRANCH   7   8
ATOM      8  C   UNL     1     -46.308 -26.613   3.644  1.00  0.00     0.004 C 
BRANCH   8   9
ATOM      9  C   UNL     1     -46.787 -27.617   4.700  1.00  0.00     0.027 C 
BRANCH   9  10
ATOM     10  C   UNL     1     -45.809 -28.750   4.870  1.00  0.00    -0.035 C 
ATOM     11  C   UNL     1     -45.212 -28.997   6.038  1.00  0.00     0.004 C 
ENDBRANCH   9  10
ENDBRANCH   8   9
ENDBRANCH   7   8
ENDBRANCH   1   7
TORSDOF 7
ENDMDL
MODEL 9
REMARK VINA RESULT:    -3.004      6.292      7.997
REMARK INTER + INTRA:          -4.589
REMARK INTER:                  -4.205
REMARK INTRA:                  -0.384
REMARK UNBOUND:                -0.356
REMARK SMILES C=CCCCCCCC(=O)[O-]
REMARK SMILES IDX 6 1 7 2 8 3 9 4 10 5 11 6 5 7 4 8 3 9 2 10 1 11
REMARK H PARENT
REMARK Flexibility Score: inf
ROOT
ATOM      1  C   UNL     1     -45.655 -27.864  -4.619  1.00  0.00     0.000 C 
ENDROOT
BRANCH   1   2
ATOM      2  C   UNL     1     -46.260 -28.892  -3.657  1.00  0.00     0.006 C 
BRANCH   2   3
ATOM      3  C   UNL     1     -45.367 -29.086  -2.428  1.00  0.00     0.053 C 
BRANCH   3   4
ATOM      4  C   UNL     1     -45.287 -27.821  -1.633  1.00  0.00     0.041 C 
ATOM      5  O   UNL     1     -46.329 -27.321  -1.132  1.00  0.00    -0.550 OA
ATOM      6  O   UNL     1     -44.071 -27.168  -1.487  1.00  0.00    -0.550 OA
ENDBRANCH   3   4
ENDBRANCH   2   3
ENDBRANCH   1   2
BRANCH   1   7
ATOM      7  C   UNL     1     -46.685 -27.413  -5.661  1.00  0.00     0.000 C 
BRANCH   7   8
ATOM      8  C   UNL     1     -46.053 -27.323  -7.058  1.00  0.00     0.004 C 
BRANCH   8   9
ATOM      9  C   UNL     1     -44.526 -27.181  -6.995  1.00  0.00     0.027 C 
BRANCH   9  10
ATOM     10  C   UNL     1     -43.842 -28.156  -7.916  1.00  0.00    -0.035 C 
ATOM     11  C   UNL     1     -42.554 -28.476  -7.775  1.00  0.00     0.004 C 
ENDBRANCH   9  10
ENDBRANCH   8   9
ENDBRANCH   7   8
ENDBRANCH   1   7
TORSDOF 7
ENDMDL
