MODEL 1
REMARK VINA RESULT:    -7.596      0.000      0.000
REMARK INTER + INTRA:         -11.905
REMARK INTER:                 -10.704
REMARK INTRA:                  -1.200
REMARK UNBOUND:                -1.200
REMARK SMILES COc1c(O[C@H]2O[C@H](C(=O)[O-])[C@@H](O)[C@H](O)[C@@H]2O)cc(O)c2c(=O)cc(-c3ccccc3)oc12
REMARK SMILES IDX 5 1 6 2 8 3 12 4 7 5 14 6 16 7 9 8 10 9 11 10 13 11 15 13
REMARK SMILES IDX 17 15 4 17 3 18 18 19 33 20 19 21 21 22 32 23 22 24 25 25
REMARK SMILES IDX 24 26 23 27 2 28 1 29 20 30 26 32 27 33 31 34 28 35 30 36
REMARK SMILES IDX 29 37
REMARK H PARENT 13 12 15 14 17 16 20 31
REMARK Flexibility Score: inf
ROOT
ATOM      1  O   UNL     1      -4.805 -32.503 -48.958  1.00  0.00    -0.458 OA
ENDROOT
BRANCH   1   2
ATOM      2  C   UNL     1      -4.022 -31.503 -49.611  1.00  0.00     0.339 C 
ATOM      3  C   UNL     1      -3.975 -29.203 -50.143  1.00  0.00     0.199 C 
ATOM      4  C   UNL     1      -2.438 -29.381 -50.324  1.00  0.00     0.180 C 
ATOM      5  O   UNL     1      -4.600 -30.232 -49.380  1.00  0.00    -0.328 OA
ATOM      6  C   UNL     1      -1.884 -30.179 -49.135  1.00  0.00     0.181 C 
ATOM      7  C   UNL     1      -2.588 -31.556 -49.037  1.00  0.00     0.214 C 
BRANCH   3   8
ATOM      8  C   UNL     1      -4.687 -29.009 -51.454  1.00  0.00     0.073 C 
ATOM      9  O   UNL     1      -4.094 -28.502 -52.444  1.00  0.00    -0.547 OA
ATOM     10  O   UNL     1      -6.007 -29.424 -51.591  1.00  0.00    -0.547 OA
ENDBRANCH   3   8
BRANCH   4  11
ATOM     11  O   UNL     1      -1.829 -28.116 -50.392  1.00  0.00    -0.387 OA
ATOM     12  H   UNL     1      -2.018 -27.745 -51.295  1.00  0.00     0.211 HD
ENDBRANCH   4  11
BRANCH   6  13
ATOM     13  O   UNL     1      -0.493 -30.335 -49.268  1.00  0.00    -0.387 OA
ATOM     14  H   UNL     1      -0.323 -31.300 -49.428  1.00  0.00     0.211 HD
ENDBRANCH   6  13
BRANCH   7  15
ATOM     15  O   UNL     1      -1.859 -32.536 -49.734  1.00  0.00    -0.384 OA
ATOM     16  H   UNL     1      -2.138 -32.475 -50.687  1.00  0.00     0.211 HD
ENDBRANCH   7  15
ENDBRANCH   1   2
BRANCH   1  17
ATOM     17  C   UNL     1      -4.997 -33.821 -49.405  1.00  0.00     0.172 A 
ATOM     18  C   UNL     1      -5.923 -34.177 -50.410  1.00  0.00     0.205 A 
ATOM     19  C   UNL     1      -4.210 -34.817 -48.821  1.00  0.00     0.097 A 
ATOM     20  C   UNL     1      -6.102 -35.525 -50.754  1.00  0.00     0.188 A 
ATOM     21  C   UNL     1      -4.371 -36.166 -49.162  1.00  0.00     0.134 A 
ATOM     22  C   UNL     1      -5.324 -36.533 -50.135  1.00  0.00     0.111 A 
ATOM     23  O   UNL     1      -7.013 -35.843 -51.669  1.00  0.00    -0.452 OA
ATOM     24  C   UNL     1      -5.552 -37.868 -50.528  1.00  0.00     0.197 A 
ATOM     25  C   UNL     1      -7.261 -37.093 -52.048  1.00  0.00     0.138 A 
ATOM     26  C   UNL     1      -6.521 -38.146 -51.490  1.00  0.00     0.100 A 
ATOM     27  O   UNL     1      -4.896 -38.822 -50.029  1.00  0.00    -0.289 OA
BRANCH  18  28
ATOM     28  O   UNL     1      -6.653 -33.207 -51.097  1.00  0.00    -0.490 OA
ATOM     29  C   UNL     1      -7.823 -32.630 -50.527  1.00  0.00     0.278 C 
ENDBRANCH  18  28
BRANCH  21  30
ATOM     30  O   UNL     1      -3.601 -37.130 -48.518  1.00  0.00    -0.507 OA
ATOM     31  H   UNL     1      -3.621 -38.103 -48.802  1.00  0.00     0.293 HD
ENDBRANCH  21  30
BRANCH  25  32
ATOM     32  C   UNL     1      -8.332 -37.338 -53.043  1.00  0.00     0.017 A 
ATOM     33  C   UNL     1      -8.143 -37.052 -54.410  1.00  0.00     0.012 A 
ATOM     34  C   UNL     1      -9.537 -37.939 -52.636  1.00  0.00     0.012 A 
ATOM     35  C   UNL     1      -9.142 -37.354 -55.344  1.00  0.00     0.001 A 
ATOM     36  C   UNL     1     -10.537 -38.232 -53.572  1.00  0.00     0.001 A 
ATOM     37  C   UNL     1     -10.338 -37.939 -54.925  1.00  0.00     0.000 A 
ENDBRANCH  25  32
ENDBRANCH   1  17
TORSDOF 9
ENDMDL
MODEL 2
REMARK VINA RESULT:    -7.505      1.698      2.758
REMARK INTER + INTRA:         -11.777
REMARK INTER:                 -10.559
REMARK INTRA:                  -1.217
REMARK UNBOUND:                -1.200
REMARK SMILES COc1c(O[C@H]2O[C@H](C(=O)[O-])[C@@H](O)[C@H](O)[C@@H]2O)cc(O)c2c(=O)cc(-c3ccccc3)oc12
REMARK SMILES IDX 5 1 6 2 8 3 12 4 7 5 14 6 16 7 9 8 10 9 11 10 13 11 15 13
REMARK SMILES IDX 17 15 4 17 3 18 18 19 33 20 19 21 21 22 32 23 22 24 25 25
REMARK SMILES IDX 24 26 23 27 2 28 1 29 20 30 26 32 27 33 31 34 28 35 30 36
REMARK SMILES IDX 29 37
REMARK H PARENT 13 12 15 14 17 16 20 31
REMARK Flexibility Score: inf
ROOT
ATOM      1  O   UNL     1      -4.469 -34.026 -49.672  1.00  0.00    -0.458 OA
ENDROOT
BRANCH   1   2
ATOM      2  C   UNL     1      -4.047 -32.700 -49.989  1.00  0.00     0.339 C 
ATOM      3  C   UNL     1      -4.680 -30.432 -49.812  1.00  0.00     0.199 C 
ATOM      4  C   UNL     1      -3.172 -30.100 -50.019  1.00  0.00     0.180 C 
ATOM      5  O   UNL     1      -4.936 -31.771 -49.397  1.00  0.00    -0.328 OA
ATOM      6  C   UNL     1      -2.331 -31.013 -49.115  1.00  0.00     0.181 C 
ATOM      7  C   UNL     1      -2.615 -32.501 -49.439  1.00  0.00     0.214 C 
BRANCH   3   8
ATOM      8  C   UNL     1      -5.514 -30.081 -51.015  1.00  0.00     0.073 C 
ATOM      9  O   UNL     1      -5.113 -29.232 -51.854  1.00  0.00    -0.547 OA
ATOM     10  O   UNL     1      -6.728 -30.726 -51.225  1.00  0.00    -0.547 OA
ENDBRANCH   3   8
BRANCH   4  11
ATOM     11  O   UNL     1      -2.946 -28.750 -49.700  1.00  0.00    -0.387 OA
ATOM     12  H   UNL     1      -2.851 -28.256 -50.557  1.00  0.00     0.211 HD
ENDBRANCH   4  11
BRANCH   6  13
ATOM     13  O   UNL     1      -0.966 -30.717 -49.270  1.00  0.00    -0.387 OA
ATOM     14  H   UNL     1      -0.760 -30.802 -50.238  1.00  0.00     0.211 HD
ENDBRANCH   6  13
BRANCH   7  15
ATOM     15  O   UNL     1      -1.697 -32.986 -50.387  1.00  0.00    -0.384 OA
ATOM     16  H   UNL     1      -2.202 -33.114 -51.234  1.00  0.00     0.211 HD
ENDBRANCH   7  15
ENDBRANCH   1   2
BRANCH   1  17
ATOM     17  C   UNL     1      -5.717 -34.591 -49.989  1.00  0.00     0.172 A 
ATOM     18  C   UNL     1      -5.989 -35.248 -51.209  1.00  0.00     0.205 A 
ATOM     19  C   UNL     1      -6.725 -34.499 -49.026  1.00  0.00     0.097 A 
ATOM     20  C   UNL     1      -7.280 -35.728 -51.475  1.00  0.00     0.188 A 
ATOM     21  C   UNL     1      -8.016 -34.981 -49.274  1.00  0.00     0.134 A 
ATOM     22  C   UNL     1      -8.305 -35.602 -50.507  1.00  0.00     0.111 A 
ATOM     23  O   UNL     1      -7.527 -36.301 -52.649  1.00  0.00    -0.452 OA
ATOM     24  C   UNL     1      -9.581 -36.106 -50.837  1.00  0.00     0.197 A 
ATOM     25  C   UNL     1      -8.722 -36.772 -52.994  1.00  0.00     0.138 A 
ATOM     26  C   UNL     1      -9.785 -36.696 -52.082  1.00  0.00     0.100 A 
ATOM     27  O   UNL     1     -10.545 -36.038 -50.027  1.00  0.00    -0.289 OA
BRANCH  18  28
ATOM     28  O   UNL     1      -4.987 -35.459 -52.155  1.00  0.00    -0.490 OA
ATOM     29  C   UNL     1      -4.063 -36.534 -52.019  1.00  0.00     0.278 C 
ENDBRANCH  18  28
BRANCH  21  30
ATOM     30  O   UNL     1      -9.003 -34.823 -48.305  1.00  0.00    -0.507 OA
ATOM     31  H   UNL     1      -8.787 -34.859 -47.316  1.00  0.00     0.293 HD
ENDBRANCH  21  30
BRANCH  25  32
ATOM     32  C   UNL     1      -8.898 -37.350 -54.347  1.00  0.00     0.017 A 
ATOM     33  C   UNL     1     -10.118 -37.932 -54.744  1.00  0.00     0.012 A 
ATOM     34  C   UNL     1      -7.856 -37.251 -55.287  1.00  0.00     0.012 A 
ATOM     35  C   UNL     1     -10.286 -38.411 -56.049  1.00  0.00     0.001 A 
ATOM     36  C   UNL     1      -8.025 -37.739 -56.589  1.00  0.00     0.001 A 
ATOM     37  C   UNL     1      -9.241 -38.318 -56.968  1.00  0.00     0.000 A 
ENDBRANCH  25  32
ENDBRANCH   1  17
TORSDOF 9
ENDMDL
MODEL 3
REMARK VINA RESULT:    -7.486      2.256      3.661
REMARK INTER + INTRA:         -11.749
REMARK INTER:                 -10.669
REMARK INTRA:                  -1.080
REMARK UNBOUND:                -1.200
REMARK SMILES COc1c(O[C@H]2O[C@H](C(=O)[O-])[C@@H](O)[C@H](O)[C@@H]2O)cc(O)c2c(=O)cc(-c3ccccc3)oc12
REMARK SMILES IDX 5 1 6 2 8 3 12 4 7 5 14 6 16 7 9 8 10 9 11 10 13 11 15 13
REMARK SMILES IDX 17 15 4 17 3 18 18 19 33 20 19 21 21 22 32 23 22 24 25 25
REMARK SMILES IDX 24 26 23 27 2 28 1 29 20 30 26 32 27 33 31 34 28 35 30 36
REMARK SMILES IDX 29 37
REMARK H PARENT 13 12 15 14 17 16 20 31
REMARK Flexibility Score: inf
ROOT
ATOM      1  O   UNL     1      -6.180 -31.974 -50.988  1.00  0.00    -0.458 OA
ENDROOT
BRANCH   1   2
ATOM      2  C   UNL     1      -4.954 -31.819 -50.274  1.00  0.00     0.339 C 
ATOM      3  C   UNL     1      -2.659 -32.373 -50.336  1.00  0.00     0.199 C 
ATOM      4  C   UNL     1      -2.449 -31.183 -49.353  1.00  0.00     0.180 C 
ATOM      5  O   UNL     1      -3.890 -32.334 -51.053  1.00  0.00    -0.328 OA
ATOM      6  C   UNL     1      -3.235 -29.967 -49.865  1.00  0.00     0.181 C 
ATOM      7  C   UNL     1      -4.739 -30.314 -49.994  1.00  0.00     0.214 C 
BRANCH   3   8
ATOM      8  C   UNL     1      -2.479 -33.708 -49.666  1.00  0.00     0.073 C 
ATOM      9  O   UNL     1      -2.999 -33.944 -48.543  1.00  0.00    -0.547 OA
ATOM     10  O   UNL     1      -1.758 -34.711 -50.306  1.00  0.00    -0.547 OA
ENDBRANCH   3   8
BRANCH   4  11
ATOM     11  O   UNL     1      -1.079 -30.883 -49.272  1.00  0.00    -0.387 OA
ATOM     12  H   UNL     1      -0.783 -31.096 -48.346  1.00  0.00     0.211 HD
ENDBRANCH   4  11
BRANCH   6  13
ATOM     13  O   UNL     1      -3.044 -28.873 -49.002  1.00  0.00    -0.387 OA
ATOM     14  H   UNL     1      -2.633 -29.229 -48.171  1.00  0.00     0.211 HD
ENDBRANCH   6  13
BRANCH   7  15
ATOM     15  O   UNL     1      -5.430 -29.970 -48.819  1.00  0.00    -0.384 OA
ATOM     16  H   UNL     1      -5.951 -29.148 -49.024  1.00  0.00     0.211 HD
ENDBRANCH   7  15
ENDBRANCH   1   2
BRANCH   1  17
ATOM     17  C   UNL     1      -6.983 -33.127 -51.006  1.00  0.00     0.172 A 
ATOM     18  C   UNL     1      -7.192 -33.915 -52.159  1.00  0.00     0.205 A 
ATOM     19  C   UNL     1      -7.588 -33.505 -49.804  1.00  0.00     0.097 A 
ATOM     20  C   UNL     1      -8.061 -35.014 -52.110  1.00  0.00     0.188 A 
ATOM     21  C   UNL     1      -8.450 -34.606 -49.739  1.00  0.00     0.134 A 
ATOM     22  C   UNL     1      -8.696 -35.373 -50.897  1.00  0.00     0.111 A 
ATOM     23  O   UNL     1      -8.281 -35.714 -53.218  1.00  0.00    -0.452 OA
ATOM     24  C   UNL     1      -9.557 -36.490 -50.914  1.00  0.00     0.197 A 
ATOM     25  C   UNL     1      -9.099 -36.762 -53.270  1.00  0.00     0.138 A 
ATOM     26  C   UNL     1      -9.753 -37.187 -52.105  1.00  0.00     0.100 A 
ATOM     27  O   UNL     1     -10.154 -36.878 -49.874  1.00  0.00    -0.289 OA
BRANCH  18  28
ATOM     28  O   UNL     1      -6.526 -33.639 -53.353  1.00  0.00    -0.490 OA
ATOM     29  C   UNL     1      -5.231 -34.171 -53.611  1.00  0.00     0.278 C 
ENDBRANCH  18  28
BRANCH  21  30
ATOM     30  O   UNL     1      -9.071 -34.917 -48.531  1.00  0.00    -0.507 OA
ATOM     31  H   UNL     1      -9.944 -34.483 -48.256  1.00  0.00     0.293 HD
ENDBRANCH  21  30
BRANCH  25  32
ATOM     32  C   UNL     1      -9.307 -37.442 -54.571  1.00  0.00     0.017 A 
ATOM     33  C   UNL     1     -10.531 -38.064 -54.886  1.00  0.00     0.012 A 
ATOM     34  C   UNL     1      -8.294 -37.403 -55.547  1.00  0.00     0.012 A 
ATOM     35  C   UNL     1     -10.731 -38.642 -56.146  1.00  0.00     0.001 A 
ATOM     36  C   UNL     1      -8.496 -37.988 -56.803  1.00  0.00     0.001 A 
ATOM     37  C   UNL     1      -9.714 -38.607 -57.101  1.00  0.00     0.000 A 
ENDBRANCH  25  32
ENDBRANCH   1  17
TORSDOF 9
ENDMDL
MODEL 4
REMARK VINA RESULT:    -7.484      2.477      8.482
REMARK INTER + INTRA:         -11.747
REMARK INTER:                 -10.520
REMARK INTRA:                  -1.226
REMARK UNBOUND:                -1.200
REMARK SMILES COc1c(O[C@H]2O[C@H](C(=O)[O-])[C@@H](O)[C@H](O)[C@@H]2O)cc(O)c2c(=O)cc(-c3ccccc3)oc12
REMARK SMILES IDX 5 1 6 2 8 3 12 4 7 5 14 6 16 7 9 8 10 9 11 10 13 11 15 13
REMARK SMILES IDX 17 15 4 17 3 18 18 19 33 20 19 21 21 22 32 23 22 24 25 25
REMARK SMILES IDX 24 26 23 27 2 28 1 29 20 30 26 32 27 33 31 34 28 35 30 36
REMARK SMILES IDX 29 37
REMARK H PARENT 13 12 15 14 17 16 20 31
REMARK Flexibility Score: inf
ROOT
ATOM      1  O   UNL     1      -7.204 -32.487 -49.322  1.00  0.00    -0.458 OA
ENDROOT
BRANCH   1   2
ATOM      2  C   UNL     1      -7.630 -33.556 -50.167  1.00  0.00     0.339 C 
ATOM      3  C   UNL     1      -7.006 -35.692 -50.957  1.00  0.00     0.199 C 
ATOM      4  C   UNL     1      -8.515 -35.898 -51.288  1.00  0.00     0.180 C 
ATOM      5  O   UNL     1      -6.747 -34.652 -50.018  1.00  0.00    -0.328 OA
ATOM      6  C   UNL     1      -9.356 -35.445 -50.086  1.00  0.00     0.181 C 
ATOM      7  C   UNL     1      -9.065 -33.959 -49.755  1.00  0.00     0.214 C 
BRANCH   3   8
ATOM      8  C   UNL     1      -6.169 -35.510 -52.194  1.00  0.00     0.073 C 
ATOM      9  O   UNL     1      -5.077 -34.884 -52.150  1.00  0.00    -0.547 OA
ATOM     10  O   UNL     1      -6.584 -36.068 -53.398  1.00  0.00    -0.547 OA
ENDBRANCH   3   8
BRANCH   4  11
ATOM     11  O   UNL     1      -8.747 -37.256 -51.566  1.00  0.00    -0.387 OA
ATOM     12  H   UNL     1      -9.719 -37.423 -51.433  1.00  0.00     0.211 HD
ENDBRANCH   4  11
BRANCH   6  13
ATOM     13  O   UNL     1     -10.722 -35.641 -50.355  1.00  0.00    -0.387 OA
ATOM     14  H   UNL     1     -11.071 -34.784 -50.716  1.00  0.00     0.211 HD
ENDBRANCH   6  13
BRANCH   7  15
ATOM     15  O   UNL     1      -9.977 -33.116 -50.414  1.00  0.00    -0.384 OA
ATOM     16  H   UNL     1     -10.827 -33.626 -50.496  1.00  0.00     0.211 HD
ENDBRANCH   7  15
ENDBRANCH   1   2
BRANCH   1  17
ATOM     17  C   UNL     1      -5.959 -31.838 -49.380  1.00  0.00     0.172 A 
ATOM     18  C   UNL     1      -5.688 -30.745 -50.232  1.00  0.00     0.205 A 
ATOM     19  C   UNL     1      -4.953 -32.305 -48.530  1.00  0.00     0.097 A 
ATOM     20  C   UNL     1      -4.399 -30.194 -50.277  1.00  0.00     0.188 A 
ATOM     21  C   UNL     1      -3.664 -31.757 -48.558  1.00  0.00     0.134 A 
ATOM     22  C   UNL     1      -3.375 -30.693 -49.437  1.00  0.00     0.111 A 
ATOM     23  O   UNL     1      -4.152 -29.197 -51.121  1.00  0.00    -0.452 OA
ATOM     24  C   UNL     1      -2.101 -30.094 -49.531  1.00  0.00     0.197 A 
ATOM     25  C   UNL     1      -2.959 -28.622 -51.244  1.00  0.00     0.138 A 
ATOM     26  C   UNL     1      -1.897 -29.053 -50.435  1.00  0.00     0.100 A 
ATOM     27  O   UNL     1      -1.139 -30.477 -48.812  1.00  0.00    -0.289 OA
BRANCH  18  28
ATOM     28  O   UNL     1      -6.689 -30.176 -51.019  1.00  0.00    -0.490 OA
ATOM     29  C   UNL     1      -7.607 -29.236 -50.471  1.00  0.00     0.278 C 
ENDBRANCH  18  28
BRANCH  21  30
ATOM     30  O   UNL     1      -2.678 -32.288 -47.730  1.00  0.00    -0.507 OA
ATOM     31  H   UNL     1      -2.798 -32.336 -46.725  1.00  0.00     0.293 HD
ENDBRANCH  21  30
BRANCH  25  32
ATOM     32  C   UNL     1      -2.784 -27.549 -52.250  1.00  0.00     0.017 A 
ATOM     33  C   UNL     1      -1.580 -26.821 -52.346  1.00  0.00     0.012 A 
ATOM     34  C   UNL     1      -3.805 -27.296 -53.184  1.00  0.00     0.012 A 
ATOM     35  C   UNL     1      -1.409 -25.858 -53.348  1.00  0.00     0.001 A 
ATOM     36  C   UNL     1      -3.633 -26.326 -54.180  1.00  0.00     0.001 A 
ATOM     37  C   UNL     1      -2.435 -25.608 -54.260  1.00  0.00     0.000 A 
ENDBRANCH  25  32
ENDBRANCH   1  17
TORSDOF 9
ENDMDL
MODEL 5
REMARK VINA RESULT:    -7.463      2.503      8.866
REMARK INTER + INTRA:         -11.717
REMARK INTER:                 -10.585
REMARK INTRA:                  -1.132
REMARK UNBOUND:                -1.200
REMARK SMILES COc1c(O[C@H]2O[C@H](C(=O)[O-])[C@@H](O)[C@H](O)[C@@H]2O)cc(O)c2c(=O)cc(-c3ccccc3)oc12
REMARK SMILES IDX 5 1 6 2 8 3 12 4 7 5 14 6 16 7 9 8 10 9 11 10 13 11 15 13
REMARK SMILES IDX 17 15 4 17 3 18 18 19 33 20 19 21 21 22 32 23 22 24 25 25
REMARK SMILES IDX 24 26 23 27 2 28 1 29 20 30 26 32 27 33 31 34 28 35 30 36
REMARK SMILES IDX 29 37
REMARK H PARENT 13 12 15 14 17 16 20 31
REMARK Flexibility Score: inf
ROOT
ATOM      1  O   UNL     1      -6.797 -34.222 -49.413  1.00  0.00    -0.458 OA
ENDROOT
BRANCH   1   2
ATOM      2  C   UNL     1      -7.616 -34.879 -50.381  1.00  0.00     0.339 C 
ATOM      3  C   UNL     1      -7.737 -36.799 -51.750  1.00  0.00     0.199 C 
ATOM      4  C   UNL     1      -9.270 -36.532 -51.815  1.00  0.00     0.180 C 
ATOM      5  O   UNL     1      -7.072 -36.154 -50.666  1.00  0.00    -0.328 OA
ATOM      6  C   UNL     1      -9.786 -36.236 -50.399  1.00  0.00     0.181 C 
ATOM      7  C   UNL     1      -9.041 -35.017 -49.799  1.00  0.00     0.214 C 
BRANCH   3   8
ATOM      8  C   UNL     1      -7.047 -36.493 -53.052  1.00  0.00     0.073 C 
ATOM      9  O   UNL     1      -7.660 -36.589 -54.148  1.00  0.00    -0.547 OA
ATOM     10  O   UNL     1      -5.724 -36.063 -53.048  1.00  0.00    -0.547 OA
ENDBRANCH   3   8
BRANCH   4  11
ATOM     11  O   UNL     1      -9.916 -37.660 -52.347  1.00  0.00    -0.387 OA
ATOM     12  H   UNL     1     -10.836 -37.680 -51.970  1.00  0.00     0.211 HD
ENDBRANCH   4  11
BRANCH   6  13
ATOM     13  O   UNL     1     -11.174 -36.011 -50.431  1.00  0.00    -0.387 OA
ATOM     14  H   UNL     1     -11.590 -36.825 -50.819  1.00  0.00     0.211 HD
ENDBRANCH   6  13
BRANCH   7  15
ATOM     15  O   UNL     1      -9.750 -33.829 -50.052  1.00  0.00    -0.384 OA
ATOM     16  H   UNL     1      -9.635 -33.253 -49.249  1.00  0.00     0.211 HD
ENDBRANCH   7  15
ENDBRANCH   1   2
BRANCH   1  17
ATOM     17  C   UNL     1      -6.626 -32.833 -49.284  1.00  0.00     0.172 A 
ATOM     18  C   UNL     1      -5.737 -32.079 -50.081  1.00  0.00     0.205 A 
ATOM     19  C   UNL     1      -7.396 -32.180 -48.319  1.00  0.00     0.097 A 
ATOM     20  C   UNL     1      -5.576 -30.706 -49.846  1.00  0.00     0.188 A 
ATOM     21  C   UNL     1      -7.253 -30.808 -48.080  1.00  0.00     0.134 A 
ATOM     22  C   UNL     1      -6.336 -30.056 -48.844  1.00  0.00     0.111 A 
ATOM     23  O   UNL     1      -4.699 -30.023 -50.575  1.00  0.00    -0.452 OA
ATOM     24  C   UNL     1      -6.128 -28.673 -48.659  1.00  0.00     0.197 A 
ATOM     25  C   UNL     1      -4.469 -28.723 -50.414  1.00  0.00     0.138 A 
ATOM     26  C   UNL     1      -5.195 -28.007 -49.450  1.00  0.00     0.100 A 
ATOM     27  O   UNL     1      -6.771 -28.021 -47.792  1.00  0.00    -0.289 OA
BRANCH  18  28
ATOM     28  O   UNL     1      -5.027 -32.668 -51.127  1.00  0.00    -0.490 OA
ATOM     29  C   UNL     1      -3.817 -33.377 -50.885  1.00  0.00     0.278 C 
ENDBRANCH  18  28
BRANCH  21  30
ATOM     30  O   UNL     1      -8.005 -30.208 -47.073  1.00  0.00    -0.507 OA
ATOM     31  H   UNL     1      -9.003 -30.060 -47.171  1.00  0.00     0.293 HD
ENDBRANCH  21  30
BRANCH  25  32
ATOM     32  C   UNL     1      -3.435 -28.072 -51.252  1.00  0.00     0.017 A 
ATOM     33  C   UNL     1      -3.662 -27.795 -52.614  1.00  0.00     0.012 A 
ATOM     34  C   UNL     1      -2.229 -27.648 -50.665  1.00  0.00     0.012 A 
ATOM     35  C   UNL     1      -2.699 -27.117 -53.372  1.00  0.00     0.001 A 
ATOM     36  C   UNL     1      -1.265 -26.978 -51.428  1.00  0.00     0.001 A 
ATOM     37  C   UNL     1      -1.501 -26.713 -52.781  1.00  0.00     0.000 A 
ENDBRANCH  25  32
ENDBRANCH   1  17
TORSDOF 9
ENDMDL
MODEL 6
REMARK VINA RESULT:    -7.350      2.494      8.505
REMARK INTER + INTRA:         -11.558
REMARK INTER:                 -10.932
REMARK INTRA:                  -0.627
REMARK UNBOUND:                -1.200
REMARK SMILES COc1c(O[C@H]2O[C@H](C(=O)[O-])[C@@H](O)[C@H](O)[C@@H]2O)cc(O)c2c(=O)cc(-c3ccccc3)oc12
REMARK SMILES IDX 5 1 6 2 8 3 12 4 7 5 14 6 16 7 9 8 10 9 11 10 13 11 15 13
REMARK SMILES IDX 17 15 4 17 3 18 18 19 33 20 19 21 21 22 32 23 22 24 25 25
REMARK SMILES IDX 24 26 23 27 2 28 1 29 20 30 26 32 27 33 31 34 28 35 30 36
REMARK SMILES IDX 29 37
REMARK H PARENT 13 12 15 14 17 16 20 31
REMARK Flexibility Score: inf
ROOT
ATOM      1  O   UNL     1      -5.396 -34.259 -51.394  1.00  0.00    -0.458 OA
ENDROOT
BRANCH   1   2
ATOM      2  C   UNL     1      -6.750 -34.568 -51.066  1.00  0.00     0.339 C 
ATOM      3  C   UNL     1      -8.247 -36.369 -50.760  1.00  0.00     0.199 C 
ATOM      4  C   UNL     1      -9.120 -35.372 -49.942  1.00  0.00     0.180 C 
ATOM      5  O   UNL     1      -6.888 -35.969 -50.917  1.00  0.00    -0.328 OA
ATOM      6  C   UNL     1      -8.217 -34.600 -48.968  1.00  0.00     0.181 C 
ATOM      7  C   UNL     1      -7.107 -33.848 -49.745  1.00  0.00     0.214 C 
BRANCH   3   8
ATOM      8  C   UNL     1      -8.858 -36.704 -52.094  1.00  0.00     0.073 C 
ATOM      9  O   UNL     1     -10.108 -36.787 -52.231  1.00  0.00    -0.547 OA
ATOM     10  O   UNL     1      -8.039 -36.892 -53.202  1.00  0.00    -0.547 OA
ENDBRANCH   3   8
BRANCH   4  11
ATOM     11  O   UNL     1     -10.104 -36.086 -49.238  1.00  0.00    -0.387 OA
ATOM     12  H   UNL     1     -10.982 -35.674 -49.456  1.00  0.00     0.211 HD
ENDBRANCH   4  11
BRANCH   6  13
ATOM     13  O   UNL     1      -8.989 -33.706 -48.204  1.00  0.00    -0.387 OA
ATOM     14  H   UNL     1      -9.889 -33.672 -48.621  1.00  0.00     0.211 HD
ENDBRANCH   6  13
BRANCH   7  15
ATOM     15  O   UNL     1      -7.513 -32.535 -50.042  1.00  0.00    -0.384 OA
ATOM     16  H   UNL     1      -6.721 -32.073 -50.428  1.00  0.00     0.211 HD
ENDBRANCH   7  15
ENDBRANCH   1   2
BRANCH   1  17
ATOM     17  C   UNL     1      -4.658 -33.166 -50.907  1.00  0.00     0.172 A 
ATOM     18  C   UNL     1      -4.484 -31.962 -51.623  1.00  0.00     0.205 A 
ATOM     19  C   UNL     1      -4.087 -33.294 -49.638  1.00  0.00     0.097 A 
ATOM     20  C   UNL     1      -3.678 -30.942 -51.095  1.00  0.00     0.188 A 
ATOM     21  C   UNL     1      -3.288 -32.280 -49.095  1.00  0.00     0.134 A 
ATOM     22  C   UNL     1      -3.075 -31.091 -49.823  1.00  0.00     0.111 A 
ATOM     23  O   UNL     1      -3.488 -29.835 -51.806  1.00  0.00    -0.452 OA
ATOM     24  C   UNL     1      -2.278 -30.028 -49.348  1.00  0.00     0.197 A 
ATOM     25  C   UNL     1      -2.730 -28.823 -51.393  1.00  0.00     0.138 A 
ATOM     26  C   UNL     1      -2.111 -28.891 -50.136  1.00  0.00     0.100 A 
ATOM     27  O   UNL     1      -1.713 -30.080 -48.223  1.00  0.00    -0.289 OA
BRANCH  18  28
ATOM     28  O   UNL     1      -5.122 -31.747 -52.844  1.00  0.00    -0.490 OA
ATOM     29  C   UNL     1      -6.398 -31.119 -52.904  1.00  0.00     0.278 C 
ENDBRANCH  18  28
BRANCH  21  30
ATOM     30  O   UNL     1      -2.696 -32.471 -47.849  1.00  0.00    -0.507 OA
ATOM     31  H   UNL     1      -2.530 -33.398 -47.476  1.00  0.00     0.293 HD
ENDBRANCH  21  30
BRANCH  25  32
ATOM     32  C   UNL     1      -2.550 -27.655 -52.287  1.00  0.00     0.017 A 
ATOM     33  C   UNL     1      -1.349 -26.918 -52.297  1.00  0.00     0.012 A 
ATOM     34  C   UNL     1      -3.562 -27.316 -53.203  1.00  0.00     0.012 A 
ATOM     35  C   UNL     1      -1.172 -25.860 -53.198  1.00  0.00     0.001 A 
ATOM     36  C   UNL     1      -3.384 -26.252 -54.097  1.00  0.00     0.001 A 
ATOM     37  C   UNL     1      -2.189 -25.526 -54.093  1.00  0.00     0.000 A 
ENDBRANCH  25  32
ENDBRANCH   1  17
TORSDOF 9
ENDMDL
MODEL 7
REMARK VINA RESULT:    -7.345      2.520      8.433
REMARK INTER + INTRA:         -11.551
REMARK INTER:                 -10.525
REMARK INTRA:                  -1.026
REMARK UNBOUND:                -1.200
REMARK SMILES COc1c(O[C@H]2O[C@H](C(=O)[O-])[C@@H](O)[C@H](O)[C@@H]2O)cc(O)c2c(=O)cc(-c3ccccc3)oc12
REMARK SMILES IDX 5 1 6 2 8 3 12 4 7 5 14 6 16 7 9 8 10 9 11 10 13 11 15 13
REMARK SMILES IDX 17 15 4 17 3 18 18 19 33 20 19 21 21 22 32 23 22 24 25 25
REMARK SMILES IDX 24 26 23 27 2 28 1 29 20 30 26 32 27 33 31 34 28 35 30 36
REMARK SMILES IDX 29 37
REMARK H PARENT 13 12 15 14 17 16 20 31
REMARK Flexibility Score: inf
ROOT
ATOM      1  O   UNL     1      -5.440 -34.085 -51.189  1.00  0.00    -0.458 OA
ENDROOT
BRANCH   1   2
ATOM      2  C   UNL     1      -6.716 -34.465 -50.673  1.00  0.00     0.339 C 
ATOM      3  C   UNL     1      -8.954 -33.740 -50.472  1.00  0.00     0.199 C 
ATOM      4  C   UNL     1      -9.312 -35.239 -50.244  1.00  0.00     0.180 C 
ATOM      5  O   UNL     1      -7.689 -33.525 -51.091  1.00  0.00    -0.328 OA
ATOM      6  C   UNL     1      -8.591 -36.091 -51.299  1.00  0.00     0.181 C 
ATOM      7  C   UNL     1      -7.060 -35.873 -51.211  1.00  0.00     0.214 C 
BRANCH   3   8
ATOM      8  C   UNL     1      -9.074 -32.925 -49.213  1.00  0.00     0.073 C 
ATOM      9  O   UNL     1      -8.591 -33.340 -48.125  1.00  0.00    -0.547 OA
ATOM     10  O   UNL     1      -9.694 -31.681 -49.251  1.00  0.00    -0.547 OA
ENDBRANCH   3   8
BRANCH   4  11
ATOM     11  O   UNL     1     -10.704 -35.405 -50.347  1.00  0.00    -0.387 OA
ATOM     12  H   UNL     1     -11.038 -35.669 -49.448  1.00  0.00     0.211 HD
ENDBRANCH   4  11
BRANCH   6  13
ATOM     13  O   UNL     1      -8.916 -37.448 -51.124  1.00  0.00    -0.387 OA
ATOM     14  H   UNL     1      -8.395 -37.771 -50.342  1.00  0.00     0.211 HD
ENDBRANCH   6  13
BRANCH   7  15
ATOM     15  O   UNL     1      -6.469 -36.834 -50.371  1.00  0.00    -0.384 OA
ATOM     16  H   UNL     1      -6.160 -37.574 -50.958  1.00  0.00     0.211 HD
ENDBRANCH   7  15
ENDBRANCH   1   2
BRANCH   1  17
ATOM     17  C   UNL     1      -4.667 -32.994 -50.756  1.00  0.00     0.172 A 
ATOM     18  C   UNL     1      -4.500 -31.810 -51.506  1.00  0.00     0.205 A 
ATOM     19  C   UNL     1      -4.051 -33.103 -49.506  1.00  0.00     0.097 A 
ATOM     20  C   UNL     1      -3.658 -30.793 -51.031  1.00  0.00     0.188 A 
ATOM     21  C   UNL     1      -3.216 -32.091 -49.017  1.00  0.00     0.134 A 
ATOM     22  C   UNL     1      -3.010 -30.923 -49.779  1.00  0.00     0.111 A 
ATOM     23  O   UNL     1      -3.476 -29.706 -51.775  1.00  0.00    -0.452 OA
ATOM     24  C   UNL     1      -2.179 -29.863 -49.360  1.00  0.00     0.197 A 
ATOM     25  C   UNL     1      -2.687 -28.698 -51.414  1.00  0.00     0.138 A 
ATOM     26  C   UNL     1      -2.022 -28.748 -50.180  1.00  0.00     0.100 A 
ATOM     27  O   UNL     1      -1.573 -29.900 -48.255  1.00  0.00    -0.289 OA
BRANCH  18  28
ATOM     28  O   UNL     1      -5.180 -31.612 -52.707  1.00  0.00    -0.490 OA
ATOM     29  C   UNL     1      -6.432 -30.935 -52.738  1.00  0.00     0.278 C 
ENDBRANCH  18  28
BRANCH  21  30
ATOM     30  O   UNL     1      -2.581 -32.263 -47.789  1.00  0.00    -0.507 OA
ATOM     31  H   UNL     1      -3.054 -32.693 -47.003  1.00  0.00     0.293 HD
ENDBRANCH  21  30
BRANCH  25  32
ATOM     32  C   UNL     1      -2.520 -27.554 -52.342  1.00  0.00     0.017 A 
ATOM     33  C   UNL     1      -1.328 -26.804 -52.375  1.00  0.00     0.012 A 
ATOM     34  C   UNL     1      -3.537 -27.252 -53.265  1.00  0.00     0.012 A 
ATOM     35  C   UNL     1      -1.164 -25.770 -53.306  1.00  0.00     0.001 A 
ATOM     36  C   UNL     1      -3.373 -26.213 -54.189  1.00  0.00     0.001 A 
ATOM     37  C   UNL     1      -2.186 -25.473 -54.208  1.00  0.00     0.000 A 
ENDBRANCH  25  32
ENDBRANCH   1  17
TORSDOF 9
ENDMDL
MODEL 8
REMARK VINA RESULT:    -7.275      2.167      2.995
REMARK INTER + INTRA:         -11.452
REMARK INTER:                 -10.927
REMARK INTRA:                  -0.525
REMARK UNBOUND:                -1.200
REMARK SMILES COc1c(O[C@H]2O[C@H](C(=O)[O-])[C@@H](O)[C@H](O)[C@@H]2O)cc(O)c2c(=O)cc(-c3ccccc3)oc12
REMARK SMILES IDX 5 1 6 2 8 3 12 4 7 5 14 6 16 7 9 8 10 9 11 10 13 11 15 13
REMARK SMILES IDX 17 15 4 17 3 18 18 19 33 20 19 21 21 22 32 23 22 24 25 25
REMARK SMILES IDX 24 26 23 27 2 28 1 29 20 30 26 32 27 33 31 34 28 35 30 36
REMARK SMILES IDX 29 37
REMARK H PARENT 13 12 15 14 17 16 20 31
REMARK Flexibility Score: inf
ROOT
ATOM      1  O   UNL     1      -6.349 -31.580 -50.777  1.00  0.00    -0.458 OA
ENDROOT
BRANCH   1   2
ATOM      2  C   UNL     1      -4.964 -31.455 -50.451  1.00  0.00     0.339 C 
ATOM      3  C   UNL     1      -3.351 -29.923 -49.660  1.00  0.00     0.199 C 
ATOM      4  C   UNL     1      -2.502 -31.171 -49.276  1.00  0.00     0.180 C 
ATOM      5  O   UNL     1      -4.737 -30.191 -49.855  1.00  0.00    -0.328 OA
ATOM      6  C   UNL     1      -3.404 -32.187 -48.559  1.00  0.00     0.181 C 
ATOM      7  C   UNL     1      -4.591 -32.589 -49.469  1.00  0.00     0.214 C 
BRANCH   3   8
ATOM      8  C   UNL     1      -2.782 -29.186 -50.842  1.00  0.00     0.073 C 
ATOM      9  O   UNL     1      -3.469 -29.004 -51.883  1.00  0.00    -0.547 OA
ATOM     10  O   UNL     1      -1.494 -28.667 -50.778  1.00  0.00    -0.547 OA
ENDBRANCH   3   8
BRANCH   4  11
ATOM     11  O   UNL     1      -1.446 -30.775 -48.437  1.00  0.00    -0.387 OA
ATOM     12  H   UNL     1      -1.002 -29.997 -48.869  1.00  0.00     0.211 HD
ENDBRANCH   4  11
BRANCH   6  13
ATOM     13  O   UNL     1      -2.653 -33.315 -48.184  1.00  0.00    -0.387 OA
ATOM     14  H   UNL     1      -2.620 -33.325 -47.192  1.00  0.00     0.211 HD
ENDBRANCH   6  13
BRANCH   7  15
ATOM     15  O   UNL     1      -4.278 -33.743 -50.211  1.00  0.00    -0.384 OA
ATOM     16  H   UNL     1      -4.418 -33.513 -51.168  1.00  0.00     0.211 HD
ENDBRANCH   7  15
ENDBRANCH   1   2
BRANCH   1  17
ATOM     17  C   UNL     1      -7.083 -32.778 -50.807  1.00  0.00     0.172 A 
ATOM     18  C   UNL     1      -7.274 -33.547 -51.976  1.00  0.00     0.205 A 
ATOM     19  C   UNL     1      -7.633 -33.222 -49.602  1.00  0.00     0.097 A 
ATOM     20  C   UNL     1      -8.076 -34.698 -51.935  1.00  0.00     0.188 A 
ATOM     21  C   UNL     1      -8.428 -34.374 -49.545  1.00  0.00     0.134 A 
ATOM     22  C   UNL     1      -8.658 -35.124 -50.717  1.00  0.00     0.111 A 
ATOM     23  O   UNL     1      -8.282 -35.382 -53.056  1.00  0.00    -0.452 OA
ATOM     24  C   UNL     1      -9.451 -36.290 -50.744  1.00  0.00     0.197 A 
ATOM     25  C   UNL     1      -9.038 -36.474 -53.117  1.00  0.00     0.138 A 
ATOM     26  C   UNL     1      -9.636 -36.967 -51.948  1.00  0.00     0.100 A 
ATOM     27  O   UNL     1      -9.998 -36.738 -49.700  1.00  0.00    -0.289 OA
BRANCH  18  28
ATOM     28  O   UNL     1      -6.656 -33.203 -53.177  1.00  0.00    -0.490 OA
ATOM     29  C   UNL     1      -5.334 -33.639 -53.474  1.00  0.00     0.278 C 
ENDBRANCH  18  28
BRANCH  21  30
ATOM     30  O   UNL     1      -8.998 -34.752 -48.332  1.00  0.00    -0.507 OA
ATOM     31  H   UNL     1      -9.159 -35.725 -48.101  1.00  0.00     0.293 HD
ENDBRANCH  21  30
BRANCH  25  32
ATOM     32  C   UNL     1      -9.238 -37.132 -54.430  1.00  0.00     0.017 A 
ATOM     33  C   UNL     1      -8.235 -37.116 -55.419  1.00  0.00     0.012 A 
ATOM     34  C   UNL     1     -10.420 -37.854 -54.674  1.00  0.00     0.012 A 
ATOM     35  C   UNL     1      -8.416 -37.801 -56.627  1.00  0.00     0.001 A 
ATOM     36  C   UNL     1     -10.601 -38.531 -55.887  1.00  0.00     0.001 A 
ATOM     37  C   UNL     1      -9.599 -38.504 -56.861  1.00  0.00     0.000 A 
ENDBRANCH  25  32
ENDBRANCH   1  17
TORSDOF 9
ENDMDL
MODEL 9
REMARK VINA RESULT:    -7.193      2.949      8.708
REMARK INTER + INTRA:         -11.337
REMARK INTER:                  -9.804
REMARK INTRA:                  -1.532
REMARK UNBOUND:                -1.200
REMARK SMILES COc1c(O[C@H]2O[C@H](C(=O)[O-])[C@@H](O)[C@H](O)[C@@H]2O)cc(O)c2c(=O)cc(-c3ccccc3)oc12
REMARK SMILES IDX 5 1 6 2 8 3 12 4 7 5 14 6 16 7 9 8 10 9 11 10 13 11 15 13
REMARK SMILES IDX 17 15 4 17 3 18 18 19 33 20 19 21 21 22 32 23 22 24 25 25
REMARK SMILES IDX 24 26 23 27 2 28 1 29 20 30 26 32 27 33 31 34 28 35 30 36
REMARK SMILES IDX 29 37
REMARK H PARENT 13 12 15 14 17 16 20 31
REMARK Flexibility Score: inf
ROOT
ATOM      1  O   UNL     1      -6.832 -34.625 -49.427  1.00  0.00    -0.458 OA
ENDROOT
BRANCH   1   2
ATOM      2  C   UNL     1      -7.705 -35.143 -50.431  1.00  0.00     0.339 C 
ATOM      3  C   UNL     1      -7.989 -36.946 -51.928  1.00  0.00     0.199 C 
ATOM      4  C   UNL     1      -9.495 -36.549 -51.962  1.00  0.00     0.180 C 
ATOM      5  O   UNL     1      -7.270 -36.436 -50.808  1.00  0.00    -0.328 OA
ATOM      6  C   UNL     1      -9.980 -36.311 -50.525  1.00  0.00     0.181 C 
ATOM      7  C   UNL     1      -9.135 -35.203 -49.847  1.00  0.00     0.214 C 
BRANCH   3   8
ATOM      8  C   UNL     1      -7.279 -36.607 -53.212  1.00  0.00     0.073 C 
ATOM      9  O   UNL     1      -7.905 -36.555 -54.303  1.00  0.00    -0.547 OA
ATOM     10  O   UNL     1      -5.920 -36.313 -53.193  1.00  0.00    -0.547 OA
ENDBRANCH   3   8
BRANCH   4  11
ATOM     11  O   UNL     1     -10.233 -37.580 -52.566  1.00  0.00    -0.387 OA
ATOM     12  H   UNL     1      -9.589 -38.291 -52.829  1.00  0.00     0.211 HD
ENDBRANCH   4  11
BRANCH   6  13
ATOM     13  O   UNL     1     -11.345 -35.971 -50.529  1.00  0.00    -0.387 OA
ATOM     14  H   UNL     1     -11.540 -35.547 -49.652  1.00  0.00     0.211 HD
ENDBRANCH   6  13
BRANCH   7  15
ATOM     15  O   UNL     1      -9.744 -33.946 -50.011  1.00  0.00    -0.384 OA
ATOM     16  H   UNL     1      -9.178 -33.290 -49.523  1.00  0.00     0.211 HD
ENDBRANCH   7  15
ENDBRANCH   1   2
BRANCH   1  17
ATOM     17  C   UNL     1      -6.170 -33.386 -49.469  1.00  0.00     0.172 A 
ATOM     18  C   UNL     1      -6.799 -32.156 -49.176  1.00  0.00     0.205 A 
ATOM     19  C   UNL     1      -4.815 -33.395 -49.807  1.00  0.00     0.097 A 
ATOM     20  C   UNL     1      -6.085 -30.955 -49.305  1.00  0.00     0.188 A 
ATOM     21  C   UNL     1      -4.087 -32.205 -49.930  1.00  0.00     0.134 A 
ATOM     22  C   UNL     1      -4.720 -30.969 -49.680  1.00  0.00     0.111 A 
ATOM     23  O   UNL     1      -6.708 -29.805 -49.070  1.00  0.00    -0.452 OA
ATOM     24  C   UNL     1      -4.059 -29.728 -49.790  1.00  0.00     0.197 A 
ATOM     25  C   UNL     1      -6.117 -28.618 -49.181  1.00  0.00     0.138 A 
ATOM     26  C   UNL     1      -4.761 -28.551 -49.535  1.00  0.00     0.100 A 
ATOM     27  O   UNL     1      -2.843 -29.655 -50.112  1.00  0.00    -0.289 OA
BRANCH  18  28
ATOM     28  O   UNL     1      -8.119 -32.106 -48.730  1.00  0.00    -0.490 OA
ATOM     29  C   UNL     1      -8.432 -32.236 -47.347  1.00  0.00     0.278 C 
ENDBRANCH  18  28
BRANCH  21  30
ATOM     30  O   UNL     1      -2.751 -32.257 -50.319  1.00  0.00    -0.507 OA
ATOM     31  H   UNL     1      -2.414 -31.751 -51.130  1.00  0.00     0.293 HD
ENDBRANCH  21  30
BRANCH  25  32
ATOM     32  C   UNL     1      -6.920 -27.396 -48.941  1.00  0.00     0.017 A 
ATOM     33  C   UNL     1      -7.976 -27.032 -49.800  1.00  0.00     0.012 A 
ATOM     34  C   UNL     1      -6.680 -26.618 -47.794  1.00  0.00     0.012 A 
ATOM     35  C   UNL     1      -8.767 -25.911 -49.519  1.00  0.00     0.001 A 
ATOM     36  C   UNL     1      -7.468 -25.493 -47.521  1.00  0.00     0.001 A 
ATOM     37  C   UNL     1      -8.511 -25.141 -48.383  1.00  0.00     0.000 A 
ENDBRANCH  25  32
ENDBRANCH   1  17
TORSDOF 9
ENDMDL
