MODEL 1
REMARK VINA RESULT:    -3.064      0.000      0.000
REMARK INTER + INTRA:          -3.972
REMARK INTER:                  -3.870
REMARK INTRA:                  -0.102
REMARK UNBOUND:                -0.102
REMARK SMILES CCCCCCO
REMARK SMILES IDX 4 1 3 2 2 3 1 4 5 5 6 6 7 7
REMARK H PARENT 7 8
REMARK Flexibility Score: inf
ROOT
ATOM      1  C   UNL     1     163.355 178.251 187.418  1.00  0.00     0.002 C 
ENDROOT
BRANCH   1   2
ATOM      2  C   UNL     1     162.374 177.433 188.264  1.00  0.00    -0.000 C 
BRANCH   2   3
ATOM      3  C   UNL     1     160.933 177.911 188.051  1.00  0.00    -0.003 C 
ATOM      4  C   UNL     1     160.681 178.266 186.587  1.00  0.00     0.004 C 
ENDBRANCH   2   3
ENDBRANCH   1   2
BRANCH   1   5
ATOM      5  C   UNL     1     164.332 177.336 186.669  1.00  0.00     0.028 C 
BRANCH   5   6
ATOM      6  C   UNL     1     164.684 177.910 185.297  1.00  0.00     0.156 C 
BRANCH   6   7
ATOM      7  O   UNL     1     165.864 178.657 185.392  1.00  0.00    -0.396 OA
ATOM      8  H   UNL     1     165.761 179.232 186.195  1.00  0.00     0.210 HD
ENDBRANCH   6   7
ENDBRANCH   5   6
ENDBRANCH   1   5
TORSDOF 5
ENDMDL
MODEL 2
REMARK VINA RESULT:    -3.050      1.123      1.324
REMARK INTER + INTRA:          -3.954
REMARK INTER:                  -3.879
REMARK INTRA:                  -0.075
REMARK UNBOUND:                -0.102
REMARK SMILES CCCCCCO
REMARK SMILES IDX 4 1 3 2 2 3 1 4 5 5 6 6 7 7
REMARK H PARENT 7 8
REMARK Flexibility Score: inf
ROOT
ATOM      1  C   UNL     1     163.266 177.288 187.572  1.00  0.00     0.002 C 
ENDROOT
BRANCH   1   2
ATOM      2  C   UNL     1     161.960 177.560 188.326  1.00  0.00    -0.000 C 
BRANCH   2   3
ATOM      3  C   UNL     1     160.748 177.105 187.505  1.00  0.00    -0.003 C 
ATOM      4  C   UNL     1     160.633 175.583 187.489  1.00  0.00     0.004 C 
ENDBRANCH   2   3
ENDBRANCH   1   2
BRANCH   1   5
ATOM      5  C   UNL     1     163.751 178.546 186.841  1.00  0.00     0.028 C 
BRANCH   5   6
ATOM      6  C   UNL     1     164.316 178.202 185.464  1.00  0.00     0.156 C 
BRANCH   6   7
ATOM      7  O   UNL     1     165.646 178.633 185.383  1.00  0.00    -0.396 OA
ATOM      8  H   UNL     1     165.898 178.918 186.300  1.00  0.00     0.210 HD
ENDBRANCH   6   7
ENDBRANCH   5   6
ENDBRANCH   1   5
TORSDOF 5
ENDMDL
MODEL 3
REMARK VINA RESULT:    -2.976     10.509     11.892
REMARK INTER + INTRA:          -3.861
REMARK INTER:                  -3.801
REMARK INTRA:                  -0.059
REMARK UNBOUND:                -0.102
REMARK SMILES CCCCCCO
REMARK SMILES IDX 4 1 3 2 2 3 1 4 5 5 6 6 7 7
REMARK H PARENT 7 8
REMARK Flexibility Score: inf
ROOT
ATOM      1  C   UNL     1     175.313 178.646 188.118  1.00  0.00     0.002 C 
ENDROOT
BRANCH   1   2
ATOM      2  C   UNL     1     174.334 179.804 187.897  1.00  0.00    -0.000 C 
BRANCH   2   3
ATOM      3  C   UNL     1     173.121 179.350 187.077  1.00  0.00    -0.003 C 
ATOM      4  C   UNL     1     171.829 179.953 187.623  1.00  0.00     0.004 C 
ENDBRANCH   2   3
ENDBRANCH   1   2
BRANCH   1   5
ATOM      5  C   UNL     1     176.125 178.363 186.848  1.00  0.00     0.028 C 
BRANCH   5   6
ATOM      6  C   UNL     1     176.547 176.895 186.777  1.00  0.00     0.156 C 
BRANCH   6   7
ATOM      7  O   UNL     1     177.249 176.669 185.587  1.00  0.00    -0.396 OA
ATOM      8  H   UNL     1     178.042 177.265 185.618  1.00  0.00     0.210 HD
ENDBRANCH   6   7
ENDBRANCH   5   6
ENDBRANCH   1   5
TORSDOF 5
ENDMDL
MODEL 4
REMARK VINA RESULT:    -2.887      3.134      3.830
REMARK INTER + INTRA:          -3.749
REMARK INTER:                  -3.669
REMARK INTRA:                  -0.080
REMARK UNBOUND:                -0.102
REMARK SMILES CCCCCCO
REMARK SMILES IDX 4 1 3 2 2 3 1 4 5 5 6 6 7 7
REMARK H PARENT 7 8
REMARK Flexibility Score: inf
ROOT
ATOM      1  C   UNL     1     161.341 177.372 188.005  1.00  0.00     0.002 C 
ENDROOT
BRANCH   1   2
ATOM      2  C   UNL     1     161.413 175.947 187.446  1.00  0.00    -0.000 C 
BRANCH   2   3
ATOM      3  C   UNL     1     160.129 175.169 187.756  1.00  0.00    -0.003 C 
ATOM      4  C   UNL     1     159.962 173.981 186.811  1.00  0.00     0.004 C 
ENDBRANCH   2   3
ENDBRANCH   1   2
BRANCH   1   5
ATOM      5  C   UNL     1     160.521 178.284 187.083  1.00  0.00     0.028 C 
BRANCH   5   6
ATOM      6  C   UNL     1     160.808 177.985 185.613  1.00  0.00     0.156 C 
BRANCH   6   7
ATOM      7  O   UNL     1     159.906 178.691 184.808  1.00  0.00    -0.396 OA
ATOM      8  H   UNL     1     160.276 179.609 184.721  1.00  0.00     0.210 HD
ENDBRANCH   6   7
ENDBRANCH   5   6
ENDBRANCH   1   5
TORSDOF 5
ENDMDL
MODEL 5
REMARK VINA RESULT:    -2.874      2.949      3.809
REMARK INTER + INTRA:          -3.733
REMARK INTER:                  -3.591
REMARK INTRA:                  -0.141
REMARK UNBOUND:                -0.102
REMARK SMILES CCCCCCO
REMARK SMILES IDX 4 1 3 2 2 3 1 4 5 5 6 6 7 7
REMARK H PARENT 7 8
REMARK Flexibility Score: inf
ROOT
ATOM      1  C   UNL     1     161.373 178.000 185.819  1.00  0.00     0.002 C 
ENDROOT
BRANCH   1   2
ATOM      2  C   UNL     1     160.594 178.324 187.099  1.00  0.00    -0.000 C 
BRANCH   2   3
ATOM      3  C   UNL     1     161.220 177.628 188.313  1.00  0.00    -0.003 C 
ATOM      4  C   UNL     1     162.699 177.329 188.076  1.00  0.00     0.004 C 
ENDBRANCH   2   3
ENDBRANCH   1   2
BRANCH   1   5
ATOM      5  C   UNL     1     160.422 177.617 184.679  1.00  0.00     0.028 C 
BRANCH   5   6
ATOM      6  C   UNL     1     160.659 176.178 184.221  1.00  0.00     0.156 C 
BRANCH   6   7
ATOM      7  O   UNL     1     160.270 175.295 185.235  1.00  0.00    -0.396 OA
ATOM      8  H   UNL     1     160.991 175.324 185.916  1.00  0.00     0.210 HD
ENDBRANCH   6   7
ENDBRANCH   5   6
ENDBRANCH   1   5
TORSDOF 5
ENDMDL
MODEL 6
REMARK VINA RESULT:    -2.846      1.714      2.490
REMARK INTER + INTRA:          -3.696
REMARK INTER:                  -3.530
REMARK INTRA:                  -0.166
REMARK UNBOUND:                -0.102
REMARK SMILES CCCCCCO
REMARK SMILES IDX 4 1 3 2 2 3 1 4 5 5 6 6 7 7
REMARK H PARENT 7 8
REMARK Flexibility Score: inf
ROOT
ATOM      1  C   UNL     1     161.068 176.890 185.716  1.00  0.00     0.002 C 
ENDROOT
BRANCH   1   2
ATOM      2  C   UNL     1     160.636 178.242 186.295  1.00  0.00    -0.000 C 
BRANCH   2   3
ATOM      3  C   UNL     1     160.700 178.228 187.827  1.00  0.00    -0.003 C 
ATOM      4  C   UNL     1     161.939 177.485 188.320  1.00  0.00     0.004 C 
ENDBRANCH   2   3
ENDBRANCH   1   2
BRANCH   1   5
ATOM      5  C   UNL     1     161.933 177.080 184.463  1.00  0.00     0.028 C 
BRANCH   5   6
ATOM      6  C   UNL     1     163.274 177.725 184.810  1.00  0.00     0.156 C 
BRANCH   6   7
ATOM      7  O   UNL     1     163.633 178.627 183.801  1.00  0.00    -0.396 OA
ATOM      8  H   UNL     1     164.563 178.395 183.543  1.00  0.00     0.210 HD
ENDBRANCH   6   7
ENDBRANCH   5   6
ENDBRANCH   1   5
TORSDOF 5
ENDMDL
MODEL 7
REMARK VINA RESULT:    -2.812      2.089      3.376
REMARK INTER + INTRA:          -3.653
REMARK INTER:                  -3.461
REMARK INTRA:                  -0.193
REMARK UNBOUND:                -0.102
REMARK SMILES CCCCCCO
REMARK SMILES IDX 4 1 3 2 2 3 1 4 5 5 6 6 7 7
REMARK H PARENT 7 8
REMARK Flexibility Score: inf
ROOT
ATOM      1  C   UNL     1     160.941 177.293 187.718  1.00  0.00     0.002 C 
ENDROOT
BRANCH   1   2
ATOM      2  C   UNL     1     162.336 177.569 188.290  1.00  0.00    -0.000 C 
BRANCH   2   3
ATOM      3  C   UNL     1     163.397 176.716 187.584  1.00  0.00    -0.003 C 
ATOM      4  C   UNL     1     163.044 175.232 187.648  1.00  0.00     0.004 C 
ENDBRANCH   2   3
ENDBRANCH   1   2
BRANCH   1   5
ATOM      5  C   UNL     1     160.571 178.328 186.649  1.00  0.00     0.028 C 
BRANCH   5   6
ATOM      6  C   UNL     1     160.592 177.710 185.251  1.00  0.00     0.156 C 
BRANCH   6   7
ATOM      7  O   UNL     1     161.824 177.977 184.642  1.00  0.00    -0.396 OA
ATOM      8  H   UNL     1     161.612 178.364 183.752  1.00  0.00     0.210 HD
ENDBRANCH   6   7
ENDBRANCH   5   6
ENDBRANCH   1   5
TORSDOF 5
ENDMDL
MODEL 8
REMARK VINA RESULT:    -2.767      8.069      9.902
REMARK INTER + INTRA:          -3.597
REMARK INTER:                  -3.517
REMARK INTRA:                  -0.080
REMARK UNBOUND:                -0.102
REMARK SMILES CCCCCCO
REMARK SMILES IDX 4 1 3 2 2 3 1 4 5 5 6 6 7 7
REMARK H PARENT 7 8
REMARK Flexibility Score: inf
ROOT
ATOM      1  C   UNL     1     172.370 179.747 187.506  1.00  0.00     0.002 C 
ENDROOT
BRANCH   1   2
ATOM      2  C   UNL     1     172.882 178.303 187.511  1.00  0.00    -0.000 C 
BRANCH   2   3
ATOM      3  C   UNL     1     174.373 178.250 187.867  1.00  0.00    -0.003 C 
ATOM      4  C   UNL     1     174.901 179.635 188.235  1.00  0.00     0.004 C 
ENDBRANCH   2   3
ENDBRANCH   1   2
BRANCH   1   5
ATOM      5  C   UNL     1     170.882 179.802 187.138  1.00  0.00     0.028 C 
BRANCH   5   6
ATOM      6  C   UNL     1     170.655 179.367 185.691  1.00  0.00     0.156 C 
BRANCH   6   7
ATOM      7  O   UNL     1     169.618 180.125 185.133  1.00  0.00    -0.396 OA
ATOM      8  H   UNL     1     168.956 179.472 184.786  1.00  0.00     0.210 HD
ENDBRANCH   6   7
ENDBRANCH   5   6
ENDBRANCH   1   5
TORSDOF 5
ENDMDL
MODEL 9
REMARK VINA RESULT:    -2.763      3.842      4.497
REMARK INTER + INTRA:          -3.591
REMARK INTER:                  -3.504
REMARK INTRA:                  -0.087
REMARK UNBOUND:                -0.102
REMARK SMILES CCCCCCO
REMARK SMILES IDX 4 1 3 2 2 3 1 4 5 5 6 6 7 7
REMARK H PARENT 7 8
REMARK Flexibility Score: inf
ROOT
ATOM      1  C   UNL     1     160.548 175.444 187.533  1.00  0.00     0.002 C 
ENDROOT
BRANCH   1   2
ATOM      2  C   UNL     1     161.876 176.209 187.585  1.00  0.00    -0.000 C 
BRANCH   2   3
ATOM      3  C   UNL     1     161.690 177.590 188.223  1.00  0.00    -0.003 C 
ATOM      4  C   UNL     1     160.491 178.319 187.622  1.00  0.00     0.004 C 
ENDBRANCH   2   3
ENDBRANCH   1   2
BRANCH   1   5
ATOM      5  C   UNL     1     160.786 173.940 187.358  1.00  0.00     0.028 C 
BRANCH   5   6
ATOM      6  C   UNL     1     159.955 173.379 186.205  1.00  0.00     0.156 C 
BRANCH   6   7
ATOM      7  O   UNL     1     160.043 174.240 185.104  1.00  0.00    -0.396 OA
ATOM      8  H   UNL     1     160.210 175.145 185.476  1.00  0.00     0.210 HD
ENDBRANCH   6   7
ENDBRANCH   5   6
ENDBRANCH   1   5
TORSDOF 5
ENDMDL
