MODEL 1
REMARK VINA RESULT:    -2.867      0.000      0.000
REMARK INTER + INTRA:          -8.297
REMARK INTER:                  -5.548
REMARK INTRA:                  -2.748
REMARK UNBOUND:                -2.748
REMARK SMILES CCCCCCCCCCCCCCCCCC(=O)[O-]
REMARK SMILES IDX 10 1 11 2 12 3 13 4 14 5 15 6 16 7 17 8 18 9 19 10 20 11
REMARK SMILES IDX 9 12 8 13 7 14 6 15 5 16 4 17 3 18 2 19 1 20
REMARK H PARENT
REMARK Flexibility Score: inf
ROOT
ATOM      1  C   UNL     1      22.491  38.472  28.621  1.00  0.00     0.000 C 
ENDROOT
BRANCH   1   2
ATOM      2  C   UNL     1      23.616  37.426  28.631  1.00  0.00     0.000 C 
BRANCH   2   3
ATOM      3  C   UNL     1      24.117  37.113  30.051  1.00  0.00     0.000 C 
BRANCH   3   4
ATOM      4  C   UNL     1      23.912  35.635  30.431  1.00  0.00     0.000 C 
BRANCH   4   5
ATOM      5  C   UNL     1      23.153  34.846  29.353  1.00  0.00     0.000 C 
BRANCH   5   6
ATOM      6  C   UNL     1      21.796  34.313  29.849  1.00  0.00     0.000 C 
BRANCH   6   7
ATOM      7  C   UNL     1      20.618  34.820  29.001  1.00  0.00     0.006 C 
BRANCH   7   8
ATOM      8  C   UNL     1      21.003  35.043  27.533  1.00  0.00     0.053 C 
BRANCH   8   9
ATOM      9  C   UNL     1      20.502  33.916  26.685  1.00  0.00     0.041 C 
ATOM     10  O   UNL     1      19.993  32.895  27.221  1.00  0.00    -0.550 OA
ATOM     11  O   UNL     1      20.561  34.010  25.300  1.00  0.00    -0.550 OA
ENDBRANCH   8   9
ENDBRANCH   7   8
ENDBRANCH   6   7
ENDBRANCH   5   6
ENDBRANCH   4   5
ENDBRANCH   3   4
ENDBRANCH   2   3
ENDBRANCH   1   2
BRANCH   1  12
ATOM     12  C   UNL     1      21.715  38.455  29.948  1.00  0.00     0.000 C 
BRANCH  12  13
ATOM     13  C   UNL     1      20.189  38.437  29.748  1.00  0.00    -0.000 C 
BRANCH  13  14
ATOM     14  C   UNL     1      19.697  38.999  28.399  1.00  0.00    -0.000 C 
BRANCH  14  15
ATOM     15  C   UNL     1      19.197  40.454  28.439  1.00  0.00    -0.000 C 
BRANCH  15  16
ATOM     16  C   UNL     1      20.123  41.421  27.686  1.00  0.00    -0.000 C 
BRANCH  16  17
ATOM     17  C   UNL     1      21.249  41.924  28.599  1.00  0.00    -0.000 C 
BRANCH  17  18
ATOM     18  C   UNL     1      20.708  42.294  29.988  1.00  0.00    -0.000 C 
BRANCH  18  19
ATOM     19  C   UNL     1      21.623  41.816  31.125  1.00  0.00    -0.003 C 
ATOM     20  C   UNL     1      23.093  42.163  30.887  1.00  0.00     0.004 C 
ENDBRANCH  18  19
ENDBRANCH  17  18
ENDBRANCH  16  17
ENDBRANCH  15  16
ENDBRANCH  14  15
ENDBRANCH  13  14
ENDBRANCH  12  13
ENDBRANCH   1  12
TORSDOF 16
ENDMDL
MODEL 2
REMARK VINA RESULT:    -2.856      8.304     10.320
REMARK INTER + INTRA:          -8.276
REMARK INTER:                  -5.241
REMARK INTRA:                  -3.035
REMARK UNBOUND:                -2.748
REMARK SMILES CCCCCCCCCCCCCCCCCC(=O)[O-]
REMARK SMILES IDX 10 1 11 2 12 3 13 4 14 5 15 6 16 7 17 8 18 9 19 10 20 11
REMARK SMILES IDX 9 12 8 13 7 14 6 15 5 16 4 17 3 18 2 19 1 20
REMARK H PARENT
REMARK Flexibility Score: inf
ROOT
ATOM      1  C   UNL     1      12.566  42.860  28.493  1.00  0.00     0.000 C 
ENDROOT
BRANCH   1   2
ATOM      2  C   UNL     1      12.933  41.700  27.554  1.00  0.00     0.000 C 
BRANCH   2   3
ATOM      3  C   UNL     1      13.301  42.181  26.140  1.00  0.00     0.000 C 
BRANCH   3   4
ATOM      4  C   UNL     1      14.817  42.128  25.879  1.00  0.00     0.000 C 
BRANCH   4   5
ATOM      5  C   UNL     1      15.251  43.052  24.730  1.00  0.00     0.000 C 
BRANCH   5   6
ATOM      6  C   UNL     1      14.113  43.962  24.233  1.00  0.00     0.000 C 
BRANCH   6   7
ATOM      7  C   UNL     1      13.780  43.735  22.750  1.00  0.00     0.006 C 
BRANCH   7   8
ATOM      8  C   UNL     1      12.674  42.691  22.550  1.00  0.00     0.053 C 
BRANCH   8   9
ATOM      9  C   UNL     1      13.244  41.428  21.984  1.00  0.00     0.041 C 
ATOM     10  O   UNL     1      13.294  41.257  20.736  1.00  0.00    -0.550 OA
ATOM     11  O   UNL     1      13.758  40.456  22.833  1.00  0.00    -0.550 OA
ENDBRANCH   8   9
ENDBRANCH   7   8
ENDBRANCH   6   7
ENDBRANCH   5   6
ENDBRANCH   4   5
ENDBRANCH   3   4
ENDBRANCH   2   3
ENDBRANCH   1   2
BRANCH   1  12
ATOM     12  C   UNL     1      12.700  44.211  27.773  1.00  0.00     0.000 C 
BRANCH  12  13
ATOM     13  C   UNL     1      12.926  45.385  28.742  1.00  0.00    -0.000 C 
BRANCH  13  14
ATOM     14  C   UNL     1      14.070  46.345  28.355  1.00  0.00    -0.000 C 
BRANCH  14  15
ATOM     15  C   UNL     1      15.040  45.810  27.287  1.00  0.00    -0.000 C 
BRANCH  15  16
ATOM     16  C   UNL     1      16.488  45.724  27.789  1.00  0.00    -0.000 C 
BRANCH  16  17
ATOM     17  C   UNL     1      16.566  44.943  29.108  1.00  0.00    -0.000 C 
BRANCH  17  18
ATOM     18  C   UNL     1      16.322  43.444  28.875  1.00  0.00    -0.000 C 
BRANCH  18  19
ATOM     19  C   UNL     1      15.774  42.734  30.122  1.00  0.00    -0.003 C 
ATOM     20  C   UNL     1      15.146  43.701  31.125  1.00  0.00     0.004 C 
ENDBRANCH  18  19
ENDBRANCH  17  18
ENDBRANCH  16  17
ENDBRANCH  15  16
ENDBRANCH  14  15
ENDBRANCH  13  14
ENDBRANCH  12  13
ENDBRANCH   1  12
TORSDOF 16
ENDMDL
MODEL 3
REMARK VINA RESULT:    -2.807      8.759     11.031
REMARK INTER + INTRA:          -8.180
REMARK INTER:                  -5.757
REMARK INTRA:                  -2.423
REMARK UNBOUND:                -2.748
REMARK SMILES CCCCCCCCCCCCCCCCCC(=O)[O-]
REMARK SMILES IDX 10 1 11 2 12 3 13 4 14 5 15 6 16 7 17 8 18 9 19 10 20 11
REMARK SMILES IDX 9 12 8 13 7 14 6 15 5 16 4 17 3 18 2 19 1 20
REMARK H PARENT
REMARK Flexibility Score: inf
ROOT
ATOM      1  C   UNL     1      15.082  41.990  25.564  1.00  0.00     0.000 C 
ENDROOT
BRANCH   1   2
ATOM      2  C   UNL     1      14.732  40.684  24.834  1.00  0.00     0.000 C 
BRANCH   2   3
ATOM      3  C   UNL     1      13.235  40.343  24.921  1.00  0.00     0.000 C 
BRANCH   3   4
ATOM      4  C   UNL     1      12.628  40.011  23.546  1.00  0.00     0.000 C 
BRANCH   4   5
ATOM      5  C   UNL     1      13.102  40.970  22.443  1.00  0.00     0.000 C 
BRANCH   5   6
ATOM      6  C   UNL     1      12.277  42.268  22.386  1.00  0.00     0.000 C 
BRANCH   6   7
ATOM      7  C   UNL     1      13.150  43.515  22.174  1.00  0.00     0.006 C 
BRANCH   7   8
ATOM      8  C   UNL     1      14.542  43.171  21.630  1.00  0.00     0.053 C 
BRANCH   8   9
ATOM      9  C   UNL     1      14.584  43.358  20.145  1.00  0.00     0.041 C 
ATOM     10  O   UNL     1      14.668  44.516  19.654  1.00  0.00    -0.550 OA
ATOM     11  O   UNL     1      14.570  42.252  19.305  1.00  0.00    -0.550 OA
ENDBRANCH   8   9
ENDBRANCH   7   8
ENDBRANCH   6   7
ENDBRANCH   5   6
ENDBRANCH   4   5
ENDBRANCH   3   4
ENDBRANCH   2   3
ENDBRANCH   1   2
BRANCH   1  12
ATOM     12  C   UNL     1      13.833  42.865  25.750  1.00  0.00     0.000 C 
BRANCH  12  13
ATOM     13  C   UNL     1      14.114  44.144  26.559  1.00  0.00    -0.000 C 
BRANCH  13  14
ATOM     14  C   UNL     1      12.900  44.722  27.317  1.00  0.00    -0.000 C 
BRANCH  14  15
ATOM     15  C   UNL     1      12.813  44.335  28.804  1.00  0.00    -0.000 C 
BRANCH  15  16
ATOM     16  C   UNL     1      12.159  42.964  29.025  1.00  0.00    -0.000 C 
BRANCH  16  17
ATOM     17  C   UNL     1      13.003  42.099  29.971  1.00  0.00    -0.000 C 
BRANCH  17  18
ATOM     18  C   UNL     1      14.223  41.517  29.242  1.00  0.00    -0.000 C 
BRANCH  18  19
ATOM     19  C   UNL     1      13.926  40.161  28.584  1.00  0.00    -0.003 C 
ATOM     20  C   UNL     1      13.904  39.009  29.588  1.00  0.00     0.004 C 
ENDBRANCH  18  19
ENDBRANCH  17  18
ENDBRANCH  16  17
ENDBRANCH  15  16
ENDBRANCH  14  15
ENDBRANCH  13  14
ENDBRANCH  12  13
ENDBRANCH   1  12
TORSDOF 16
ENDMDL
MODEL 4
REMARK VINA RESULT:    -2.771     13.679     15.727
REMARK INTER + INTRA:          -8.112
REMARK INTER:                  -5.662
REMARK INTRA:                  -2.449
REMARK UNBOUND:                -2.748
REMARK SMILES CCCCCCCCCCCCCCCCCC(=O)[O-]
REMARK SMILES IDX 10 1 11 2 12 3 13 4 14 5 15 6 16 7 17 8 18 9 19 10 20 11
REMARK SMILES IDX 9 12 8 13 7 14 6 15 5 16 4 17 3 18 2 19 1 20
REMARK H PARENT
REMARK Flexibility Score: inf
ROOT
ATOM      1  C   UNL     1      25.511  39.694  11.989  1.00  0.00     0.000 C 
ENDROOT
BRANCH   1   2
ATOM      2  C   UNL     1      24.303  40.640  11.914  1.00  0.00     0.000 C 
BRANCH   2   3
ATOM      3  C   UNL     1      24.388  41.787  12.935  1.00  0.00     0.000 C 
BRANCH   3   4
ATOM      4  C   UNL     1      25.147  41.380  14.211  1.00  0.00     0.000 C 
BRANCH   4   5
ATOM      5  C   UNL     1      24.267  41.445  15.469  1.00  0.00     0.000 C 
BRANCH   5   6
ATOM      6  C   UNL     1      24.028  40.062  16.102  1.00  0.00     0.000 C 
BRANCH   6   7
ATOM      7  C   UNL     1      24.128  40.089  17.635  1.00  0.00     0.006 C 
BRANCH   7   8
ATOM      8  C   UNL     1      23.938  41.498  18.211  1.00  0.00     0.053 C 
BRANCH   8   9
ATOM      9  C   UNL     1      22.568  41.644  18.795  1.00  0.00     0.041 C 
ATOM     10  O   UNL     1      22.003  42.770  18.816  1.00  0.00    -0.550 OA
ATOM     11  O   UNL     1      21.897  40.528  19.281  1.00  0.00    -0.550 OA
ENDBRANCH   8   9
ENDBRANCH   7   8
ENDBRANCH   6   7
ENDBRANCH   5   6
ENDBRANCH   4   5
ENDBRANCH   3   4
ENDBRANCH   2   3
ENDBRANCH   1   2
BRANCH   1  12
ATOM     12  C   UNL     1      25.063  38.226  11.912  1.00  0.00     0.000 C 
BRANCH  12  13
ATOM     13  C   UNL     1      23.866  38.015  10.968  1.00  0.00    -0.000 C 
BRANCH  13  14
ATOM     14  C   UNL     1      23.059  36.722  11.209  1.00  0.00    -0.000 C 
BRANCH  14  15
ATOM     15  C   UNL     1      21.831  36.879  12.123  1.00  0.00    -0.000 C 
BRANCH  15  16
ATOM     16  C   UNL     1      22.166  36.685  13.608  1.00  0.00    -0.000 C 
BRANCH  16  17
ATOM     17  C   UNL     1      21.588  37.828  14.455  1.00  0.00    -0.000 C 
BRANCH  17  18
ATOM     18  C   UNL     1      21.444  39.111  13.622  1.00  0.00    -0.000 C 
BRANCH  18  19
ATOM     19  C   UNL     1      20.694  40.220  14.372  1.00  0.00    -0.003 C 
ATOM     20  C   UNL     1      20.799  41.579  13.680  1.00  0.00     0.004 C 
ENDBRANCH  18  19
ENDBRANCH  17  18
ENDBRANCH  16  17
ENDBRANCH  15  16
ENDBRANCH  14  15
ENDBRANCH  13  14
ENDBRANCH  12  13
ENDBRANCH   1  12
TORSDOF 16
ENDMDL
MODEL 5
REMARK VINA RESULT:    -2.765     12.796     14.678
REMARK INTER + INTRA:          -8.099
REMARK INTER:                  -4.849
REMARK INTRA:                  -3.250
REMARK UNBOUND:                -2.748
REMARK SMILES CCCCCCCCCCCCCCCCCC(=O)[O-]
REMARK SMILES IDX 10 1 11 2 12 3 13 4 14 5 15 6 16 7 17 8 18 9 19 10 20 11
REMARK SMILES IDX 9 12 8 13 7 14 6 15 5 16 4 17 3 18 2 19 1 20
REMARK H PARENT
REMARK Flexibility Score: inf
ROOT
ATOM      1  C   UNL     1      23.535  42.497  14.922  1.00  0.00     0.000 C 
ENDROOT
BRANCH   1   2
ATOM      2  C   UNL     1      24.358  41.376  15.576  1.00  0.00     0.000 C 
BRANCH   2   3
ATOM      3  C   UNL     1      24.179  41.328  17.102  1.00  0.00     0.000 C 
BRANCH   3   4
ATOM      4  C   UNL     1      23.965  39.894  17.622  1.00  0.00     0.000 C 
BRANCH   4   5
ATOM      5  C   UNL     1      22.577  39.693  18.249  1.00  0.00     0.000 C 
BRANCH   5   6
ATOM      6  C   UNL     1      21.784  41.007  18.375  1.00  0.00     0.000 C 
BRANCH   6   7
ATOM      7  C   UNL     1      20.385  40.915  17.746  1.00  0.00     0.006 C 
BRANCH   7   8
ATOM      8  C   UNL     1      19.793  39.502  17.832  1.00  0.00     0.053 C 
BRANCH   8   9
ATOM      9  C   UNL     1      18.716  39.323  16.809  1.00  0.00     0.041 C 
ATOM     10  O   UNL     1      18.204  40.327  16.244  1.00  0.00    -0.550 OA
ATOM     11  O   UNL     1      18.303  38.046  16.451  1.00  0.00    -0.550 OA
ENDBRANCH   8   9
ENDBRANCH   7   8
ENDBRANCH   6   7
ENDBRANCH   5   6
ENDBRANCH   4   5
ENDBRANCH   3   4
ENDBRANCH   2   3
ENDBRANCH   1   2
BRANCH   1  12
ATOM     12  C   UNL     1      23.740  42.510  13.399  1.00  0.00     0.000 C 
BRANCH  12  13
ATOM     13  C   UNL     1      24.771  41.470  12.925  1.00  0.00    -0.000 C 
BRANCH  13  14
ATOM     14  C   UNL     1      24.343  40.630  11.705  1.00  0.00    -0.000 C 
BRANCH  14  15
ATOM     15  C   UNL     1      24.211  39.119  11.965  1.00  0.00    -0.000 C 
BRANCH  15  16
ATOM     16  C   UNL     1      25.068  38.642  13.147  1.00  0.00    -0.000 C 
BRANCH  16  17
ATOM     17  C   UNL     1      24.188  38.062  14.263  1.00  0.00    -0.000 C 
BRANCH  17  18
ATOM     18  C   UNL     1      22.715  38.008  13.830  1.00  0.00    -0.000 C 
BRANCH  18  19
ATOM     19  C   UNL     1      21.803  38.852  14.732  1.00  0.00    -0.003 C 
ATOM     20  C   UNL     1      21.027  39.918  13.959  1.00  0.00     0.004 C 
ENDBRANCH  18  19
ENDBRANCH  17  18
ENDBRANCH  16  17
ENDBRANCH  15  16
ENDBRANCH  14  15
ENDBRANCH  13  14
ENDBRANCH  12  13
ENDBRANCH   1  12
TORSDOF 16
ENDMDL
MODEL 6
REMARK VINA RESULT:    -2.743     12.877     14.810
REMARK INTER + INTRA:          -8.056
REMARK INTER:                  -5.330
REMARK INTRA:                  -2.727
REMARK UNBOUND:                -2.748
REMARK SMILES CCCCCCCCCCCCCCCCCC(=O)[O-]
REMARK SMILES IDX 10 1 11 2 12 3 13 4 14 5 15 6 16 7 17 8 18 9 19 10 20 11
REMARK SMILES IDX 9 12 8 13 7 14 6 15 5 16 4 17 3 18 2 19 1 20
REMARK H PARENT
REMARK Flexibility Score: inf
ROOT
ATOM      1  C   UNL     1      21.081  41.965  14.011  1.00  0.00     0.000 C 
ENDROOT
BRANCH   1   2
ATOM      2  C   UNL     1      21.605  42.149  15.444  1.00  0.00     0.000 C 
BRANCH   2   3
ATOM      3  C   UNL     1      22.911  42.957  15.495  1.00  0.00     0.000 C 
BRANCH   3   4
ATOM      4  C   UNL     1      23.933  42.358  16.479  1.00  0.00     0.000 C 
BRANCH   4   5
ATOM      5  C   UNL     1      24.041  40.830  16.362  1.00  0.00     0.000 C 
BRANCH   5   6
ATOM      6  C   UNL     1      23.868  40.115  17.715  1.00  0.00     0.000 C 
BRANCH   6   7
ATOM      7  C   UNL     1      22.416  39.684  17.973  1.00  0.00     0.006 C 
BRANCH   7   8
ATOM      8  C   UNL     1      21.708  40.585  18.993  1.00  0.00     0.053 C 
BRANCH   8   9
ATOM      9  C   UNL     1      21.477  39.845  20.273  1.00  0.00     0.041 C 
ATOM     10  O   UNL     1      21.844  38.644  20.387  1.00  0.00    -0.550 OA
ATOM     11  O   UNL     1      20.891  40.492  21.354  1.00  0.00    -0.550 OA
ENDBRANCH   8   9
ENDBRANCH   7   8
ENDBRANCH   6   7
ENDBRANCH   5   6
ENDBRANCH   4   5
ENDBRANCH   3   4
ENDBRANCH   2   3
ENDBRANCH   1   2
BRANCH   1  12
ATOM     12  C   UNL     1      21.826  40.826  13.297  1.00  0.00     0.000 C 
BRANCH  12  13
ATOM     13  C   UNL     1      21.542  39.446  13.917  1.00  0.00    -0.000 C 
BRANCH  13  14
ATOM     14  C   UNL     1      22.763  38.508  14.017  1.00  0.00    -0.000 C 
BRANCH  14  15
ATOM     15  C   UNL     1      22.992  37.600  12.796  1.00  0.00    -0.000 C 
BRANCH  15  16
ATOM     16  C   UNL     1      24.138  38.088  11.898  1.00  0.00    -0.000 C 
BRANCH  16  17
ATOM     17  C   UNL     1      25.163  38.895  12.708  1.00  0.00    -0.000 C 
BRANCH  17  18
ATOM     18  C   UNL     1      25.446  40.250  12.043  1.00  0.00    -0.000 C 
BRANCH  18  19
ATOM     19  C   UNL     1      25.370  41.421  13.034  1.00  0.00    -0.003 C 
ATOM     20  C   UNL     1      24.906  42.722  12.378  1.00  0.00     0.004 C 
ENDBRANCH  18  19
ENDBRANCH  17  18
ENDBRANCH  16  17
ENDBRANCH  15  16
ENDBRANCH  14  15
ENDBRANCH  13  14
ENDBRANCH  12  13
ENDBRANCH   1  12
TORSDOF 16
ENDMDL
MODEL 7
REMARK VINA RESULT:    -2.677      7.791     10.693
REMARK INTER + INTRA:          -7.929
REMARK INTER:                  -5.543
REMARK INTRA:                  -2.386
REMARK UNBOUND:                -2.748
REMARK SMILES CCCCCCCCCCCCCCCCCC(=O)[O-]
REMARK SMILES IDX 10 1 11 2 12 3 13 4 14 5 15 6 16 7 17 8 18 9 19 10 20 11
REMARK SMILES IDX 9 12 8 13 7 14 6 15 5 16 4 17 3 18 2 19 1 20
REMARK H PARENT
REMARK Flexibility Score: inf
ROOT
ATOM      1  C   UNL     1      11.997  42.825  29.231  1.00  0.00     0.000 C 
ENDROOT
BRANCH   1   2
ATOM      2  C   UNL     1      13.168  43.728  28.814  1.00  0.00     0.000 C 
BRANCH   2   3
ATOM      3  C   UNL     1      13.127  44.094  27.321  1.00  0.00     0.000 C 
BRANCH   3   4
ATOM      4  C   UNL     1      14.435  44.751  26.842  1.00  0.00     0.000 C 
BRANCH   4   5
ATOM      5  C   UNL     1      14.711  44.500  25.351  1.00  0.00     0.000 C 
BRANCH   5   6
ATOM      6  C   UNL     1      13.515  43.860  24.623  1.00  0.00     0.000 C 
BRANCH   6   7
ATOM      7  C   UNL     1      13.808  43.581  23.140  1.00  0.00     0.006 C 
BRANCH   7   8
ATOM      8  C   UNL     1      12.854  42.541  22.539  1.00  0.00     0.053 C 
BRANCH   8   9
ATOM      9  C   UNL     1      13.510  41.830  21.396  1.00  0.00     0.041 C 
ATOM     10  O   UNL     1      13.488  40.571  21.335  1.00  0.00    -0.550 OA
ATOM     11  O   UNL     1      14.112  42.558  20.378  1.00  0.00    -0.550 OA
ENDBRANCH   8   9
ENDBRANCH   7   8
ENDBRANCH   6   7
ENDBRANCH   5   6
ENDBRANCH   4   5
ENDBRANCH   3   4
ENDBRANCH   2   3
ENDBRANCH   1   2
BRANCH   1  12
ATOM     12  C   UNL     1      12.180  42.322  30.672  1.00  0.00     0.000 C 
BRANCH  12  13
ATOM     13  C   UNL     1      13.656  42.277  31.107  1.00  0.00    -0.000 C 
BRANCH  13  14
ATOM     14  C   UNL     1      14.292  40.872  31.125  1.00  0.00    -0.000 C 
BRANCH  14  15
ATOM     15  C   UNL     1      13.647  39.849  30.173  1.00  0.00    -0.000 C 
BRANCH  15  16
ATOM     16  C   UNL     1      14.608  39.371  29.075  1.00  0.00    -0.000 C 
BRANCH  16  17
ATOM     17  C   UNL     1      15.547  40.503  28.637  1.00  0.00    -0.000 C 
BRANCH  17  18
ATOM     18  C   UNL     1      15.165  41.027  27.244  1.00  0.00    -0.000 C 
BRANCH  18  19
ATOM     19  C   UNL     1      14.255  40.056  26.477  1.00  0.00    -0.003 C 
ATOM     20  C   UNL     1      12.846  40.609  26.263  1.00  0.00     0.004 C 
ENDBRANCH  18  19
ENDBRANCH  17  18
ENDBRANCH  16  17
ENDBRANCH  15  16
ENDBRANCH  14  15
ENDBRANCH  13  14
ENDBRANCH  12  13
ENDBRANCH   1  12
TORSDOF 16
ENDMDL
MODEL 8
REMARK VINA RESULT:    -2.666     14.236     16.665
REMARK INTER + INTRA:          -7.908
REMARK INTER:                  -4.637
REMARK INTRA:                  -3.271
REMARK UNBOUND:                -2.748
REMARK SMILES CCCCCCCCCCCCCCCCCC(=O)[O-]
REMARK SMILES IDX 10 1 11 2 12 3 13 4 14 5 15 6 16 7 17 8 18 9 19 10 20 11
REMARK SMILES IDX 9 12 8 13 7 14 6 15 5 16 4 17 3 18 2 19 1 20
REMARK H PARENT
REMARK Flexibility Score: inf
ROOT
ATOM      1  C   UNL     1      11.802  35.730  12.711  1.00  0.00     0.000 C 
ENDROOT
BRANCH   1   2
ATOM      2  C   UNL     1      11.651  35.856  14.235  1.00  0.00     0.000 C 
BRANCH   2   3
ATOM      3  C   UNL     1      12.746  35.095  15.000  1.00  0.00     0.000 C 
BRANCH   3   4
ATOM      4  C   UNL     1      14.012  34.878  14.151  1.00  0.00     0.000 C 
BRANCH   4   5
ATOM      5  C   UNL     1      15.261  35.516  14.778  1.00  0.00     0.000 C 
BRANCH   5   6
ATOM      6  C   UNL     1      15.120  35.737  16.295  1.00  0.00     0.000 C 
BRANCH   6   7
ATOM      7  C   UNL     1      16.209  36.662  16.861  1.00  0.00     0.006 C 
BRANCH   7   8
ATOM      8  C   UNL     1      17.204  37.124  15.788  1.00  0.00     0.053 C 
BRANCH   8   9
ATOM      9  C   UNL     1      18.534  36.470  15.992  1.00  0.00     0.041 C 
ATOM     10  O   UNL     1      19.473  37.100  16.549  1.00  0.00    -0.550 OA
ATOM     11  O   UNL     1      18.727  35.150  15.602  1.00  0.00    -0.550 OA
ENDBRANCH   8   9
ENDBRANCH   7   8
ENDBRANCH   6   7
ENDBRANCH   5   6
ENDBRANCH   4   5
ENDBRANCH   3   4
ENDBRANCH   2   3
ENDBRANCH   1   2
BRANCH   1  12
ATOM     12  C   UNL     1      11.312  37.005  12.006  1.00  0.00     0.000 C 
BRANCH  12  13
ATOM     13  C   UNL     1      12.376  37.622  11.079  1.00  0.00    -0.000 C 
BRANCH  13  14
ATOM     14  C   UNL     1      13.763  36.950  11.134  1.00  0.00    -0.000 C 
BRANCH  14  15
ATOM     15  C   UNL     1      14.888  37.820  11.723  1.00  0.00    -0.000 C 
BRANCH  15  16
ATOM     16  C   UNL     1      14.359  39.077  12.430  1.00  0.00    -0.000 C 
BRANCH  16  17
ATOM     17  C   UNL     1      14.503  38.951  13.953  1.00  0.00    -0.000 C 
BRANCH  17  18
ATOM     18  C   UNL     1      13.139  39.077  14.648  1.00  0.00    -0.000 C 
BRANCH  18  19
ATOM     19  C   UNL     1      13.219  38.816  16.159  1.00  0.00    -0.003 C 
ATOM     20  C   UNL     1      13.942  39.931  16.914  1.00  0.00     0.004 C 
ENDBRANCH  18  19
ENDBRANCH  17  18
ENDBRANCH  16  17
ENDBRANCH  15  16
ENDBRANCH  14  15
ENDBRANCH  13  14
ENDBRANCH  12  13
ENDBRANCH   1  12
TORSDOF 16
ENDMDL
MODEL 9
REMARK VINA RESULT:    -2.652      8.596     11.001
REMARK INTER + INTRA:          -7.880
REMARK INTER:                  -5.101
REMARK INTRA:                  -2.780
REMARK UNBOUND:                -2.748
REMARK SMILES CCCCCCCCCCCCCCCCCC(=O)[O-]
REMARK SMILES IDX 10 1 11 2 12 3 13 4 14 5 15 6 16 7 17 8 18 9 19 10 20 11
REMARK SMILES IDX 9 12 8 13 7 14 6 15 5 16 4 17 3 18 2 19 1 20
REMARK H PARENT
REMARK Flexibility Score: inf
ROOT
ATOM      1  C   UNL     1      16.666  41.252  23.850  1.00  0.00     0.000 C 
ENDROOT
BRANCH   1   2
ATOM      2  C   UNL     1      16.037  41.708  25.175  1.00  0.00     0.000 C 
BRANCH   2   3
ATOM      3  C   UNL     1      15.169  40.616  25.821  1.00  0.00     0.000 C 
BRANCH   3   4
ATOM      4  C   UNL     1      13.916  41.192  26.507  1.00  0.00     0.000 C 
BRANCH   4   5
ATOM      5  C   UNL     1      13.598  42.624  26.050  1.00  0.00     0.000 C 
BRANCH   5   6
ATOM      6  C   UNL     1      13.119  43.525  27.203  1.00  0.00     0.000 C 
BRANCH   6   7
ATOM      7  C   UNL     1      12.377  42.740  28.297  1.00  0.00     0.006 C 
BRANCH   7   8
ATOM      8  C   UNL     1      12.461  43.421  29.668  1.00  0.00     0.053 C 
BRANCH   8   9
ATOM      9  C   UNL     1      13.660  42.935  30.421  1.00  0.00     0.041 C 
ATOM     10  O   UNL     1      13.955  41.709  30.423  1.00  0.00    -0.550 OA
ATOM     11  O   UNL     1      14.476  43.840  31.087  1.00  0.00    -0.550 OA
ENDBRANCH   8   9
ENDBRANCH   7   8
ENDBRANCH   6   7
ENDBRANCH   5   6
ENDBRANCH   4   5
ENDBRANCH   3   4
ENDBRANCH   2   3
ENDBRANCH   1   2
BRANCH   1  12
ATOM     12  C   UNL     1      16.595  42.370  22.797  1.00  0.00     0.000 C 
BRANCH  12  13
ATOM     13  C   UNL     1      15.904  43.642  23.321  1.00  0.00    -0.000 C 
BRANCH  13  14
ATOM     14  C   UNL     1      14.842  44.247  22.380  1.00  0.00    -0.000 C 
BRANCH  14  15
ATOM     15  C   UNL     1      13.406  43.743  22.604  1.00  0.00    -0.000 C 
BRANCH  15  16
ATOM     16  C   UNL     1      13.073  42.502  21.762  1.00  0.00    -0.000 C 
BRANCH  16  17
ATOM     17  C   UNL     1      12.804  41.287  22.659  1.00  0.00    -0.000 C 
BRANCH  17  18
ATOM     18  C   UNL     1      13.562  40.050  22.151  1.00  0.00    -0.000 C 
BRANCH  18  19
ATOM     19  C   UNL     1      13.496  38.873  23.135  1.00  0.00    -0.003 C 
ATOM     20  C   UNL     1      12.252  38.912  24.022  1.00  0.00     0.004 C 
ENDBRANCH  18  19
ENDBRANCH  17  18
ENDBRANCH  16  17
ENDBRANCH  15  16
ENDBRANCH  14  15
ENDBRANCH  13  14
ENDBRANCH  12  13
ENDBRANCH   1  12
TORSDOF 16
ENDMDL
