MODEL 1
REMARK VINA RESULT:    38.612      0.000      0.000
REMARK INTER + INTRA:          67.459
REMARK INTER:                  61.184
REMARK INTRA:                   6.275
REMARK UNBOUND:                 6.275
REMARK SMILES C[C@@H]1O[C@H](O[C@@H]2[C@@H](Oc3cc(O)c4c(c3)O[C@H](c3ccc(O)cc3)CC4=O)O[C@H](CO)[C@@H](O)[C@@H]2O)[C@H](O)[C@H](O)[C@@H]1O
REMARK SMILES IDX 6 1 34 2 32 3 29 4 28 5 7 6 5 7 4 8 1 9 2 10 40 11 3 12
REMARK SMILES IDX 38 13 36 14 41 15 39 17 37 19 35 21 8 23 9 24 10 25 15 26
REMARK SMILES IDX 11 27 14 28 13 29 16 30 26 31 17 32 27 33 25 34 12 35 18 37
REMARK SMILES IDX 19 38 24 39 20 40 23 41 21 42 22 43 33 45 30 47 31 48
REMARK H PARENT 41 16 39 18 37 20 35 22 12 36 22 44 33 46 31 49
REMARK Flexibility Score: inf
ROOT
ATOM      1  C   UNL     1     142.830 175.302 171.150  1.00  0.00     0.221 C 
ATOM      2  C   UNL     1     144.281 174.978 170.740  1.00  0.00     0.181 C 
ATOM      3  C   UNL     1     145.080 174.338 171.906  1.00  0.00     0.177 C 
ATOM      4  C   UNL     1     144.536 174.801 173.284  1.00  0.00     0.179 C 
ATOM      5  O   UNL     1     144.017 176.112 173.190  1.00  0.00    -0.332 OA
ATOM      6  C   UNL     1     142.790 176.124 172.471  1.00  0.00     0.339 C 
ENDROOT
BRANCH   1   7
ATOM      7  O   UNL     1     142.217 176.034 170.097  1.00  0.00    -0.337 OA
BRANCH   7   8
ATOM      8  C   UNL     1     140.802 176.024 170.176  1.00  0.00     0.282 C 
ATOM      9  C   UNL     1     138.253 176.124 167.516  1.00  0.00     0.041 C 
ATOM     10  C   UNL     1     138.920 175.649 168.813  1.00  0.00     0.150 C 
ATOM     11  C   UNL     1     138.890 174.101 168.973  1.00  0.00     0.174 C 
ATOM     12  O   UNL     1     140.258 176.115 168.858  1.00  0.00    -0.344 OA
ATOM     13  C   UNL     1     140.020 173.620 169.920  1.00  0.00     0.179 C 
ATOM     14  C   UNL     1     140.365 174.726 170.927  1.00  0.00     0.202 C 
BRANCH  11  15
ATOM     15  O   UNL     1     139.011 173.452 167.729  1.00  0.00    -0.388 OA
ATOM     16  H   UNL     1     139.406 174.107 167.091  1.00  0.00     0.211 HD
ENDBRANCH  11  15
BRANCH  13  17
ATOM     17  O   UNL     1     141.178 173.281 169.196  1.00  0.00    -0.387 OA
ATOM     18  H   UNL     1     141.643 172.567 169.703  1.00  0.00     0.211 HD
ENDBRANCH  13  17
BRANCH  14  19
ATOM     19  O   UNL     1     141.364 174.277 171.809  1.00  0.00    -0.385 OA
ATOM     20  H   UNL     1     141.606 173.362 171.515  1.00  0.00     0.211 HD
ENDBRANCH  14  19
ENDBRANCH   7   8
ENDBRANCH   1   7
BRANCH   2  21
ATOM     21  O   UNL     1     144.933 176.124 170.239  1.00  0.00    -0.387 OA
ATOM     22  H   UNL     1     145.530 175.841 169.500  1.00  0.00     0.211 HD
ENDBRANCH   2  21
BRANCH   6  23
ATOM     23  O   UNL     1     141.736 175.637 173.304  1.00  0.00    -0.462 OA
BRANCH  23  24
ATOM     24  C   UNL     1     141.908 174.766 174.383  1.00  0.00     0.130 A 
ATOM     25  C   UNL     1     141.988 175.213 175.714  1.00  0.00     0.093 A 
ATOM     26  C   UNL     1     141.977 173.398 174.118  1.00  0.00     0.094 A 
ATOM     27  C   UNL     1     142.069 174.296 176.773  1.00  0.00     0.133 A 
ATOM     28  C   UNL     1     142.031 172.474 175.162  1.00  0.00     0.138 A 
ATOM     29  C   UNL     1     142.065 172.914 176.497  1.00  0.00     0.102 A 
ATOM     30  O   UNL     1     142.013 171.107 174.864  1.00  0.00    -0.484 OA
ATOM     31  C   UNL     1     142.022 171.885 177.560  1.00  0.00     0.174 C 
ATOM     32  C   UNL     1     142.247 170.093 175.845  1.00  0.00     0.211 C 
ATOM     33  O   UNL     1     142.237 172.179 178.767  1.00  0.00    -0.294 OA
ATOM     34  C   UNL     1     141.641 170.481 177.202  1.00  0.00     0.131 C 
BRANCH  27  35
ATOM     35  O   UNL     1     142.132 174.757 178.088  1.00  0.00    -0.507 OA
ATOM     36  H   UNL     1     141.821 175.689 178.339  1.00  0.00     0.293 HD
ENDBRANCH  27  35
BRANCH  32  37
ATOM     37  C   UNL     1     141.678 168.775 175.376  1.00  0.00    -0.007 A 
ATOM     38  C   UNL     1     141.090 168.677 174.101  1.00  0.00     0.011 A 
ATOM     39  C   UNL     1     141.812 167.611 176.158  1.00  0.00     0.011 A 
ATOM     40  C   UNL     1     140.616 167.446 173.631  1.00  0.00     0.046 A 
ATOM     41  C   UNL     1     141.334 166.384 175.687  1.00  0.00     0.046 A 
ATOM     42  C   UNL     1     140.737 166.297 174.424  1.00  0.00     0.115 A 
BRANCH  42  43
ATOM     43  O   UNL     1     140.278 165.064 173.964  1.00  0.00    -0.508 OA
ATOM     44  H   UNL     1     140.674 164.189 174.298  1.00  0.00     0.293 HD
ENDBRANCH  42  43
ENDBRANCH  32  37
ENDBRANCH  23  24
ENDBRANCH   6  23
BRANCH   3  45
ATOM     45  O   UNL     1     144.991 172.937 171.829  1.00  0.00    -0.387 OA
ATOM     46  H   UNL     1     145.191 172.582 172.737  1.00  0.00     0.211 HD
ENDBRANCH   3  45
BRANCH   4  47
ATOM     47  C   UNL     1     145.633 174.791 174.353  1.00  0.00     0.191 C 
BRANCH  47  48
ATOM     48  O   UNL     1     146.894 174.850 173.747  1.00  0.00    -0.394 OA
ATOM     49  H   UNL     1     146.745 174.647 172.788  1.00  0.00     0.210 HD
ENDBRANCH  47  48
ENDBRANCH   4  47
TORSDOF 14
ENDMDL
MODEL 2
REMARK VINA RESULT:    38.862      1.086      1.724
REMARK INTER + INTRA:          67.855
REMARK INTER:                  66.657
REMARK INTRA:                   1.198
REMARK UNBOUND:                 6.275
REMARK SMILES C[C@@H]1O[C@H](O[C@@H]2[C@@H](Oc3cc(O)c4c(c3)O[C@H](c3ccc(O)cc3)CC4=O)O[C@H](CO)[C@@H](O)[C@@H]2O)[C@H](O)[C@H](O)[C@@H]1O
REMARK SMILES IDX 6 1 34 2 32 3 29 4 28 5 7 6 5 7 4 8 1 9 2 10 40 11 3 12
REMARK SMILES IDX 38 13 36 14 41 15 39 17 37 19 35 21 8 23 9 24 10 25 15 26
REMARK SMILES IDX 11 27 14 28 13 29 16 30 26 31 17 32 27 33 25 34 12 35 18 37
REMARK SMILES IDX 19 38 24 39 20 40 23 41 21 42 22 43 33 45 30 47 31 48
REMARK H PARENT 41 16 39 18 37 20 35 22 12 36 22 44 33 46 31 49
REMARK Flexibility Score: inf
ROOT
ATOM      1  C   UNL     1     142.640 175.342 171.717  1.00  0.00     0.221 C 
ATOM      2  C   UNL     1     144.056 174.986 171.223  1.00  0.00     0.181 C 
ATOM      3  C   UNL     1     144.892 174.286 172.327  1.00  0.00     0.177 C 
ATOM      4  C   UNL     1     144.435 174.724 173.744  1.00  0.00     0.179 C 
ATOM      5  O   UNL     1     143.956 176.053 173.714  1.00  0.00    -0.332 OA
ATOM      6  C   UNL     1     142.694 176.125 173.061  1.00  0.00     0.339 C 
ENDROOT
BRANCH   1   7
ATOM      7  O   UNL     1     141.998 176.125 170.718  1.00  0.00    -0.337 OA
BRANCH   7   8
ATOM      8  C   UNL     1     142.087 175.544 169.428  1.00  0.00     0.282 C 
ATOM      9  C   UNL     1     143.813 172.492 168.290  1.00  0.00     0.041 C 
ATOM     10  C   UNL     1     142.667 173.506 168.403  1.00  0.00     0.150 C 
ATOM     11  C   UNL     1     141.276 172.826 168.557  1.00  0.00     0.174 C 
ATOM     12  O   UNL     1     142.907 174.375 169.496  1.00  0.00    -0.344 OA
ATOM     13  C   UNL     1     140.262 173.787 169.232  1.00  0.00     0.179 C 
ATOM     14  C   UNL     1     140.638 175.244 168.927  1.00  0.00     0.202 C 
BRANCH  11  15
ATOM     15  O   UNL     1     141.364 171.636 169.304  1.00  0.00    -0.388 OA
ATOM     16  H   UNL     1     142.277 171.264 169.162  1.00  0.00     0.211 HD
ENDBRANCH  11  15
BRANCH  13  17
ATOM     17  O   UNL     1     140.239 173.601 170.627  1.00  0.00    -0.387 OA
ATOM     18  H   UNL     1     140.605 172.696 170.809  1.00  0.00     0.211 HD
ENDBRANCH  13  17
BRANCH  14  19
ATOM     19  O   UNL     1     139.699 176.114 169.509  1.00  0.00    -0.385 OA
ATOM     20  H   UNL     1     140.095 177.021 169.468  1.00  0.00     0.211 HD
ENDBRANCH  14  19
ENDBRANCH   7   8
ENDBRANCH   1   7
BRANCH   2  21
ATOM     21  O   UNL     1     144.719 176.124 170.721  1.00  0.00    -0.387 OA
ATOM     22  H   UNL     1     145.696 175.979 170.814  1.00  0.00     0.211 HD
ENDBRANCH   2  21
BRANCH   6  23
ATOM     23  O   UNL     1     141.669 175.646 173.934  1.00  0.00    -0.462 OA
BRANCH  23  24
ATOM     24  C   UNL     1     141.845 174.663 174.910  1.00  0.00     0.130 A 
ATOM     25  C   UNL     1     141.954 174.963 176.280  1.00  0.00     0.093 A 
ATOM     26  C   UNL     1     141.891 173.330 174.499  1.00  0.00     0.094 A 
ATOM     27  C   UNL     1     142.038 173.936 177.232  1.00  0.00     0.133 A 
ATOM     28  C   UNL     1     141.948 172.299 175.436  1.00  0.00     0.138 A 
ATOM     29  C   UNL     1     142.010 172.592 176.810  1.00  0.00     0.102 A 
ATOM     30  O   UNL     1     141.905 170.972 174.993  1.00  0.00    -0.484 OA
ATOM     31  C   UNL     1     141.969 171.456 177.757  1.00  0.00     0.174 C 
ATOM     32  C   UNL     1     142.140 169.855 175.856  1.00  0.00     0.211 C 
ATOM     33  O   UNL     1     142.207 171.615 178.984  1.00  0.00    -0.294 OA
ATOM     34  C   UNL     1     141.561 170.103 177.257  1.00  0.00     0.131 C 
BRANCH  27  35
ATOM     35  O   UNL     1     142.129 174.252 178.588  1.00  0.00    -0.507 OA
ATOM     36  H   UNL     1     142.607 173.644 179.244  1.00  0.00     0.293 HD
ENDBRANCH  27  35
BRANCH  32  37
ATOM     37  C   UNL     1     141.544 168.603 175.258  1.00  0.00    -0.007 A 
ATOM     38  C   UNL     1     141.125 168.596 173.914  1.00  0.00     0.011 A 
ATOM     39  C   UNL     1     141.487 167.405 175.997  1.00  0.00     0.011 A 
ATOM     40  C   UNL     1     140.630 167.422 173.332  1.00  0.00     0.046 A 
ATOM     41  C   UNL     1     140.989 166.237 175.414  1.00  0.00     0.046 A 
ATOM     42  C   UNL     1     140.560 166.241 174.082  1.00  0.00     0.115 A 
BRANCH  42  43
ATOM     43  O   UNL     1     140.078 165.064 173.511  1.00  0.00    -0.508 OA
ATOM     44  H   UNL     1     140.703 164.377 173.098  1.00  0.00     0.293 HD
ENDBRANCH  42  43
ENDBRANCH  32  37
ENDBRANCH  23  24
ENDBRANCH   6  23
BRANCH   3  45
ATOM     45  O   UNL     1     144.753 172.891 172.215  1.00  0.00    -0.387 OA
ATOM     46  H   UNL     1     144.829 172.517 173.133  1.00  0.00     0.211 HD
ENDBRANCH   3  45
BRANCH   4  47
ATOM     47  C   UNL     1     145.584 174.647 174.753  1.00  0.00     0.191 C 
BRANCH  47  48
ATOM     48  O   UNL     1     146.784 175.039 174.146  1.00  0.00    -0.394 OA
ATOM     49  H   UNL     1     147.423 174.296 174.301  1.00  0.00     0.210 HD
ENDBRANCH  47  48
ENDBRANCH   4  47
TORSDOF 14
ENDMDL
MODEL 3
REMARK VINA RESULT:    39.976      2.597      6.145
REMARK INTER + INTRA:          69.621
REMARK INTER:                  68.726
REMARK INTRA:                   0.895
REMARK UNBOUND:                 6.275
REMARK SMILES C[C@@H]1O[C@H](O[C@@H]2[C@@H](Oc3cc(O)c4c(c3)O[C@H](c3ccc(O)cc3)CC4=O)O[C@H](CO)[C@@H](O)[C@@H]2O)[C@H](O)[C@H](O)[C@@H]1O
REMARK SMILES IDX 6 1 34 2 32 3 29 4 28 5 7 6 5 7 4 8 1 9 2 10 40 11 3 12
REMARK SMILES IDX 38 13 36 14 41 15 39 17 37 19 35 21 8 23 9 24 10 25 15 26
REMARK SMILES IDX 11 27 14 28 13 29 16 30 26 31 17 32 27 33 25 34 12 35 18 37
REMARK SMILES IDX 19 38 24 39 20 40 23 41 21 42 22 43 33 45 30 47 31 48
REMARK H PARENT 41 16 39 18 37 20 35 22 12 36 22 44 33 46 31 49
REMARK Flexibility Score: inf
ROOT
ATOM      1  C   UNL     1     142.274 173.459 174.905  1.00  0.00     0.221 C 
ATOM      2  C   UNL     1     142.080 174.311 176.175  1.00  0.00     0.181 C 
ATOM      3  C   UNL     1     142.176 173.452 177.465  1.00  0.00     0.177 C 
ATOM      4  C   UNL     1     141.747 171.985 177.200  1.00  0.00     0.179 C 
ATOM      5  O   UNL     1     140.765 171.939 176.184  1.00  0.00    -0.332 OA
ATOM      6  C   UNL     1     141.334 172.218 174.912  1.00  0.00     0.339 C 
ENDROOT
BRANCH   1   7
ATOM      7  O   UNL     1     142.005 174.273 173.771  1.00  0.00    -0.337 OA
BRANCH   7   8
ATOM      8  C   UNL     1     142.791 175.452 173.747  1.00  0.00     0.282 C 
ATOM      9  C   UNL     1     146.411 175.930 174.254  1.00  0.00     0.041 C 
ATOM     10  C   UNL     1     145.043 176.118 173.585  1.00  0.00     0.150 C 
ATOM     11  C   UNL     1     145.125 176.092 172.031  1.00  0.00     0.174 C 
ATOM     12  O   UNL     1     144.149 175.117 174.040  1.00  0.00    -0.344 OA
ATOM     13  C   UNL     1     143.758 175.702 171.411  1.00  0.00     0.179 C 
ATOM     14  C   UNL     1     142.618 176.125 172.348  1.00  0.00     0.202 C 
BRANCH  11  15
ATOM     15  O   UNL     1     146.117 175.198 171.583  1.00  0.00    -0.388 OA
ATOM     16  H   UNL     1     146.089 175.200 170.587  1.00  0.00     0.211 HD
ENDBRANCH  11  15
BRANCH  13  17
ATOM     17  O   UNL     1     143.680 174.314 171.189  1.00  0.00    -0.387 OA
ATOM     18  H   UNL     1     144.606 173.986 171.055  1.00  0.00     0.211 HD
ENDBRANCH  13  17
BRANCH  14  19
ATOM     19  O   UNL     1     141.377 175.804 171.769  1.00  0.00    -0.385 OA
ATOM     20  H   UNL     1     141.507 174.949 171.286  1.00  0.00     0.211 HD
ENDBRANCH  14  19
ENDBRANCH   7   8
ENDBRANCH   1   7
BRANCH   2  21
ATOM     21  O   UNL     1     140.866 175.026 176.125  1.00  0.00    -0.387 OA
ATOM     22  H   UNL     1     140.689 175.268 175.179  1.00  0.00     0.211 HD
ENDBRANCH   2  21
BRANCH   6  23
ATOM     23  O   UNL     1     142.050 171.074 174.439  1.00  0.00    -0.462 OA
BRANCH  23  24
ATOM     24  C   UNL     1     141.719 169.749 174.731  1.00  0.00     0.130 A 
ATOM     25  C   UNL     1     141.153 169.360 175.958  1.00  0.00     0.093 A 
ATOM     26  C   UNL     1     141.942 168.785 173.747  1.00  0.00     0.094 A 
ATOM     27  C   UNL     1     140.752 168.032 176.171  1.00  0.00     0.133 A 
ATOM     28  C   UNL     1     141.524 167.468 173.935  1.00  0.00     0.138 A 
ATOM     29  C   UNL     1     140.916 167.083 175.143  1.00  0.00     0.102 A 
ATOM     30  O   UNL     1     141.686 166.546 172.895  1.00  0.00    -0.484 OA
ATOM     31  C   UNL     1     140.406 165.697 175.245  1.00  0.00     0.174 C 
ATOM     32  C   UNL     1     141.458 165.142 173.056  1.00  0.00     0.211 C 
ATOM     33  O   UNL     1     140.022 165.218 176.345  1.00  0.00    -0.294 OA
ATOM     34  C   UNL     1     140.276 164.874 173.999  1.00  0.00     0.131 C 
BRANCH  27  35
ATOM     35  O   UNL     1     140.178 167.667 177.390  1.00  0.00    -0.507 OA
ATOM     36  H   UNL     1     139.172 167.606 177.505  1.00  0.00     0.293 HD
ENDBRANCH  27  35
BRANCH  32  37
ATOM     37  C   UNL     1     141.212 164.499 171.712  1.00  0.00    -0.007 A 
ATOM     38  C   UNL     1     142.237 164.467 170.749  1.00  0.00     0.011 A 
ATOM     39  C   UNL     1     139.997 163.840 171.439  1.00  0.00     0.011 A 
ATOM     40  C   UNL     1     142.040 163.818 169.524  1.00  0.00     0.046 A 
ATOM     41  C   UNL     1     139.803 163.196 170.213  1.00  0.00     0.046 A 
ATOM     42  C   UNL     1     140.821 163.182 169.254  1.00  0.00     0.115 A 
BRANCH  42  43
ATOM     43  O   UNL     1     140.615 162.524 168.042  1.00  0.00    -0.508 OA
ATOM     44  H   UNL     1     139.893 161.816 167.936  1.00  0.00     0.293 HD
ENDBRANCH  42  43
ENDBRANCH  32  37
ENDBRANCH  23  24
ENDBRANCH   6  23
BRANCH   3  45
ATOM     45  O   UNL     1     143.499 173.461 177.942  1.00  0.00    -0.387 OA
ATOM     46  H   UNL     1     144.083 173.193 177.183  1.00  0.00     0.211 HD
ENDBRANCH   3  45
BRANCH   4  47
ATOM     47  C   UNL     1     141.171 171.332 178.460  1.00  0.00     0.191 C 
BRANCH  47  48
ATOM     48  O   UNL     1     139.789 171.153 178.319  1.00  0.00    -0.394 OA
ATOM     49  H   UNL     1     139.502 171.790 177.615  1.00  0.00     0.210 HD
ENDBRANCH  47  48
ENDBRANCH   4  47
TORSDOF 14
ENDMDL
