MODEL 1
REMARK VINA RESULT:    -4.475      0.000      0.000
REMARK INTER + INTRA:          -9.279
REMARK INTER:                  -7.614
REMARK INTRA:                  -1.665
REMARK UNBOUND:                -1.665
REMARK SMILES CCCCCCCCCCCCCC(=O)[O-]
REMARK SMILES IDX 8 1 9 2 10 3 11 4 12 5 13 6 14 7 15 8 16 9 7 10 6 11 5 12
REMARK SMILES IDX 4 13 3 14 2 15 1 16
REMARK H PARENT
REMARK Flexibility Score: inf
ROOT
ATOM      1  C   UNL     1      14.671 -33.126  21.043  1.00  0.00     0.000 C 
ENDROOT
BRANCH   1   2
ATOM      2  C   UNL     1      15.046 -33.745  22.399  1.00  0.00     0.000 C 
BRANCH   2   3
ATOM      3  C   UNL     1      15.596 -32.679  23.355  1.00  0.00     0.000 C 
BRANCH   3   4
ATOM      4  C   UNL     1      14.946 -31.314  23.091  1.00  0.00     0.000 C 
BRANCH   4   5
ATOM      5  C   UNL     1      13.536 -31.189  23.694  1.00  0.00     0.006 C 
BRANCH   5   6
ATOM      6  C   UNL     1      12.548 -30.399  22.818  1.00  0.00     0.053 C 
BRANCH   6   7
ATOM      7  C   UNL     1      12.173 -29.079  23.421  1.00  0.00     0.041 C 
ATOM      8  O   UNL     1      11.145 -28.471  23.021  1.00  0.00    -0.550 OA
ATOM      9  O   UNL     1      12.937 -28.535  24.445  1.00  0.00    -0.550 OA
ENDBRANCH   6   7
ENDBRANCH   5   6
ENDBRANCH   4   5
ENDBRANCH   3   4
ENDBRANCH   2   3
ENDBRANCH   1   2
BRANCH   1  10
ATOM     10  C   UNL     1      14.897 -34.090  19.867  1.00  0.00     0.000 C 
BRANCH  10  11
ATOM     11  C   UNL     1      15.876 -35.224  20.213  1.00  0.00    -0.000 C 
BRANCH  11  12
ATOM     12  C   UNL     1      17.133 -35.208  19.328  1.00  0.00    -0.000 C 
BRANCH  12  13
ATOM     13  C   UNL     1      17.989 -33.945  19.533  1.00  0.00    -0.000 C 
BRANCH  13  14
ATOM     14  C   UNL     1      18.507 -33.811  20.973  1.00  0.00    -0.000 C 
BRANCH  14  15
ATOM     15  C   UNL     1      18.870 -32.364  21.337  1.00  0.00    -0.003 C 
ATOM     16  C   UNL     1      17.913 -31.375  20.677  1.00  0.00     0.004 C 
ENDBRANCH  14  15
ENDBRANCH  13  14
ENDBRANCH  12  13
ENDBRANCH  11  12
ENDBRANCH  10  11
ENDBRANCH   1  10
TORSDOF 12
ENDMDL
MODEL 2
REMARK VINA RESULT:    -4.461      1.023      2.136
REMARK INTER + INTRA:          -9.255
REMARK INTER:                  -7.645
REMARK INTRA:                  -1.610
REMARK UNBOUND:                -1.665
REMARK SMILES CCCCCCCCCCCCCC(=O)[O-]
REMARK SMILES IDX 8 1 9 2 10 3 11 4 12 5 13 6 14 7 15 8 16 9 7 10 6 11 5 12
REMARK SMILES IDX 4 13 3 14 2 15 1 16
REMARK H PARENT
REMARK Flexibility Score: inf
ROOT
ATOM      1  C   UNL     1      15.500 -34.735  20.542  1.00  0.00     0.000 C 
ENDROOT
BRANCH   1   2
ATOM      2  C   UNL     1      14.590 -33.515  20.330  1.00  0.00     0.000 C 
BRANCH   2   3
ATOM      3  C   UNL     1      14.386 -32.747  21.642  1.00  0.00     0.000 C 
BRANCH   3   4
ATOM      4  C   UNL     1      13.680 -31.407  21.392  1.00  0.00     0.000 C 
BRANCH   4   5
ATOM      5  C   UNL     1      12.669 -31.042  22.493  1.00  0.00     0.006 C 
BRANCH   5   6
ATOM      6  C   UNL     1      13.265 -30.200  23.635  1.00  0.00     0.053 C 
BRANCH   6   7
ATOM      7  C   UNL     1      12.434 -28.994  23.955  1.00  0.00     0.041 C 
ATOM      8  O   UNL     1      12.816 -28.178  24.835  1.00  0.00    -0.550 OA
ATOM      9  O   UNL     1      11.257 -28.751  23.259  1.00  0.00    -0.550 OA
ENDBRANCH   6   7
ENDBRANCH   5   6
ENDBRANCH   4   5
ENDBRANCH   3   4
ENDBRANCH   2   3
ENDBRANCH   1   2
BRANCH   1  10
ATOM     10  C   UNL     1      16.548 -34.895  19.430  1.00  0.00     0.000 C 
BRANCH  10  11
ATOM     11  C   UNL     1      17.631 -33.804  19.478  1.00  0.00    -0.000 C 
BRANCH  11  12
ATOM     12  C   UNL     1      18.433 -33.828  20.790  1.00  0.00    -0.000 C 
BRANCH  12  13
ATOM     13  C   UNL     1      18.455 -32.462  21.498  1.00  0.00    -0.000 C 
BRANCH  13  14
ATOM     14  C   UNL     1      17.770 -31.359  20.676  1.00  0.00    -0.000 C 
BRANCH  14  15
ATOM     15  C   UNL     1      17.201 -30.236  21.554  1.00  0.00    -0.003 C 
ATOM     16  C   UNL     1      17.120 -30.667  23.016  1.00  0.00     0.004 C 
ENDBRANCH  14  15
ENDBRANCH  13  14
ENDBRANCH  12  13
ENDBRANCH  11  12
ENDBRANCH  10  11
ENDBRANCH   1  10
TORSDOF 12
ENDMDL
MODEL 3
REMARK VINA RESULT:    -4.346      1.293      2.047
REMARK INTER + INTRA:          -9.059
REMARK INTER:                  -7.126
REMARK INTRA:                  -1.933
REMARK UNBOUND:                -1.665
REMARK SMILES CCCCCCCCCCCCCC(=O)[O-]
REMARK SMILES IDX 8 1 9 2 10 3 11 4 12 5 13 6 14 7 15 8 16 9 7 10 6 11 5 12
REMARK SMILES IDX 4 13 3 14 2 15 1 16
REMARK H PARENT
REMARK Flexibility Score: inf
ROOT
ATOM      1  C   UNL     1      15.825 -34.513  21.019  1.00  0.00     0.000 C 
ENDROOT
BRANCH   1   2
ATOM      2  C   UNL     1      14.903 -33.495  21.709  1.00  0.00     0.000 C 
BRANCH   2   3
ATOM      3  C   UNL     1      14.994 -33.619  23.236  1.00  0.00     0.000 C 
BRANCH   3   4
ATOM      4  C   UNL     1      14.236 -32.477  23.927  1.00  0.00     0.000 C 
BRANCH   4   5
ATOM      5  C   UNL     1      13.630 -31.468  22.937  1.00  0.00     0.006 C 
BRANCH   5   6
ATOM      6  C   UNL     1      13.226 -30.128  23.577  1.00  0.00     0.053 C 
BRANCH   6   7
ATOM      7  C   UNL     1      12.088 -29.467  22.859  1.00  0.00     0.041 C 
ATOM      8  O   UNL     1      11.436 -30.101  21.988  1.00  0.00    -0.550 OA
ATOM      9  O   UNL     1      11.725 -28.165  23.174  1.00  0.00    -0.550 OA
ENDBRANCH   6   7
ENDBRANCH   5   6
ENDBRANCH   4   5
ENDBRANCH   3   4
ENDBRANCH   2   3
ENDBRANCH   1   2
BRANCH   1  10
ATOM     10  C   UNL     1      17.040 -34.894  21.880  1.00  0.00     0.000 C 
BRANCH  10  11
ATOM     11  C   UNL     1      18.375 -34.648  21.158  1.00  0.00    -0.000 C 
BRANCH  11  12
ATOM     12  C   UNL     1      18.321 -33.432  20.218  1.00  0.00    -0.000 C 
BRANCH  12  13
ATOM     13  C   UNL     1      18.764 -32.129  20.906  1.00  0.00    -0.000 C 
BRANCH  13  14
ATOM     14  C   UNL     1      17.658 -31.062  20.919  1.00  0.00    -0.000 C 
BRANCH  14  15
ATOM     15  C   UNL     1      17.252 -30.651  22.341  1.00  0.00    -0.003 C 
ATOM     16  C   UNL     1      18.017 -31.458  23.386  1.00  0.00     0.004 C 
ENDBRANCH  14  15
ENDBRANCH  13  14
ENDBRANCH  12  13
ENDBRANCH  11  12
ENDBRANCH  10  11
ENDBRANCH   1  10
TORSDOF 12
ENDMDL
MODEL 4
REMARK VINA RESULT:    -4.342      1.231      2.292
REMARK INTER + INTRA:          -9.052
REMARK INTER:                  -7.213
REMARK INTRA:                  -1.839
REMARK UNBOUND:                -1.665
REMARK SMILES CCCCCCCCCCCCCC(=O)[O-]
REMARK SMILES IDX 8 1 9 2 10 3 11 4 12 5 13 6 14 7 15 8 16 9 7 10 6 11 5 12
REMARK SMILES IDX 4 13 3 14 2 15 1 16
REMARK H PARENT
REMARK Flexibility Score: inf
ROOT
ATOM      1  C   UNL     1      16.143 -34.505  19.372  1.00  0.00     0.000 C 
ENDROOT
BRANCH   1   2
ATOM      2  C   UNL     1      15.003 -34.701  20.384  1.00  0.00     0.000 C 
BRANCH   2   3
ATOM      3  C   UNL     1      14.788 -33.434  21.222  1.00  0.00     0.000 C 
BRANCH   3   4
ATOM      4  C   UNL     1      15.232 -33.654  22.675  1.00  0.00     0.000 C 
BRANCH   4   5
ATOM      5  C   UNL     1      15.147 -32.378  23.531  1.00  0.00     0.006 C 
BRANCH   5   6
ATOM      6  C   UNL     1      13.736 -32.078  24.068  1.00  0.00     0.053 C 
BRANCH   6   7
ATOM      7  C   UNL     1      13.170 -30.803  23.518  1.00  0.00     0.041 C 
ATOM      8  O   UNL     1      13.258 -29.735  24.179  1.00  0.00    -0.550 OA
ATOM      9  O   UNL     1      12.577 -30.786  22.262  1.00  0.00    -0.550 OA
ENDBRANCH   6   7
ENDBRANCH   5   6
ENDBRANCH   4   5
ENDBRANCH   3   4
ENDBRANCH   2   3
ENDBRANCH   1   2
BRANCH   1  10
ATOM     10  C   UNL     1      17.122 -35.689  19.342  1.00  0.00     0.000 C 
BRANCH  10  11
ATOM     11  C   UNL     1      17.506 -36.173  20.750  1.00  0.00    -0.000 C 
BRANCH  11  12
ATOM     12  C   UNL     1      18.825 -35.558  21.245  1.00  0.00    -0.000 C 
BRANCH  12  13
ATOM     13  C   UNL     1      18.612 -34.502  22.346  1.00  0.00    -0.000 C 
BRANCH  13  14
ATOM     14  C   UNL     1      19.278 -33.159  22.012  1.00  0.00    -0.000 C 
BRANCH  14  15
ATOM     15  C   UNL     1      18.790 -32.573  20.680  1.00  0.00    -0.003 C 
ATOM     16  C   UNL     1      17.858 -31.386  20.909  1.00  0.00     0.004 C 
ENDBRANCH  14  15
ENDBRANCH  13  14
ENDBRANCH  12  13
ENDBRANCH  11  12
ENDBRANCH  10  11
ENDBRANCH   1  10
TORSDOF 12
ENDMDL
MODEL 5
REMARK VINA RESULT:    -4.321      3.824      5.853
REMARK INTER + INTRA:          -9.017
REMARK INTER:                  -6.904
REMARK INTRA:                  -2.114
REMARK UNBOUND:                -1.665
REMARK SMILES CCCCCCCCCCCCCC(=O)[O-]
REMARK SMILES IDX 8 1 9 2 10 3 11 4 12 5 13 6 14 7 15 8 16 9 7 10 6 11 5 12
REMARK SMILES IDX 4 13 3 14 2 15 1 16
REMARK H PARENT
REMARK Flexibility Score: inf
ROOT
ATOM      1  C   UNL     1      13.655 -30.742  21.421  1.00  0.00     0.000 C 
ENDROOT
BRANCH   1   2
ATOM      2  C   UNL     1      13.872 -32.198  20.979  1.00  0.00     0.000 C 
BRANCH   2   3
ATOM      3  C   UNL     1      14.609 -32.996  22.063  1.00  0.00     0.000 C 
BRANCH   3   4
ATOM      4  C   UNL     1      15.279 -34.243  21.469  1.00  0.00     0.000 C 
BRANCH   4   5
ATOM      5  C   UNL     1      15.202 -34.296  19.933  1.00  0.00     0.006 C 
BRANCH   5   6
ATOM      6  C   UNL     1      16.573 -34.378  19.240  1.00  0.00     0.053 C 
BRANCH   6   7
ATOM      7  C   UNL     1      17.383 -35.551  19.704  1.00  0.00     0.041 C 
ATOM      8  O   UNL     1      18.493 -35.370  20.270  1.00  0.00    -0.550 OA
ATOM      9  O   UNL     1      16.899 -36.843  19.542  1.00  0.00    -0.550 OA
ENDBRANCH   6   7
ENDBRANCH   5   6
ENDBRANCH   4   5
ENDBRANCH   3   4
ENDBRANCH   2   3
ENDBRANCH   1   2
BRANCH   1  10
ATOM     10  C   UNL     1      14.010 -30.509  22.899  1.00  0.00     0.000 C 
BRANCH  10  11
ATOM     11  C   UNL     1      15.127 -29.469  23.080  1.00  0.00    -0.000 C 
BRANCH  11  12
ATOM     12  C   UNL     1      15.864 -29.160  21.767  1.00  0.00    -0.000 C 
BRANCH  12  13
ATOM     13  C   UNL     1      17.322 -29.653  21.772  1.00  0.00    -0.000 C 
BRANCH  13  14
ATOM     14  C   UNL     1      17.517 -30.929  20.938  1.00  0.00    -0.000 C 
BRANCH  14  15
ATOM     15  C   UNL     1      18.303 -32.012  21.691  1.00  0.00    -0.003 C 
ATOM     16  C   UNL     1      17.958 -32.009  23.177  1.00  0.00     0.004 C 
ENDBRANCH  14  15
ENDBRANCH  13  14
ENDBRANCH  12  13
ENDBRANCH  11  12
ENDBRANCH  10  11
ENDBRANCH   1  10
TORSDOF 12
ENDMDL
MODEL 6
REMARK VINA RESULT:    -4.289      3.224      6.016
REMARK INTER + INTRA:          -8.963
REMARK INTER:                  -7.486
REMARK INTRA:                  -1.477
REMARK UNBOUND:                -1.665
REMARK SMILES CCCCCCCCCCCCCC(=O)[O-]
REMARK SMILES IDX 8 1 9 2 10 3 11 4 12 5 13 6 14 7 15 8 16 9 7 10 6 11 5 12
REMARK SMILES IDX 4 13 3 14 2 15 1 16
REMARK H PARENT
REMARK Flexibility Score: inf
ROOT
ATOM      1  C   UNL     1      16.499 -30.877  23.397  1.00  0.00     0.000 C 
ENDROOT
BRANCH   1   2
ATOM      2  C   UNL     1      17.236 -32.102  23.959  1.00  0.00     0.000 C 
BRANCH   2   3
ATOM      3  C   UNL     1      16.255 -33.244  24.258  1.00  0.00     0.000 C 
BRANCH   3   4
ATOM      4  C   UNL     1      16.778 -34.578  23.707  1.00  0.00     0.000 C 
BRANCH   4   5
ATOM      5  C   UNL     1      16.719 -34.661  22.172  1.00  0.00     0.006 C 
BRANCH   5   6
ATOM      6  C   UNL     1      15.300 -34.531  21.592  1.00  0.00     0.053 C 
BRANCH   6   7
ATOM      7  C   UNL     1      15.287 -34.549  20.093  1.00  0.00     0.041 C 
ATOM      8  O   UNL     1      14.482 -33.816  19.459  1.00  0.00    -0.550 OA
ATOM      9  O   UNL     1      16.184 -35.347  19.395  1.00  0.00    -0.550 OA
ENDBRANCH   6   7
ENDBRANCH   5   6
ENDBRANCH   4   5
ENDBRANCH   3   4
ENDBRANCH   2   3
ENDBRANCH   1   2
BRANCH   1  10
ATOM     10  C   UNL     1      16.305 -30.947  21.874  1.00  0.00     0.000 C 
BRANCH  10  11
ATOM     11  C   UNL     1      14.889 -30.533  21.440  1.00  0.00    -0.000 C 
BRANCH  11  12
ATOM     12  C   UNL     1      13.797 -31.398  22.090  1.00  0.00    -0.000 C 
BRANCH  12  13
ATOM     13  C   UNL     1      12.668 -30.559  22.715  1.00  0.00    -0.000 C 
BRANCH  13  14
ATOM     14  C   UNL     1      13.143 -29.733  23.920  1.00  0.00    -0.000 C 
BRANCH  14  15
ATOM     15  C   UNL     1      12.293 -28.474  24.144  1.00  0.00    -0.003 C 
ATOM     16  C   UNL     1      11.259 -28.304  23.034  1.00  0.00     0.004 C 
ENDBRANCH  14  15
ENDBRANCH  13  14
ENDBRANCH  12  13
ENDBRANCH  11  12
ENDBRANCH  10  11
ENDBRANCH   1  10
TORSDOF 12
ENDMDL
MODEL 7
REMARK VINA RESULT:    -4.236      1.671      3.024
REMARK INTER + INTRA:          -8.872
REMARK INTER:                  -7.199
REMARK INTRA:                  -1.673
REMARK UNBOUND:                -1.665
REMARK SMILES CCCCCCCCCCCCCC(=O)[O-]
REMARK SMILES IDX 8 1 9 2 10 3 11 4 12 5 13 6 14 7 15 8 16 9 7 10 6 11 5 12
REMARK SMILES IDX 4 13 3 14 2 15 1 16
REMARK H PARENT
REMARK Flexibility Score: inf
ROOT
ATOM      1  C   UNL     1      17.583 -32.071  20.772  1.00  0.00     0.000 C 
ENDROOT
BRANCH   1   2
ATOM      2  C   UNL     1      17.636 -32.085  22.308  1.00  0.00     0.000 C 
BRANCH   2   3
ATOM      3  C   UNL     1      16.426 -32.828  22.892  1.00  0.00     0.000 C 
BRANCH   3   4
ATOM      4  C   UNL     1      15.196 -31.912  22.956  1.00  0.00     0.000 C 
BRANCH   4   5
ATOM      5  C   UNL     1      14.094 -32.311  21.959  1.00  0.00     0.006 C 
BRANCH   5   6
ATOM      6  C   UNL     1      13.522 -31.131  21.154  1.00  0.00     0.053 C 
BRANCH   6   7
ATOM      7  C   UNL     1      12.238 -30.610  21.728  1.00  0.00     0.041 C 
ATOM      8  O   UNL     1      12.244 -29.971  22.813  1.00  0.00    -0.550 OA
ATOM      9  O   UNL     1      11.041 -30.801  21.050  1.00  0.00    -0.550 OA
ENDBRANCH   6   7
ENDBRANCH   5   6
ENDBRANCH   4   5
ENDBRANCH   3   4
ENDBRANCH   2   3
ENDBRANCH   1   2
BRANCH   1  10
ATOM     10  C   UNL     1      18.409 -33.202  20.139  1.00  0.00     0.000 C 
BRANCH  10  11
ATOM     11  C   UNL     1      17.655 -33.921  19.008  1.00  0.00    -0.000 C 
BRANCH  11  12
ATOM     12  C   UNL     1      16.213 -34.284  19.400  1.00  0.00    -0.000 C 
BRANCH  12  13
ATOM     13  C   UNL     1      16.141 -35.502  20.337  1.00  0.00    -0.000 C 
BRANCH  13  14
ATOM     14  C   UNL     1      17.021 -36.668  19.860  1.00  0.00    -0.000 C 
BRANCH  14  15
ATOM     15  C   UNL     1      18.035 -37.116  20.921  1.00  0.00    -0.003 C 
ATOM     16  C   UNL     1      18.017 -36.181  22.127  1.00  0.00     0.004 C 
ENDBRANCH  14  15
ENDBRANCH  13  14
ENDBRANCH  12  13
ENDBRANCH  11  12
ENDBRANCH  10  11
ENDBRANCH   1  10
TORSDOF 12
ENDMDL
MODEL 8
REMARK VINA RESULT:    -4.227      3.906      6.662
REMARK INTER + INTRA:          -8.856
REMARK INTER:                  -7.375
REMARK INTRA:                  -1.482
REMARK UNBOUND:                -1.665
REMARK SMILES CCCCCCCCCCCCCC(=O)[O-]
REMARK SMILES IDX 8 1 9 2 10 3 11 4 12 5 13 6 14 7 15 8 16 9 7 10 6 11 5 12
REMARK SMILES IDX 4 13 3 14 2 15 1 16
REMARK H PARENT
REMARK Flexibility Score: inf
ROOT
ATOM      1  C   UNL     1      17.061 -30.230  22.305  1.00  0.00     0.000 C 
ENDROOT
BRANCH   1   2
ATOM      2  C   UNL     1      17.809 -31.539  22.005  1.00  0.00     0.000 C 
BRANCH   2   3
ATOM      3  C   UNL     1      17.673 -31.921  20.525  1.00  0.00     0.000 C 
BRANCH   3   4
ATOM      4  C   UNL     1      18.264 -33.313  20.259  1.00  0.00     0.000 C 
BRANCH   4   5
ATOM      5  C   UNL     1      17.632 -34.015  19.044  1.00  0.00     0.006 C 
BRANCH   5   6
ATOM      6  C   UNL     1      16.582 -35.078  19.412  1.00  0.00     0.053 C 
BRANCH   6   7
ATOM      7  C   UNL     1      17.199 -36.333  19.953  1.00  0.00     0.041 C 
ATOM      8  O   UNL     1      17.316 -36.496  21.196  1.00  0.00    -0.550 OA
ATOM      9  O   UNL     1      17.615 -37.337  19.087  1.00  0.00    -0.550 OA
ENDBRANCH   6   7
ENDBRANCH   5   6
ENDBRANCH   4   5
ENDBRANCH   3   4
ENDBRANCH   2   3
ENDBRANCH   1   2
BRANCH   1  10
ATOM     10  C   UNL     1      15.604 -30.253  21.816  1.00  0.00     0.000 C 
BRANCH  10  11
ATOM     11  C   UNL     1      14.684 -29.355  22.660  1.00  0.00    -0.000 C 
BRANCH  11  12
ATOM     12  C   UNL     1      13.595 -30.153  23.395  1.00  0.00    -0.000 C 
BRANCH  12  13
ATOM     13  C   UNL     1      13.643 -31.658  23.076  1.00  0.00    -0.000 C 
BRANCH  13  14
ATOM     14  C   UNL     1      13.986 -32.512  24.306  1.00  0.00    -0.000 C 
BRANCH  14  15
ATOM     15  C   UNL     1      15.086 -33.544  24.019  1.00  0.00    -0.003 C 
ATOM     16  C   UNL     1      15.125 -33.909  22.538  1.00  0.00     0.004 C 
ENDBRANCH  14  15
ENDBRANCH  13  14
ENDBRANCH  12  13
ENDBRANCH  11  12
ENDBRANCH  10  11
ENDBRANCH   1  10
TORSDOF 12
ENDMDL
MODEL 9
REMARK VINA RESULT:    -4.223      0.838      2.756
REMARK INTER + INTRA:          -8.850
REMARK INTER:                  -7.167
REMARK INTRA:                  -1.682
REMARK UNBOUND:                -1.665
REMARK SMILES CCCCCCCCCCCCCC(=O)[O-]
REMARK SMILES IDX 8 1 9 2 10 3 11 4 12 5 13 6 14 7 15 8 16 9 7 10 6 11 5 12
REMARK SMILES IDX 4 13 3 14 2 15 1 16
REMARK H PARENT
REMARK Flexibility Score: inf
ROOT
ATOM      1  C   UNL     1      17.736 -31.118  20.892  1.00  0.00     0.000 C 
ENDROOT
BRANCH   1   2
ATOM      2  C   UNL     1      17.193 -31.260  22.323  1.00  0.00     0.000 C 
BRANCH   2   3
ATOM      3  C   UNL     1      15.674 -31.044  22.357  1.00  0.00     0.000 C 
BRANCH   3   4
ATOM      4  C   UNL     1      15.020 -31.906  23.445  1.00  0.00     0.000 C 
BRANCH   4   5
ATOM      5  C   UNL     1      13.493 -31.729  23.519  1.00  0.00     0.006 C 
BRANCH   5   6
ATOM      6  C   UNL     1      12.935 -30.692  22.528  1.00  0.00     0.053 C 
BRANCH   6   7
ATOM      7  C   UNL     1      12.326 -29.508  23.217  1.00  0.00     0.041 C 
ATOM      8  O   UNL     1      12.786 -29.111  24.320  1.00  0.00    -0.550 OA
ATOM      9  O   UNL     1      11.272 -28.822  22.628  1.00  0.00    -0.550 OA
ENDBRANCH   6   7
ENDBRANCH   5   6
ENDBRANCH   4   5
ENDBRANCH   3   4
ENDBRANCH   2   3
ENDBRANCH   1   2
BRANCH   1  10
ATOM     10  C   UNL     1      18.658 -32.281  20.489  1.00  0.00     0.000 C 
BRANCH  10  11
ATOM     11  C   UNL     1      18.744 -33.369  21.572  1.00  0.00    -0.000 C 
BRANCH  11  12
ATOM     12  C   UNL     1      18.476 -34.777  21.016  1.00  0.00    -0.000 C 
BRANCH  12  13
ATOM     13  C   UNL     1      17.564 -34.763  19.777  1.00  0.00    -0.000 C 
BRANCH  13  14
ATOM     14  C   UNL     1      16.233 -35.494  20.015  1.00  0.00    -0.000 C 
BRANCH  14  15
ATOM     15  C   UNL     1      15.278 -34.700  20.918  1.00  0.00    -0.003 C 
ATOM     16  C   UNL     1      14.534 -33.630  20.126  1.00  0.00     0.004 C 
ENDBRANCH  14  15
ENDBRANCH  13  14
ENDBRANCH  12  13
ENDBRANCH  11  12
ENDBRANCH  10  11
ENDBRANCH   1  10
TORSDOF 12
ENDMDL
