MODEL 1
REMARK VINA RESULT:    -6.369      0.000      0.000
REMARK INTER + INTRA:          -7.184
REMARK INTER:                  -6.928
REMARK INTRA:                  -0.256
REMARK UNBOUND:                -0.256
REMARK SMILES C=C1C[C@@]2(O)O[C@@]3(C[C@@H]2C(C)C)[C@@H](C)CC[C@@H]13
REMARK SMILES IDX 14 1 13 2 15 3 16 4 17 5 7 6 8 7 9 8 4 9 6 10 3 11 2 12 1 13
REMARK SMILES IDX 10 14 11 15 12 16 5 17
REMARK H PARENT 5 18
REMARK Flexibility Score: inf
ROOT
ATOM      1  C   UNL     1      15.604 -24.624  15.511  1.00  0.00     0.011 C 
ATOM      2  C   UNL     1      14.893 -25.736  16.296  1.00  0.00     0.019 C 
ATOM      3  C   UNL     1      15.674 -26.154  17.550  1.00  0.00     0.007 C 
ATOM      4  C   UNL     1      14.644 -26.429  18.649  1.00  0.00     0.011 C 
ATOM      5  C   UNL     1      13.269 -26.304  17.994  1.00  0.00     0.047 C 
ATOM      6  C   UNL     1      13.492 -25.357  16.800  1.00  0.00     0.081 C 
ATOM      7  C   UNL     1      12.384 -25.487  15.751  1.00  0.00     0.046 C 
ATOM      8  C   UNL     1      11.370 -24.430  16.189  1.00  0.00     0.054 C 
ATOM      9  C   UNL     1      12.073 -23.763  17.410  1.00  0.00     0.173 C 
ATOM     10  O   UNL     1      13.451 -24.023  17.258  1.00  0.00    -0.342 OA
ATOM     11  C   UNL     1      11.609 -24.399  18.749  1.00  0.00     0.096 C 
ATOM     12  C   UNL     1      12.206 -25.778  18.948  1.00  0.00    -0.066 C 
ATOM     13  C   UNL     1      11.800 -26.532  19.980  1.00  0.00     0.008 C 
ENDROOT
BRANCH   8  14
ATOM     14  C   UNL     1      10.945 -23.502  15.003  1.00  0.00    -0.009 C 
ATOM     15  C   UNL     1      12.151 -23.056  14.164  1.00  0.00     0.008 C 
ATOM     16  C   UNL     1       9.834 -24.070  14.097  1.00  0.00     0.008 C 
ENDBRANCH   8  14
BRANCH   9  17
ATOM     17  O   UNL     1      11.841 -22.379  17.459  1.00  0.00    -0.365 OA
ATOM     18  H   UNL     1      12.398 -21.958  16.752  1.00  0.00     0.214 HD
ENDBRANCH   9  17
TORSDOF 2
ENDMDL
MODEL 2
REMARK VINA RESULT:    -6.162      2.141      4.622
REMARK INTER + INTRA:          -6.959
REMARK INTER:                  -6.666
REMARK INTRA:                  -0.293
REMARK UNBOUND:                -0.256
REMARK SMILES C=C1C[C@@]2(O)O[C@@]3(C[C@@H]2C(C)C)[C@@H](C)CC[C@@H]13
REMARK SMILES IDX 14 1 13 2 15 3 16 4 17 5 7 6 8 7 9 8 4 9 6 10 3 11 2 12 1 13
REMARK SMILES IDX 10 14 11 15 12 16 5 17
REMARK H PARENT 5 18
REMARK Flexibility Score: inf
ROOT
ATOM      1  C   UNL     1      13.911 -25.551  16.198  1.00  0.00     0.011 C 
ATOM      2  C   UNL     1      14.116 -24.246  15.417  1.00  0.00     0.019 C 
ATOM      3  C   UNL     1      14.846 -24.473  14.086  1.00  0.00     0.007 C 
ATOM      4  C   UNL     1      14.211 -23.531  13.059  1.00  0.00     0.011 C 
ATOM      5  C   UNL     1      13.212 -22.665  13.827  1.00  0.00     0.047 C 
ATOM      6  C   UNL     1      12.815 -23.519  15.046  1.00  0.00     0.081 C 
ATOM      7  C   UNL     1      12.220 -22.668  16.172  1.00  0.00     0.046 C 
ATOM      8  C   UNL     1      10.722 -22.696  15.870  1.00  0.00     0.054 C 
ATOM      9  C   UNL     1      10.638 -23.640  14.632  1.00  0.00     0.173 C 
ATOM     10  O   UNL     1      11.807 -24.428  14.661  1.00  0.00    -0.342 OA
ATOM     11  C   UNL     1      10.632 -22.835  13.304  1.00  0.00     0.096 C 
ATOM     12  C   UNL     1      12.004 -22.272  12.988  1.00  0.00    -0.066 C 
ATOM     13  C   UNL     1      12.153 -21.430  11.955  1.00  0.00     0.008 C 
ENDROOT
BRANCH   8  14
ATOM     14  C   UNL     1       9.880 -23.079  17.132  1.00  0.00    -0.009 C 
ATOM     15  C   UNL     1      10.771 -23.505  18.308  1.00  0.00     0.008 C 
ATOM     16  C   UNL     1       8.858 -22.016  17.581  1.00  0.00     0.008 C 
ENDBRANCH   8  14
BRANCH   9  17
ATOM     17  O   UNL     1       9.498 -24.459  14.672  1.00  0.00    -0.365 OA
ATOM     18  H   UNL     1       9.691 -25.209  15.294  1.00  0.00     0.214 HD
ENDBRANCH   9  17
TORSDOF 2
ENDMDL
MODEL 3
REMARK VINA RESULT:    -6.082      1.413      4.961
REMARK INTER + INTRA:          -6.872
REMARK INTER:                  -6.575
REMARK INTRA:                  -0.297
REMARK UNBOUND:                -0.256
REMARK SMILES C=C1C[C@@]2(O)O[C@@]3(C[C@@H]2C(C)C)[C@@H](C)CC[C@@H]13
REMARK SMILES IDX 14 1 13 2 15 3 16 4 17 5 7 6 8 7 9 8 4 9 6 10 3 11 2 12 1 13
REMARK SMILES IDX 10 14 11 15 12 16 5 17
REMARK H PARENT 5 18
REMARK Flexibility Score: inf
ROOT
ATOM      1  C   UNL     1      11.395 -24.140  18.995  1.00  0.00     0.011 C 
ATOM      2  C   UNL     1      11.000 -24.180  17.511  1.00  0.00     0.019 C 
ATOM      3  C   UNL     1       9.965 -23.104  17.156  1.00  0.00     0.007 C 
ATOM      4  C   UNL     1      10.325 -22.577  15.765  1.00  0.00     0.011 C 
ATOM      5  C   UNL     1      11.482 -23.440  15.261  1.00  0.00     0.047 C 
ATOM      6  C   UNL     1      12.169 -23.953  16.541  1.00  0.00     0.081 C 
ATOM      7  C   UNL     1      13.022 -25.197  16.273  1.00  0.00     0.046 C 
ATOM      8  C   UNL     1      14.400 -24.609  15.965  1.00  0.00     0.054 C 
ATOM      9  C   UNL     1      14.177 -23.080  16.174  1.00  0.00     0.173 C 
ATOM     10  O   UNL     1      13.052 -22.960  17.017  1.00  0.00    -0.342 OA
ATOM     11  C   UNL     1      13.852 -22.365  14.834  1.00  0.00     0.096 C 
ATOM     12  C   UNL     1      12.444 -22.674  14.364  1.00  0.00    -0.066 C 
ATOM     13  C   UNL     1      12.044 -22.259  13.154  1.00  0.00     0.008 C 
ENDROOT
BRANCH   8  14
ATOM     14  C   UNL     1      15.528 -25.297  16.802  1.00  0.00    -0.009 C 
ATOM     15  C   UNL     1      14.954 -26.223  17.885  1.00  0.00     0.008 C 
ATOM     16  C   UNL     1      16.599 -26.032  15.972  1.00  0.00     0.008 C 
ENDBRANCH   8  14
BRANCH   9  17
ATOM     17  O   UNL     1      15.292 -22.462  16.761  1.00  0.00    -0.365 OA
ATOM     18  H   UNL     1      16.071 -23.065  16.630  1.00  0.00     0.214 HD
ENDBRANCH   9  17
TORSDOF 2
ENDMDL
MODEL 4
REMARK VINA RESULT:    -6.074     13.935     15.625
REMARK INTER + INTRA:          -6.863
REMARK INTER:                  -6.545
REMARK INTRA:                  -0.318
REMARK UNBOUND:                -0.256
REMARK SMILES C=C1C[C@@]2(O)O[C@@]3(C[C@@H]2C(C)C)[C@@H](C)CC[C@@H]13
REMARK SMILES IDX 14 1 13 2 15 3 16 4 17 5 7 6 8 7 9 8 4 9 6 10 3 11 2 12 1 13
REMARK SMILES IDX 10 14 11 15 12 16 5 17
REMARK H PARENT 5 18
REMARK Flexibility Score: inf
ROOT
ATOM      1  C   UNL     1       5.342 -13.633  14.418  1.00  0.00     0.011 C 
ATOM      2  C   UNL     1       4.062 -13.123  13.741  1.00  0.00     0.019 C 
ATOM      3  C   UNL     1       4.033 -13.436  12.239  1.00  0.00     0.007 C 
ATOM      4  C   UNL     1       2.590 -13.803  11.885  1.00  0.00     0.011 C 
ATOM      5  C   UNL     1       1.761 -13.570  13.148  1.00  0.00     0.047 C 
ATOM      6  C   UNL     1       2.766 -13.725  14.305  1.00  0.00     0.081 C 
ATOM      7  C   UNL     1       2.265 -13.062  15.592  1.00  0.00     0.046 C 
ATOM      8  C   UNL     1       1.525 -14.199  16.298  1.00  0.00     0.054 C 
ATOM      9  C   UNL     1       1.765 -15.410  15.347  1.00  0.00     0.173 C 
ATOM     10  O   UNL     1       2.919 -15.097  14.599  1.00  0.00    -0.342 OA
ATOM     11  C   UNL     1       0.584 -15.597  14.356  1.00  0.00     0.096 C 
ATOM     12  C   UNL     1       0.591 -14.536  13.274  1.00  0.00    -0.066 C 
ATOM     13  C   UNL     1      -0.437 -14.456  12.417  1.00  0.00     0.008 C 
ENDROOT
BRANCH   8  14
ATOM     14  C   UNL     1       1.973 -14.348  17.790  1.00  0.00    -0.009 C 
ATOM     15  C   UNL     1       3.396 -13.816  18.016  1.00  0.00     0.008 C 
ATOM     16  C   UNL     1       0.999 -13.753  18.826  1.00  0.00     0.008 C 
ENDBRANCH   8  14
BRANCH   9  17
ATOM     17  O   UNL     1       1.956 -16.606  16.058  1.00  0.00    -0.365 OA
ATOM     18  H   UNL     1       1.139 -16.763  16.602  1.00  0.00     0.214 HD
ENDBRANCH   9  17
TORSDOF 2
ENDMDL
MODEL 5
REMARK VINA RESULT:    -5.922     12.791     15.267
REMARK INTER + INTRA:          -6.697
REMARK INTER:                  -6.393
REMARK INTRA:                  -0.304
REMARK UNBOUND:                -0.256
REMARK SMILES C=C1C[C@@]2(O)O[C@@]3(C[C@@H]2C(C)C)[C@@H](C)CC[C@@H]13
REMARK SMILES IDX 14 1 13 2 15 3 16 4 17 5 7 6 8 7 9 8 4 9 6 10 3 11 2 12 1 13
REMARK SMILES IDX 10 14 11 15 12 16 5 17
REMARK H PARENT 5 18
REMARK Flexibility Score: inf
ROOT
ATOM      1  C   UNL     1      -0.383 -13.706  15.796  1.00  0.00     0.011 C 
ATOM      2  C   UNL     1       0.438 -14.482  14.756  1.00  0.00     0.019 C 
ATOM      3  C   UNL     1       0.401 -13.818  13.372  1.00  0.00     0.007 C 
ATOM      4  C   UNL     1       1.797 -13.973  12.763  1.00  0.00     0.011 C 
ATOM      5  C   UNL     1       2.598 -14.844  13.732  1.00  0.00     0.047 C 
ATOM      6  C   UNL     1       1.928 -14.617  15.101  1.00  0.00     0.081 C 
ATOM      7  C   UNL     1       2.252 -15.741  16.089  1.00  0.00     0.046 C 
ATOM      8  C   UNL     1       3.504 -15.225  16.799  1.00  0.00     0.054 C 
ATOM      9  C   UNL     1       3.699 -13.812  16.171  1.00  0.00     0.173 C 
ATOM     10  O   UNL     1       2.438 -13.430  15.669  1.00  0.00    -0.342 OA
ATOM     11  C   UNL     1       4.698 -13.852  14.981  1.00  0.00     0.096 C 
ATOM     12  C   UNL     1       4.079 -14.494  13.755  1.00  0.00    -0.066 C 
ATOM     13  C   UNL     1       4.842 -14.743  12.682  1.00  0.00     0.008 C 
ENDROOT
BRANCH   8  14
ATOM     14  C   UNL     1       3.371 -15.314  18.355  1.00  0.00    -0.009 C 
ATOM     15  C   UNL     1       1.947 -14.984  18.828  1.00  0.00     0.008 C 
ATOM     16  C   UNL     1       3.856 -16.639  18.977  1.00  0.00     0.008 C 
ENDBRANCH   8  14
BRANCH   9  17
ATOM     17  O   UNL     1       4.152 -12.876  17.113  1.00  0.00    -0.365 OA
ATOM     18  H   UNL     1       4.314 -13.363  17.964  1.00  0.00     0.214 HD
ENDBRANCH   9  17
TORSDOF 2
ENDMDL
MODEL 6
REMARK VINA RESULT:    -5.805     13.350     15.516
REMARK INTER + INTRA:          -6.571
REMARK INTER:                  -6.279
REMARK INTRA:                  -0.291
REMARK UNBOUND:                -0.256
REMARK SMILES C=C1C[C@@]2(O)O[C@@]3(C[C@@H]2C(C)C)[C@@H](C)CC[C@@H]13
REMARK SMILES IDX 14 1 13 2 15 3 16 4 17 5 7 6 8 7 9 8 4 9 6 10 3 11 2 12 1 13
REMARK SMILES IDX 10 14 11 15 12 16 5 17
REMARK H PARENT 5 18
REMARK Flexibility Score: inf
ROOT
ATOM      1  C   UNL     1      -0.697 -13.571  14.659  1.00  0.00     0.011 C 
ATOM      2  C   UNL     1       0.243 -12.875  15.655  1.00  0.00     0.019 C 
ATOM      3  C   UNL     1      -0.310 -12.895  17.087  1.00  0.00     0.007 C 
ATOM      4  C   UNL     1       0.881 -13.112  18.024  1.00  0.00     0.011 C 
ATOM      5  C   UNL     1       2.133 -13.080  17.148  1.00  0.00     0.047 C 
ATOM      6  C   UNL     1       1.640 -13.505  15.752  1.00  0.00     0.081 C 
ATOM      7  C   UNL     1       2.609 -13.073  14.647  1.00  0.00     0.046 C 
ATOM      8  C   UNL     1       3.534 -14.282  14.509  1.00  0.00     0.054 C 
ATOM      9  C   UNL     1       2.921 -15.302  15.516  1.00  0.00     0.173 C 
ATOM     10  O   UNL     1       1.577 -14.914  15.697  1.00  0.00    -0.342 OA
ATOM     11  C   UNL     1       3.631 -15.235  16.896  1.00  0.00     0.096 C 
ATOM     12  C   UNL     1       3.239 -13.989  17.664  1.00  0.00    -0.066 C 
ATOM     13  C   UNL     1       3.866 -13.694  18.812  1.00  0.00     0.008 C 
ENDROOT
BRANCH   8  14
ATOM     14  C   UNL     1       3.683 -14.736  13.019  1.00  0.00    -0.009 C 
ATOM     15  C   UNL     1       2.742 -13.959  12.087  1.00  0.00     0.008 C 
ATOM     16  C   UNL     1       5.125 -14.718  12.473  1.00  0.00     0.008 C 
ENDBRANCH   8  14
BRANCH   9  17
ATOM     17  O   UNL     1       2.986 -16.620  15.035  1.00  0.00    -0.365 OA
ATOM     18  H   UNL     1       2.082 -16.860  14.700  1.00  0.00     0.214 HD
ENDBRANCH   9  17
TORSDOF 2
ENDMDL
MODEL 7
REMARK VINA RESULT:    -5.801      2.574      4.600
REMARK INTER + INTRA:          -6.566
REMARK INTER:                  -6.444
REMARK INTRA:                  -0.122
REMARK UNBOUND:                -0.256
REMARK SMILES C=C1C[C@@]2(O)O[C@@]3(C[C@@H]2C(C)C)[C@@H](C)CC[C@@H]13
REMARK SMILES IDX 14 1 13 2 15 3 16 4 17 5 7 6 8 7 9 8 4 9 6 10 3 11 2 12 1 13
REMARK SMILES IDX 10 14 11 15 12 16 5 17
REMARK H PARENT 5 18
REMARK Flexibility Score: inf
ROOT
ATOM      1  C   UNL     1       9.416 -22.188  17.037  1.00  0.00     0.011 C 
ATOM      2  C   UNL     1      10.794 -22.696  16.588  1.00  0.00     0.019 C 
ATOM      3  C   UNL     1      11.432 -23.636  17.621  1.00  0.00     0.007 C 
ATOM      4  C   UNL     1      12.150 -24.739  16.839  1.00  0.00     0.011 C 
ATOM      5  C   UNL     1      12.044 -24.362  15.361  1.00  0.00     0.047 C 
ATOM      6  C   UNL     1      10.777 -23.490  15.274  1.00  0.00     0.081 C 
ATOM      7  C   UNL     1      10.763 -22.625  14.010  1.00  0.00     0.046 C 
ATOM      8  C   UNL     1      10.029 -23.506  12.998  1.00  0.00     0.054 C 
ATOM      9  C   UNL     1       9.640 -24.754  13.847  1.00  0.00     0.173 C 
ATOM     10  O   UNL     1       9.646 -24.331  15.192  1.00  0.00    -0.342 OA
ATOM     11  C   UNL     1      10.687 -25.892  13.696  1.00  0.00     0.096 C 
ATOM     12  C   UNL     1      11.966 -25.575  14.446  1.00  0.00    -0.066 C 
ATOM     13  C   UNL     1      13.031 -26.378  14.307  1.00  0.00     0.008 C 
ENDROOT
BRANCH   8  14
ATOM     14  C   UNL     1       8.876 -22.731  12.279  1.00  0.00    -0.009 C 
ATOM     15  C   UNL     1       9.142 -21.219  12.236  1.00  0.00     0.008 C 
ATOM     16  C   UNL     1       8.511 -23.259  10.877  1.00  0.00     0.008 C 
ENDBRANCH   8  14
BRANCH   9  17
ATOM     17  O   UNL     1       8.374 -25.253  13.499  1.00  0.00    -0.365 OA
ATOM     18  H   UNL     1       8.465 -25.711  12.622  1.00  0.00     0.214 HD
ENDBRANCH   9  17
TORSDOF 2
ENDMDL
MODEL 8
REMARK VINA RESULT:    -5.791      2.298      4.492
REMARK INTER + INTRA:          -6.555
REMARK INTER:                  -6.266
REMARK INTRA:                  -0.289
REMARK UNBOUND:                -0.256
REMARK SMILES C=C1C[C@@]2(O)O[C@@]3(C[C@@H]2C(C)C)[C@@H](C)CC[C@@H]13
REMARK SMILES IDX 14 1 13 2 15 3 16 4 17 5 7 6 8 7 9 8 4 9 6 10 3 11 2 12 1 13
REMARK SMILES IDX 10 14 11 15 12 16 5 17
REMARK H PARENT 5 18
REMARK Flexibility Score: inf
ROOT
ATOM      1  C   UNL     1      12.629 -25.323  12.656  1.00  0.00     0.011 C 
ATOM      2  C   UNL     1      11.704 -24.209  13.168  1.00  0.00     0.019 C 
ATOM      3  C   UNL     1      10.253 -24.685  13.326  1.00  0.00     0.007 C 
ATOM      4  C   UNL     1       9.698 -24.019  14.588  1.00  0.00     0.011 C 
ATOM      5  C   UNL     1      10.778 -23.056  15.081  1.00  0.00     0.047 C 
ATOM      6  C   UNL     1      12.096 -23.644  14.541  1.00  0.00     0.081 C 
ATOM      7  C   UNL     1      13.215 -22.598  14.501  1.00  0.00     0.046 C 
ATOM      8  C   UNL     1      13.889 -22.763  15.863  1.00  0.00     0.054 C 
ATOM      9  C   UNL     1      13.107 -23.956  16.493  1.00  0.00     0.173 C 
ATOM     10  O   UNL     1      12.536 -24.662  15.414  1.00  0.00    -0.342 OA
ATOM     11  C   UNL     1      11.954 -23.459  17.407  1.00  0.00     0.096 C 
ATOM     12  C   UNL     1      10.795 -22.913  16.596  1.00  0.00    -0.066 C 
ATOM     13  C   UNL     1       9.775 -22.308  17.222  1.00  0.00     0.008 C 
ENDROOT
BRANCH   8  14
ATOM     14  C   UNL     1      15.442 -22.904  15.733  1.00  0.00    -0.009 C 
ATOM     15  C   UNL     1      15.888 -22.982  14.265  1.00  0.00     0.008 C 
ATOM     16  C   UNL     1      16.259 -21.840  16.493  1.00  0.00     0.008 C 
ENDBRANCH   8  14
BRANCH   9  17
ATOM     17  O   UNL     1      13.946 -24.800  17.238  1.00  0.00    -0.365 OA
ATOM     18  H   UNL     1      13.406 -25.175  17.983  1.00  0.00     0.214 HD
ENDBRANCH   9  17
TORSDOF 2
ENDMDL
MODEL 9
REMARK VINA RESULT:    -5.585      2.069      4.365
REMARK INTER + INTRA:          -6.331
REMARK INTER:                  -6.035
REMARK INTRA:                  -0.296
REMARK UNBOUND:                -0.256
REMARK SMILES C=C1C[C@@]2(O)O[C@@]3(C[C@@H]2C(C)C)[C@@H](C)CC[C@@H]13
REMARK SMILES IDX 14 1 13 2 15 3 16 4 17 5 7 6 8 7 9 8 4 9 6 10 3 11 2 12 1 13
REMARK SMILES IDX 10 14 11 15 12 16 5 17
REMARK H PARENT 5 18
REMARK Flexibility Score: inf
ROOT
ATOM      1  C   UNL     1      12.354 -21.928  12.605  1.00  0.00     0.011 C 
ATOM      2  C   UNL     1      12.854 -23.379  12.639  1.00  0.00     0.019 C 
ATOM      3  C   UNL     1      14.038 -23.608  11.688  1.00  0.00     0.007 C 
ATOM      4  C   UNL     1      14.998 -24.570  12.393  1.00  0.00     0.011 C 
ATOM      5  C   UNL     1      14.307 -25.003  13.686  1.00  0.00     0.047 C 
ATOM      6  C   UNL     1      13.345 -23.846  14.017  1.00  0.00     0.081 C 
ATOM      7  C   UNL     1      12.232 -24.283  14.973  1.00  0.00     0.046 C 
ATOM      8  C   UNL     1      12.819 -23.972  16.350  1.00  0.00     0.054 C 
ATOM      9  C   UNL     1      14.188 -23.314  16.000  1.00  0.00     0.173 C 
ATOM     10  O   UNL     1      14.063 -22.829  14.682  1.00  0.00    -0.342 OA
ATOM     11  C   UNL     1      15.341 -24.354  16.024  1.00  0.00     0.096 C 
ATOM     12  C   UNL     1      15.288 -25.272  14.818  1.00  0.00    -0.066 C 
ATOM     13  C   UNL     1      16.119 -26.322  14.748  1.00  0.00     0.008 C 
ENDROOT
BRANCH   8  14
ATOM     14  C   UNL     1      11.826 -23.151  17.237  1.00  0.00    -0.009 C 
ATOM     15  C   UNL     1      10.608 -22.668  16.435  1.00  0.00     0.008 C 
ATOM     16  C   UNL     1      11.378 -23.852  18.535  1.00  0.00     0.008 C 
ENDBRANCH   8  14
BRANCH   9  17
ATOM     17  O   UNL     1      14.506 -22.264  16.877  1.00  0.00    -0.365 OA
ATOM     18  H   UNL     1      15.496 -22.226  16.951  1.00  0.00     0.214 HD
ENDBRANCH   9  17
TORSDOF 2
ENDMDL
