MODEL 1
REMARK VINA RESULT:    -3.279      0.000      0.000
REMARK INTER + INTRA:          -4.168
REMARK INTER:                  -3.949
REMARK INTRA:                  -0.219
REMARK UNBOUND:                -0.219
REMARK SMILES OCC(O)CO
REMARK SMILES IDX 3 1 5 2 6 3 2 5 1 6 4 8
REMARK H PARENT 6 4 1 7 4 9
REMARK Flexibility Score: inf
ROOT
ATOM      1  C   UNL     1     127.129 126.626 124.707  1.00  0.00     0.165 C 
ENDROOT
BRANCH   1   2
ATOM      2  C   UNL     1     126.954 127.230 126.107  1.00  0.00     0.190 C 
BRANCH   2   3
ATOM      3  O   UNL     1     126.207 126.367 126.921  1.00  0.00    -0.394 OA
ATOM      4  H   UNL     1     125.450 126.896 127.284  1.00  0.00     0.210 HD
ENDBRANCH   2   3
ENDBRANCH   1   2
BRANCH   1   5
ATOM      5  C   UNL     1     128.168 125.496 124.718  1.00  0.00     0.190 C 
BRANCH   5   6
ATOM      6  O   UNL     1     127.698 124.414 125.474  1.00  0.00    -0.394 OA
ATOM      7  H   UNL     1     128.198 124.439 126.330  1.00  0.00     0.210 HD
ENDBRANCH   5   6
ENDBRANCH   1   5
BRANCH   1   8
ATOM      8  O   UNL     1     127.542 127.633 123.818  1.00  0.00    -0.388 OA
ATOM      9  H   UNL     1     127.811 127.182 122.976  1.00  0.00     0.211 HD
ENDBRANCH   1   8
TORSDOF 5
ENDMDL
MODEL 2
REMARK VINA RESULT:    -3.218      0.957      3.031
REMARK INTER + INTRA:          -4.096
REMARK INTER:                  -3.872
REMARK INTRA:                  -0.223
REMARK UNBOUND:                -0.219
REMARK SMILES OCC(O)CO
REMARK SMILES IDX 3 1 5 2 6 3 2 5 1 6 4 8
REMARK H PARENT 6 4 1 7 4 9
REMARK Flexibility Score: inf
ROOT
ATOM      1  C   UNL     1     127.170 125.835 125.139  1.00  0.00     0.165 C 
ENDROOT
BRANCH   1   2
ATOM      2  C   UNL     1     128.252 126.366 124.187  1.00  0.00     0.190 C 
BRANCH   2   3
ATOM      3  O   UNL     1     127.799 127.517 123.527  1.00  0.00    -0.394 OA
ATOM      4  H   UNL     1     128.543 128.174 123.552  1.00  0.00     0.210 HD
ENDBRANCH   2   3
ENDBRANCH   1   2
BRANCH   1   5
ATOM      5  C   UNL     1     126.967 126.783 126.329  1.00  0.00     0.190 C 
BRANCH   5   6
ATOM      6  O   UNL     1     126.147 127.857 125.957  1.00  0.00    -0.394 OA
ATOM      7  H   UNL     1     126.740 128.651 125.908  1.00  0.00     0.210 HD
ENDBRANCH   5   6
ENDBRANCH   1   5
BRANCH   1   8
ATOM      8  O   UNL     1     127.551 124.567 125.609  1.00  0.00    -0.388 OA
ATOM      9  H   UNL     1     127.167 123.901 124.982  1.00  0.00     0.211 HD
ENDBRANCH   1   8
TORSDOF 5
ENDMDL
MODEL 3
REMARK VINA RESULT:    -3.069      1.320      2.651
REMARK INTER + INTRA:          -3.916
REMARK INTER:                  -3.694
REMARK INTRA:                  -0.222
REMARK UNBOUND:                -0.219
REMARK SMILES OCC(O)CO
REMARK SMILES IDX 3 1 5 2 6 3 2 5 1 6 4 8
REMARK H PARENT 6 4 1 7 4 9
REMARK Flexibility Score: inf
ROOT
ATOM      1  C   UNL     1     126.887 127.022 124.727  1.00  0.00     0.165 C 
ENDROOT
BRANCH   1   2
ATOM      2  C   UNL     1     127.155 125.598 125.236  1.00  0.00     0.190 C 
BRANCH   2   3
ATOM      3  O   UNL     1     128.236 125.028 124.548  1.00  0.00    -0.394 OA
ATOM      4  H   UNL     1     128.054 125.148 123.579  1.00  0.00     0.210 HD
ENDBRANCH   2   3
ENDBRANCH   1   2
BRANCH   1   5
ATOM      5  C   UNL     1     128.178 127.680 124.220  1.00  0.00     0.190 C 
BRANCH   5   6
ATOM      6  O   UNL     1     128.316 127.474 122.840  1.00  0.00    -0.394 OA
ATOM      7  H   UNL     1     128.374 128.376 122.433  1.00  0.00     0.210 HD
ENDBRANCH   5   6
ENDBRANCH   1   5
BRANCH   1   8
ATOM      8  O   UNL     1     126.348 127.791 125.771  1.00  0.00    -0.388 OA
ATOM      9  H   UNL     1     126.314 128.729 125.450  1.00  0.00     0.211 HD
ENDBRANCH   1   8
TORSDOF 5
ENDMDL
MODEL 4
REMARK VINA RESULT:    -3.012      1.201      2.265
REMARK INTER + INTRA:          -3.847
REMARK INTER:                  -3.624
REMARK INTRA:                  -0.222
REMARK UNBOUND:                -0.219
REMARK SMILES OCC(O)CO
REMARK SMILES IDX 3 1 5 2 6 3 2 5 1 6 4 8
REMARK H PARENT 6 4 1 7 4 9
REMARK Flexibility Score: inf
ROOT
ATOM      1  C   UNL     1     127.337 127.066 125.694  1.00  0.00     0.165 C 
ENDROOT
BRANCH   1   2
ATOM      2  C   UNL     1     128.289 127.799 124.738  1.00  0.00     0.190 C 
BRANCH   2   3
ATOM      3  O   UNL     1     127.879 127.620 123.409  1.00  0.00    -0.394 OA
ATOM      4  H   UNL     1     128.163 128.429 122.909  1.00  0.00     0.210 HD
ENDBRANCH   2   3
ENDBRANCH   1   2
BRANCH   1   5
ATOM      5  C   UNL     1     126.930 125.698 125.128  1.00  0.00     0.190 C 
BRANCH   5   6
ATOM      6  O   UNL     1     128.068 124.971 124.756  1.00  0.00    -0.394 OA
ATOM      7  H   UNL     1     127.961 124.070 125.155  1.00  0.00     0.210 HD
ENDBRANCH   5   6
ENDBRANCH   1   5
BRANCH   1   8
ATOM      8  O   UNL     1     126.190 127.852 125.894  1.00  0.00    -0.388 OA
ATOM      9  H   UNL     1     125.442 127.226 126.082  1.00  0.00     0.211 HD
ENDBRANCH   1   8
TORSDOF 5
ENDMDL
MODEL 5
REMARK VINA RESULT:    -2.929      1.529      2.461
REMARK INTER + INTRA:          -3.747
REMARK INTER:                  -3.543
REMARK INTRA:                  -0.204
REMARK UNBOUND:                -0.219
REMARK SMILES OCC(O)CO
REMARK SMILES IDX 3 1 5 2 6 3 2 5 1 6 4 8
REMARK H PARENT 6 4 1 7 4 9
REMARK Flexibility Score: inf
ROOT
ATOM      1  C   UNL     1     128.306 126.206 125.297  1.00  0.00     0.165 C 
ENDROOT
BRANCH   1   2
ATOM      2  C   UNL     1     127.551 124.895 125.036  1.00  0.00     0.190 C 
BRANCH   2   3
ATOM      3  O   UNL     1     126.331 124.889 125.727  1.00  0.00    -0.394 OA
ATOM      4  H   UNL     1     126.186 125.812 126.063  1.00  0.00     0.210 HD
ENDBRANCH   2   3
ENDBRANCH   1   2
BRANCH   1   5
ATOM      5  C   UNL     1     127.692 127.367 124.502  1.00  0.00     0.190 C 
BRANCH   5   6
ATOM      6  O   UNL     1     126.337 127.513 124.830  1.00  0.00    -0.394 OA
ATOM      7  H   UNL     1     126.311 128.090 125.636  1.00  0.00     0.210 HD
ENDBRANCH   5   6
ENDBRANCH   1   5
BRANCH   1   8
ATOM      8  O   UNL     1     129.652 126.045 124.925  1.00  0.00    -0.388 OA
ATOM      9  H   UNL     1     130.200 126.430 125.657  1.00  0.00     0.211 HD
ENDBRANCH   1   8
TORSDOF 5
ENDMDL
MODEL 6
REMARK VINA RESULT:    -2.890      1.639      2.081
REMARK INTER + INTRA:          -3.700
REMARK INTER:                  -3.481
REMARK INTRA:                  -0.219
REMARK UNBOUND:                -0.219
REMARK SMILES OCC(O)CO
REMARK SMILES IDX 3 1 5 2 6 3 2 5 1 6 4 8
REMARK H PARENT 6 4 1 7 4 9
REMARK Flexibility Score: inf
ROOT
ATOM      1  C   UNL     1     128.384 126.203 125.731  1.00  0.00     0.165 C 
ENDROOT
BRANCH   1   2
ATOM      2  C   UNL     1     127.977 127.644 125.392  1.00  0.00     0.190 C 
BRANCH   2   3
ATOM      3  O   UNL     1     126.771 127.973 126.028  1.00  0.00    -0.394 OA
ATOM      4  H   UNL     1     126.259 127.128 126.127  1.00  0.00     0.210 HD
ENDBRANCH   2   3
ENDBRANCH   1   2
BRANCH   1   5
ATOM      5  C   UNL     1     127.455 125.190 125.047  1.00  0.00     0.190 C 
BRANCH   5   6
ATOM      6  O   UNL     1     126.194 125.201 125.660  1.00  0.00    -0.394 OA
ATOM      7  H   UNL     1     125.677 125.919 125.211  1.00  0.00     0.210 HD
ENDBRANCH   5   6
ENDBRANCH   1   5
BRANCH   1   8
ATOM      8  O   UNL     1     128.329 126.023 127.124  1.00  0.00    -0.388 OA
ATOM      9  H   UNL     1     128.201 126.922 127.524  1.00  0.00     0.211 HD
ENDBRANCH   1   8
TORSDOF 5
ENDMDL
MODEL 7
REMARK VINA RESULT:    -2.766      2.145      3.451
REMARK INTER + INTRA:          -3.551
REMARK INTER:                  -3.545
REMARK INTRA:                  -0.005
REMARK UNBOUND:                -0.219
REMARK SMILES OCC(O)CO
REMARK SMILES IDX 3 1 5 2 6 3 2 5 1 6 4 8
REMARK H PARENT 6 4 1 7 4 9
REMARK Flexibility Score: inf
ROOT
ATOM      1  C   UNL     1     129.046 127.284 123.706  1.00  0.00     0.165 C 
ENDROOT
BRANCH   1   2
ATOM      2  C   UNL     1     128.861 126.824 122.252  1.00  0.00     0.190 C 
BRANCH   2   3
ATOM      3  O   UNL     1     129.303 127.818 121.366  1.00  0.00    -0.394 OA
ATOM      4  H   UNL     1     129.575 128.596 121.920  1.00  0.00     0.210 HD
ENDBRANCH   2   3
ENDBRANCH   1   2
BRANCH   1   5
ATOM      5  C   UNL     1     128.258 126.390 124.673  1.00  0.00     0.190 C 
BRANCH   5   6
ATOM      6  O   UNL     1     128.381 125.045 124.297  1.00  0.00    -0.394 OA
ATOM      7  H   UNL     1     128.182 125.012 123.327  1.00  0.00     0.210 HD
ENDBRANCH   5   6
ENDBRANCH   1   5
BRANCH   1   8
ATOM      8  O   UNL     1     128.603 128.612 123.829  1.00  0.00    -0.388 OA
ATOM      9  H   UNL     1     128.541 128.806 124.800  1.00  0.00     0.211 HD
ENDBRANCH   1   8
TORSDOF 5
ENDMDL
MODEL 8
REMARK VINA RESULT:    -2.587      2.965      4.470
REMARK INTER + INTRA:          -3.335
REMARK INTER:                  -3.303
REMARK INTRA:                  -0.032
REMARK UNBOUND:                -0.219
REMARK SMILES OCC(O)CO
REMARK SMILES IDX 3 1 5 2 6 3 2 5 1 6 4 8
REMARK H PARENT 6 4 1 7 4 9
REMARK Flexibility Score: inf
ROOT
ATOM      1  C   UNL     1     129.425 127.117 122.113  1.00  0.00     0.165 C 
ENDROOT
BRANCH   1   2
ATOM      2  C   UNL     1     128.957 126.500 120.787  1.00  0.00     0.190 C 
BRANCH   2   3
ATOM      3  O   UNL     1     128.070 127.366 120.132  1.00  0.00    -0.394 OA
ATOM      4  H   UNL     1     127.334 127.560 120.769  1.00  0.00     0.210 HD
ENDBRANCH   2   3
ENDBRANCH   1   2
BRANCH   1   5
ATOM      5  C   UNL     1     128.565 126.625 123.286  1.00  0.00     0.190 C 
BRANCH   5   6
ATOM      6  O   UNL     1     127.666 127.626 123.679  1.00  0.00    -0.394 OA
ATOM      7  H   UNL     1     126.895 127.561 123.060  1.00  0.00     0.210 HD
ENDBRANCH   5   6
ENDBRANCH   1   5
BRANCH   1   8
ATOM      8  O   UNL     1     129.340 128.517 122.025  1.00  0.00    -0.388 OA
ATOM      9  H   UNL     1     129.144 128.734 121.077  1.00  0.00     0.211 HD
ENDBRANCH   1   8
TORSDOF 5
ENDMDL
MODEL 9
REMARK VINA RESULT:    -2.570     16.706     17.248
REMARK INTER + INTRA:          -3.314
REMARK INTER:                  -3.310
REMARK INTRA:                  -0.004
REMARK UNBOUND:                -0.219
REMARK SMILES OCC(O)CO
REMARK SMILES IDX 3 1 5 2 6 3 2 5 1 6 4 8
REMARK H PARENT 6 4 1 7 4 9
REMARK Flexibility Score: inf
ROOT
ATOM      1  C   UNL     1     110.990 123.090 124.846  1.00  0.00     0.165 C 
ENDROOT
BRANCH   1   2
ATOM      2  C   UNL     1     110.746 123.817 123.516  1.00  0.00     0.190 C 
BRANCH   2   3
ATOM      3  O   UNL     1     109.881 124.905 123.705  1.00  0.00    -0.394 OA
ATOM      4  H   UNL     1     110.123 125.316 124.576  1.00  0.00     0.210 HD
ENDBRANCH   2   3
ENDBRANCH   1   2
BRANCH   1   5
ATOM      5  C   UNL     1     109.970 121.962 125.054  1.00  0.00     0.190 C 
BRANCH   5   6
ATOM      6  O   UNL     1     110.401 120.796 124.407  1.00  0.00    -0.394 OA
ATOM      7  H   UNL     1     111.285 120.576 124.797  1.00  0.00     0.210 HD
ENDBRANCH   5   6
ENDBRANCH   1   5
BRANCH   1   8
ATOM      8  O   UNL     1     110.890 124.013 125.901  1.00  0.00    -0.388 OA
ATOM      9  H   UNL     1     110.183 123.677 126.511  1.00  0.00     0.211 HD
ENDBRANCH   1   8
TORSDOF 5
ENDMDL
