MODEL 1
REMARK VINA RESULT:    12.154      0.000      0.000
REMARK INTER + INTRA:          15.345
REMARK INTER:                  14.997
REMARK INTRA:                   0.349
REMARK UNBOUND:                 0.349
REMARK SMILES O=c1c(O)c(-c2cc(O)c(O)c(O)c2)oc2cc(O)cc(O)c12
REMARK SMILES IDX 5 1 3 2 2 3 1 4 23 5 21 6 20 7 18 8 17 9 16 10 15 11 6 12
REMARK SMILES IDX 7 13 8 14 14 15 10 16 12 17 9 18 11 20 13 22 4 24 22 26
REMARK SMILES IDX 19 28
REMARK H PARENT 9 19 11 21 13 23 4 25 22 27 19 29
REMARK Flexibility Score: inf
ROOT
ATOM      1  C   UNL     1      13.051  21.651  -0.053  1.00  0.00     0.180 A 
ATOM      2  C   UNL     1      13.716  22.702  -0.707  1.00  0.00     0.208 A 
ATOM      3  C   UNL     1      13.664  22.771  -2.109  1.00  0.00     0.238 A 
ATOM      4  O   UNL     1      14.216  23.745  -2.686  1.00  0.00    -0.285 OA
ATOM      5  C   UNL     1      12.965  21.780  -2.839  1.00  0.00     0.111 A 
ATOM      6  C   UNL     1      12.881  21.730  -4.263  1.00  0.00     0.134 A 
ATOM      7  C   UNL     1      12.053  20.780  -4.873  1.00  0.00     0.093 A 
ATOM      8  C   UNL     1      11.357  19.837  -4.113  1.00  0.00     0.123 A 
ATOM      9  C   UNL     1      11.478  19.841  -2.726  1.00  0.00     0.094 A 
ATOM     10  C   UNL     1      12.268  20.800  -2.086  1.00  0.00     0.146 A 
ATOM     11  O   UNL     1      12.348  20.774  -0.761  1.00  0.00    -0.452 OA
ENDROOT
BRANCH   1  12
ATOM     12  C   UNL     1      13.081  21.496   1.420  1.00  0.00     0.029 A 
ATOM     13  C   UNL     1      12.883  20.245   2.028  1.00  0.00     0.062 A 
ATOM     14  C   UNL     1      12.891  20.122   3.424  1.00  0.00     0.162 A 
ATOM     15  C   UNL     1      13.253  22.629   2.230  1.00  0.00     0.062 A 
ATOM     16  C   UNL     1      13.086  21.259   4.226  1.00  0.00     0.200 A 
ATOM     17  C   UNL     1      13.264  22.512   3.626  1.00  0.00     0.162 A 
BRANCH  14  18
ATOM     18  O   UNL     1      12.700  18.875   4.017  1.00  0.00    -0.504 OA
ATOM     19  H   UNL     1      12.046  18.744   4.781  1.00  0.00     0.293 HD
ENDBRANCH  14  18
BRANCH  16  20
ATOM     20  O   UNL     1      13.103  21.161   5.617  1.00  0.00    -0.502 OA
ATOM     21  H   UNL     1      13.097  20.268   6.095  1.00  0.00     0.293 HD
ENDBRANCH  16  20
BRANCH  17  22
ATOM     22  O   UNL     1      13.449  23.639   4.425  1.00  0.00    -0.504 OA
ATOM     23  H   UNL     1      13.432  24.575   4.036  1.00  0.00     0.293 HD
ENDBRANCH  17  22
ENDBRANCH   1  12
BRANCH   2  24
ATOM     24  O   UNL     1      14.383  23.681   0.033  1.00  0.00    -0.502 OA
ATOM     25  H   UNL     1      14.044  24.010   0.930  1.00  0.00     0.293 HD
ENDBRANCH   2  24
BRANCH   6  26
ATOM     26  O   UNL     1      13.608  22.565  -5.117  1.00  0.00    -0.507 OA
ATOM     27  H   UNL     1      14.267  22.246  -5.810  1.00  0.00     0.293 HD
ENDBRANCH   6  26
BRANCH   8  28
ATOM     28  O   UNL     1      10.547  18.886  -4.729  1.00  0.00    -0.508 OA
ATOM     29  H   UNL     1      10.530  17.922  -4.416  1.00  0.00     0.293 HD
ENDBRANCH   8  28
TORSDOF 7
ENDMDL
MODEL 2
REMARK VINA RESULT:    12.348      9.382     14.454
REMARK INTER + INTRA:          15.584
REMARK INTER:                  15.372
REMARK INTRA:                   0.213
REMARK UNBOUND:                 0.349
REMARK SMILES O=c1c(O)c(-c2cc(O)c(O)c(O)c2)oc2cc(O)cc(O)c12
REMARK SMILES IDX 5 1 3 2 2 3 1 4 23 5 21 6 20 7 18 8 17 9 16 10 15 11 6 12
REMARK SMILES IDX 7 13 8 14 14 15 10 16 12 17 9 18 11 20 13 22 4 24 22 26
REMARK SMILES IDX 19 28
REMARK H PARENT 9 19 11 21 13 23 4 25 22 27 19 29
REMARK Flexibility Score: inf
ROOT
ATOM      1  C   UNL     1      18.904  22.583  10.655  1.00  0.00     0.180 A 
ATOM      2  C   UNL     1      19.295  23.858  11.099  1.00  0.00     0.208 A 
ATOM      3  C   UNL     1      19.952  23.977  12.334  1.00  0.00     0.238 A 
ATOM      4  O   UNL     1      20.348  25.114  12.701  1.00  0.00    -0.285 OA
ATOM      5  C   UNL     1      20.194  22.823  13.118  1.00  0.00     0.111 A 
ATOM      6  C   UNL     1      20.816  22.831  14.403  1.00  0.00     0.134 A 
ATOM      7  C   UNL     1      21.123  21.617  15.029  1.00  0.00     0.093 A 
ATOM      8  C   UNL     1      20.772  20.396  14.446  1.00  0.00     0.123 A 
ATOM      9  C   UNL     1      20.112  20.380  13.220  1.00  0.00     0.094 A 
ATOM     10  C   UNL     1      19.825  21.574  12.553  1.00  0.00     0.146 A 
ATOM     11  O   UNL     1      19.204  21.513  11.381  1.00  0.00    -0.452 OA
ENDROOT
BRANCH   1  12
ATOM     12  C   UNL     1      18.185  22.381   9.376  1.00  0.00     0.029 A 
ATOM     13  C   UNL     1      18.430  23.201   8.261  1.00  0.00     0.062 A 
ATOM     14  C   UNL     1      17.723  23.008   7.066  1.00  0.00     0.162 A 
ATOM     15  C   UNL     1      17.198  21.387   9.288  1.00  0.00     0.062 A 
ATOM     16  C   UNL     1      16.752  21.996   6.982  1.00  0.00     0.200 A 
ATOM     17  C   UNL     1      16.489  21.189   8.096  1.00  0.00     0.162 A 
BRANCH  14  18
ATOM     18  O   UNL     1      17.979  23.823   5.964  1.00  0.00    -0.504 OA
ATOM     19  H   UNL     1      17.234  24.312   5.481  1.00  0.00     0.293 HD
ENDBRANCH  14  18
BRANCH  16  20
ATOM     20  O   UNL     1      16.040  21.783   5.802  1.00  0.00    -0.502 OA
ATOM     21  H   UNL     1      15.283  21.113   5.742  1.00  0.00     0.293 HD
ENDBRANCH  16  20
BRANCH  17  22
ATOM     22  O   UNL     1      15.520  20.192   8.011  1.00  0.00    -0.504 OA
ATOM     23  H   UNL     1      15.076  19.811   8.838  1.00  0.00     0.293 HD
ENDBRANCH  17  22
ENDBRANCH   1  12
BRANCH   2  24
ATOM     24  O   UNL     1      19.066  24.981  10.300  1.00  0.00    -0.502 OA
ATOM     25  H   UNL     1      18.273  25.597  10.441  1.00  0.00     0.293 HD
ENDBRANCH   2  24
BRANCH   6  26
ATOM     26  O   UNL     1      21.123  23.995  15.112  1.00  0.00    -0.507 OA
ATOM     27  H   UNL     1      20.689  24.893  14.960  1.00  0.00     0.293 HD
ENDBRANCH   6  26
BRANCH   8  28
ATOM     28  O   UNL     1      21.067  19.193  15.083  1.00  0.00    -0.508 OA
ATOM     29  H   UNL     1      21.048  19.110  16.092  1.00  0.00     0.293 HD
ENDBRANCH   8  28
TORSDOF 7
ENDMDL
MODEL 3
REMARK VINA RESULT:    13.160      1.747      3.421
REMARK INTER + INTRA:          16.585
REMARK INTER:                  16.608
REMARK INTRA:                  -0.023
REMARK UNBOUND:                 0.349
REMARK SMILES O=c1c(O)c(-c2cc(O)c(O)c(O)c2)oc2cc(O)cc(O)c12
REMARK SMILES IDX 5 1 3 2 2 3 1 4 23 5 21 6 20 7 18 8 17 9 16 10 15 11 6 12
REMARK SMILES IDX 7 13 8 14 14 15 10 16 12 17 9 18 11 20 13 22 4 24 22 26
REMARK SMILES IDX 19 28
REMARK H PARENT 9 19 11 21 13 23 4 25 22 27 19 29
REMARK Flexibility Score: inf
ROOT
ATOM      1  C   UNL     1      13.538  22.500  -0.228  1.00  0.00     0.180 A 
ATOM      2  C   UNL     1      13.291  21.236  -0.791  1.00  0.00     0.208 A 
ATOM      3  C   UNL     1      13.027  21.144  -2.168  1.00  0.00     0.238 A 
ATOM      4  O   UNL     1      12.861  20.005  -2.675  1.00  0.00    -0.285 OA
ATOM      5  C   UNL     1      12.995  22.318  -2.959  1.00  0.00     0.111 A 
ATOM      6  C   UNL     1      12.698  22.345  -4.355  1.00  0.00     0.134 A 
ATOM      7  C   UNL     1      12.824  23.546  -5.064  1.00  0.00     0.093 A 
ATOM      8  C   UNL     1      13.172  24.733  -4.414  1.00  0.00     0.123 A 
ATOM      9  C   UNL     1      13.407  24.727  -3.042  1.00  0.00     0.094 A 
ATOM     10  C   UNL     1      13.324  23.538  -2.314  1.00  0.00     0.146 A 
ATOM     11  O   UNL     1      13.567  23.575  -1.008  1.00  0.00    -0.452 OA
ENDROOT
BRANCH   1  12
ATOM     12  C   UNL     1      13.799  22.681   1.219  1.00  0.00     0.029 A 
ATOM     13  C   UNL     1      14.939  23.363   1.676  1.00  0.00     0.062 A 
ATOM     14  C   UNL     1      15.181  23.504   3.050  1.00  0.00     0.162 A 
ATOM     15  C   UNL     1      12.923  22.111   2.155  1.00  0.00     0.062 A 
ATOM     16  C   UNL     1      14.286  22.949   3.979  1.00  0.00     0.200 A 
ATOM     17  C   UNL     1      13.159  22.250   3.530  1.00  0.00     0.162 A 
BRANCH  14  18
ATOM     18  O   UNL     1      16.312  24.188   3.493  1.00  0.00    -0.504 OA
ATOM     19  H   UNL     1      17.153  24.246   2.930  1.00  0.00     0.293 HD
ENDBRANCH  14  18
BRANCH  16  20
ATOM     20  O   UNL     1      14.504  23.080   5.351  1.00  0.00    -0.502 OA
ATOM     21  H   UNL     1      14.344  22.318   5.998  1.00  0.00     0.293 HD
ENDBRANCH  16  20
BRANCH  17  22
ATOM     22  O   UNL     1      12.278  21.694   4.454  1.00  0.00    -0.504 OA
ATOM     23  H   UNL     1      12.415  21.805   5.452  1.00  0.00     0.293 HD
ENDBRANCH  17  22
ENDBRANCH   1  12
BRANCH   2  24
ATOM     24  O   UNL     1      13.349  20.089   0.004  1.00  0.00    -0.502 OA
ATOM     25  H   UNL     1      13.002  19.191  -0.311  1.00  0.00     0.293 HD
ENDBRANCH   2  24
BRANCH   6  26
ATOM     26  O   UNL     1      12.252  21.236  -5.080  1.00  0.00    -0.507 OA
ATOM     27  H   UNL     1      11.313  20.868  -5.047  1.00  0.00     0.293 HD
ENDBRANCH   6  26
BRANCH   8  28
ATOM     28  O   UNL     1      13.280  25.927  -5.124  1.00  0.00    -0.508 OA
ATOM     29  H   UNL     1      14.053  26.565  -4.975  1.00  0.00     0.293 HD
ENDBRANCH   8  28
TORSDOF 7
ENDMDL
MODEL 4
REMARK VINA RESULT:    13.180      1.762      3.168
REMARK INTER + INTRA:          16.611
REMARK INTER:                  16.729
REMARK INTRA:                  -0.118
REMARK UNBOUND:                 0.349
REMARK SMILES O=c1c(O)c(-c2cc(O)c(O)c(O)c2)oc2cc(O)cc(O)c12
REMARK SMILES IDX 5 1 3 2 2 3 1 4 23 5 21 6 20 7 18 8 17 9 16 10 15 11 6 12
REMARK SMILES IDX 7 13 8 14 14 15 10 16 12 17 9 18 11 20 13 22 4 24 22 26
REMARK SMILES IDX 19 28
REMARK H PARENT 9 19 11 21 13 23 4 25 22 27 19 29
REMARK Flexibility Score: inf
ROOT
ATOM      1  C   UNL     1      13.549  22.461  -0.257  1.00  0.00     0.180 A 
ATOM      2  C   UNL     1      13.278  21.207  -0.832  1.00  0.00     0.208 A 
ATOM      3  C   UNL     1      13.018  21.133  -2.211  1.00  0.00     0.238 A 
ATOM      4  O   UNL     1      12.830  20.001  -2.729  1.00  0.00    -0.285 OA
ATOM      5  C   UNL     1      13.014  22.313  -2.992  1.00  0.00     0.111 A 
ATOM      6  C   UNL     1      12.724  22.359  -4.389  1.00  0.00     0.134 A 
ATOM      7  C   UNL     1      12.878  23.563  -5.087  1.00  0.00     0.093 A 
ATOM      8  C   UNL     1      13.249  24.737  -4.425  1.00  0.00     0.123 A 
ATOM      9  C   UNL     1      13.477  24.714  -3.052  1.00  0.00     0.094 A 
ATOM     10  C   UNL     1      13.367  23.520  -2.335  1.00  0.00     0.146 A 
ATOM     11  O   UNL     1      13.604  23.541  -1.028  1.00  0.00    -0.452 OA
ENDROOT
BRANCH   1  12
ATOM     12  C   UNL     1      13.807  22.623   1.192  1.00  0.00     0.029 A 
ATOM     13  C   UNL     1      12.891  22.165   2.154  1.00  0.00     0.062 A 
ATOM     14  C   UNL     1      13.144  22.349   3.521  1.00  0.00     0.162 A 
ATOM     15  C   UNL     1      14.963  23.299   1.616  1.00  0.00     0.062 A 
ATOM     16  C   UNL     1      14.314  23.007   3.936  1.00  0.00     0.200 A 
ATOM     17  C   UNL     1      15.220  23.484   2.981  1.00  0.00     0.162 A 
BRANCH  14  18
ATOM     18  O   UNL     1      12.231  21.885   4.468  1.00  0.00    -0.504 OA
ATOM     19  H   UNL     1      11.318  22.311   4.580  1.00  0.00     0.293 HD
ENDBRANCH  14  18
BRANCH  16  20
ATOM     20  O   UNL     1      14.588  23.197   5.290  1.00  0.00    -0.502 OA
ATOM     21  H   UNL     1      13.855  23.248   5.987  1.00  0.00     0.293 HD
ENDBRANCH  16  20
BRANCH  17  22
ATOM     22  O   UNL     1      16.376  24.142   3.395  1.00  0.00    -0.504 OA
ATOM     23  H   UNL     1      16.759  24.010   4.324  1.00  0.00     0.293 HD
ENDBRANCH  17  22
ENDBRANCH   1  12
BRANCH   2  24
ATOM     24  O   UNL     1      13.308  20.052  -0.047  1.00  0.00    -0.502 OA
ATOM     25  H   UNL     1      13.585  19.150  -0.415  1.00  0.00     0.293 HD
ENDBRANCH   2  24
BRANCH   6  26
ATOM     26  O   UNL     1      12.257  21.266  -5.125  1.00  0.00    -0.507 OA
ATOM     27  H   UNL     1      12.846  20.594  -5.592  1.00  0.00     0.293 HD
ENDBRANCH   6  26
BRANCH   8  28
ATOM     28  O   UNL     1      13.385  25.934  -5.125  1.00  0.00    -0.508 OA
ATOM     29  H   UNL     1      12.678  26.658  -5.078  1.00  0.00     0.293 HD
ENDBRANCH   8  28
TORSDOF 7
ENDMDL
MODEL 5
REMARK VINA RESULT:    13.863      8.415     11.766
REMARK INTER + INTRA:          17.454
REMARK INTER:                  17.202
REMARK INTRA:                   0.252
REMARK UNBOUND:                 0.349
REMARK SMILES O=c1c(O)c(-c2cc(O)c(O)c(O)c2)oc2cc(O)cc(O)c12
REMARK SMILES IDX 5 1 3 2 2 3 1 4 23 5 21 6 20 7 18 8 17 9 16 10 15 11 6 12
REMARK SMILES IDX 7 13 8 14 14 15 10 16 12 17 9 18 11 20 13 22 4 24 22 26
REMARK SMILES IDX 19 28
REMARK H PARENT 9 19 11 21 13 23 4 25 22 27 19 29
REMARK Flexibility Score: inf
ROOT
ATOM      1  C   UNL     1      18.781  22.533  10.028  1.00  0.00     0.180 A 
ATOM      2  C   UNL     1      19.284  23.512   9.155  1.00  0.00     0.208 A 
ATOM      3  C   UNL     1      18.657  23.704   7.913  1.00  0.00     0.238 A 
ATOM      4  O   UNL     1      19.079  24.619   7.158  1.00  0.00    -0.285 OA
ATOM      5  C   UNL     1      17.547  22.902   7.552  1.00  0.00     0.111 A 
ATOM      6  C   UNL     1      16.861  22.983   6.303  1.00  0.00     0.134 A 
ATOM      7  C   UNL     1      15.696  22.233   6.106  1.00  0.00     0.093 A 
ATOM      8  C   UNL     1      15.228  21.356   7.089  1.00  0.00     0.123 A 
ATOM      9  C   UNL     1      15.924  21.227   8.288  1.00  0.00     0.094 A 
ATOM     10  C   UNL     1      17.070  21.989   8.528  1.00  0.00     0.146 A 
ATOM     11  O   UNL     1      17.697  21.844   9.690  1.00  0.00    -0.452 OA
ENDROOT
BRANCH   1  12
ATOM     12  C   UNL     1      19.402  22.257  11.344  1.00  0.00     0.029 A 
ATOM     13  C   UNL     1      19.386  20.967  11.903  1.00  0.00     0.062 A 
ATOM     14  C   UNL     1      19.959  20.730  13.160  1.00  0.00     0.162 A 
ATOM     15  C   UNL     1      19.969  23.311  12.076  1.00  0.00     0.062 A 
ATOM     16  C   UNL     1      20.544  21.788  13.875  1.00  0.00     0.200 A 
ATOM     17  C   UNL     1      20.545  23.079  13.332  1.00  0.00     0.162 A 
BRANCH  14  18
ATOM     18  O   UNL     1      19.944  19.446  13.704  1.00  0.00    -0.504 OA
ATOM     19  H   UNL     1      20.418  19.231  14.573  1.00  0.00     0.293 HD
ENDBRANCH  14  18
BRANCH  16  20
ATOM     20  O   UNL     1      21.125  21.575  15.125  1.00  0.00    -0.502 OA
ATOM     21  H   UNL     1      21.357  22.338  15.749  1.00  0.00     0.293 HD
ENDBRANCH  16  20
BRANCH  17  22
ATOM     22  O   UNL     1      21.119  24.128  14.047  1.00  0.00    -0.504 OA
ATOM     23  H   UNL     1      21.711  24.817  13.597  1.00  0.00     0.293 HD
ENDBRANCH  17  22
ENDBRANCH   1  12
BRANCH   2  24
ATOM     24  O   UNL     1      20.367  24.307   9.539  1.00  0.00    -0.502 OA
ATOM     25  H   UNL     1      21.272  24.248   9.088  1.00  0.00     0.293 HD
ENDBRANCH   2  24
BRANCH   6  26
ATOM     26  O   UNL     1      17.297  23.756   5.223  1.00  0.00    -0.507 OA
ATOM     27  H   UNL     1      16.835  23.804   4.327  1.00  0.00     0.293 HD
ENDBRANCH   6  26
BRANCH   8  28
ATOM     28  O   UNL     1      14.076  20.602   6.879  1.00  0.00    -0.508 OA
ATOM     29  H   UNL     1      13.417  20.834   6.145  1.00  0.00     0.293 HD
ENDBRANCH   8  28
TORSDOF 7
ENDMDL
