MODEL 1
REMARK VINA RESULT:    -3.742      0.000      0.000
REMARK INTER + INTRA:          -4.419
REMARK INTER:                  -4.398
REMARK INTRA:                  -0.022
REMARK UNBOUND:                -0.022
REMARK SMILES CCCCC(=O)[O-]
REMARK SMILES IDX 4 1 5 2 6 3 7 4 3 5 2 6 1 7
REMARK H PARENT
REMARK Flexibility Score: inf
ROOT
ATOM      1  C   UNL     1      11.152 -60.299 -19.534  1.00  0.00     0.053 C 
ENDROOT
BRANCH   1   2
ATOM      2  C   UNL     1      12.521 -60.721 -19.101  1.00  0.00     0.041 C 
ATOM      3  O   UNL     1      13.467 -60.754 -19.932  1.00  0.00    -0.550 OA
ATOM      4  O   UNL     1      12.743 -61.125 -17.791  1.00  0.00    -0.550 OA
ENDBRANCH   1   2
BRANCH   1   5
ATOM      5  C   UNL     1      11.210 -59.631 -20.913  1.00  0.00     0.006 C 
BRANCH   5   6
ATOM      6  C   UNL     1       9.926 -58.855 -21.247  1.00  0.00    -0.003 C 
ATOM      7  C   UNL     1      10.139 -57.802 -22.333  1.00  0.00     0.004 C 
ENDBRANCH   5   6
ENDBRANCH   1   5
TORSDOF 3
ENDMDL
MODEL 2
REMARK VINA RESULT:    -3.571     12.822     13.796
REMARK INTER + INTRA:          -4.219
REMARK INTER:                  -4.189
REMARK INTRA:                  -0.030
REMARK UNBOUND:                -0.022
REMARK SMILES CCCCC(=O)[O-]
REMARK SMILES IDX 4 1 5 2 6 3 7 4 3 5 2 6 1 7
REMARK H PARENT
REMARK Flexibility Score: inf
ROOT
ATOM      1  C   UNL     1      17.190 -47.953 -21.809  1.00  0.00     0.053 C 
ENDROOT
BRANCH   1   2
ATOM      2  C   UNL     1      18.126 -46.967 -22.434  1.00  0.00     0.041 C 
ATOM      3  O   UNL     1      18.206 -46.874 -23.687  1.00  0.00    -0.550 OA
ATOM      4  O   UNL     1      18.947 -46.184 -21.632  1.00  0.00    -0.550 OA
ENDBRANCH   1   2
BRANCH   1   5
ATOM      5  C   UNL     1      15.759 -47.401 -21.803  1.00  0.00     0.006 C 
BRANCH   5   6
ATOM      6  C   UNL     1      14.753 -48.378 -21.174  1.00  0.00    -0.003 C 
ATOM      7  C   UNL     1      15.410 -49.666 -20.680  1.00  0.00     0.004 C 
ENDBRANCH   5   6
ENDBRANCH   1   5
TORSDOF 3
ENDMDL
MODEL 3
REMARK VINA RESULT:    -3.566     13.658     14.761
REMARK INTER + INTRA:          -4.212
REMARK INTER:                  -4.151
REMARK INTRA:                  -0.062
REMARK UNBOUND:                -0.022
REMARK SMILES CCCCC(=O)[O-]
REMARK SMILES IDX 4 1 5 2 6 3 7 4 3 5 2 6 1 7
REMARK H PARENT
REMARK Flexibility Score: inf
ROOT
ATOM      1  C   UNL     1      17.186 -46.069 -21.798  1.00  0.00     0.053 C 
ENDROOT
BRANCH   1   2
ATOM      2  C   UNL     1      16.817 -45.383 -23.075  1.00  0.00     0.041 C 
ATOM      3  O   UNL     1      15.828 -44.605 -23.114  1.00  0.00    -0.550 OA
ATOM      4  O   UNL     1      17.537 -45.640 -24.235  1.00  0.00    -0.550 OA
ENDBRANCH   1   2
BRANCH   1   5
ATOM      5  C   UNL     1      16.875 -47.568 -21.886  1.00  0.00     0.006 C 
BRANCH   5   6
ATOM      6  C   UNL     1      15.398 -47.882 -21.600  1.00  0.00    -0.003 C 
ATOM      7  C   UNL     1      15.209 -49.198 -20.847  1.00  0.00     0.004 C 
ENDBRANCH   5   6
ENDBRANCH   1   5
TORSDOF 3
ENDMDL
MODEL 4
REMARK VINA RESULT:    -3.537      2.155      4.030
REMARK INTER + INTRA:          -4.179
REMARK INTER:                  -4.072
REMARK INTRA:                  -0.107
REMARK UNBOUND:                -0.022
REMARK SMILES CCCCC(=O)[O-]
REMARK SMILES IDX 4 1 5 2 6 3 7 4 3 5 2 6 1 7
REMARK H PARENT
REMARK Flexibility Score: inf
ROOT
ATOM      1  C   UNL     1      11.309 -60.340 -18.428  1.00  0.00     0.053 C 
ENDROOT
BRANCH   1   2
ATOM      2  C   UNL     1      11.792 -60.313 -19.844  1.00  0.00     0.041 C 
ATOM      3  O   UNL     1      12.933 -60.760 -20.133  1.00  0.00    -0.550 OA
ATOM      4  O   UNL     1      11.002 -59.749 -20.838  1.00  0.00    -0.550 OA
ENDBRANCH   1   2
BRANCH   1   5
ATOM      5  C   UNL     1      12.411 -60.861 -17.497  1.00  0.00     0.006 C 
BRANCH   5   6
ATOM      6  C   UNL     1      13.122 -59.731 -16.735  1.00  0.00    -0.003 C 
ATOM      7  C   UNL     1      14.603 -59.618 -17.095  1.00  0.00     0.004 C 
ENDBRANCH   5   6
ENDBRANCH   1   5
TORSDOF 3
ENDMDL
MODEL 5
REMARK VINA RESULT:    -3.483     11.190     11.998
REMARK INTER + INTRA:          -4.116
REMARK INTER:                  -4.042
REMARK INTRA:                  -0.074
REMARK UNBOUND:                -0.022
REMARK SMILES CCCCC(=O)[O-]
REMARK SMILES IDX 4 1 5 2 6 3 7 4 3 5 2 6 1 7
REMARK H PARENT
REMARK Flexibility Score: inf
ROOT
ATOM      1  C   UNL     1      12.799 -60.149 -31.426  1.00  0.00     0.053 C 
ENDROOT
BRANCH   1   2
ATOM      2  C   UNL     1      14.006 -60.627 -32.170  1.00  0.00     0.041 C 
ATOM      3  O   UNL     1      15.029 -61.007 -31.541  1.00  0.00    -0.550 OA
ATOM      4  O   UNL     1      14.019 -60.608 -33.559  1.00  0.00    -0.550 OA
ENDBRANCH   1   2
BRANCH   1   5
ATOM      5  C   UNL     1      13.118 -58.857 -30.664  1.00  0.00     0.006 C 
BRANCH   5   6
ATOM      6  C   UNL     1      13.152 -57.624 -31.580  1.00  0.00    -0.003 C 
ATOM      7  C   UNL     1      13.394 -56.325 -30.813  1.00  0.00     0.004 C 
ENDBRANCH   5   6
ENDBRANCH   1   5
TORSDOF 3
ENDMDL
MODEL 6
REMARK VINA RESULT:    -3.391      2.642      3.444
REMARK INTER + INTRA:          -4.007
REMARK INTER:                  -3.971
REMARK INTRA:                  -0.036
REMARK UNBOUND:                -0.022
REMARK SMILES CCCCC(=O)[O-]
REMARK SMILES IDX 4 1 5 2 6 3 7 4 3 5 2 6 1 7
REMARK H PARENT
REMARK Flexibility Score: inf
ROOT
ATOM      1  C   UNL     1      11.255 -59.924 -17.747  1.00  0.00     0.053 C 
ENDROOT
BRANCH   1   2
ATOM      2  C   UNL     1      10.818 -60.427 -16.408  1.00  0.00     0.041 C 
ATOM      3  O   UNL     1      11.551 -60.262 -15.398  1.00  0.00    -0.550 OA
ATOM      4  O   UNL     1       9.621 -61.122 -16.283  1.00  0.00    -0.550 OA
ENDBRANCH   1   2
BRANCH   1   5
ATOM      5  C   UNL     1      12.469 -60.716 -18.246  1.00  0.00     0.006 C 
BRANCH   5   6
ATOM      6  C   UNL     1      12.587 -60.713 -19.778  1.00  0.00    -0.003 C 
ATOM      7  C   UNL     1      11.353 -60.128 -20.465  1.00  0.00     0.004 C 
ENDBRANCH   5   6
ENDBRANCH   1   5
TORSDOF 3
ENDMDL
MODEL 7
REMARK VINA RESULT:    -3.375     17.515     18.010
REMARK INTER + INTRA:          -3.989
REMARK INTER:                  -3.945
REMARK INTRA:                  -0.044
REMARK UNBOUND:                -0.022
REMARK SMILES CCCCC(=O)[O-]
REMARK SMILES IDX 4 1 5 2 6 3 7 4 3 5 2 6 1 7
REMARK H PARENT
REMARK Flexibility Score: inf
ROOT
ATOM      1  C   UNL     1      20.935 -51.765 -32.264  1.00  0.00     0.053 C 
ENDROOT
BRANCH   1   2
ATOM      2  C   UNL     1      21.309 -52.439 -33.546  1.00  0.00     0.041 C 
ATOM      3  O   UNL     1      21.836 -51.779 -34.480  1.00  0.00    -0.550 OA
ATOM      4  O   UNL     1      21.030 -53.788 -33.730  1.00  0.00    -0.550 OA
ENDBRANCH   1   2
BRANCH   1   5
ATOM      5  C   UNL     1      19.787 -50.776 -32.494  1.00  0.00     0.006 C 
BRANCH   5   6
ATOM      6  C   UNL     1      20.164 -49.335 -32.118  1.00  0.00    -0.003 C 
ATOM      7  C   UNL     1      19.018 -48.581 -31.445  1.00  0.00     0.004 C 
ENDBRANCH   5   6
ENDBRANCH   1   5
TORSDOF 3
ENDMDL
MODEL 8
REMARK VINA RESULT:    -3.354     11.471     12.502
REMARK INTER + INTRA:          -3.964
REMARK INTER:                  -3.914
REMARK INTRA:                  -0.051
REMARK UNBOUND:                -0.022
REMARK SMILES CCCCC(=O)[O-]
REMARK SMILES IDX 4 1 5 2 6 3 7 4 3 5 2 6 1 7
REMARK H PARENT
REMARK Flexibility Score: inf
ROOT
ATOM      1  C   UNL     1      12.555 -59.965 -32.106  1.00  0.00     0.053 C 
ENDROOT
BRANCH   1   2
ATOM      2  C   UNL     1      13.590 -59.893 -33.184  1.00  0.00     0.041 C 
ATOM      3  O   UNL     1      13.827 -58.800 -33.763  1.00  0.00    -0.550 OA
ATOM      4  O   UNL     1      14.260 -61.043 -33.583  1.00  0.00    -0.550 OA
ENDBRANCH   1   2
BRANCH   1   5
ATOM      5  C   UNL     1      13.135 -59.476 -30.774  1.00  0.00     0.006 C 
BRANCH   5   6
ATOM      6  C   UNL     1      13.560 -60.633 -29.855  1.00  0.00    -0.003 C 
ATOM      7  C   UNL     1      14.978 -61.125 -30.141  1.00  0.00     0.004 C 
ENDBRANCH   5   6
ENDBRANCH   1   5
TORSDOF 3
ENDMDL
MODEL 9
REMARK VINA RESULT:    -3.319      2.638      3.351
REMARK INTER + INTRA:          -3.922
REMARK INTER:                  -3.831
REMARK INTRA:                  -0.091
REMARK UNBOUND:                -0.022
REMARK SMILES CCCCC(=O)[O-]
REMARK SMILES IDX 4 1 5 2 6 3 7 4 3 5 2 6 1 7
REMARK H PARENT
REMARK Flexibility Score: inf
ROOT
ATOM      1  C   UNL     1      12.803 -60.981 -17.123  1.00  0.00     0.053 C 
ENDROOT
BRANCH   1   2
ATOM      2  C   UNL     1      13.852 -60.126 -16.485  1.00  0.00     0.041 C 
ATOM      3  O   UNL     1      14.628 -59.437 -17.197  1.00  0.00    -0.550 OA
ATOM      4  O   UNL     1      14.005 -60.128 -15.104  1.00  0.00    -0.550 OA
ENDBRANCH   1   2
BRANCH   1   5
ATOM      5  C   UNL     1      11.675 -60.109 -17.689  1.00  0.00     0.006 C 
BRANCH   5   6
ATOM      6  C   UNL     1      11.434 -60.356 -19.187  1.00  0.00    -0.003 C 
ATOM      7  C   UNL     1      12.719 -60.681 -19.947  1.00  0.00     0.004 C 
ENDBRANCH   5   6
ENDBRANCH   1   5
TORSDOF 3
ENDMDL
