MODEL 1
REMARK VINA RESULT:    -4.394      0.000      0.000
REMARK INTER + INTRA:          -5.915
REMARK INTER:                  -5.678
REMARK INTRA:                  -0.237
REMARK UNBOUND:                -0.237
REMARK SMILES C=CC(=O)CCCCC
REMARK SMILES IDX 6 1 7 2 8 3 9 4 5 5 3 6 4 7 2 8 1 9
REMARK H PARENT
REMARK Flexibility Score: inf
ROOT
ATOM      1  C   UNL     1      12.452 -34.113 -31.119  1.00  0.00     0.008 C 
ENDROOT
BRANCH   1   2
ATOM      2  C   UNL     1      13.223 -32.786 -31.223  1.00  0.00     0.000 C 
BRANCH   2   3
ATOM      3  C   UNL     1      14.303 -32.817 -32.316  1.00  0.00    -0.003 C 
ATOM      4  C   UNL     1      15.140 -31.539 -32.357  1.00  0.00     0.004 C 
ENDBRANCH   2   3
ENDBRANCH   1   2
BRANCH   1   5
ATOM      5  C   UNL     1      13.316 -35.319 -31.516  1.00  0.00     0.080 C 
BRANCH   5   6
ATOM      6  C   UNL     1      12.954 -36.550 -30.736  1.00  0.00     0.155 C 
ATOM      7  O   UNL     1      12.571 -37.580 -31.355  1.00  0.00    -0.295 OA
BRANCH   6   8
ATOM      8  C   UNL     1      13.018 -36.542 -29.261  1.00  0.00     0.039 C 
ATOM      9  C   UNL     1      14.132 -36.832 -28.593  1.00  0.00     0.012 C 
ENDBRANCH   6   8
ENDBRANCH   5   6
ENDBRANCH   1   5
TORSDOF 5
ENDMDL
MODEL 2
REMARK VINA RESULT:    -4.323      1.570      2.033
REMARK INTER + INTRA:          -5.824
REMARK INTER:                  -5.417
REMARK INTRA:                  -0.407
REMARK UNBOUND:                -0.237
REMARK SMILES C=CC(=O)CCCCC
REMARK SMILES IDX 6 1 7 2 8 3 9 4 5 5 3 6 4 7 2 8 1 9
REMARK H PARENT
REMARK Flexibility Score: inf
ROOT
ATOM      1  C   UNL     1      12.613 -33.240 -30.105  1.00  0.00     0.008 C 
ENDROOT
BRANCH   1   2
ATOM      2  C   UNL     1      12.709 -33.022 -31.625  1.00  0.00     0.000 C 
BRANCH   2   3
ATOM      3  C   UNL     1      14.162 -32.996 -32.125  1.00  0.00    -0.003 C 
ATOM      4  C   UNL     1      14.779 -31.598 -32.080  1.00  0.00     0.004 C 
ENDBRANCH   2   3
ENDBRANCH   1   2
BRANCH   1   5
ATOM      5  C   UNL     1      11.985 -34.597 -29.753  1.00  0.00     0.080 C 
BRANCH   5   6
ATOM      6  C   UNL     1      13.024 -35.667 -29.575  1.00  0.00     0.155 C 
ATOM      7  O   UNL     1      13.684 -35.712 -28.501  1.00  0.00    -0.295 OA
BRANCH   6   8
ATOM      8  C   UNL     1      13.287 -36.636 -30.658  1.00  0.00     0.039 C 
ATOM      9  C   UNL     1      12.400 -36.892 -31.617  1.00  0.00     0.012 C 
ENDBRANCH   6   8
ENDBRANCH   5   6
ENDBRANCH   1   5
TORSDOF 5
ENDMDL
MODEL 3
REMARK VINA RESULT:    -4.246      1.296      2.154
REMARK INTER + INTRA:          -5.725
REMARK INTER:                  -5.273
REMARK INTRA:                  -0.452
REMARK UNBOUND:                -0.237
REMARK SMILES C=CC(=O)CCCCC
REMARK SMILES IDX 6 1 7 2 8 3 9 4 5 5 3 6 4 7 2 8 1 9
REMARK H PARENT
REMARK Flexibility Score: inf
ROOT
ATOM      1  C   UNL     1      13.466 -34.221 -31.383  1.00  0.00     0.008 C 
ENDROOT
BRANCH   1   2
ATOM      2  C   UNL     1      12.830 -32.876 -30.992  1.00  0.00     0.000 C 
BRANCH   2   3
ATOM      3  C   UNL     1      12.596 -32.753 -29.477  1.00  0.00    -0.003 C 
ATOM      4  C   UNL     1      11.113 -32.725 -29.107  1.00  0.00     0.004 C 
ENDBRANCH   2   3
ENDBRANCH   1   2
BRANCH   1   5
ATOM      5  C   UNL     1      12.411 -35.288 -31.709  1.00  0.00     0.080 C 
BRANCH   5   6
ATOM      6  C   UNL     1      12.565 -36.511 -30.852  1.00  0.00     0.155 C 
ATOM      7  O   UNL     1      12.504 -37.651 -31.389  1.00  0.00    -0.295 OA
BRANCH   6   8
ATOM      8  C   UNL     1      12.754 -36.378 -29.393  1.00  0.00     0.039 C 
ATOM      9  C   UNL     1      13.839 -36.834 -28.770  1.00  0.00     0.012 C 
ENDBRANCH   6   8
ENDBRANCH   5   6
ENDBRANCH   1   5
TORSDOF 5
ENDMDL
MODEL 4
REMARK VINA RESULT:    -4.182      2.772      3.117
REMARK INTER + INTRA:          -5.642
REMARK INTER:                  -5.519
REMARK INTRA:                  -0.123
REMARK UNBOUND:                -0.237
REMARK SMILES C=CC(=O)CCCCC
REMARK SMILES IDX 6 1 7 2 8 3 9 4 5 5 3 6 4 7 2 8 1 9
REMARK H PARENT
REMARK Flexibility Score: inf
ROOT
ATOM      1  C   UNL     1      12.920 -33.594 -30.535  1.00  0.00     0.008 C 
ENDROOT
BRANCH   1   2
ATOM      2  C   UNL     1      13.049 -32.836 -31.867  1.00  0.00     0.000 C 
BRANCH   2   3
ATOM      3  C   UNL     1      14.489 -32.836 -32.407  1.00  0.00    -0.003 C 
ATOM      4  C   UNL     1      15.066 -31.428 -32.554  1.00  0.00     0.004 C 
ENDBRANCH   2   3
ENDBRANCH   1   2
BRANCH   1   5
ATOM      5  C   UNL     1      12.191 -32.768 -29.466  1.00  0.00     0.080 C 
BRANCH   5   6
ATOM      6  C   UNL     1      11.417 -33.637 -28.516  1.00  0.00     0.155 C 
ATOM      7  O   UNL     1      10.245 -33.991 -28.821  1.00  0.00    -0.295 OA
BRANCH   6   8
ATOM      8  C   UNL     1      12.012 -34.044 -27.228  1.00  0.00     0.039 C 
ATOM      9  C   UNL     1      11.338 -33.992 -26.081  1.00  0.00     0.012 C 
ENDBRANCH   6   8
ENDBRANCH   5   6
ENDBRANCH   1   5
TORSDOF 5
ENDMDL
MODEL 5
REMARK VINA RESULT:    -4.172      1.783      2.765
REMARK INTER + INTRA:          -5.629
REMARK INTER:                  -5.107
REMARK INTRA:                  -0.522
REMARK UNBOUND:                -0.237
REMARK SMILES C=CC(=O)CCCCC
REMARK SMILES IDX 6 1 7 2 8 3 9 4 5 5 3 6 4 7 2 8 1 9
REMARK H PARENT
REMARK Flexibility Score: inf
ROOT
ATOM      1  C   UNL     1      12.365 -33.092 -31.383  1.00  0.00     0.008 C 
ENDROOT
BRANCH   1   2
ATOM      2  C   UNL     1      11.542 -33.005 -30.086  1.00  0.00     0.000 C 
BRANCH   2   3
ATOM      3  C   UNL     1      12.424 -32.838 -28.839  1.00  0.00    -0.003 C 
ATOM      4  C   UNL     1      11.951 -33.690 -27.661  1.00  0.00     0.004 C 
ENDBRANCH   2   3
ENDBRANCH   1   2
BRANCH   1   5
ATOM      5  C   UNL     1      13.395 -34.230 -31.341  1.00  0.00     0.080 C 
BRANCH   5   6
ATOM      6  C   UNL     1      12.748 -35.579 -31.478  1.00  0.00     0.155 C 
ATOM      7  O   UNL     1      11.779 -35.719 -32.273  1.00  0.00    -0.295 OA
BRANCH   6   8
ATOM      8  C   UNL     1      13.224 -36.718 -30.667  1.00  0.00     0.039 C 
ATOM      9  C   UNL     1      13.297 -36.667 -29.339  1.00  0.00     0.012 C 
ENDBRANCH   6   8
ENDBRANCH   5   6
ENDBRANCH   1   5
TORSDOF 5
ENDMDL
MODEL 6
REMARK VINA RESULT:    -4.136      2.031      2.633
REMARK INTER + INTRA:          -5.583
REMARK INTER:                  -5.171
REMARK INTRA:                  -0.412
REMARK UNBOUND:                -0.237
REMARK SMILES C=CC(=O)CCCCC
REMARK SMILES IDX 6 1 7 2 8 3 9 4 5 5 3 6 4 7 2 8 1 9
REMARK H PARENT
REMARK Flexibility Score: inf
ROOT
ATOM      1  C   UNL     1      13.317 -34.741 -31.475  1.00  0.00     0.008 C 
ENDROOT
BRANCH   1   2
ATOM      2  C   UNL     1      13.086 -33.375 -32.143  1.00  0.00     0.000 C 
BRANCH   2   3
ATOM      3  C   UNL     1      14.035 -32.290 -31.607  1.00  0.00    -0.003 C 
ATOM      4  C   UNL     1      14.944 -31.711 -32.691  1.00  0.00     0.004 C 
ENDBRANCH   2   3
ENDBRANCH   1   2
BRANCH   1   5
ATOM      5  C   UNL     1      12.242 -35.064 -30.428  1.00  0.00     0.080 C 
BRANCH   5   6
ATOM      6  C   UNL     1      12.686 -34.707 -29.038  1.00  0.00     0.155 C 
ATOM      7  O   UNL     1      13.471 -35.481 -28.425  1.00  0.00    -0.295 OA
BRANCH   6   8
ATOM      8  C   UNL     1      12.183 -33.479 -28.389  1.00  0.00     0.039 C 
ATOM      9  C   UNL     1      11.355 -32.636 -29.001  1.00  0.00     0.012 C 
ENDBRANCH   6   8
ENDBRANCH   5   6
ENDBRANCH   1   5
TORSDOF 5
ENDMDL
MODEL 7
REMARK VINA RESULT:    -4.132      2.446      4.772
REMARK INTER + INTRA:          -5.577
REMARK INTER:                  -5.430
REMARK INTRA:                  -0.148
REMARK UNBOUND:                -0.237
REMARK SMILES C=CC(=O)CCCCC
REMARK SMILES IDX 6 1 7 2 8 3 9 4 5 5 3 6 4 7 2 8 1 9
REMARK H PARENT
REMARK Flexibility Score: inf
ROOT
ATOM      1  C   UNL     1      12.307 -32.697 -29.624  1.00  0.00     0.008 C 
ENDROOT
BRANCH   1   2
ATOM      2  C   UNL     1      11.363 -33.428 -28.653  1.00  0.00     0.000 C 
BRANCH   2   3
ATOM      3  C   UNL     1      12.121 -34.152 -27.529  1.00  0.00    -0.003 C 
ATOM      4  C   UNL     1      11.490 -33.934 -26.154  1.00  0.00     0.004 C 
ENDBRANCH   2   3
ENDBRANCH   1   2
BRANCH   1   5
ATOM      5  C   UNL     1      12.051 -33.089 -31.087  1.00  0.00     0.080 C 
BRANCH   5   6
ATOM      6  C   UNL     1      13.331 -33.305 -31.843  1.00  0.00     0.155 C 
ATOM      7  O   UNL     1      13.898 -34.430 -31.785  1.00  0.00    -0.295 OA
BRANCH   6   8
ATOM      8  C   UNL     1      13.932 -32.202 -32.619  1.00  0.00     0.039 C 
ATOM      9  C   UNL     1      15.028 -31.561 -32.218  1.00  0.00     0.012 C 
ENDBRANCH   6   8
ENDBRANCH   5   6
ENDBRANCH   1   5
TORSDOF 5
ENDMDL
MODEL 8
REMARK VINA RESULT:    -4.101      2.752      4.107
REMARK INTER + INTRA:          -5.537
REMARK INTER:                  -5.086
REMARK INTRA:                  -0.450
REMARK UNBOUND:                -0.237
REMARK SMILES C=CC(=O)CCCCC
REMARK SMILES IDX 6 1 7 2 8 3 9 4 5 5 3 6 4 7 2 8 1 9
REMARK H PARENT
REMARK Flexibility Score: inf
ROOT
ATOM      1  C   UNL     1      13.129 -34.032 -31.217  1.00  0.00     0.008 C 
ENDROOT
BRANCH   1   2
ATOM      2  C   UNL     1      12.478 -35.357 -31.647  1.00  0.00     0.000 C 
BRANCH   2   3
ATOM      3  C   UNL     1      13.205 -36.584 -31.072  1.00  0.00    -0.003 C 
ATOM      4  C   UNL     1      13.290 -36.560 -29.546  1.00  0.00     0.004 C 
ENDBRANCH   2   3
ENDBRANCH   1   2
BRANCH   1   5
ATOM      5  C   UNL     1      12.095 -33.016 -30.709  1.00  0.00     0.080 C 
BRANCH   5   6
ATOM      6  C   UNL     1      12.149 -32.859 -29.216  1.00  0.00     0.155 C 
ATOM      7  O   UNL     1      12.985 -32.061 -28.711  1.00  0.00    -0.295 OA
BRANCH   6   8
ATOM      8  C   UNL     1      11.252 -33.652 -28.351  1.00  0.00     0.039 C 
ATOM      9  C   UNL     1      11.592 -34.021 -27.118  1.00  0.00     0.012 C 
ENDBRANCH   6   8
ENDBRANCH   5   6
ENDBRANCH   1   5
TORSDOF 5
ENDMDL
MODEL 9
REMARK VINA RESULT:    -4.086      1.836      4.368
REMARK INTER + INTRA:          -5.518
REMARK INTER:                  -5.142
REMARK INTRA:                  -0.375
REMARK UNBOUND:                -0.237
REMARK SMILES C=CC(=O)CCCCC
REMARK SMILES IDX 6 1 7 2 8 3 9 4 5 5 3 6 4 7 2 8 1 9
REMARK H PARENT
REMARK Flexibility Score: inf
ROOT
ATOM      1  C   UNL     1      12.010 -34.609 -29.789  1.00  0.00     0.008 C 
ENDROOT
BRANCH   1   2
ATOM      2  C   UNL     1      13.137 -35.546 -29.320  1.00  0.00     0.000 C 
BRANCH   2   3
ATOM      3  C   UNL     1      13.379 -36.709 -30.296  1.00  0.00    -0.003 C 
ATOM      4  C   UNL     1      12.364 -36.745 -31.438  1.00  0.00     0.004 C 
ENDBRANCH   2   3
ENDBRANCH   1   2
BRANCH   1   5
ATOM      5  C   UNL     1      12.533 -33.216 -30.166  1.00  0.00     0.080 C 
BRANCH   5   6
ATOM      6  C   UNL     1      12.732 -33.073 -31.648  1.00  0.00     0.155 C 
ATOM      7  O   UNL     1      11.757 -33.276 -32.422  1.00  0.00    -0.295 OA
BRANCH   6   8
ATOM      8  C   UNL     1      14.061 -32.727 -32.191  1.00  0.00     0.039 C 
ATOM      9  C   UNL     1      14.706 -31.615 -31.845  1.00  0.00     0.012 C 
ENDBRANCH   6   8
ENDBRANCH   5   6
ENDBRANCH   1   5
TORSDOF 5
ENDMDL
