MODEL 1
REMARK VINA RESULT:    -2.107      0.000      0.000
REMARK INTER + INTRA:          -4.279
REMARK INTER:                  -3.277
REMARK INTRA:                  -1.001
REMARK UNBOUND:                -1.001
REMARK SMILES COc1cc(CNC(=O)CCCCC=CC(C)C)ccc1O
REMARK SMILES IDX 11 1 12 2 13 3 14 4 15 5 16 6 17 7 18 8 10 9 8 10 9 11 7 12
REMARK SMILES IDX 6 14 5 15 4 16 19 17 3 18 20 19 21 20 2 21 1 22 22 23
REMARK H PARENT 7 13 22 24
REMARK Flexibility Score: inf
ROOT
ATOM      1  C   UNL     1     -17.160  35.212 -10.370  1.00  0.00     0.010 C 
ENDROOT
BRANCH   1   2
ATOM      2  C   UNL     1     -17.142  36.720 -10.662  1.00  0.00     0.005 C 
BRANCH   2   3
ATOM      3  C   UNL     1     -17.610  37.047 -12.087  1.00  0.00     0.027 C 
BRANCH   3   4
ATOM      4  C   UNL     1     -19.032  37.535 -12.089  1.00  0.00    -0.031 C 
ATOM      5  C   UNL     1     -20.065  36.682 -12.077  1.00  0.00    -0.028 C 
BRANCH   5   6
ATOM      6  C   UNL     1     -21.490  37.180 -12.068  1.00  0.00     0.005 C 
ATOM      7  C   UNL     1     -21.749  38.032 -10.824  1.00  0.00     0.012 C 
ATOM      8  C   UNL     1     -22.472  36.004 -12.125  1.00  0.00     0.012 C 
ENDBRANCH   5   6
ENDBRANCH   3   4
ENDBRANCH   2   3
ENDBRANCH   1   2
BRANCH   1   9
ATOM      9  C   UNL     1     -16.315  34.409 -11.367  1.00  0.00     0.100 C 
BRANCH   9  10
ATOM     10  C   UNL     1     -17.004  33.121 -11.703  1.00  0.00     0.220 C 
ATOM     11  O   UNL     1     -16.356  32.041 -11.659  1.00  0.00    -0.275 OA
ATOM     12  N   UNL     1     -18.403  33.116 -12.015  1.00  0.00    -0.352 N 
ATOM     13  H   UNL     1     -18.908  34.027 -12.122  1.00  0.00     0.163 HD
BRANCH  12  14
ATOM     14  C   UNL     1     -19.182  31.884 -12.090  1.00  0.00     0.151 C 
BRANCH  14  15
ATOM     15  C   UNL     1     -20.562  32.123 -11.541  1.00  0.00    -0.025 A 
ATOM     16  C   UNL     1     -20.741  32.994 -10.455  1.00  0.00     0.056 A 
ATOM     17  C   UNL     1     -21.667  31.442 -12.071  1.00  0.00     0.009 A 
ATOM     18  C   UNL     1     -22.022  33.197  -9.906  1.00  0.00     0.160 A 
ATOM     19  C   UNL     1     -22.939  31.642 -11.532  1.00  0.00     0.050 A 
ATOM     20  C   UNL     1     -23.120  32.518 -10.452  1.00  0.00     0.157 A 
BRANCH  18  21
ATOM     21  O   UNL     1     -22.240  34.062  -8.823  1.00  0.00    -0.493 OA
ATOM     22  C   UNL     1     -22.607  35.432  -8.946  1.00  0.00     0.278 C 
ENDBRANCH  18  21
BRANCH  20  23
ATOM     23  O   UNL     1     -24.391  32.716  -9.915  1.00  0.00    -0.504 OA
ATOM     24  H   UNL     1     -25.161  33.054 -10.482  1.00  0.00     0.293 HD
ENDBRANCH  20  23
ENDBRANCH  14  15
ENDBRANCH  12  14
ENDBRANCH   9  10
ENDBRANCH   1   9
TORSDOF 10
ENDMDL
MODEL 2
REMARK VINA RESULT:    -1.766      2.024      4.216
REMARK INTER + INTRA:          -3.748
REMARK INTER:                  -2.748
REMARK INTRA:                  -1.000
REMARK UNBOUND:                -1.001
REMARK SMILES COc1cc(CNC(=O)CCCCC=CC(C)C)ccc1O
REMARK SMILES IDX 11 1 12 2 13 3 14 4 15 5 16 6 17 7 18 8 10 9 8 10 9 11 7 12
REMARK SMILES IDX 6 14 5 15 4 16 19 17 3 18 20 19 21 20 2 21 1 22 22 23
REMARK H PARENT 7 13 22 24
REMARK Flexibility Score: inf
ROOT
ATOM      1  C   UNL     1     -18.442  32.598 -12.124  1.00  0.00     0.010 C 
ENDROOT
BRANCH   1   2
ATOM      2  C   UNL     1     -17.595  33.142 -10.963  1.00  0.00     0.005 C 
BRANCH   2   3
ATOM      3  C   UNL     1     -16.138  33.398 -11.371  1.00  0.00     0.027 C 
BRANCH   3   4
ATOM      4  C   UNL     1     -15.919  34.847 -11.704  1.00  0.00    -0.031 C 
ATOM      5  C   UNL     1     -16.156  35.815 -10.809  1.00  0.00    -0.028 C 
BRANCH   5   6
ATOM      6  C   UNL     1     -15.923  37.268 -11.148  1.00  0.00     0.005 C 
ATOM      7  C   UNL     1     -15.875  38.111  -9.873  1.00  0.00     0.012 C 
ATOM      8  C   UNL     1     -17.017  37.784 -12.090  1.00  0.00     0.012 C 
ENDBRANCH   5   6
ENDBRANCH   3   4
ENDBRANCH   2   3
ENDBRANCH   1   2
BRANCH   1   9
ATOM      9  C   UNL     1     -18.950  31.174 -11.867  1.00  0.00     0.100 C 
BRANCH   9  10
ATOM     10  C   UNL     1     -20.402  31.206 -11.496  1.00  0.00     0.220 C 
ATOM     11  O   UNL     1     -20.832  30.428 -10.602  1.00  0.00    -0.275 OA
ATOM     12  N   UNL     1     -21.280  32.155 -12.115  1.00  0.00    -0.352 N 
ATOM     13  H   UNL     1     -20.925  32.740 -12.908  1.00  0.00     0.163 HD
BRANCH  12  14
ATOM     14  C   UNL     1     -22.627  32.415 -11.616  1.00  0.00     0.151 C 
BRANCH  14  15
ATOM     15  C   UNL     1     -22.665  33.756 -10.937  1.00  0.00    -0.025 A 
ATOM     16  C   UNL     1     -22.303  34.910 -11.649  1.00  0.00     0.056 A 
ATOM     17  C   UNL     1     -23.009  33.859  -9.582  1.00  0.00     0.009 A 
ATOM     18  C   UNL     1     -22.296  36.168 -11.016  1.00  0.00     0.160 A 
ATOM     19  C   UNL     1     -23.007  35.104  -8.950  1.00  0.00     0.050 A 
ATOM     20  C   UNL     1     -22.653  36.258  -9.663  1.00  0.00     0.157 A 
BRANCH  18  21
ATOM     21  O   UNL     1     -21.943  37.343 -11.696  1.00  0.00    -0.493 OA
ATOM     22  C   UNL     1     -20.624  37.662 -12.125  1.00  0.00     0.278 C 
ENDBRANCH  18  21
BRANCH  20  23
ATOM     23  O   UNL     1     -22.651  37.501  -9.030  1.00  0.00    -0.504 OA
ATOM     24  H   UNL     1     -23.397  37.778  -8.402  1.00  0.00     0.293 HD
ENDBRANCH  20  23
ENDBRANCH  14  15
ENDBRANCH  12  14
ENDBRANCH   9  10
ENDBRANCH   1   9
TORSDOF 10
ENDMDL
MODEL 3
REMARK VINA RESULT:    -0.344      1.668      4.531
REMARK INTER + INTRA:          -1.536
REMARK INTER:                  -2.246
REMARK INTRA:                   0.711
REMARK UNBOUND:                -1.001
REMARK SMILES COc1cc(CNC(=O)CCCCC=CC(C)C)ccc1O
REMARK SMILES IDX 11 1 12 2 13 3 14 4 15 5 16 6 17 7 18 8 10 9 8 10 9 11 7 12
REMARK SMILES IDX 6 14 5 15 4 16 19 17 3 18 20 19 21 20 2 21 1 22 22 23
REMARK H PARENT 7 13 22 24
REMARK Flexibility Score: inf
ROOT
ATOM      1  C   UNL     1     -17.348  32.001 -11.706  1.00  0.00     0.010 C 
ENDROOT
BRANCH   1   2
ATOM      2  C   UNL     1     -18.757  32.554 -11.967  1.00  0.00     0.005 C 
BRANCH   2   3
ATOM      3  C   UNL     1     -19.860  31.577 -11.539  1.00  0.00     0.027 C 
BRANCH   3   4
ATOM      4  C   UNL     1     -21.208  32.243 -11.559  1.00  0.00    -0.031 C 
ATOM      5  C   UNL     1     -22.334  31.550 -11.345  1.00  0.00    -0.028 C 
BRANCH   5   6
ATOM      6  C   UNL     1     -23.684  32.227 -11.357  1.00  0.00     0.005 C 
ATOM      7  C   UNL     1     -23.609  33.548 -12.125  1.00  0.00     0.012 C 
ATOM      8  C   UNL     1     -24.177  32.468  -9.926  1.00  0.00     0.012 C 
ENDBRANCH   5   6
ENDBRANCH   3   4
ENDBRANCH   2   3
ENDBRANCH   1   2
BRANCH   1   9
ATOM      9  C   UNL     1     -16.325  33.106 -11.417  1.00  0.00     0.100 C 
BRANCH   9  10
ATOM     10  C   UNL     1     -17.027  34.348 -10.959  1.00  0.00     0.220 C 
ATOM     11  O   UNL     1     -17.626  34.351  -9.851  1.00  0.00    -0.275 OA
ATOM     12  N   UNL     1     -16.966  35.541 -11.753  1.00  0.00    -0.352 N 
ATOM     13  H   UNL     1     -16.531  35.501 -12.705  1.00  0.00     0.163 HD
BRANCH  12  14
ATOM     14  C   UNL     1     -17.396  36.840 -11.246  1.00  0.00     0.151 C 
BRANCH  14  15
ATOM     15  C   UNL     1     -18.894  36.942 -11.319  1.00  0.00    -0.025 A 
ATOM     16  C   UNL     1     -19.692  35.957 -10.717  1.00  0.00     0.056 A 
ATOM     17  C   UNL     1     -19.503  37.986 -12.031  1.00  0.00     0.009 A 
ATOM     18  C   UNL     1     -21.096  36.019 -10.811  1.00  0.00     0.160 A 
ATOM     19  C   UNL     1     -20.894  38.053 -12.125  1.00  0.00     0.050 A 
ATOM     20  C   UNL     1     -21.692  37.074 -11.517  1.00  0.00     0.157 A 
BRANCH  18  21
ATOM     21  O   UNL     1     -21.926  35.055 -10.219  1.00  0.00    -0.493 OA
ATOM     22  C   UNL     1     -21.689  34.455  -8.949  1.00  0.00     0.278 C 
ENDBRANCH  18  21
BRANCH  20  23
ATOM     23  O   UNL     1     -23.081  37.142 -11.612  1.00  0.00    -0.504 OA
ATOM     24  H   UNL     1     -23.629  37.722 -10.985  1.00  0.00     0.293 HD
ENDBRANCH  20  23
ENDBRANCH  14  15
ENDBRANCH  12  14
ENDBRANCH   9  10
ENDBRANCH   1   9
TORSDOF 10
ENDMDL
MODEL 4
REMARK VINA RESULT:     0.625      2.237      4.588
REMARK INTER + INTRA:          -0.029
REMARK INTER:                   0.963
REMARK INTRA:                  -0.992
REMARK UNBOUND:                -1.001
REMARK SMILES COc1cc(CNC(=O)CCCCC=CC(C)C)ccc1O
REMARK SMILES IDX 11 1 12 2 13 3 14 4 15 5 16 6 17 7 18 8 10 9 8 10 9 11 7 12
REMARK SMILES IDX 6 14 5 15 4 16 19 17 3 18 20 19 21 20 2 21 1 22 22 23
REMARK H PARENT 7 13 22 24
REMARK Flexibility Score: inf
ROOT
ATOM      1  C   UNL     1     -16.644  34.455 -11.900  1.00  0.00     0.010 C 
ENDROOT
BRANCH   1   2
ATOM      2  C   UNL     1     -17.401  33.171 -11.529  1.00  0.00     0.005 C 
BRANCH   2   3
ATOM      3  C   UNL     1     -18.494  33.416 -10.481  1.00  0.00     0.027 C 
BRANCH   3   4
ATOM      4  C   UNL     1     -19.849  33.045 -11.017  1.00  0.00    -0.031 C 
ATOM      5  C   UNL     1     -20.971  33.566 -10.503  1.00  0.00    -0.028 C 
BRANCH   5   6
ATOM      6  C   UNL     1     -22.328  33.196 -11.054  1.00  0.00     0.005 C 
ATOM      7  C   UNL     1     -23.296  32.877  -9.913  1.00  0.00     0.012 C 
ATOM      8  C   UNL     1     -22.215  32.004 -12.010  1.00  0.00     0.012 C 
ENDBRANCH   5   6
ENDBRANCH   3   4
ENDBRANCH   2   3
ENDBRANCH   1   2
BRANCH   1   9
ATOM      9  C   UNL     1     -16.110  35.199 -10.671  1.00  0.00     0.100 C 
BRANCH   9  10
ATOM     10  C   UNL     1     -16.665  36.591 -10.632  1.00  0.00     0.220 C 
ATOM     11  O   UNL     1     -15.877  37.574 -10.595  1.00  0.00    -0.275 OA
ATOM     12  N   UNL     1     -18.082  36.799 -10.694  1.00  0.00    -0.352 N 
ATOM     13  H   UNL     1     -18.724  35.974 -10.648  1.00  0.00     0.163 HD
BRANCH  12  14
ATOM     14  C   UNL     1     -18.668  38.116 -10.926  1.00  0.00     0.151 C 
BRANCH  14  15
ATOM     15  C   UNL     1     -20.168  38.010 -10.927  1.00  0.00    -0.025 A 
ATOM     16  C   UNL     1     -20.851  37.745  -9.730  1.00  0.00     0.056 A 
ATOM     17  C   UNL     1     -20.889  38.120 -12.124  1.00  0.00     0.009 A 
ATOM     18  C   UNL     1     -22.252  37.604  -9.722  1.00  0.00     0.160 A 
ATOM     19  C   UNL     1     -22.278  37.983 -12.122  1.00  0.00     0.050 A 
ATOM     20  C   UNL     1     -22.962  37.727 -10.925  1.00  0.00     0.157 A 
BRANCH  18  21
ATOM     21  O   UNL     1     -22.969  37.343  -8.545  1.00  0.00    -0.493 OA
ATOM     22  C   UNL     1     -23.346  36.043  -8.101  1.00  0.00     0.278 C 
ENDBRANCH  18  21
BRANCH  20  23
ATOM     23  O   UNL     1     -24.349  37.591 -10.925  1.00  0.00    -0.504 OA
ATOM     24  H   UNL     1     -24.924  38.013 -10.204  1.00  0.00     0.293 HD
ENDBRANCH  20  23
ENDBRANCH  14  15
ENDBRANCH  12  14
ENDBRANCH   9  10
ENDBRANCH   1   9
TORSDOF 10
ENDMDL
MODEL 5
REMARK VINA RESULT:     0.829      2.085      5.139
REMARK INTER + INTRA:           0.287
REMARK INTER:                  -2.883
REMARK INTRA:                   3.170
REMARK UNBOUND:                -1.001
REMARK SMILES COc1cc(CNC(=O)CCCCC=CC(C)C)ccc1O
REMARK SMILES IDX 11 1 12 2 13 3 14 4 15 5 16 6 17 7 18 8 10 9 8 10 9 11 7 12
REMARK SMILES IDX 6 14 5 15 4 16 19 17 3 18 20 19 21 20 2 21 1 22 22 23
REMARK H PARENT 7 13 22 24
REMARK Flexibility Score: inf
ROOT
ATOM      1  C   UNL     1     -21.367  31.772 -11.975  1.00  0.00     0.010 C 
ENDROOT
BRANCH   1   2
ATOM      2  C   UNL     1     -22.010  31.347 -10.647  1.00  0.00     0.005 C 
BRANCH   2   3
ATOM      3  C   UNL     1     -22.086  32.499  -9.637  1.00  0.00     0.027 C 
BRANCH   3   4
ATOM      4  C   UNL     1     -22.446  33.791 -10.318  1.00  0.00    -0.031 C 
ATOM      5  C   UNL     1     -21.770  34.921 -10.077  1.00  0.00    -0.028 C 
BRANCH   5   6
ATOM      6  C   UNL     1     -22.131  36.212 -10.773  1.00  0.00     0.005 C 
ATOM      7  C   UNL     1     -22.979  37.093  -9.854  1.00  0.00     0.012 C 
ATOM      8  C   UNL     1     -22.878  35.928 -12.080  1.00  0.00     0.012 C 
ENDBRANCH   5   6
ENDBRANCH   3   4
ENDBRANCH   2   3
ENDBRANCH   1   2
BRANCH   1   9
ATOM      9  C   UNL     1     -19.918  31.289 -12.110  1.00  0.00     0.100 C 
BRANCH   9  10
ATOM     10  C   UNL     1     -18.986  32.282 -11.483  1.00  0.00     0.220 C 
ATOM     11  O   UNL     1     -19.374  33.466 -11.296  1.00  0.00    -0.275 OA
ATOM     12  N   UNL     1     -17.683  31.868 -11.050  1.00  0.00    -0.352 N 
ATOM     13  H   UNL     1     -17.349  30.903 -11.281  1.00  0.00     0.163 HD
BRANCH  12  14
ATOM     14  C   UNL     1     -16.839  32.706 -10.204  1.00  0.00     0.151 C 
BRANCH  14  15
ATOM     15  C   UNL     1     -16.891  34.128 -10.687  1.00  0.00    -0.025 A 
ATOM     16  C   UNL     1     -17.986  34.940 -10.355  1.00  0.00     0.056 A 
ATOM     17  C   UNL     1     -15.879  34.638 -11.514  1.00  0.00     0.009 A 
ATOM     18  C   UNL     1     -18.067  36.262 -10.833  1.00  0.00     0.160 A 
ATOM     19  C   UNL     1     -15.953  35.948 -11.989  1.00  0.00     0.050 A 
ATOM     20  C   UNL     1     -17.043  36.762 -11.650  1.00  0.00     0.157 A 
BRANCH  18  21
ATOM     21  O   UNL     1     -19.145  37.104 -10.519  1.00  0.00    -0.493 OA
ATOM     22  C   UNL     1     -19.802  37.957 -11.451  1.00  0.00     0.278 C 
ENDBRANCH  18  21
BRANCH  20  23
ATOM     23  O   UNL     1     -17.116  38.071 -12.125  1.00  0.00    -0.504 OA
ATOM     24  H   UNL     1     -17.906  38.670 -11.912  1.00  0.00     0.293 HD
ENDBRANCH  20  23
ENDBRANCH  14  15
ENDBRANCH  12  14
ENDBRANCH   9  10
ENDBRANCH   1   9
TORSDOF 10
ENDMDL
