MODEL 1
REMARK VINA RESULT:    -6.333      0.000      0.000
REMARK INTER + INTRA:         -10.054
REMARK INTER:                  -8.924
REMARK INTRA:                  -1.130
REMARK UNBOUND:                -1.130
REMARK SMILES COc1c(O[C@@H]2O[C@@H](C(=O)[O-])[C@H](O)[C@@H](O)[C@H]2O)cc(O)c2c(=O)cc(-c3ccccc3)oc12
REMARK SMILES IDX 5 1 6 2 8 3 12 4 7 5 14 6 16 7 9 8 10 9 11 10 13 11 15 13
REMARK SMILES IDX 17 15 4 17 3 18 18 19 33 20 19 21 21 22 32 23 22 24 25 25
REMARK SMILES IDX 24 26 23 27 2 28 1 29 20 30 26 32 27 33 31 34 28 35 30 36
REMARK SMILES IDX 29 37
REMARK H PARENT 13 12 15 14 17 16 20 31
REMARK Flexibility Score: inf
ROOT
ATOM      1  O   UNL     1      45.047  16.639  -2.998  1.00  0.00    -0.458 OA
ENDROOT
BRANCH   1   2
ATOM      2  C   UNL     1      43.723  16.937  -3.472  1.00  0.00     0.339 C 
ATOM      3  C   UNL     1      42.775  18.903  -2.433  1.00  0.00     0.199 C 
ATOM      4  C   UNL     1      41.520  18.132  -2.001  1.00  0.00     0.180 C 
ATOM      5  O   UNL     1      43.436  18.332  -3.555  1.00  0.00    -0.328 OA
ATOM      6  C   UNL     1      41.942  16.702  -1.631  1.00  0.00     0.181 C 
ATOM      7  C   UNL     1      42.633  16.033  -2.824  1.00  0.00     0.214 C 
BRANCH   3   8
ATOM      8  C   UNL     1      42.437  20.327  -2.789  1.00  0.00     0.073 C 
ATOM      9  O   UNL     1      42.205  20.645  -3.988  1.00  0.00    -0.547 OA
ATOM     10  O   UNL     1      42.452  21.311  -1.804  1.00  0.00    -0.547 OA
ENDBRANCH   3   8
BRANCH   4  11
ATOM     11  O   UNL     1      40.966  18.752  -0.866  1.00  0.00    -0.387 OA
ATOM     12  H   UNL     1      40.138  18.258  -0.629  1.00  0.00     0.211 HD
ENDBRANCH   4  11
BRANCH   6  13
ATOM     13  O   UNL     1      40.805  15.955  -1.264  1.00  0.00    -0.387 OA
ATOM     14  H   UNL     1      40.023  16.560  -1.350  1.00  0.00     0.211 HD
ENDBRANCH   6  13
BRANCH   7  15
ATOM     15  O   UNL     1      41.687  15.628  -3.790  1.00  0.00    -0.384 OA
ATOM     16  H   UNL     1      40.895  15.266  -3.314  1.00  0.00     0.211 HD
ENDBRANCH   7  15
ENDBRANCH   1   2
BRANCH   1  17
ATOM     17  C   UNL     1      45.820  15.487  -3.196  1.00  0.00     0.172 A 
ATOM     18  C   UNL     1      46.892  15.514  -4.114  1.00  0.00     0.205 A 
ATOM     19  C   UNL     1      45.637  14.361  -2.388  1.00  0.00     0.097 A 
ATOM     20  C   UNL     1      47.744  14.405  -4.224  1.00  0.00     0.188 A 
ATOM     21  C   UNL     1      46.410  13.205  -2.571  1.00  0.00     0.134 A 
ATOM     22  C   UNL     1      47.472  13.219  -3.504  1.00  0.00     0.111 A 
ATOM     23  O   UNL     1      48.864  14.521  -4.932  1.00  0.00    -0.452 OA
ATOM     24  C   UNL     1      48.364  12.134  -3.664  1.00  0.00     0.197 A 
ATOM     25  C   UNL     1      49.780  13.557  -4.986  1.00  0.00     0.138 A 
ATOM     26  C   UNL     1      49.524  12.311  -4.418  1.00  0.00     0.100 A 
ATOM     27  O   UNL     1      48.162  11.033  -3.095  1.00  0.00    -0.289 OA
BRANCH  18  28
ATOM     28  O   UNL     1      47.181  16.637  -4.903  1.00  0.00    -0.490 OA
ATOM     29  C   UNL     1      46.447  17.016  -6.063  1.00  0.00     0.278 C 
ENDBRANCH  18  28
BRANCH  21  30
ATOM     30  O   UNL     1      46.153  12.076  -1.792  1.00  0.00    -0.507 OA
ATOM     31  H   UNL     1      46.902  11.466  -1.479  1.00  0.00     0.293 HD
ENDBRANCH  21  30
BRANCH  25  32
ATOM     32  C   UNL     1      51.139  13.885  -5.431  1.00  0.00     0.017 A 
ATOM     33  C   UNL     1      51.489  15.250  -5.476  1.00  0.00     0.012 A 
ATOM     34  C   UNL     1      52.096  12.912  -5.773  1.00  0.00     0.012 A 
ATOM     35  C   UNL     1      52.794  15.627  -5.804  1.00  0.00     0.001 A 
ATOM     36  C   UNL     1      53.392  13.303  -6.123  1.00  0.00     0.001 A 
ATOM     37  C   UNL     1      53.745  14.657  -6.125  1.00  0.00     0.000 A 
ENDBRANCH  25  32
ENDBRANCH   1  17
TORSDOF 9
ENDMDL
MODEL 2
REMARK VINA RESULT:    -6.163      1.297      1.922
REMARK INTER + INTRA:          -9.815
REMARK INTER:                  -8.833
REMARK INTRA:                  -0.982
REMARK UNBOUND:                -1.130
REMARK SMILES COc1c(O[C@@H]2O[C@@H](C(=O)[O-])[C@H](O)[C@@H](O)[C@H]2O)cc(O)c2c(=O)cc(-c3ccccc3)oc12
REMARK SMILES IDX 5 1 6 2 8 3 12 4 7 5 14 6 16 7 9 8 10 9 11 10 13 11 15 13
REMARK SMILES IDX 17 15 4 17 3 18 18 19 33 20 19 21 21 22 32 23 22 24 25 25
REMARK SMILES IDX 24 26 23 27 2 28 1 29 20 30 26 32 27 33 31 34 28 35 30 36
REMARK SMILES IDX 29 37
REMARK H PARENT 13 12 15 14 17 16 20 31
REMARK Flexibility Score: inf
ROOT
ATOM      1  O   UNL     1      44.007  16.095  -3.849  1.00  0.00    -0.458 OA
ENDROOT
BRANCH   1   2
ATOM      2  C   UNL     1      42.647  16.120  -3.382  1.00  0.00     0.339 C 
ATOM      3  C   UNL     1      41.450  18.098  -4.088  1.00  0.00     0.199 C 
ATOM      4  C   UNL     1      41.048  18.433  -2.645  1.00  0.00     0.180 C 
ATOM      5  O   UNL     1      41.730  16.719  -4.296  1.00  0.00    -0.328 OA
ATOM      6  C   UNL     1      42.211  18.036  -1.723  1.00  0.00     0.181 C 
ATOM      7  C   UNL     1      42.530  16.546  -1.889  1.00  0.00     0.214 C 
BRANCH   3   8
ATOM      8  C   UNL     1      40.360  18.484  -5.054  1.00  0.00     0.073 C 
ATOM      9  O   UNL     1      39.772  17.600  -5.736  1.00  0.00    -0.547 OA
ATOM     10  O   UNL     1      40.050  19.827  -5.250  1.00  0.00    -0.547 OA
ENDBRANCH   3   8
BRANCH   4  11
ATOM     11  O   UNL     1      40.832  19.818  -2.537  1.00  0.00    -0.387 OA
ATOM     12  H   UNL     1      41.560  20.275  -3.035  1.00  0.00     0.211 HD
ENDBRANCH   4  11
BRANCH   6  13
ATOM     13  O   UNL     1      41.860  18.297  -0.384  1.00  0.00    -0.387 OA
ATOM     14  H   UNL     1      42.434  19.046  -0.076  1.00  0.00     0.211 HD
ENDBRANCH   6  13
BRANCH   7  15
ATOM     15  O   UNL     1      41.576  15.751  -1.220  1.00  0.00    -0.384 OA
ATOM     16  H   UNL     1      41.820  15.719  -0.259  1.00  0.00     0.211 HD
ENDBRANCH   7  15
ENDBRANCH   1   2
BRANCH   1  17
ATOM     17  C   UNL     1      44.944  15.055  -3.789  1.00  0.00     0.172 A 
ATOM     18  C   UNL     1      46.112  15.120  -4.579  1.00  0.00     0.205 A 
ATOM     19  C   UNL     1      44.809  14.030  -2.848  1.00  0.00     0.097 A 
ATOM     20  C   UNL     1      47.110  14.145  -4.431  1.00  0.00     0.188 A 
ATOM     21  C   UNL     1      45.744  12.988  -2.773  1.00  0.00     0.134 A 
ATOM     22  C   UNL     1      46.906  13.037  -3.577  1.00  0.00     0.111 A 
ATOM     23  O   UNL     1      48.286  14.332  -5.023  1.00  0.00    -0.452 OA
ATOM     24  C   UNL     1      47.947  12.085  -3.477  1.00  0.00     0.197 A 
ATOM     25  C   UNL     1      49.320  13.517  -4.833  1.00  0.00     0.138 A 
ATOM     26  C   UNL     1      49.160  12.332  -4.119  1.00  0.00     0.100 A 
ATOM     27  O   UNL     1      47.821  11.051  -2.777  1.00  0.00    -0.289 OA
BRANCH  18  28
ATOM     28  O   UNL     1      46.349  16.161  -5.489  1.00  0.00    -0.490 OA
ATOM     29  C   UNL     1      47.165  17.296  -5.219  1.00  0.00     0.278 C 
ENDBRANCH  18  28
BRANCH  21  30
ATOM     30  O   UNL     1      45.541  11.945  -1.868  1.00  0.00    -0.507 OA
ATOM     31  H   UNL     1      45.453  10.983  -2.179  1.00  0.00     0.293 HD
ENDBRANCH  21  30
BRANCH  25  32
ATOM     32  C   UNL     1      50.670  13.982  -5.172  1.00  0.00     0.017 A 
ATOM     33  C   UNL     1      51.590  13.012  -5.622  1.00  0.00     0.012 A 
ATOM     34  C   UNL     1      51.063  15.330  -5.101  1.00  0.00     0.012 A 
ATOM     35  C   UNL     1      52.863  13.400  -6.046  1.00  0.00     0.001 A 
ATOM     36  C   UNL     1      52.349  15.703  -5.507  1.00  0.00     0.001 A 
ATOM     37  C   UNL     1      53.243  14.742  -5.991  1.00  0.00     0.000 A 
ENDBRANCH  25  32
ENDBRANCH   1  17
TORSDOF 9
ENDMDL
MODEL 3
REMARK VINA RESULT:    -6.059      1.000      1.515
REMARK INTER + INTRA:          -9.668
REMARK INTER:                  -8.366
REMARK INTRA:                  -1.303
REMARK UNBOUND:                -1.130
REMARK SMILES COc1c(O[C@@H]2O[C@@H](C(=O)[O-])[C@H](O)[C@@H](O)[C@H]2O)cc(O)c2c(=O)cc(-c3ccccc3)oc12
REMARK SMILES IDX 5 1 6 2 8 3 12 4 7 5 14 6 16 7 9 8 10 9 11 10 13 11 15 13
REMARK SMILES IDX 17 15 4 17 3 18 18 19 33 20 19 21 21 22 32 23 22 24 25 25
REMARK SMILES IDX 24 26 23 27 2 28 1 29 20 30 26 32 27 33 31 34 28 35 30 36
REMARK SMILES IDX 29 37
REMARK H PARENT 13 12 15 14 17 16 20 31
REMARK Flexibility Score: inf
ROOT
ATOM      1  O   UNL     1      44.549  16.863  -2.607  1.00  0.00    -0.458 OA
ENDROOT
BRANCH   1   2
ATOM      2  C   UNL     1      43.273  17.362  -3.042  1.00  0.00     0.339 C 
ATOM      3  C   UNL     1      43.290  19.742  -3.463  1.00  0.00     0.199 C 
ATOM      4  C   UNL     1      42.097  19.969  -2.525  1.00  0.00     0.180 C 
ATOM      5  O   UNL     1      43.357  18.424  -3.992  1.00  0.00    -0.328 OA
ATOM      6  C   UNL     1      42.223  18.988  -1.349  1.00  0.00     0.181 C 
ATOM      7  C   UNL     1      42.266  17.547  -1.869  1.00  0.00     0.214 C 
BRANCH   3   8
ATOM      8  C   UNL     1      43.244  20.692  -4.632  1.00  0.00     0.073 C 
ATOM      9  O   UNL     1      42.155  21.233  -4.970  1.00  0.00    -0.547 OA
ATOM     10  O   UNL     1      44.391  20.919  -5.388  1.00  0.00    -0.547 OA
ENDBRANCH   3   8
BRANCH   4  11
ATOM     11  O   UNL     1      42.144  21.284  -2.029  1.00  0.00    -0.387 OA
ATOM     12  H   UNL     1      43.052  21.429  -1.650  1.00  0.00     0.211 HD
ENDBRANCH   4  11
BRANCH   6  13
ATOM     13  O   UNL     1      41.120  19.145  -0.485  1.00  0.00    -0.387 OA
ATOM     14  H   UNL     1      40.601  19.922  -0.818  1.00  0.00     0.211 HD
ENDBRANCH   6  13
BRANCH   7  15
ATOM     15  O   UNL     1      40.979  17.110  -2.247  1.00  0.00    -0.384 OA
ATOM     16  H   UNL     1      40.967  17.002  -3.234  1.00  0.00     0.211 HD
ENDBRANCH   7  15
ENDBRANCH   1   2
BRANCH   1  17
ATOM     17  C   UNL     1      45.241  15.719  -3.025  1.00  0.00     0.172 A 
ATOM     18  C   UNL     1      46.342  15.848  -3.900  1.00  0.00     0.205 A 
ATOM     19  C   UNL     1      44.950  14.470  -2.469  1.00  0.00     0.097 A 
ATOM     20  C   UNL     1      47.113  14.721  -4.222  1.00  0.00     0.188 A 
ATOM     21  C   UNL     1      45.641  13.319  -2.872  1.00  0.00     0.134 A 
ATOM     22  C   UNL     1      46.731  13.438  -3.765  1.00  0.00     0.111 A 
ATOM     23  O   UNL     1      48.261  14.890  -4.872  1.00  0.00    -0.452 OA
ATOM     24  C   UNL     1      47.545  12.342  -4.130  1.00  0.00     0.197 A 
ATOM     25  C   UNL     1      49.104  13.888  -5.107  1.00  0.00     0.138 A 
ATOM     26  C   UNL     1      48.739  12.577  -4.812  1.00  0.00     0.100 A 
ATOM     27  O   UNL     1      47.245  11.168  -3.803  1.00  0.00    -0.289 OA
BRANCH  18  28
ATOM     28  O   UNL     1      46.738  17.082  -4.436  1.00  0.00    -0.490 OA
ATOM     29  C   UNL     1      46.270  17.608  -5.674  1.00  0.00     0.278 C 
ENDBRANCH  18  28
BRANCH  21  30
ATOM     30  O   UNL     1      45.277  12.078  -2.346  1.00  0.00    -0.507 OA
ATOM     31  H   UNL     1      45.081  11.959  -1.357  1.00  0.00     0.293 HD
ENDBRANCH  21  30
BRANCH  25  32
ATOM     32  C   UNL     1      50.498  14.192  -5.453  1.00  0.00     0.017 A 
ATOM     33  C   UNL     1      50.887  15.547  -5.424  1.00  0.00     0.012 A 
ATOM     34  C   UNL     1      51.448  13.204  -5.770  1.00  0.00     0.012 A 
ATOM     35  C   UNL     1      52.219  15.897  -5.654  1.00  0.00     0.001 A 
ATOM     36  C   UNL     1      52.774  13.570  -6.023  1.00  0.00     0.001 A 
ATOM     37  C   UNL     1      53.163  14.912  -5.951  1.00  0.00     0.000 A 
ENDBRANCH  25  32
ENDBRANCH   1  17
TORSDOF 9
ENDMDL
MODEL 4
REMARK VINA RESULT:    -5.441      2.034      3.229
REMARK INTER + INTRA:          -8.798
REMARK INTER:                  -7.863
REMARK INTRA:                  -0.936
REMARK UNBOUND:                -1.130
REMARK SMILES COc1c(O[C@@H]2O[C@@H](C(=O)[O-])[C@H](O)[C@@H](O)[C@H]2O)cc(O)c2c(=O)cc(-c3ccccc3)oc12
REMARK SMILES IDX 5 1 6 2 8 3 12 4 7 5 14 6 16 7 9 8 10 9 11 10 13 11 15 13
REMARK SMILES IDX 17 15 4 17 3 18 18 19 33 20 19 21 21 22 32 23 22 24 25 25
REMARK SMILES IDX 24 26 23 27 2 28 1 29 20 30 26 32 27 33 31 34 28 35 30 36
REMARK SMILES IDX 29 37
REMARK H PARENT 13 12 15 14 17 16 20 31
REMARK Flexibility Score: inf
ROOT
ATOM      1  O   UNL     1      41.267  16.358  -4.938  1.00  0.00    -0.458 OA
ENDROOT
BRANCH   1   2
ATOM      2  C   UNL     1      40.815  17.475  -4.154  1.00  0.00     0.339 C 
ATOM      3  C   UNL     1      42.491  19.202  -3.928  1.00  0.00     0.199 C 
ATOM      4  C   UNL     1      42.379  19.182  -2.397  1.00  0.00     0.180 C 
ATOM      5  O   UNL     1      41.323  18.735  -4.591  1.00  0.00    -0.328 OA
ATOM      6  C   UNL     1      42.126  17.732  -1.957  1.00  0.00     0.181 C 
ATOM      7  C   UNL     1      40.856  17.193  -2.624  1.00  0.00     0.214 C 
BRANCH   3   8
ATOM      8  C   UNL     1      42.764  20.596  -4.430  1.00  0.00     0.073 C 
ATOM      9  O   UNL     1      41.807  21.362  -4.731  1.00  0.00    -0.547 OA
ATOM     10  O   UNL     1      44.076  21.017  -4.632  1.00  0.00    -0.547 OA
ENDBRANCH   3   8
BRANCH   4  11
ATOM     11  O   UNL     1      43.593  19.623  -1.841  1.00  0.00    -0.387 OA
ATOM     12  H   UNL     1      44.311  19.023  -2.175  1.00  0.00     0.211 HD
ENDBRANCH   4  11
BRANCH   6  13
ATOM     13  O   UNL     1      41.982  17.683  -0.556  1.00  0.00    -0.387 OA
ATOM     14  H   UNL     1      42.244  18.575  -0.209  1.00  0.00     0.211 HD
ENDBRANCH   6  13
BRANCH   7  15
ATOM     15  O   UNL     1      39.702  17.708  -1.994  1.00  0.00    -0.384 OA
ATOM     16  H   UNL     1      39.960  18.031  -1.092  1.00  0.00     0.211 HD
ENDBRANCH   7  15
ENDBRANCH   1   2
BRANCH   1  17
ATOM     17  C   UNL     1      42.152  15.331  -4.586  1.00  0.00     0.172 A 
ATOM     18  C   UNL     1      43.491  15.377  -5.032  1.00  0.00     0.205 A 
ATOM     19  C   UNL     1      41.768  14.342  -3.675  1.00  0.00     0.097 A 
ATOM     20  C   UNL     1      44.411  14.419  -4.580  1.00  0.00     0.188 A 
ATOM     21  C   UNL     1      42.647  13.313  -3.308  1.00  0.00     0.134 A 
ATOM     22  C   UNL     1      43.983  13.343  -3.770  1.00  0.00     0.111 A 
ATOM     23  O   UNL     1      45.704  14.595  -4.839  1.00  0.00    -0.452 OA
ATOM     24  C   UNL     1      44.957  12.406  -3.354  1.00  0.00     0.197 A 
ATOM     25  C   UNL     1      46.647  13.798  -4.345  1.00  0.00     0.138 A 
ATOM     26  C   UNL     1      46.299  12.640  -3.653  1.00  0.00     0.100 A 
ATOM     27  O   UNL     1      44.646  11.398  -2.673  1.00  0.00    -0.289 OA
BRANCH  18  28
ATOM     28  O   UNL     1      43.967  16.384  -5.885  1.00  0.00    -0.490 OA
ATOM     29  C   UNL     1      44.845  17.430  -5.484  1.00  0.00     0.278 C 
ENDBRANCH  18  28
BRANCH  21  30
ATOM     30  O   UNL     1      42.205  12.304  -2.451  1.00  0.00    -0.507 OA
ATOM     31  H   UNL     1      42.261  12.405  -1.442  1.00  0.00     0.293 HD
ENDBRANCH  21  30
BRANCH  25  32
ATOM     32  C   UNL     1      48.039  14.263  -4.324  1.00  0.00     0.017 A 
ATOM     33  C   UNL     1      49.038  13.294  -4.097  1.00  0.00     0.012 A 
ATOM     34  C   UNL     1      48.410  15.600  -4.553  1.00  0.00     0.012 A 
ATOM     35  C   UNL     1      50.386  13.653  -4.154  1.00  0.00     0.001 A 
ATOM     36  C   UNL     1      49.764  15.952  -4.584  1.00  0.00     0.001 A 
ATOM     37  C   UNL     1      50.751  14.978  -4.399  1.00  0.00     0.000 A 
ENDBRANCH  25  32
ENDBRANCH   1  17
TORSDOF 9
ENDMDL
MODEL 5
REMARK VINA RESULT:    -5.411      2.347      4.212
REMARK INTER + INTRA:          -8.755
REMARK INTER:                  -7.611
REMARK INTRA:                  -1.145
REMARK UNBOUND:                -1.130
REMARK SMILES COc1c(O[C@@H]2O[C@@H](C(=O)[O-])[C@H](O)[C@@H](O)[C@H]2O)cc(O)c2c(=O)cc(-c3ccccc3)oc12
REMARK SMILES IDX 5 1 6 2 8 3 12 4 7 5 14 6 16 7 9 8 10 9 11 10 13 11 15 13
REMARK SMILES IDX 17 15 4 17 3 18 18 19 33 20 19 21 21 22 32 23 22 24 25 25
REMARK SMILES IDX 24 26 23 27 2 28 1 29 20 30 26 32 27 33 31 34 28 35 30 36
REMARK SMILES IDX 29 37
REMARK H PARENT 13 12 15 14 17 16 20 31
REMARK Flexibility Score: inf
ROOT
ATOM      1  O   UNL     1      41.909  16.617  -4.273  1.00  0.00    -0.458 OA
ENDROOT
BRANCH   1   2
ATOM      2  C   UNL     1      40.968  17.587  -3.784  1.00  0.00     0.339 C 
ATOM      3  C   UNL     1      41.701  19.864  -4.133  1.00  0.00     0.199 C 
ATOM      4  C   UNL     1      41.521  20.204  -2.648  1.00  0.00     0.180 C 
ATOM      5  O   UNL     1      40.898  18.776  -4.571  1.00  0.00    -0.328 OA
ATOM      6  C   UNL     1      41.903  18.965  -1.825  1.00  0.00     0.181 C 
ATOM      7  C   UNL     1      41.039  17.770  -2.240  1.00  0.00     0.214 C 
BRANCH   3   8
ATOM      8  C   UNL     1      41.365  21.047  -5.002  1.00  0.00     0.073 C 
ATOM      9  O   UNL     1      40.298  21.059  -5.676  1.00  0.00    -0.547 OA
ATOM     10  O   UNL     1      42.268  22.101  -5.121  1.00  0.00    -0.547 OA
ENDBRANCH   3   8
BRANCH   4  11
ATOM     11  O   UNL     1      42.383  21.262  -2.309  1.00  0.00    -0.387 OA
ATOM     12  H   UNL     1      42.978  20.942  -1.579  1.00  0.00     0.211 HD
ENDBRANCH   4  11
BRANCH   6  13
ATOM     13  O   UNL     1      41.713  19.232  -0.454  1.00  0.00    -0.387 OA
ATOM     14  H   UNL     1      42.607  19.427  -0.071  1.00  0.00     0.211 HD
ENDBRANCH   6  13
BRANCH   7  15
ATOM     15  O   UNL     1      39.742  17.875  -1.694  1.00  0.00    -0.384 OA
ATOM     16  H   UNL     1      39.704  18.700  -1.144  1.00  0.00     0.211 HD
ENDBRANCH   7  15
ENDBRANCH   1   2
BRANCH   1  17
ATOM     17  C   UNL     1      43.306  16.696  -4.343  1.00  0.00     0.172 A 
ATOM     18  C   UNL     1      44.095  15.756  -3.645  1.00  0.00     0.205 A 
ATOM     19  C   UNL     1      43.925  17.599  -5.212  1.00  0.00     0.097 A 
ATOM     20  C   UNL     1      45.489  15.754  -3.811  1.00  0.00     0.188 A 
ATOM     21  C   UNL     1      45.322  17.682  -5.297  1.00  0.00     0.134 A 
ATOM     22  C   UNL     1      46.118  16.756  -4.584  1.00  0.00     0.111 A 
ATOM     23  O   UNL     1      46.195  14.740  -3.318  1.00  0.00    -0.452 OA
ATOM     24  C   UNL     1      47.526  16.705  -4.707  1.00  0.00     0.197 A 
ATOM     25  C   UNL     1      47.500  14.605  -3.537  1.00  0.00     0.138 A 
ATOM     26  C   UNL     1      48.217  15.618  -4.170  1.00  0.00     0.100 A 
ATOM     27  O   UNL     1      48.160  17.586  -5.337  1.00  0.00    -0.289 OA
BRANCH  18  28
ATOM     28  O   UNL     1      43.538  14.772  -2.815  1.00  0.00    -0.490 OA
ATOM     29  C   UNL     1      43.151  13.474  -3.253  1.00  0.00     0.278 C 
ENDBRANCH  18  28
BRANCH  21  30
ATOM     30  O   UNL     1      45.905  18.643  -6.125  1.00  0.00    -0.507 OA
ATOM     31  H   UNL     1      45.366  19.123  -6.839  1.00  0.00     0.293 HD
ENDBRANCH  21  30
BRANCH  25  32
ATOM     32  C   UNL     1      48.130  13.297  -3.324  1.00  0.00     0.017 A 
ATOM     33  C   UNL     1      49.193  12.947  -4.183  1.00  0.00     0.012 A 
ATOM     34  C   UNL     1      47.748  12.413  -2.299  1.00  0.00     0.012 A 
ATOM     35  C   UNL     1      49.894  11.757  -3.979  1.00  0.00     0.001 A 
ATOM     36  C   UNL     1      48.443  11.212  -2.120  1.00  0.00     0.001 A 
ATOM     37  C   UNL     1      49.523  10.891  -2.949  1.00  0.00     0.000 A 
ENDBRANCH  25  32
ENDBRANCH   1  17
TORSDOF 9
ENDMDL
MODEL 6
REMARK VINA RESULT:    -5.374      1.682      2.381
REMARK INTER + INTRA:          -8.704
REMARK INTER:                  -7.850
REMARK INTRA:                  -0.853
REMARK UNBOUND:                -1.130
REMARK SMILES COc1c(O[C@@H]2O[C@@H](C(=O)[O-])[C@H](O)[C@@H](O)[C@H]2O)cc(O)c2c(=O)cc(-c3ccccc3)oc12
REMARK SMILES IDX 5 1 6 2 8 3 12 4 7 5 14 6 16 7 9 8 10 9 11 10 13 11 15 13
REMARK SMILES IDX 17 15 4 17 3 18 18 19 33 20 19 21 21 22 32 23 22 24 25 25
REMARK SMILES IDX 24 26 23 27 2 28 1 29 20 30 26 32 27 33 31 34 28 35 30 36
REMARK SMILES IDX 29 37
REMARK H PARENT 13 12 15 14 17 16 20 31
REMARK Flexibility Score: inf
ROOT
ATOM      1  O   UNL     1      44.134  17.608  -2.732  1.00  0.00    -0.458 OA
ENDROOT
BRANCH   1   2
ATOM      2  C   UNL     1      43.128  18.495  -3.251  1.00  0.00     0.339 C 
ATOM      3  C   UNL     1      41.507  19.153  -1.584  1.00  0.00     0.199 C 
ATOM      4  C   UNL     1      40.337  18.695  -2.466  1.00  0.00     0.180 C 
ATOM      5  O   UNL     1      42.681  19.476  -2.317  1.00  0.00    -0.328 OA
ATOM      6  C   UNL     1      40.783  17.442  -3.234  1.00  0.00     0.181 C 
ATOM      7  C   UNL     1      42.031  17.751  -4.067  1.00  0.00     0.214 C 
BRANCH   3   8
ATOM      8  C   UNL     1      41.131  20.370  -0.779  1.00  0.00     0.073 C 
ATOM      9  O   UNL     1      41.873  21.391  -0.786  1.00  0.00    -0.547 OA
ATOM     10  O   UNL     1      39.999  20.344   0.031  1.00  0.00    -0.547 OA
ENDBRANCH   3   8
BRANCH   4  11
ATOM     11  O   UNL     1      39.244  18.364  -1.646  1.00  0.00    -0.387 OA
ATOM     12  H   UNL     1      38.556  19.072  -1.763  1.00  0.00     0.211 HD
ENDBRANCH   4  11
BRANCH   6  13
ATOM     13  O   UNL     1      39.742  17.016  -4.084  1.00  0.00    -0.387 OA
ATOM     14  H   UNL     1      40.157  16.784  -4.954  1.00  0.00     0.211 HD
ENDBRANCH   6  13
BRANCH   7  15
ATOM     15  O   UNL     1      41.694  18.482  -5.226  1.00  0.00    -0.384 OA
ATOM     16  H   UNL     1      42.328  18.229  -5.946  1.00  0.00     0.211 HD
ENDBRANCH   7  15
ENDBRANCH   1   2
BRANCH   1  17
ATOM     17  C   UNL     1      44.489  16.323  -3.164  1.00  0.00     0.172 A 
ATOM     18  C   UNL     1      45.667  16.140  -3.919  1.00  0.00     0.205 A 
ATOM     19  C   UNL     1      43.773  15.204  -2.729  1.00  0.00     0.097 A 
ATOM     20  C   UNL     1      46.092  14.844  -4.246  1.00  0.00     0.188 A 
ATOM     21  C   UNL     1      44.123  13.913  -3.148  1.00  0.00     0.134 A 
ATOM     22  C   UNL     1      45.291  13.725  -3.922  1.00  0.00     0.111 A 
ATOM     23  O   UNL     1      47.303  14.676  -4.771  1.00  0.00    -0.452 OA
ATOM     24  C   UNL     1      45.770  12.446  -4.286  1.00  0.00     0.197 A 
ATOM     25  C   UNL     1      47.824  13.473  -4.997  1.00  0.00     0.138 A 
ATOM     26  C   UNL     1      47.048  12.327  -4.834  1.00  0.00     0.100 A 
ATOM     27  O   UNL     1      45.094  11.410  -4.074  1.00  0.00    -0.289 OA
BRANCH  18  28
ATOM     28  O   UNL     1      46.477  17.212  -4.325  1.00  0.00    -0.490 OA
ATOM     29  C   UNL     1      46.770  17.529  -5.682  1.00  0.00     0.278 C 
ENDBRANCH  18  28
BRANCH  21  30
ATOM     30  O   UNL     1      43.343  12.826  -2.749  1.00  0.00    -0.507 OA
ATOM     31  H   UNL     1      43.601  11.873  -2.988  1.00  0.00     0.293 HD
ENDBRANCH  21  30
BRANCH  25  32
ATOM     32  C   UNL     1      49.273  13.345  -5.187  1.00  0.00     0.017 A 
ATOM     33  C   UNL     1      49.738  12.176  -5.825  1.00  0.00     0.012 A 
ATOM     34  C   UNL     1      50.194  14.334  -4.798  1.00  0.00     0.012 A 
ATOM     35  C   UNL     1      51.096  12.032  -6.117  1.00  0.00     0.001 A 
ATOM     36  C   UNL     1      51.555  14.167  -5.075  1.00  0.00     0.001 A 
ATOM     37  C   UNL     1      52.004  13.024  -5.746  1.00  0.00     0.000 A 
ENDBRANCH  25  32
ENDBRANCH   1  17
TORSDOF 9
ENDMDL
MODEL 7
REMARK VINA RESULT:    -5.274      3.545      5.202
REMARK INTER + INTRA:          -8.562
REMARK INTER:                  -7.132
REMARK INTRA:                  -1.430
REMARK UNBOUND:                -1.130
REMARK SMILES COc1c(O[C@@H]2O[C@@H](C(=O)[O-])[C@H](O)[C@@H](O)[C@H]2O)cc(O)c2c(=O)cc(-c3ccccc3)oc12
REMARK SMILES IDX 5 1 6 2 8 3 12 4 7 5 14 6 16 7 9 8 10 9 11 10 13 11 15 13
REMARK SMILES IDX 17 15 4 17 3 18 18 19 33 20 19 21 21 22 32 23 22 24 25 25
REMARK SMILES IDX 24 26 23 27 2 28 1 29 20 30 26 32 27 33 31 34 28 35 30 36
REMARK SMILES IDX 29 37
REMARK H PARENT 13 12 15 14 17 16 20 31
REMARK Flexibility Score: inf
ROOT
ATOM      1  O   UNL     1      40.404  16.941  -4.762  1.00  0.00    -0.458 OA
ENDROOT
BRANCH   1   2
ATOM      2  C   UNL     1      40.282  18.108  -3.931  1.00  0.00     0.339 C 
ATOM      3  C   UNL     1      42.287  19.458  -3.912  1.00  0.00     0.199 C 
ATOM      4  C   UNL     1      42.357  19.426  -2.379  1.00  0.00     0.180 C 
ATOM      5  O   UNL     1      40.979  19.250  -4.428  1.00  0.00    -0.328 OA
ATOM      6  C   UNL     1      41.871  18.046  -1.910  1.00  0.00     0.181 C 
ATOM      7  C   UNL     1      40.448  17.789  -2.416  1.00  0.00     0.214 C 
BRANCH   3   8
ATOM      8  C   UNL     1      42.774  20.780  -4.446  1.00  0.00     0.073 C 
ATOM      9  O   UNL     1      41.974  21.566  -5.025  1.00  0.00    -0.547 OA
ATOM     10  O   UNL     1      44.126  21.106  -4.366  1.00  0.00    -0.547 OA
ENDBRANCH   3   8
BRANCH   4  11
ATOM     11  O   UNL     1      43.692  19.602  -1.974  1.00  0.00    -0.387 OA
ATOM     12  H   UNL     1      43.777  20.525  -1.616  1.00  0.00     0.211 HD
ENDBRANCH   4  11
BRANCH   6  13
ATOM     13  O   UNL     1      41.887  17.996  -0.501  1.00  0.00    -0.387 OA
ATOM     14  H   UNL     1      42.795  18.273  -0.213  1.00  0.00     0.211 HD
ENDBRANCH   6  13
BRANCH   7  15
ATOM     15  O   UNL     1      39.505  18.509  -1.653  1.00  0.00    -0.384 OA
ATOM     16  H   UNL     1      39.189  17.922  -0.917  1.00  0.00     0.211 HD
ENDBRANCH   7  15
ENDBRANCH   1   2
BRANCH   1  17
ATOM     17  C   UNL     1      40.750  15.631  -4.404  1.00  0.00     0.172 A 
ATOM     18  C   UNL     1      42.108  15.247  -4.388  1.00  0.00     0.205 A 
ATOM     19  C   UNL     1      39.783  14.748  -3.916  1.00  0.00     0.097 A 
ATOM     20  C   UNL     1      42.469  13.977  -3.912  1.00  0.00     0.188 A 
ATOM     21  C   UNL     1      40.118  13.438  -3.546  1.00  0.00     0.134 A 
ATOM     22  C   UNL     1      41.475  13.040  -3.550  1.00  0.00     0.111 A 
ATOM     23  O   UNL     1      43.755  13.707  -3.708  1.00  0.00    -0.452 OA
ATOM     24  C   UNL     1      41.902  11.775  -3.084  1.00  0.00     0.197 A 
ATOM     25  C   UNL     1      44.168  12.574  -3.146  1.00  0.00     0.138 A 
ATOM     26  C   UNL     1      43.264  11.546  -2.888  1.00  0.00     0.100 A 
ATOM     27  O   UNL     1      41.078  10.875  -2.789  1.00  0.00    -0.289 OA
BRANCH  18  28
ATOM     28  O   UNL     1      43.140  16.107  -4.791  1.00  0.00    -0.490 OA
ATOM     29  C   UNL     1      43.811  16.027  -6.045  1.00  0.00     0.278 C 
ENDBRANCH  18  28
BRANCH  21  30
ATOM     30  O   UNL     1      39.114  12.563  -3.130  1.00  0.00    -0.507 OA
ATOM     31  H   UNL     1      39.289  11.852  -2.426  1.00  0.00     0.293 HD
ENDBRANCH  21  30
BRANCH  25  32
ATOM     32  C   UNL     1      45.523  12.504  -2.586  1.00  0.00     0.017 A 
ATOM     33  C   UNL     1      45.958  11.250  -2.110  1.00  0.00     0.012 A 
ATOM     34  C   UNL     1      46.397  13.605  -2.540  1.00  0.00     0.012 A 
ATOM     35  C   UNL     1      47.267  11.094  -1.648  1.00  0.00     0.001 A 
ATOM     36  C   UNL     1      47.698  13.440  -2.053  1.00  0.00     0.001 A 
ATOM     37  C   UNL     1      48.137  12.184  -1.620  1.00  0.00     0.000 A 
ENDBRANCH  25  32
ENDBRANCH   1  17
TORSDOF 9
ENDMDL
MODEL 8
REMARK VINA RESULT:    -5.006      2.978      8.873
REMARK INTER + INTRA:          -8.185
REMARK INTER:                  -6.788
REMARK INTRA:                  -1.397
REMARK UNBOUND:                -1.130
REMARK SMILES COc1c(O[C@@H]2O[C@@H](C(=O)[O-])[C@H](O)[C@@H](O)[C@H]2O)cc(O)c2c(=O)cc(-c3ccccc3)oc12
REMARK SMILES IDX 5 1 6 2 8 3 12 4 7 5 14 6 16 7 9 8 10 9 11 10 13 11 15 13
REMARK SMILES IDX 17 15 4 17 3 18 18 19 33 20 19 21 21 22 32 23 22 24 25 25
REMARK SMILES IDX 24 26 23 27 2 28 1 29 20 30 26 32 27 33 31 34 28 35 30 36
REMARK SMILES IDX 29 37
REMARK H PARENT 13 12 15 14 17 16 20 31
REMARK Flexibility Score: inf
ROOT
ATOM      1  O   UNL     1      44.928  14.959  -6.016  1.00  0.00    -0.458 OA
ENDROOT
BRANCH   1   2
ATOM      2  C   UNL     1      46.158  14.292  -5.686  1.00  0.00     0.339 C 
ATOM      3  C   UNL     1      46.163  13.392  -3.442  1.00  0.00     0.199 C 
ATOM      4  C   UNL     1      47.465  14.126  -3.095  1.00  0.00     0.180 C 
ATOM      5  O   UNL     1      45.993  13.159  -4.834  1.00  0.00    -0.328 OA
ATOM      6  C   UNL     1      47.451  15.486  -3.811  1.00  0.00     0.181 C 
ATOM      7  C   UNL     1      47.302  15.284  -5.322  1.00  0.00     0.214 C 
BRANCH   3   8
ATOM      8  C   UNL     1      46.098  12.055  -2.752  1.00  0.00     0.073 C 
ATOM      9  O   UNL     1      44.981  11.536  -2.475  1.00  0.00    -0.547 OA
ATOM     10  O   UNL     1      47.272  11.422  -2.353  1.00  0.00    -0.547 OA
ENDBRANCH   3   8
BRANCH   4  11
ATOM     11  O   UNL     1      47.517  14.342  -1.706  1.00  0.00    -0.387 OA
ATOM     12  H   UNL     1      46.707  13.927  -1.308  1.00  0.00     0.211 HD
ENDBRANCH   4  11
BRANCH   6  13
ATOM     13  O   UNL     1      48.652  16.172  -3.542  1.00  0.00    -0.387 OA
ATOM     14  H   UNL     1      48.426  17.135  -3.477  1.00  0.00     0.211 HD
ENDBRANCH   6  13
BRANCH   7  15
ATOM     15  O   UNL     1      48.521  14.864  -5.896  1.00  0.00    -0.384 OA
ATOM     16  H   UNL     1      49.258  15.351  -5.444  1.00  0.00     0.211 HD
ENDBRANCH   7  15
ENDBRANCH   1   2
BRANCH   1  17
ATOM     17  C   UNL     1      43.711  14.968  -5.321  1.00  0.00     0.172 A 
ATOM     18  C   UNL     1      43.521  15.878  -4.258  1.00  0.00     0.205 A 
ATOM     19  C   UNL     1      42.634  14.195  -5.762  1.00  0.00     0.097 A 
ATOM     20  C   UNL     1      42.265  15.977  -3.641  1.00  0.00     0.188 A 
ATOM     21  C   UNL     1      41.409  14.202  -5.080  1.00  0.00     0.134 A 
ATOM     22  C   UNL     1      41.219  15.096  -4.001  1.00  0.00     0.111 A 
ATOM     23  O   UNL     1      42.042  16.975  -2.790  1.00  0.00    -0.452 OA
ATOM     24  C   UNL     1      39.979  15.241  -3.337  1.00  0.00     0.197 A 
ATOM     25  C   UNL     1      40.844  17.207  -2.258  1.00  0.00     0.138 A 
ATOM     26  C   UNL     1      39.800  16.306  -2.454  1.00  0.00     0.100 A 
ATOM     27  O   UNL     1      39.019  14.466  -3.569  1.00  0.00    -0.289 OA
BRANCH  18  28
ATOM     28  O   UNL     1      44.534  16.738  -3.811  1.00  0.00    -0.490 OA
ATOM     29  C   UNL     1      44.842  17.996  -4.404  1.00  0.00     0.278 C 
ENDBRANCH  18  28
BRANCH  21  30
ATOM     30  O   UNL     1      40.378  13.365  -5.510  1.00  0.00    -0.507 OA
ATOM     31  H   UNL     1      40.051  12.592  -4.939  1.00  0.00     0.293 HD
ENDBRANCH  21  30
BRANCH  25  32
ATOM     32  C   UNL     1      40.566  18.521  -1.668  1.00  0.00     0.017 A 
ATOM     33  C   UNL     1      39.220  18.941  -1.638  1.00  0.00     0.012 A 
ATOM     34  C   UNL     1      41.561  19.345  -1.112  1.00  0.00     0.012 A 
ATOM     35  C   UNL     1      38.875  20.140  -1.011  1.00  0.00     0.001 A 
ATOM     36  C   UNL     1      41.206  20.556  -0.508  1.00  0.00     0.001 A 
ATOM     37  C   UNL     1      39.864  20.946  -0.444  1.00  0.00     0.000 A 
ENDBRANCH  25  32
ENDBRANCH   1  17
TORSDOF 9
ENDMDL
