MODEL 1
REMARK VINA RESULT:    -4.472      0.000      0.000
REMARK INTER + INTRA:          -6.009
REMARK INTER:                  -6.302
REMARK INTRA:                   0.293
REMARK UNBOUND:                 0.293
REMARK SMILES CC1=CCC(=C(C)C)C(=O)CC(C)=CCC1
REMARK SMILES IDX 12 1 14 2 13 3 15 4 16 5 2 6 1 7 3 8 11 10 9 11 10 12 5 13
REMARK SMILES IDX 6 14 7 15 8 16 4 17
REMARK H PARENT
REMARK Flexibility Score: 60.00
ROOT
ATOM      1  C   UNL     1       8.952 -18.251 -22.008  1.00  0.00    -0.070 C 
ATOM      2  C   UNL     1       9.250 -18.597 -20.734  1.00  0.00    -0.027 C 
ATOM      3  C   UNL     1       7.807 -18.961 -22.685  1.00  0.00     0.039 C 
ENDROOT
BRANCH   2   4
ATOM      4  C   UNL     1      10.445 -18.099 -19.961  1.00  0.00     0.032 C 
BRANCH   4   5
ATOM      5  C   UNL     1      11.667 -18.968 -20.277  1.00  0.00     0.034 C 
BRANCH   5   6
ATOM      6  C   UNL     1      12.941 -18.156 -20.394  1.00  0.00    -0.077 C 
ATOM      7  C   UNL     1      13.564 -17.601 -19.137  1.00  0.00     0.039 C 
ATOM      8  C   UNL     1      13.600 -17.958 -21.563  1.00  0.00    -0.023 CG0
ATOM      9  G   UNL     1      13.150 -18.363 -22.956  1.00  0.00     0.000 G0
ENDBRANCH   5   6
ENDBRANCH   4   5
ENDBRANCH   2   4
BRANCH   1  10
ATOM     10  C   UNL     1       9.696 -17.177 -22.776  1.00  0.00     0.111 C 
BRANCH  10  11
ATOM     11  C   UNL     1      10.730 -17.764 -23.706  1.00  0.00     0.163 C 
ATOM     12  O   UNL     1      10.323 -18.589 -24.570  1.00  0.00    -0.294 OA
BRANCH  11  13
ATOM     13  C   UNL     1      12.186 -17.404 -23.667  1.00  0.00    -0.002 C 
ATOM     14  C   UNL     1      12.610 -16.176 -24.100  1.00  0.00    -0.069 C 
ATOM     15  C   UNL     1      11.699 -15.256 -24.882  1.00  0.00     0.039 C 
ATOM     16  C   UNL     1      14.022 -15.688 -23.866  1.00  0.00     0.039 C 
BRANCH  13  17
ATOM     17  C   UNL     1      13.141 -18.367 -22.971  1.00  0.00     0.066 CG0
ATOM     18  G   UNL     1      13.619 -17.963 -21.588  1.00  0.00     0.000 G0
ENDBRANCH  13  17
ENDBRANCH  11  13
ENDBRANCH  10  11
ENDBRANCH   1  10
TORSDOF 0
ENDMDL
MODEL 2
REMARK VINA RESULT:    -4.231      6.452      8.092
REMARK INTER + INTRA:          -5.669
REMARK INTER:                  -5.585
REMARK INTRA:                  -0.084
REMARK UNBOUND:                 0.293
REMARK SMILES CC1=CCC(=C(C)C)C(=O)CC(C)=CCC1
REMARK SMILES IDX 12 1 14 2 13 3 15 4 16 5 2 6 1 7 3 8 11 10 9 11 10 12 5 13
REMARK SMILES IDX 6 14 7 15 8 16 4 17
REMARK H PARENT
REMARK Flexibility Score: 60.00
ROOT
ATOM      1  C   UNL     1      17.002 -23.886 -22.878  1.00  0.00    -0.070 C 
ATOM      2  C   UNL     1      15.760 -23.422 -22.605  1.00  0.00    -0.027 C 
ATOM      3  C   UNL     1      17.279 -25.349 -22.647  1.00  0.00     0.039 C 
ENDROOT
BRANCH   2   4
ATOM      4  C   UNL     1      15.354 -21.971 -22.637  1.00  0.00     0.032 C 
BRANCH   4   5
ATOM      5  C   UNL     1      14.764 -21.626 -24.009  1.00  0.00     0.034 C 
BRANCH   5   6
ATOM      6  C   UNL     1      15.320 -20.333 -24.571  1.00  0.00    -0.077 C 
ATOM      7  C   UNL     1      14.847 -19.026 -23.983  1.00  0.00     0.039 C 
ATOM      8  C   UNL     1      16.280 -20.283 -25.528  1.00  0.00    -0.023 CG0
ATOM      9  G   UNL     1      16.869 -21.445 -26.307  1.00  0.00     0.000 G0
ENDBRANCH   5   6
ENDBRANCH   4   5
ENDBRANCH   2   4
BRANCH   1  10
ATOM     10  C   UNL     1      18.117 -23.014 -23.420  1.00  0.00     0.111 C 
BRANCH  10  11
ATOM     11  C   UNL     1      18.250 -23.138 -24.919  1.00  0.00     0.163 C 
ATOM     12  O   UNL     1      18.366 -24.302 -25.391  1.00  0.00    -0.294 OA
BRANCH  11  13
ATOM     13  C   UNL     1      18.226 -21.967 -25.858  1.00  0.00    -0.002 C 
ATOM     14  C   UNL     1      19.388 -21.494 -26.408  1.00  0.00    -0.069 C 
ATOM     15  C   UNL     1      20.741 -21.927 -25.890  1.00  0.00     0.039 C 
ATOM     16  C   UNL     1      19.388 -20.478 -27.527  1.00  0.00     0.039 C 
BRANCH  13  17
ATOM     17  C   UNL     1      16.868 -21.448 -26.316  1.00  0.00     0.066 CG0
ATOM     18  G   UNL     1      16.285 -20.290 -25.525  1.00  0.00     0.000 G0
ENDBRANCH  13  17
ENDBRANCH  11  13
ENDBRANCH  10  11
ENDBRANCH   1  10
TORSDOF 0
ENDMDL
MODEL 3
REMARK VINA RESULT:    -4.199      2.390      4.634
REMARK INTER + INTRA:          -5.624
REMARK INTER:                  -5.489
REMARK INTRA:                  -0.135
REMARK UNBOUND:                 0.293
REMARK SMILES CC1=CCC(=C(C)C)C(=O)CC(C)=CCC1
REMARK SMILES IDX 12 1 14 2 13 3 15 4 16 5 2 6 1 7 3 8 11 10 9 11 10 12 5 13
REMARK SMILES IDX 6 14 7 15 8 16 4 17
REMARK H PARENT
REMARK Flexibility Score: 60.00
ROOT
ATOM      1  C   UNL     1      14.091 -19.868 -20.363  1.00  0.00    -0.070 C 
ATOM      2  C   UNL     1      15.002 -20.542 -21.104  1.00  0.00    -0.027 C 
ATOM      3  C   UNL     1      14.504 -19.389 -18.995  1.00  0.00     0.039 C 
ENDROOT
BRANCH   2   4
ATOM      4  C   UNL     1      14.715 -21.215 -22.422  1.00  0.00     0.032 C 
BRANCH   4   5
ATOM      5  C   UNL     1      15.271 -20.368 -23.571  1.00  0.00     0.034 C 
BRANCH   5   6
ATOM      6  C   UNL     1      14.298 -20.249 -24.727  1.00  0.00    -0.077 C 
ATOM      7  C   UNL     1      14.254 -21.355 -25.752  1.00  0.00     0.039 C 
ATOM      8  C   UNL     1      13.406 -19.235 -24.855  1.00  0.00    -0.023 CG0
ATOM      9  G   UNL     1      13.293 -17.990 -23.994  1.00  0.00     0.000 G0
ENDBRANCH   5   6
ENDBRANCH   4   5
ENDBRANCH   2   4
BRANCH   1  10
ATOM     10  C   UNL     1      12.688 -19.558 -20.846  1.00  0.00     0.111 C 
BRANCH  10  11
ATOM     11  C   UNL     1      12.605 -18.201 -21.501  1.00  0.00     0.163 C 
ATOM     12  O   UNL     1      12.925 -17.204 -20.796  1.00  0.00    -0.294 OA
BRANCH  11  13
ATOM     13  C   UNL     1      12.192 -17.986 -22.927  1.00  0.00    -0.002 C 
ATOM     14  C   UNL     1      10.902 -17.645 -23.233  1.00  0.00    -0.069 C 
ATOM     15  C   UNL     1       9.794 -17.748 -22.209  1.00  0.00     0.039 C 
ATOM     16  C   UNL     1      10.500 -17.196 -24.619  1.00  0.00     0.039 C 
BRANCH  13  17
ATOM     17  C   UNL     1      13.283 -17.979 -23.992  1.00  0.00     0.066 CG0
ATOM     18  G   UNL     1      13.393 -19.222 -24.856  1.00  0.00     0.000 G0
ENDBRANCH  13  17
ENDBRANCH  11  13
ENDBRANCH  10  11
ENDBRANCH   1  10
TORSDOF 0
ENDMDL
MODEL 4
REMARK VINA RESULT:    -4.165      7.522      8.784
REMARK INTER + INTRA:          -5.576
REMARK INTER:                  -5.661
REMARK INTRA:                   0.085
REMARK UNBOUND:                 0.293
REMARK SMILES CC1=CCC(=C(C)C)C(=O)CC(C)=CCC1
REMARK SMILES IDX 12 1 14 2 13 3 15 4 16 5 2 6 1 7 3 8 11 10 9 11 10 12 5 13
REMARK SMILES IDX 6 14 7 15 8 16 4 17
REMARK H PARENT
REMARK Flexibility Score: 60.00
ROOT
ATOM      1  C   UNL     1      15.983 -22.837 -23.316  1.00  0.00    -0.070 C 
ATOM      2  C   UNL     1      15.969 -24.172 -23.092  1.00  0.00    -0.027 C 
ATOM      3  C   UNL     1      14.961 -22.267 -24.266  1.00  0.00     0.039 C 
ENDROOT
BRANCH   2   4
ATOM      4  C   UNL     1      17.002 -24.925 -22.293  1.00  0.00     0.032 C 
BRANCH   4   5
ATOM      5  C   UNL     1      17.949 -25.671 -23.240  1.00  0.00     0.034 C 
BRANCH   5   6
ATOM      6  C   UNL     1      19.332 -25.052 -23.282  1.00  0.00    -0.077 C 
ATOM      7  C   UNL     1      20.367 -25.528 -22.292  1.00  0.00     0.039 C 
ATOM      8  C   UNL     1      19.719 -24.143 -24.211  1.00  0.00    -0.023 CG0
ATOM      9  G   UNL     1      18.854 -23.473 -25.264  1.00  0.00     0.000 G0
ENDBRANCH   5   6
ENDBRANCH   4   5
ENDBRANCH   2   4
BRANCH   1  10
ATOM     10  C   UNL     1      16.959 -21.890 -22.648  1.00  0.00     0.111 C 
BRANCH  10  11
ATOM     11  C   UNL     1      18.215 -21.706 -23.465  1.00  0.00     0.163 C 
ATOM     12  O   UNL     1      19.222 -21.233 -22.871  1.00  0.00    -0.294 OA
BRANCH  11  13
ATOM     13  C   UNL     1      18.328 -22.074 -24.915  1.00  0.00    -0.002 C 
ATOM     14  C   UNL     1      18.115 -21.135 -25.889  1.00  0.00    -0.069 C 
ATOM     15  C   UNL     1      17.492 -19.794 -25.571  1.00  0.00     0.039 C 
ATOM     16  C   UNL     1      18.442 -21.399 -27.341  1.00  0.00     0.039 C 
BRANCH  13  17
ATOM     17  C   UNL     1      18.860 -23.460 -25.260  1.00  0.00     0.066 CG0
ATOM     18  G   UNL     1      19.708 -24.141 -24.201  1.00  0.00     0.000 G0
ENDBRANCH  13  17
ENDBRANCH  11  13
ENDBRANCH  10  11
ENDBRANCH   1  10
TORSDOF 0
ENDMDL
MODEL 5
REMARK VINA RESULT:    -4.149      2.119      3.671
REMARK INTER + INTRA:          -5.554
REMARK INTER:                  -5.567
REMARK INTRA:                   0.012
REMARK UNBOUND:                 0.293
REMARK SMILES CC1=CCC(=C(C)C)C(=O)CC(C)=CCC1
REMARK SMILES IDX 12 1 14 2 13 3 15 4 16 5 2 6 1 7 3 8 11 10 9 11 10 12 5 13
REMARK SMILES IDX 6 14 7 15 8 16 4 17
REMARK H PARENT
REMARK Flexibility Score: 60.00
ROOT
ATOM      1  C   UNL     1      14.789 -21.044 -23.169  1.00  0.00    -0.070 C 
ATOM      2  C   UNL     1      14.660 -21.446 -21.883  1.00  0.00    -0.027 C 
ATOM      3  C   UNL     1      14.962 -22.102 -24.228  1.00  0.00     0.039 C 
ENDROOT
BRANCH   2   4
ATOM      4  C   UNL     1      14.626 -20.525 -20.690  1.00  0.00     0.032 C 
BRANCH   4   5
ATOM      5  C   UNL     1      13.206 -19.983 -20.491  1.00  0.00     0.034 C 
BRANCH   5   6
ATOM      6  C   UNL     1      13.183 -18.483 -20.273  1.00  0.00    -0.077 C 
ATOM      7  C   UNL     1      13.843 -17.922 -19.038  1.00  0.00     0.039 C 
ATOM      8  C   UNL     1      12.664 -17.604 -21.166  1.00  0.00    -0.023 CG0
ATOM      9  G   UNL     1      11.905 -17.922 -22.441  1.00  0.00     0.000 G0
ENDBRANCH   5   6
ENDBRANCH   4   5
ENDBRANCH   2   4
BRANCH   1  10
ATOM     10  C   UNL     1      14.749 -19.590 -23.596  1.00  0.00     0.111 C 
BRANCH  10  11
ATOM     11  C   UNL     1      13.389 -19.194 -24.118  1.00  0.00     0.163 C 
ATOM     12  O   UNL     1      12.813 -20.007 -24.893  1.00  0.00    -0.294 OA
BRANCH  11  13
ATOM     13  C   UNL     1      12.692 -17.918 -23.748  1.00  0.00    -0.002 C 
ATOM     14  C   UNL     1      12.645 -16.871 -24.630  1.00  0.00    -0.069 C 
ATOM     15  C   UNL     1      13.511 -16.842 -25.869  1.00  0.00     0.039 C 
ATOM     16  C   UNL     1      11.765 -15.665 -24.394  1.00  0.00     0.039 C 
BRANCH  13  17
ATOM     17  C   UNL     1      11.893 -17.892 -22.450  1.00  0.00     0.066 CG0
ATOM     18  G   UNL     1      12.674 -17.598 -21.181  1.00  0.00     0.000 G0
ENDBRANCH  13  17
ENDBRANCH  11  13
ENDBRANCH  10  11
ENDBRANCH   1  10
TORSDOF 0
ENDMDL
MODEL 6
REMARK VINA RESULT:    -4.140      2.251      5.016
REMARK INTER + INTRA:          -5.541
REMARK INTER:                  -5.729
REMARK INTRA:                   0.188
REMARK UNBOUND:                 0.293
REMARK SMILES CC1=CCC(=C(C)C)C(=O)CC(C)=CCC1
REMARK SMILES IDX 12 1 14 2 13 3 15 4 16 5 2 6 1 7 3 8 11 10 9 11 10 12 5 13
REMARK SMILES IDX 6 14 7 15 8 16 4 17
REMARK H PARENT
REMARK Flexibility Score: 60.00
ROOT
ATOM      1  C   UNL     1      15.176 -18.240 -19.497  1.00  0.00    -0.070 C 
ATOM      2  C   UNL     1      16.229 -18.261 -20.347  1.00  0.00    -0.027 C 
ATOM      3  C   UNL     1      15.302 -17.433 -18.230  1.00  0.00     0.039 C 
ENDROOT
BRANCH   2   4
ATOM      4  C   UNL     1      16.330 -19.126 -21.576  1.00  0.00     0.032 C 
BRANCH   4   5
ATOM      5  C   UNL     1      16.028 -18.291 -22.826  1.00  0.00     0.034 C 
BRANCH   5   6
ATOM      6  C   UNL     1      14.877 -18.855 -23.636  1.00  0.00    -0.077 C 
ATOM      7  C   UNL     1      15.165 -19.946 -24.638  1.00  0.00     0.039 C 
ATOM      8  C   UNL     1      13.584 -18.485 -23.460  1.00  0.00    -0.023 CG0
ATOM      9  G   UNL     1      13.054 -17.381 -22.563  1.00  0.00     0.000 G0
ENDBRANCH   5   6
ENDBRANCH   4   5
ENDBRANCH   2   4
BRANCH   1  10
ATOM     10  C   UNL     1      13.875 -18.970 -19.764  1.00  0.00     0.111 C 
BRANCH  10  11
ATOM     11  C   UNL     1      12.742 -18.015 -20.051  1.00  0.00     0.163 C 
ATOM     12  O   UNL     1      12.312 -17.327 -19.084  1.00  0.00    -0.294 OA
BRANCH  11  13
ATOM     13  C   UNL     1      12.130 -17.830 -21.408  1.00  0.00    -0.002 C 
ATOM     14  C   UNL     1      10.772 -17.900 -21.574  1.00  0.00    -0.069 C 
ATOM     15  C   UNL     1       9.870 -18.436 -20.485  1.00  0.00     0.039 C 
ATOM     16  C   UNL     1      10.101 -17.493 -22.867  1.00  0.00     0.039 C 
BRANCH  13  17
ATOM     17  C   UNL     1      13.041 -17.386 -22.547  1.00  0.00     0.066 CG0
ATOM     18  G   UNL     1      13.586 -18.483 -23.444  1.00  0.00     0.000 G0
ENDBRANCH  13  17
ENDBRANCH  11  13
ENDBRANCH  10  11
ENDBRANCH   1  10
TORSDOF 0
ENDMDL
MODEL 7
REMARK VINA RESULT:    -4.132      4.156      5.167
REMARK INTER + INTRA:          -5.530
REMARK INTER:                  -5.384
REMARK INTRA:                  -0.145
REMARK UNBOUND:                 0.293
REMARK SMILES CC1=CCC(=C(C)C)C(=O)CC(C)=CCC1
REMARK SMILES IDX 12 1 14 2 13 3 15 4 16 5 2 6 1 7 3 8 11 10 9 11 10 12 5 13
REMARK SMILES IDX 6 14 7 15 8 16 4 17
REMARK H PARENT
REMARK Flexibility Score: 60.00
ROOT
ATOM      1  C   UNL     1      14.263 -18.875 -19.660  1.00  0.00    -0.070 C 
ATOM      2  C   UNL     1      14.196 -20.210 -19.873  1.00  0.00    -0.027 C 
ATOM      3  C   UNL     1      14.251 -18.383 -18.235  1.00  0.00     0.039 C 
ENDROOT
BRANCH   2   4
ATOM      4  C   UNL     1      14.049 -20.863 -21.223  1.00  0.00     0.032 C 
BRANCH   4   5
ATOM      5  C   UNL     1      15.395 -21.447 -21.667  1.00  0.00     0.034 C 
BRANCH   5   6
ATOM      6  C   UNL     1      15.634 -21.287 -23.156  1.00  0.00    -0.077 C 
ATOM      7  C   UNL     1      15.046 -22.310 -24.096  1.00  0.00     0.039 C 
ATOM      8  C   UNL     1      16.287 -20.231 -23.701  1.00  0.00    -0.023 CG0
ATOM      9  G   UNL     1      17.009 -19.114 -22.968  1.00  0.00     0.000 G0
ENDBRANCH   5   6
ENDBRANCH   4   5
ENDBRANCH   2   4
BRANCH   1  10
ATOM     10  C   UNL     1      14.368 -17.857 -20.778  1.00  0.00     0.111 C 
BRANCH  10  11
ATOM     11  C   UNL     1      15.796 -17.657 -21.224  1.00  0.00     0.163 C 
ATOM     12  O   UNL     1      16.633 -17.329 -20.338  1.00  0.00    -0.294 OA
BRANCH  11  13
ATOM     13  C   UNL     1      16.263 -17.847 -22.636  1.00  0.00    -0.002 C 
ATOM     14  C   UNL     1      16.138 -16.837 -23.552  1.00  0.00    -0.069 C 
ATOM     15  C   UNL     1      15.287 -15.618 -23.273  1.00  0.00     0.039 C 
ATOM     16  C   UNL     1      16.800 -16.900 -24.910  1.00  0.00     0.039 C 
BRANCH  13  17
ATOM     17  C   UNL     1      17.038 -19.118 -22.966  1.00  0.00     0.066 CG0
ATOM     18  G   UNL     1      16.274 -20.205 -23.700  1.00  0.00     0.000 G0
ENDBRANCH  13  17
ENDBRANCH  11  13
ENDBRANCH  10  11
ENDBRANCH   1  10
TORSDOF 0
ENDMDL
MODEL 8
REMARK VINA RESULT:    -4.124      3.086      5.198
REMARK INTER + INTRA:          -5.519
REMARK INTER:                  -5.348
REMARK INTRA:                  -0.170
REMARK UNBOUND:                 0.293
REMARK SMILES CC1=CCC(=C(C)C)C(=O)CC(C)=CCC1
REMARK SMILES IDX 12 1 14 2 13 3 15 4 16 5 2 6 1 7 3 8 11 10 9 11 10 12 5 13
REMARK SMILES IDX 6 14 7 15 8 16 4 17
REMARK H PARENT
REMARK Flexibility Score: 60.00
ROOT
ATOM      1  C   UNL     1      16.519 -17.427 -19.270  1.00  0.00    -0.070 C 
ATOM      2  C   UNL     1      15.437 -17.657 -18.490  1.00  0.00    -0.027 C 
ATOM      3  C   UNL     1      17.880 -17.474 -18.625  1.00  0.00     0.039 C 
ENDROOT
BRANCH   2   4
ATOM      4  C   UNL     1      14.005 -17.506 -18.934  1.00  0.00     0.032 C 
BRANCH   4   5
ATOM      5  C   UNL     1      13.434 -18.873 -19.326  1.00  0.00     0.034 C 
BRANCH   5   6
ATOM      6  C   UNL     1      12.558 -18.804 -20.561  1.00  0.00    -0.077 C 
ATOM      7  C   UNL     1      11.151 -18.277 -20.420  1.00  0.00     0.039 C 
ATOM      8  C   UNL     1      12.991 -19.120 -21.807  1.00  0.00    -0.023 CG0
ATOM      9  G   UNL     1      14.331 -19.720 -22.194  1.00  0.00     0.000 G0
ENDBRANCH   5   6
ENDBRANCH   4   5
ENDBRANCH   2   4
BRANCH   1  10
ATOM     10  C   UNL     1      16.431 -17.146 -20.757  1.00  0.00     0.111 C 
BRANCH  10  11
ATOM     11  C   UNL     1      16.483 -18.414 -21.574  1.00  0.00     0.163 C 
ATOM     12  O   UNL     1      17.443 -19.202 -21.349  1.00  0.00    -0.294 OA
BRANCH  11  13
ATOM     13  C   UNL     1      15.457 -18.787 -22.603  1.00  0.00    -0.002 C 
ATOM     14  C   UNL     1      15.613 -18.408 -23.909  1.00  0.00    -0.069 C 
ATOM     15  C   UNL     1      16.647 -17.382 -24.316  1.00  0.00     0.039 C 
ATOM     16  C   UNL     1      14.734 -18.953 -25.012  1.00  0.00     0.039 C 
BRANCH  13  17
ATOM     17  C   UNL     1      14.345 -19.743 -22.187  1.00  0.00     0.066 CG0
ATOM     18  G   UNL     1      13.012 -19.114 -21.824  1.00  0.00     0.000 G0
ENDBRANCH  13  17
ENDBRANCH  11  13
ENDBRANCH  10  11
ENDBRANCH   1  10
TORSDOF 0
ENDMDL
MODEL 9
REMARK VINA RESULT:    -4.060      6.784      8.973
REMARK INTER + INTRA:          -5.429
REMARK INTER:                  -5.275
REMARK INTRA:                  -0.154
REMARK UNBOUND:                 0.293
REMARK SMILES CC1=CCC(=C(C)C)C(=O)CC(C)=CCC1
REMARK SMILES IDX 12 1 14 2 13 3 15 4 16 5 2 6 1 7 3 8 11 10 9 11 10 12 5 13
REMARK SMILES IDX 6 14 7 15 8 16 4 17
REMARK H PARENT
REMARK Flexibility Score: 60.00
ROOT
ATOM      1  C   UNL     1      20.062 -20.828 -25.201  1.00  0.00    -0.070 C 
ATOM      2  C   UNL     1      20.411 -22.069 -25.614  1.00  0.00    -0.027 C 
ATOM      3  C   UNL     1      20.452 -19.658 -26.067  1.00  0.00     0.039 C 
ENDROOT
BRANCH   2   4
ATOM      4  C   UNL     1      20.233 -23.329 -24.806  1.00  0.00     0.032 C 
BRANCH   4   5
ATOM      5  C   UNL     1      18.908 -24.003 -25.180  1.00  0.00     0.034 C 
BRANCH   5   6
ATOM      6  C   UNL     1      18.155 -24.514 -23.967  1.00  0.00    -0.077 C 
ATOM      7  C   UNL     1      18.656 -25.759 -23.277  1.00  0.00     0.039 C 
ATOM      8  C   UNL     1      17.094 -23.872 -23.418  1.00  0.00    -0.023 CG0
ATOM      9  G   UNL     1      16.377 -22.647 -23.956  1.00  0.00     0.000 G0
ENDBRANCH   5   6
ENDBRANCH   4   5
ENDBRANCH   2   4
BRANCH   1  10
ATOM     10  C   UNL     1      19.286 -20.560 -23.928  1.00  0.00     0.111 C 
BRANCH  10  11
ATOM     11  C   UNL     1      17.798 -20.501 -24.177  1.00  0.00     0.163 C 
ATOM     12  O   UNL     1      17.402 -19.753 -25.112  1.00  0.00    -0.294 OA
BRANCH  11  13
ATOM     13  C   UNL     1      16.790 -21.292 -23.397  1.00  0.00    -0.002 C 
ATOM     14  C   UNL     1      16.162 -20.741 -22.312  1.00  0.00    -0.069 C 
ATOM     15  C   UNL     1      16.647 -19.451 -21.690  1.00  0.00     0.039 C 
ATOM     16  C   UNL     1      14.982 -21.410 -21.644  1.00  0.00     0.039 C 
BRANCH  13  17
ATOM     17  C   UNL     1      16.360 -22.645 -23.953  1.00  0.00     0.066 CG0
ATOM     18  G   UNL     1      17.092 -23.862 -23.416  1.00  0.00     0.000 G0
ENDBRANCH  13  17
ENDBRANCH  11  13
ENDBRANCH  10  11
ENDBRANCH   1  10
TORSDOF 0
ENDMDL
