MODEL 1
REMARK VINA RESULT:    -5.386      0.000      0.000
REMARK INTER + INTRA:          -5.858
REMARK INTER:                  -5.858
REMARK INTRA:                   0.000
REMARK UNBOUND:                 0.000
REMARK SMILES Cc1cc(O)c2c(c1)C(=O)c1cc(O)cc(O)c1C2=O
REMARK SMILES IDX 1 1 2 2 8 3 7 4 6 5 4 6 3 7 19 8 20 9 18 10 11 11 9 12 10 13
REMARK SMILES IDX 12 14 13 15 15 16 16 17 5 18 17 20 14 22
REMARK H PARENT 5 19 17 21 14 23
REMARK Flexibility Score: inf
ROOT
ATOM      1  C   UNL     1     -14.917  76.875  -4.913  1.00  0.00     0.044 C 
ATOM      2  C   UNL     1     -14.110  77.896  -5.662  1.00  0.00    -0.047 A 
ATOM      3  C   UNL     1     -14.719  79.060  -6.142  1.00  0.00     0.016 A 
ATOM      4  C   UNL     1     -13.964  80.043  -6.806  1.00  0.00     0.038 A 
ATOM      5  C   UNL     1     -12.572  79.869  -6.969  1.00  0.00     0.076 A 
ATOM      6  C   UNL     1     -11.967  78.665  -6.521  1.00  0.00     0.127 A 
ATOM      7  C   UNL     1     -12.736  77.711  -5.846  1.00  0.00     0.050 A 
ATOM      8  C   UNL     1     -11.786  80.993  -7.542  1.00  0.00     0.201 C 
ATOM      9  O   UNL     1     -10.583  81.154  -7.203  1.00  0.00    -0.288 OA
ATOM     10  C   UNL     1     -12.469  82.027  -8.361  1.00  0.00     0.076 A 
ATOM     11  C   UNL     1     -13.862  82.198  -8.195  1.00  0.00     0.041 A 
ATOM     12  C   UNL     1     -14.624  81.258  -7.338  1.00  0.00     0.194 C 
ATOM     13  O   UNL     1     -15.840  81.481  -7.084  1.00  0.00    -0.289 OA
ATOM     14  C   UNL     1     -14.519  83.255  -8.846  1.00  0.00     0.059 A 
ATOM     15  C   UNL     1     -13.808  84.131  -9.672  1.00  0.00     0.120 A 
ATOM     16  C   UNL     1     -12.441  83.941  -9.870  1.00  0.00     0.093 A 
ATOM     17  C   UNL     1     -11.767  82.885  -9.249  1.00  0.00     0.131 A 
ENDROOT
BRANCH   6  18
ATOM     18  O   UNL     1     -10.624  78.363  -6.753  1.00  0.00    -0.507 OA
ATOM     19  H   UNL     1     -10.143  77.586  -6.322  1.00  0.00     0.293 HD
ENDBRANCH   6  18
BRANCH  17  20
ATOM     20  O   UNL     1     -10.419  82.704  -9.566  1.00  0.00    -0.507 OA
ATOM     21  H   UNL     1     -10.082  81.974 -10.177  1.00  0.00     0.293 HD
ENDBRANCH  17  20
BRANCH  15  22
ATOM     22  O   UNL     1     -14.454  85.187 -10.311  1.00  0.00    -0.508 OA
ATOM     23  H   UNL     1     -13.999  86.082 -10.448  1.00  0.00     0.293 HD
ENDBRANCH  15  22
TORSDOF 3
ENDMDL
MODEL 2
REMARK VINA RESULT:    -5.174      9.027     11.047
REMARK INTER + INTRA:          -5.627
REMARK INTER:                  -5.627
REMARK INTRA:                   0.000
REMARK UNBOUND:                 0.000
REMARK SMILES Cc1cc(O)c2c(c1)C(=O)c1cc(O)cc(O)c1C2=O
REMARK SMILES IDX 1 1 2 2 8 3 7 4 6 5 4 6 3 7 19 8 20 9 18 10 11 11 9 12 10 13
REMARK SMILES IDX 12 14 13 15 15 16 16 17 5 18 17 20 14 22
REMARK H PARENT 5 19 17 21 14 23
REMARK Flexibility Score: inf
ROOT
ATOM      1  C   UNL     1      -5.563  82.873 -10.118  1.00  0.00     0.044 C 
ATOM      2  C   UNL     1      -5.152  84.171  -9.483  1.00  0.00    -0.047 A 
ATOM      3  C   UNL     1      -5.710  85.376  -9.922  1.00  0.00     0.016 A 
ATOM      4  C   UNL     1      -5.366  86.591  -9.305  1.00  0.00     0.038 A 
ATOM      5  C   UNL     1      -4.468  86.597  -8.215  1.00  0.00     0.076 A 
ATOM      6  C   UNL     1      -3.870  85.377  -7.804  1.00  0.00     0.127 A 
ATOM      7  C   UNL     1      -4.244  84.178  -8.420  1.00  0.00     0.050 A 
ATOM      8  C   UNL     1      -4.244  87.879  -7.496  1.00  0.00     0.201 C 
ATOM      9  O   UNL     1      -3.963  87.869  -6.268  1.00  0.00    -0.288 OA
ATOM     10  C   UNL     1      -4.534  89.166  -8.178  1.00  0.00     0.076 A 
ATOM     11  C   UNL     1      -5.433  89.156  -9.269  1.00  0.00     0.041 A 
ATOM     12  C   UNL     1      -5.937  87.867  -9.798  1.00  0.00     0.194 C 
ATOM     13  O   UNL     1      -6.837  87.857 -10.684  1.00  0.00    -0.289 OA
ATOM     14  C   UNL     1      -5.839  90.369  -9.850  1.00  0.00     0.059 A 
ATOM     15  C   UNL     1      -5.349  91.586  -9.369  1.00  0.00     0.120 A 
ATOM     16  C   UNL     1      -4.432  91.598  -8.319  1.00  0.00     0.093 A 
ATOM     17  C   UNL     1      -3.996  90.404  -7.736  1.00  0.00     0.131 A 
ENDROOT
BRANCH   6  18
ATOM     18  O   UNL     1      -2.883  85.314  -6.818  1.00  0.00    -0.507 OA
ATOM     19  H   UNL     1      -2.929  85.823  -5.947  1.00  0.00     0.293 HD
ENDBRANCH   6  18
BRANCH  17  20
ATOM     20  O   UNL     1      -3.009  90.489  -6.752  1.00  0.00    -0.507 OA
ATOM     21  H   UNL     1      -2.811  89.748  -6.093  1.00  0.00     0.293 HD
ENDBRANCH  17  20
BRANCH  15  22
ATOM     22  O   UNL     1      -5.760  92.791  -9.935  1.00  0.00    -0.508 OA
ATOM     23  H   UNL     1      -5.119  93.377 -10.458  1.00  0.00     0.293 HD
ENDBRANCH  15  22
TORSDOF 3
ENDMDL
MODEL 3
REMARK VINA RESULT:    -5.062      8.349     11.667
REMARK INTER + INTRA:          -5.505
REMARK INTER:                  -5.505
REMARK INTRA:                   0.000
REMARK UNBOUND:                 0.000
REMARK SMILES Cc1cc(O)c2c(c1)C(=O)c1cc(O)cc(O)c1C2=O
REMARK SMILES IDX 1 1 2 2 8 3 7 4 6 5 4 6 3 7 19 8 20 9 18 10 11 11 9 12 10 13
REMARK SMILES IDX 12 14 13 15 15 16 16 17 5 18 17 20 14 22
REMARK H PARENT 5 19 17 21 14 23
REMARK Flexibility Score: inf
ROOT
ATOM      1  C   UNL     1      -5.755  92.689  -9.656  1.00  0.00     0.044 C 
ATOM      2  C   UNL     1      -5.367  91.319  -9.180  1.00  0.00    -0.047 A 
ATOM      3  C   UNL     1      -5.951  90.183  -9.750  1.00  0.00     0.016 A 
ATOM      4  C   UNL     1      -5.562  88.896  -9.343  1.00  0.00     0.038 A 
ATOM      5  C   UNL     1      -4.554  88.742  -8.367  1.00  0.00     0.076 A 
ATOM      6  C   UNL     1      -3.997  89.898  -7.758  1.00  0.00     0.127 A 
ATOM      7  C   UNL     1      -4.386  91.168  -8.195  1.00  0.00     0.050 A 
ATOM      8  C   UNL     1      -4.067  87.369  -8.069  1.00  0.00     0.201 C 
ATOM      9  O   UNL     1      -2.876  87.192  -7.698  1.00  0.00    -0.288 OA
ATOM     10  C   UNL     1      -4.923  86.199  -8.391  1.00  0.00     0.076 A 
ATOM     11  C   UNL     1      -5.931  86.356  -9.368  1.00  0.00     0.041 A 
ATOM     12  C   UNL     1      -6.210  87.699  -9.930  1.00  0.00     0.194 C 
ATOM     13  O   UNL     1      -7.017  87.825 -10.893  1.00  0.00    -0.289 OA
ATOM     14  C   UNL     1      -6.668  85.240  -9.798  1.00  0.00     0.059 A 
ATOM     15  C   UNL     1      -6.423  83.976  -9.255  1.00  0.00     0.120 A 
ATOM     16  C   UNL     1      -5.457  83.823  -8.262  1.00  0.00     0.093 A 
ATOM     17  C   UNL     1      -4.723  84.922  -7.802  1.00  0.00     0.131 A 
ENDROOT
BRANCH   6  18
ATOM     18  O   UNL     1      -3.087  89.830  -6.701  1.00  0.00    -0.507 OA
ATOM     19  H   UNL     1      -3.235  90.275  -5.806  1.00  0.00     0.293 HD
ENDBRANCH   6  18
BRANCH  17  20
ATOM     20  O   UNL     1      -3.838  84.708  -6.743  1.00  0.00    -0.507 OA
ATOM     21  H   UNL     1      -4.080  84.861  -5.774  1.00  0.00     0.293 HD
ENDBRANCH  17  20
BRANCH  15  22
ATOM     22  O   UNL     1      -7.144  82.865  -9.688  1.00  0.00    -0.508 OA
ATOM     23  H   UNL     1      -7.196  82.616 -10.669  1.00  0.00     0.293 HD
ENDBRANCH  15  22
TORSDOF 3
ENDMDL
MODEL 4
REMARK VINA RESULT:    -5.003      2.519      3.965
REMARK INTER + INTRA:          -5.442
REMARK INTER:                  -5.442
REMARK INTRA:                   0.000
REMARK UNBOUND:                 0.000
REMARK SMILES Cc1cc(O)c2c(c1)C(=O)c1cc(O)cc(O)c1C2=O
REMARK SMILES IDX 1 1 2 2 8 3 7 4 6 5 4 6 3 7 19 8 20 9 18 10 11 11 9 12 10 13
REMARK SMILES IDX 12 14 13 15 15 16 16 17 5 18 17 20 14 22
REMARK H PARENT 5 19 17 21 14 23
REMARK Flexibility Score: inf
ROOT
ATOM      1  C   UNL     1      -8.464  79.901  -4.875  1.00  0.00     0.044 C 
ATOM      2  C   UNL     1      -9.491  80.424  -5.838  1.00  0.00    -0.047 A 
ATOM      3  C   UNL     1      -9.353  81.702  -6.387  1.00  0.00     0.016 A 
ATOM      4  C   UNL     1     -10.285  82.184  -7.323  1.00  0.00     0.038 A 
ATOM      5  C   UNL     1     -11.356  81.363  -7.736  1.00  0.00     0.076 A 
ATOM      6  C   UNL     1     -11.517  80.084  -7.141  1.00  0.00     0.127 A 
ATOM      7  C   UNL     1     -10.566  79.619  -6.226  1.00  0.00     0.050 A 
ATOM      8  C   UNL     1     -12.233  81.849  -8.833  1.00  0.00     0.201 C 
ATOM      9  O   UNL     1     -12.786  81.024  -9.607  1.00  0.00    -0.288 OA
ATOM     10  C   UNL     1     -12.303  83.303  -9.130  1.00  0.00     0.076 A 
ATOM     11  C   UNL     1     -11.228  84.122  -8.716  1.00  0.00     0.041 A 
ATOM     12  C   UNL     1     -10.148  83.553  -7.876  1.00  0.00     0.194 C 
ATOM     13  O   UNL     1      -9.124  84.242  -7.612  1.00  0.00    -0.289 OA
ATOM     14  C   UNL     1     -11.192  85.473  -9.098  1.00  0.00     0.059 A 
ATOM     15  C   UNL     1     -12.220  86.020  -9.872  1.00  0.00     0.120 A 
ATOM     16  C   UNL     1     -13.302  85.225 -10.249  1.00  0.00     0.093 A 
ATOM     17  C   UNL     1     -13.372  83.882  -9.865  1.00  0.00     0.131 A 
ENDROOT
BRANCH   6  18
ATOM     18  O   UNL     1     -12.615  79.262  -7.401  1.00  0.00    -0.507 OA
ATOM     19  H   UNL     1     -13.567  79.509  -7.168  1.00  0.00     0.293 HD
ENDBRANCH   6  18
BRANCH  17  20
ATOM     20  O   UNL     1     -14.528  83.174 -10.202  1.00  0.00    -0.507 OA
ATOM     21  H   UNL     1     -14.768  82.277  -9.805  1.00  0.00     0.293 HD
ENDBRANCH  17  20
BRANCH  15  22
ATOM     22  O   UNL     1     -12.181  87.357 -10.263  1.00  0.00    -0.508 OA
ATOM     23  H   UNL     1     -11.399  87.956 -10.027  1.00  0.00     0.293 HD
ENDBRANCH  15  22
TORSDOF 3
ENDMDL
MODEL 5
REMARK VINA RESULT:    -4.945     12.140     14.980
REMARK INTER + INTRA:          -5.378
REMARK INTER:                  -5.378
REMARK INTRA:                   0.000
REMARK UNBOUND:                 0.000
REMARK SMILES Cc1cc(O)c2c(c1)C(=O)c1cc(O)cc(O)c1C2=O
REMARK SMILES IDX 1 1 2 2 8 3 7 4 6 5 4 6 3 7 19 8 20 9 18 10 11 11 9 12 10 13
REMARK SMILES IDX 12 14 13 15 15 16 16 17 5 18 17 20 14 22
REMARK H PARENT 5 19 17 21 14 23
REMARK Flexibility Score: inf
ROOT
ATOM      1  C   UNL     1      -3.568  92.595 -17.245  1.00  0.00     0.044 C 
ATOM      2  C   UNL     1      -4.044  91.926 -15.988  1.00  0.00    -0.047 A 
ATOM      3  C   UNL     1      -3.987  92.602 -14.765  1.00  0.00     0.016 A 
ATOM      4  C   UNL     1      -4.471  92.001 -13.591  1.00  0.00     0.038 A 
ATOM      5  C   UNL     1      -5.046  90.712 -13.645  1.00  0.00     0.076 A 
ATOM      6  C   UNL     1      -5.059  90.012 -14.881  1.00  0.00     0.127 A 
ATOM      7  C   UNL     1      -4.589  90.639 -16.039  1.00  0.00     0.050 A 
ATOM      8  C   UNL     1      -5.678  90.172 -12.414  1.00  0.00     0.201 C 
ATOM      9  O   UNL     1      -6.649  89.374 -12.505  1.00  0.00    -0.288 OA
ATOM     10  C   UNL     1      -5.291  90.716 -11.087  1.00  0.00     0.076 A 
ATOM     11  C   UNL     1      -4.717  92.007 -11.036  1.00  0.00     0.041 A 
ATOM     12  C   UNL     1      -4.377  92.713 -12.294  1.00  0.00     0.194 C 
ATOM     13  O   UNL     1      -3.986  93.913 -12.258  1.00  0.00    -0.289 OA
ATOM     14  C   UNL     1      -4.466  92.611  -9.793  1.00  0.00     0.059 A 
ATOM     15  C   UNL     1      -4.764  91.940  -8.604  1.00  0.00     0.120 A 
ATOM     16  C   UNL     1      -5.294  90.651  -8.650  1.00  0.00     0.093 A 
ATOM     17  C   UNL     1      -5.535  90.019  -9.874  1.00  0.00     0.131 A 
ENDROOT
BRANCH   6  18
ATOM     18  O   UNL     1      -5.495  88.691 -14.995  1.00  0.00    -0.507 OA
ATOM     19  H   UNL     1      -4.871  87.902 -15.091  1.00  0.00     0.293 HD
ENDBRANCH   6  18
BRANCH  17  20
ATOM     20  O   UNL     1      -5.980  88.695  -9.841  1.00  0.00    -0.507 OA
ATOM     21  H   UNL     1      -5.367  87.897  -9.930  1.00  0.00     0.293 HD
ENDBRANCH  17  20
BRANCH  15  22
ATOM     22  O   UNL     1      -4.527  92.541  -7.370  1.00  0.00    -0.508 OA
ATOM     23  H   UNL     1      -4.012  93.410  -7.293  1.00  0.00     0.293 HD
ENDBRANCH  15  22
TORSDOF 3
ENDMDL
MODEL 6
REMARK VINA RESULT:    -4.912     12.799     15.580
REMARK INTER + INTRA:          -5.342
REMARK INTER:                  -5.342
REMARK INTRA:                   0.000
REMARK UNBOUND:                 0.000
REMARK SMILES Cc1cc(O)c2c(c1)C(=O)c1cc(O)cc(O)c1C2=O
REMARK SMILES IDX 1 1 2 2 8 3 7 4 6 5 4 6 3 7 19 8 20 9 18 10 11 11 9 12 10 13
REMARK SMILES IDX 12 14 13 15 15 16 16 17 5 18 17 20 14 22
REMARK H PARENT 5 19 17 21 14 23
REMARK Flexibility Score: inf
ROOT
ATOM      1  C   UNL     1      -5.147  89.993  -9.688  1.00  0.00     0.044 C 
ATOM      2  C   UNL     1      -5.133  90.885 -10.896  1.00  0.00    -0.047 A 
ATOM      3  C   UNL     1      -5.387  90.355 -12.165  1.00  0.00     0.016 A 
ATOM      4  C   UNL     1      -5.420  91.188 -13.296  1.00  0.00     0.038 A 
ATOM      5  C   UNL     1      -5.222  92.579 -13.151  1.00  0.00     0.076 A 
ATOM      6  C   UNL     1      -4.920  93.105 -11.867  1.00  0.00     0.127 A 
ATOM      7  C   UNL     1      -4.912  92.258 -10.754  1.00  0.00     0.050 A 
ATOM      8  C   UNL     1      -5.411  93.444 -14.345  1.00  0.00     0.201 C 
ATOM      9  O   UNL     1      -5.811  94.630 -14.203  1.00  0.00    -0.288 OA
ATOM     10  C   UNL     1      -5.310  92.855 -15.705  1.00  0.00     0.076 A 
ATOM     11  C   UNL     1      -5.509  91.463 -15.846  1.00  0.00     0.041 A 
ATOM     12  C   UNL     1      -5.658  90.613 -14.641  1.00  0.00     0.194 C 
ATOM     13  O   UNL     1      -5.964  89.394 -14.762  1.00  0.00    -0.289 OA
ATOM     14  C   UNL     1      -5.559  90.891 -17.128  1.00  0.00     0.059 A 
ATOM     15  C   UNL     1      -5.398  91.685 -18.267  1.00  0.00     0.120 A 
ATOM     16  C   UNL     1      -5.161  93.053 -18.130  1.00  0.00     0.093 A 
ATOM     17  C   UNL     1      -5.087  93.643 -16.864  1.00  0.00     0.131 A 
ENDROOT
BRANCH   6  18
ATOM     18  O   UNL     1      -4.590  94.446 -11.659  1.00  0.00    -0.507 OA
ATOM     19  H   UNL     1      -4.715  95.167 -12.355  1.00  0.00     0.293 HD
ENDBRANCH   6  18
BRANCH  17  20
ATOM     20  O   UNL     1      -4.757  94.999 -16.804  1.00  0.00    -0.507 OA
ATOM     21  H   UNL     1      -4.493  95.472 -15.951  1.00  0.00     0.293 HD
ENDBRANCH  17  20
BRANCH  15  22
ATOM     22  O   UNL     1      -5.459  91.123 -19.540  1.00  0.00    -0.508 OA
ATOM     23  H   UNL     1      -6.330  91.064 -20.053  1.00  0.00     0.293 HD
ENDBRANCH  15  22
TORSDOF 3
ENDMDL
MODEL 7
REMARK VINA RESULT:    -4.894      2.251      6.485
REMARK INTER + INTRA:          -5.323
REMARK INTER:                  -5.323
REMARK INTRA:                   0.000
REMARK UNBOUND:                 0.000
REMARK SMILES Cc1cc(O)c2c(c1)C(=O)c1cc(O)cc(O)c1C2=O
REMARK SMILES IDX 1 1 2 2 8 3 7 4 6 5 4 6 3 7 19 8 20 9 18 10 11 11 9 12 10 13
REMARK SMILES IDX 12 14 13 15 15 16 16 17 5 18 17 20 14 22
REMARK H PARENT 5 19 17 21 14 23
REMARK Flexibility Score: inf
ROOT
ATOM      1  C   UNL     1     -11.863  87.370 -10.127  1.00  0.00     0.044 C 
ATOM      2  C   UNL     1     -12.093  85.961  -9.663  1.00  0.00    -0.047 A 
ATOM      3  C   UNL     1     -11.230  85.378  -8.729  1.00  0.00     0.016 A 
ATOM      4  C   UNL     1     -11.461  84.075  -8.255  1.00  0.00     0.038 A 
ATOM      5  C   UNL     1     -12.590  83.354  -8.702  1.00  0.00     0.076 A 
ATOM      6  C   UNL     1     -13.437  83.933  -9.684  1.00  0.00     0.127 A 
ATOM      7  C   UNL     1     -13.196  85.238 -10.126  1.00  0.00     0.050 A 
ATOM      8  C   UNL     1     -12.882  82.042  -8.069  1.00  0.00     0.201 C 
ATOM      9  O   UNL     1     -14.072  81.641  -7.975  1.00  0.00    -0.288 OA
ATOM     10  C   UNL     1     -11.795  81.297  -7.382  1.00  0.00     0.076 A 
ATOM     11  C   UNL     1     -10.667  82.022  -6.936  1.00  0.00     0.041 A 
ATOM     12  C   UNL     1     -10.523  83.454  -7.290  1.00  0.00     0.194 C 
ATOM     13  O   UNL     1      -9.588  84.138  -6.788  1.00  0.00    -0.289 OA
ATOM     14  C   UNL     1      -9.685  81.381  -6.163  1.00  0.00     0.059 A 
ATOM     15  C   UNL     1      -9.806  80.025  -5.845  1.00  0.00     0.120 A 
ATOM     16  C   UNL     1     -10.897  79.296  -6.317  1.00  0.00     0.093 A 
ATOM     17  C   UNL     1     -11.878  79.907  -7.105  1.00  0.00     0.131 A 
ENDROOT
BRANCH   6  18
ATOM     18  O   UNL     1     -14.499  83.240 -10.268  1.00  0.00    -0.507 OA
ATOM     19  H   UNL     1     -14.673  83.217 -11.262  1.00  0.00     0.293 HD
ENDBRANCH   6  18
BRANCH  17  20
ATOM     20  O   UNL     1     -12.892  79.094  -7.617  1.00  0.00    -0.507 OA
ATOM     21  H   UNL     1     -13.000  78.118  -7.378  1.00  0.00     0.293 HD
ENDBRANCH  17  20
BRANCH  15  22
ATOM     22  O   UNL     1      -8.840  79.388  -5.068  1.00  0.00    -0.508 OA
ATOM     23  H   UNL     1      -8.688  79.640  -4.099  1.00  0.00     0.293 HD
ENDBRANCH  15  22
TORSDOF 3
ENDMDL
MODEL 8
REMARK VINA RESULT:    -4.846     13.769     15.607
REMARK INTER + INTRA:          -5.270
REMARK INTER:                  -5.270
REMARK INTRA:                   0.000
REMARK UNBOUND:                 0.000
REMARK SMILES Cc1cc(O)c2c(c1)C(=O)c1cc(O)cc(O)c1C2=O
REMARK SMILES IDX 1 1 2 2 8 3 7 4 6 5 4 6 3 7 19 8 20 9 18 10 11 11 9 12 10 13
REMARK SMILES IDX 12 14 13 15 15 16 16 17 5 18 17 20 14 22
REMARK H PARENT 5 19 17 21 14 23
REMARK Flexibility Score: inf
ROOT
ATOM      1  C   UNL     1      -4.738  92.759  -7.461  1.00  0.00     0.044 C 
ATOM      2  C   UNL     1      -4.781  93.047  -8.934  1.00  0.00    -0.047 A 
ATOM      3  C   UNL     1      -4.973  92.006  -9.849  1.00  0.00     0.016 A 
ATOM      4  C   UNL     1      -5.059  92.271 -11.227  1.00  0.00     0.038 A 
ATOM      5  C   UNL     1      -4.976  93.601 -11.695  1.00  0.00     0.076 A 
ATOM      6  C   UNL     1      -4.735  94.647 -10.766  1.00  0.00     0.127 A 
ATOM      7  C   UNL     1      -4.673  94.361  -9.398  1.00  0.00     0.050 A 
ATOM      8  C   UNL     1      -5.218  93.854 -13.139  1.00  0.00     0.201 C 
ATOM      9  O   UNL     1      -5.715  94.951 -13.509  1.00  0.00    -0.288 OA
ATOM     10  C   UNL     1      -5.052  92.750 -14.119  1.00  0.00     0.076 A 
ATOM     11  C   UNL     1      -5.135  91.421 -13.647  1.00  0.00     0.041 A 
ATOM     12  C   UNL     1      -5.231  91.159 -12.191  1.00  0.00     0.194 C 
ATOM     13  O   UNL     1      -5.436  89.985 -11.774  1.00  0.00    -0.289 OA
ATOM     14  C   UNL     1      -5.122  90.353 -14.561  1.00  0.00     0.059 A 
ATOM     15  C   UNL     1      -5.010  90.595 -15.933  1.00  0.00     0.120 A 
ATOM     16  C   UNL     1      -4.887  91.903 -16.399  1.00  0.00     0.093 A 
ATOM     17  C   UNL     1      -4.877  92.982 -15.509  1.00  0.00     0.131 A 
ENDROOT
BRANCH   6  18
ATOM     18  O   UNL     1      -4.518  95.970 -11.158  1.00  0.00    -0.507 OA
ATOM     19  H   UNL     1      -5.044  96.753 -10.798  1.00  0.00     0.293 HD
ENDBRANCH   6  18
BRANCH  17  20
ATOM     20  O   UNL     1      -4.660  94.255 -16.041  1.00  0.00    -0.507 OA
ATOM     21  H   UNL     1      -5.366  94.782 -16.536  1.00  0.00     0.293 HD
ENDBRANCH  17  20
BRANCH  15  22
ATOM     22  O   UNL     1      -5.008  89.539 -16.842  1.00  0.00    -0.508 OA
ATOM     23  H   UNL     1      -4.167  89.266 -17.336  1.00  0.00     0.293 HD
ENDBRANCH  15  22
TORSDOF 3
ENDMDL
MODEL 9
REMARK VINA RESULT:    -4.817     10.398     13.153
REMARK INTER + INTRA:          -5.240
REMARK INTER:                  -5.240
REMARK INTRA:                   0.000
REMARK UNBOUND:                 0.000
REMARK SMILES Cc1cc(O)c2c(c1)C(=O)c1cc(O)cc(O)c1C2=O
REMARK SMILES IDX 1 1 2 2 8 3 7 4 6 5 4 6 3 7 19 8 20 9 18 10 11 11 9 12 10 13
REMARK SMILES IDX 12 14 13 15 15 16 16 17 5 18 17 20 14 22
REMARK H PARENT 5 19 17 21 14 23
REMARK Flexibility Score: inf
ROOT
ATOM      1  C   UNL     1      -6.677  88.355  -6.793  1.00  0.00     0.044 C 
ATOM      2  C   UNL     1      -6.173  89.197  -7.929  1.00  0.00    -0.047 A 
ATOM      3  C   UNL     1      -6.401  88.803  -9.252  1.00  0.00     0.016 A 
ATOM      4  C   UNL     1      -5.972  89.606 -10.323  1.00  0.00     0.038 A 
ATOM      5  C   UNL     1      -5.328  90.836 -10.066  1.00  0.00     0.076 A 
ATOM      6  C   UNL     1      -5.059  91.209  -8.722  1.00  0.00     0.127 A 
ATOM      7  C   UNL     1      -5.513  90.403  -7.674  1.00  0.00     0.050 A 
ATOM      8  C   UNL     1      -5.023  91.724 -11.218  1.00  0.00     0.201 C 
ATOM      9  O   UNL     1      -5.004  92.973 -11.060  1.00  0.00    -0.288 OA
ATOM     10  C   UNL     1      -4.929  91.150 -12.585  1.00  0.00     0.076 A 
ATOM     11  C   UNL     1      -5.575  89.919 -12.839  1.00  0.00     0.041 A 
ATOM     12  C   UNL     1      -6.190  89.164 -11.721  1.00  0.00     0.194 C 
ATOM     13  O   UNL     1      -6.877  88.133 -11.959  1.00  0.00    -0.289 OA
ATOM     14  C   UNL     1      -5.627  89.414 -14.149  1.00  0.00     0.059 A 
ATOM     15  C   UNL     1      -5.030  90.112 -15.202  1.00  0.00     0.120 A 
ATOM     16  C   UNL     1      -4.358  91.307 -14.950  1.00  0.00     0.093 A 
ATOM     17  C   UNL     1      -4.274  91.821 -13.652  1.00  0.00     0.131 A 
ENDROOT
BRANCH   6  18
ATOM     18  O   UNL     1      -4.321  92.346  -8.388  1.00  0.00    -0.507 OA
ATOM     19  H   UNL     1      -3.730  92.409  -7.571  1.00  0.00     0.293 HD
ENDBRANCH   6  18
BRANCH  17  20
ATOM     20  O   UNL     1      -3.508  92.973 -13.462  1.00  0.00    -0.507 OA
ATOM     21  H   UNL     1      -3.684  93.646 -12.729  1.00  0.00     0.293 HD
ENDBRANCH  17  20
BRANCH  15  22
ATOM     22  O   UNL     1      -5.090  89.620 -16.505  1.00  0.00    -0.508 OA
ATOM     23  H   UNL     1      -5.677  88.830 -16.747  1.00  0.00     0.293 HD
ENDBRANCH  15  22
TORSDOF 3
ENDMDL
