MODEL 1
REMARK VINA RESULT:    -3.856      0.000      0.000
REMARK INTER + INTRA:          -5.939
REMARK INTER:                  -5.660
REMARK INTRA:                  -0.279
REMARK UNBOUND:                -0.279
REMARK SMILES O=C([O-])CCCCCCCC(=O)[O-]
REMARK SMILES IDX 7 1 6 2 5 3 4 4 2 5 1 6 3 7 8 8 9 9 10 10 11 11 12 12 13 13
REMARK H PARENT
REMARK Flexibility Score: inf
ROOT
ATOM      1  C   UNL     1     120.073 109.643 109.176  1.00  0.00     0.000 C 
ENDROOT
BRANCH   1   2
ATOM      2  C   UNL     1     120.139 109.841 107.652  1.00  0.00     0.000 C 
BRANCH   2   3
ATOM      3  C   UNL     1     119.605 108.630 106.873  1.00  0.00     0.006 C 
BRANCH   3   4
ATOM      4  C   UNL     1     120.722 107.964 106.064  1.00  0.00     0.053 C 
BRANCH   4   5
ATOM      5  C   UNL     1     120.165 106.885 105.191  1.00  0.00     0.041 C 
ATOM      6  O   UNL     1     119.259 106.124 105.623  1.00  0.00    -0.550 OA
ATOM      7  O   UNL     1     120.610 106.750 103.883  1.00  0.00    -0.550 OA
ENDBRANCH   4   5
ENDBRANCH   3   4
ENDBRANCH   2   3
ENDBRANCH   1   2
BRANCH   1   8
ATOM      8  C   UNL     1     119.278 110.750 109.883  1.00  0.00     0.000 C 
BRANCH   8   9
ATOM      9  C   UNL     1     118.893 110.323 111.308  1.00  0.00     0.006 C 
BRANCH   9  10
ATOM     10  C   UNL     1     120.104 110.285 112.249  1.00  0.00     0.053 C 
BRANCH  10  11
ATOM     11  C   UNL     1     120.729 111.637 112.404  1.00  0.00     0.041 C 
ATOM     12  O   UNL     1     121.887 111.856 111.960  1.00  0.00    -0.550 OA
ATOM     13  O   UNL     1     120.046 112.646 113.070  1.00  0.00    -0.550 OA
ENDBRANCH  10  11
ENDBRANCH   9  10
ENDBRANCH   8   9
ENDBRANCH   1   8
TORSDOF 8
ENDMDL
MODEL 2
REMARK VINA RESULT:    -3.792      1.145      6.991
REMARK INTER + INTRA:          -5.844
REMARK INTER:                  -5.410
REMARK INTRA:                  -0.435
REMARK UNBOUND:                -0.279
REMARK SMILES O=C([O-])CCCCCCCC(=O)[O-]
REMARK SMILES IDX 7 1 6 2 5 3 4 4 2 5 1 6 3 7 8 8 9 9 10 10 11 11 12 12 13 13
REMARK H PARENT
REMARK Flexibility Score: inf
ROOT
ATOM      1  C   UNL     1     121.270 109.626 108.659  1.00  0.00     0.000 C 
ENDROOT
BRANCH   1   2
ATOM      2  C   UNL     1     120.617 109.284 110.008  1.00  0.00     0.000 C 
BRANCH   2   3
ATOM      3  C   UNL     1     119.284 110.014 110.224  1.00  0.00     0.006 C 
BRANCH   3   4
ATOM      4  C   UNL     1     119.192 110.578 111.644  1.00  0.00     0.053 C 
BRANCH   4   5
ATOM      5  C   UNL     1     119.984 111.842 111.759  1.00  0.00     0.041 C 
ATOM      6  O   UNL     1     119.994 112.672 110.812  1.00  0.00    -0.550 OA
ATOM      7  O   UNL     1     120.672 112.127 112.932  1.00  0.00    -0.550 OA
ENDBRANCH   4   5
ENDBRANCH   3   4
ENDBRANCH   2   3
ENDBRANCH   1   2
BRANCH   1   8
ATOM      8  C   UNL     1     120.240 109.872 107.547  1.00  0.00     0.000 C 
BRANCH   8   9
ATOM      9  C   UNL     1     119.888 108.560 106.829  1.00  0.00     0.006 C 
BRANCH   9  10
ATOM     10  C   UNL     1     121.094 107.620 106.712  1.00  0.00     0.053 C 
BRANCH  10  11
ATOM     11  C   UNL     1     121.153 106.958 105.370  1.00  0.00     0.041 C 
ATOM     12  O   UNL     1     122.219 106.415 104.976  1.00  0.00    -0.550 OA
ATOM     13  O   UNL     1     120.040 106.969 104.539  1.00  0.00    -0.550 OA
ENDBRANCH  10  11
ENDBRANCH   9  10
ENDBRANCH   8   9
ENDBRANCH   1   8
TORSDOF 8
ENDMDL
MODEL 3
REMARK VINA RESULT:    -3.770      3.915      5.136
REMARK INTER + INTRA:          -5.813
REMARK INTER:                  -5.554
REMARK INTRA:                  -0.259
REMARK UNBOUND:                -0.279
REMARK SMILES O=C([O-])CCCCCCCC(=O)[O-]
REMARK SMILES IDX 7 1 6 2 5 3 4 4 2 5 1 6 3 7 8 8 9 9 10 10 11 11 12 12 13 13
REMARK H PARENT
REMARK Flexibility Score: inf
ROOT
ATOM      1  C   UNL     1     120.117 110.710 107.600  1.00  0.00     0.000 C 
ENDROOT
BRANCH   1   2
ATOM      2  C   UNL     1     121.234 111.584 107.008  1.00  0.00     0.000 C 
BRANCH   2   3
ATOM      3  C   UNL     1     120.934 113.086 107.117  1.00  0.00     0.006 C 
BRANCH   3   4
ATOM      4  C   UNL     1     121.057 113.770 105.753  1.00  0.00     0.053 C 
BRANCH   4   5
ATOM      5  C   UNL     1     120.777 115.234 105.873  1.00  0.00     0.041 C 
ATOM      6  O   UNL     1     121.715 116.044 106.094  1.00  0.00    -0.550 OA
ATOM      7  O   UNL     1     119.485 115.711 105.692  1.00  0.00    -0.550 OA
ENDBRANCH   4   5
ENDBRANCH   3   4
ENDBRANCH   2   3
ENDBRANCH   1   2
BRANCH   1   8
ATOM      8  C   UNL     1     119.680 111.173 108.997  1.00  0.00     0.000 C 
BRANCH   8   9
ATOM      9  C   UNL     1     119.596 109.985 109.967  1.00  0.00     0.006 C 
BRANCH   9  10
ATOM     10  C   UNL     1     118.924 110.364 111.293  1.00  0.00     0.053 C 
BRANCH  10  11
ATOM     11  C   UNL     1     119.919 110.849 112.302  1.00  0.00     0.041 C 
ATOM     12  O   UNL     1     119.983 112.072 112.594  1.00  0.00    -0.550 OA
ATOM     13  O   UNL     1     120.800 109.954 112.894  1.00  0.00    -0.550 OA
ENDBRANCH  10  11
ENDBRANCH   9  10
ENDBRANCH   8   9
ENDBRANCH   1   8
TORSDOF 8
ENDMDL
MODEL 4
REMARK VINA RESULT:    -3.721      3.912      6.995
REMARK INTER + INTRA:          -5.740
REMARK INTER:                  -5.404
REMARK INTRA:                  -0.337
REMARK UNBOUND:                -0.279
REMARK SMILES O=C([O-])CCCCCCCC(=O)[O-]
REMARK SMILES IDX 7 1 6 2 5 3 4 4 2 5 1 6 3 7 8 8 9 9 10 10 11 11 12 12 13 13
REMARK H PARENT
REMARK Flexibility Score: inf
ROOT
ATOM      1  C   UNL     1     121.680 110.774 107.485  1.00  0.00     0.000 C 
ENDROOT
BRANCH   1   2
ATOM      2  C   UNL     1     121.972 112.281 107.393  1.00  0.00     0.000 C 
BRANCH   2   3
ATOM      3  C   UNL     1     120.796 113.079 106.812  1.00  0.00     0.006 C 
BRANCH   3   4
ATOM      4  C   UNL     1     121.235 113.888 105.589  1.00  0.00     0.053 C 
BRANCH   4   5
ATOM      5  C   UNL     1     120.852 115.325 105.746  1.00  0.00     0.041 C 
ATOM      6  O   UNL     1     119.639 115.664 105.729  1.00  0.00    -0.550 OA
ATOM      7  O   UNL     1     121.831 116.286 105.962  1.00  0.00    -0.550 OA
ENDBRANCH   4   5
ENDBRANCH   3   4
ENDBRANCH   2   3
ENDBRANCH   1   2
BRANCH   1   8
ATOM      8  C   UNL     1     120.177 110.464 107.526  1.00  0.00     0.000 C 
BRANCH   8   9
ATOM      9  C   UNL     1     119.908 109.004 107.127  1.00  0.00     0.006 C 
BRANCH   9  10
ATOM     10  C   UNL     1     121.088 108.383 106.368  1.00  0.00     0.053 C 
BRANCH  10  11
ATOM     11  C   UNL     1     120.691 107.126 105.657  1.00  0.00     0.041 C 
ATOM     12  O   UNL     1     120.388 107.157 104.435  1.00  0.00    -0.550 OA
ATOM     13  O   UNL     1     120.623 105.926 106.352  1.00  0.00    -0.550 OA
ENDBRANCH  10  11
ENDBRANCH   9  10
ENDBRANCH   8   9
ENDBRANCH   1   8
TORSDOF 8
ENDMDL
MODEL 5
REMARK VINA RESULT:    -3.671      3.745      8.956
REMARK INTER + INTRA:          -5.667
REMARK INTER:                  -5.312
REMARK INTRA:                  -0.355
REMARK UNBOUND:                -0.279
REMARK SMILES O=C([O-])CCCCCCCC(=O)[O-]
REMARK SMILES IDX 7 1 6 2 5 3 4 4 2 5 1 6 3 7 8 8 9 9 10 10 11 11 12 12 13 13
REMARK H PARENT
REMARK Flexibility Score: inf
ROOT
ATOM      1  C   UNL     1     120.682 112.671 114.264  1.00  0.00     0.000 C 
ENDROOT
BRANCH   1   2
ATOM      2  C   UNL     1     121.282 111.447 114.975  1.00  0.00     0.000 C 
BRANCH   2   3
ATOM      3  C   UNL     1     121.365 111.627 116.498  1.00  0.00     0.006 C 
BRANCH   3   4
ATOM      4  C   UNL     1     120.161 110.985 117.192  1.00  0.00     0.053 C 
BRANCH   4   5
ATOM      5  C   UNL     1     119.519 111.954 118.133  1.00  0.00     0.041 C 
ATOM      6  O   UNL     1     120.211 112.552 118.999  1.00  0.00    -0.550 OA
ATOM      7  O   UNL     1     118.163 112.236 118.022  1.00  0.00    -0.550 OA
ENDBRANCH   4   5
ENDBRANCH   3   4
ENDBRANCH   2   3
ENDBRANCH   1   2
BRANCH   1   8
ATOM      8  C   UNL     1     120.106 112.330 112.882  1.00  0.00     0.000 C 
BRANCH   8   9
ATOM      9  C   UNL     1     120.230 110.826 112.594  1.00  0.00     0.006 C 
BRANCH   9  10
ATOM     10  C   UNL     1     119.131 110.325 111.647  1.00  0.00     0.053 C 
BRANCH  10  11
ATOM     11  C   UNL     1     119.584 110.327 110.220  1.00  0.00     0.041 C 
ATOM     12  O   UNL     1     119.325 111.307 109.473  1.00  0.00    -0.550 OA
ATOM     13  O   UNL     1     120.263 109.230 109.705  1.00  0.00    -0.550 OA
ENDBRANCH  10  11
ENDBRANCH   9  10
ENDBRANCH   8   9
ENDBRANCH   1   8
TORSDOF 8
ENDMDL
MODEL 6
REMARK VINA RESULT:    -3.648      2.219      7.012
REMARK INTER + INTRA:          -5.634
REMARK INTER:                  -5.069
REMARK INTRA:                  -0.565
REMARK UNBOUND:                -0.279
REMARK SMILES O=C([O-])CCCCCCCC(=O)[O-]
REMARK SMILES IDX 7 1 6 2 5 3 4 4 2 5 1 6 3 7 8 8 9 9 10 10 11 11 12 12 13 13
REMARK H PARENT
REMARK Flexibility Score: inf
ROOT
ATOM      1  C   UNL     1     120.457 109.973 112.204  1.00  0.00     0.000 C 
ENDROOT
BRANCH   1   2
ATOM      2  C   UNL     1     120.765 110.805 113.460  1.00  0.00     0.000 C 
BRANCH   2   3
ATOM      3  C   UNL     1     121.296 112.207 113.127  1.00  0.00     0.006 C 
BRANCH   3   4
ATOM      4  C   UNL     1     120.270 113.283 113.494  1.00  0.00     0.053 C 
BRANCH   4   5
ATOM      5  C   UNL     1     119.941 114.121 112.301  1.00  0.00     0.041 C 
ATOM      6  O   UNL     1     120.162 113.687 111.139  1.00  0.00    -0.550 OA
ATOM      7  O   UNL     1     119.343 115.364 112.468  1.00  0.00    -0.550 OA
ENDBRANCH   4   5
ENDBRANCH   3   4
ENDBRANCH   2   3
ENDBRANCH   1   2
BRANCH   1   8
ATOM      8  C   UNL     1     119.096 110.321 111.583  1.00  0.00     0.000 C 
BRANCH   8   9
ATOM      9  C   UNL     1     119.184 110.342 110.049  1.00  0.00     0.006 C 
BRANCH   9  10
ATOM     10  C   UNL     1     120.397 109.562 109.526  1.00  0.00     0.053 C 
BRANCH  10  11
ATOM     11  C   UNL     1     120.403 109.482 108.031  1.00  0.00     0.041 C 
ATOM     12  O   UNL     1     119.902 110.411 107.344  1.00  0.00    -0.550 OA
ATOM     13  O   UNL     1     120.932 108.366 107.397  1.00  0.00    -0.550 OA
ENDBRANCH  10  11
ENDBRANCH   9  10
ENDBRANCH   8   9
ENDBRANCH   1   8
TORSDOF 8
ENDMDL
MODEL 7
REMARK VINA RESULT:    -3.648      1.606      2.412
REMARK INTER + INTRA:          -5.633
REMARK INTER:                  -5.128
REMARK INTRA:                  -0.505
REMARK UNBOUND:                -0.279
REMARK SMILES O=C([O-])CCCCCCCC(=O)[O-]
REMARK SMILES IDX 7 1 6 2 5 3 4 4 2 5 1 6 3 7 8 8 9 9 10 10 11 11 12 12 13 13
REMARK H PARENT
REMARK Flexibility Score: inf
ROOT
ATOM      1  C   UNL     1     119.416 109.982 109.998  1.00  0.00     0.000 C 
ENDROOT
BRANCH   1   2
ATOM      2  C   UNL     1     119.631 111.242 109.143  1.00  0.00     0.000 C 
BRANCH   2   3
ATOM      3  C   UNL     1     120.166 110.922 107.740  1.00  0.00     0.006 C 
BRANCH   3   4
ATOM      4  C   UNL     1     120.001 109.435 107.417  1.00  0.00     0.053 C 
BRANCH   4   5
ATOM      5  C   UNL     1     121.253 108.888 106.808  1.00  0.00     0.041 C 
ATOM      6  O   UNL     1     122.228 109.650 106.572  1.00  0.00    -0.550 OA
ATOM      7  O   UNL     1     121.363 107.529 106.545  1.00  0.00    -0.550 OA
ENDBRANCH   4   5
ENDBRANCH   3   4
ENDBRANCH   2   3
ENDBRANCH   1   2
BRANCH   1   8
ATOM      8  C   UNL     1     119.126 110.308 111.470  1.00  0.00     0.000 C 
BRANCH   8   9
ATOM      9  C   UNL     1     120.351 110.009 112.349  1.00  0.00     0.006 C 
BRANCH   9  10
ATOM     10  C   UNL     1     120.690 111.174 113.288  1.00  0.00     0.053 C 
BRANCH  10  11
ATOM     11  C   UNL     1     120.801 112.470 112.547  1.00  0.00     0.041 C 
ATOM     12  O   UNL     1     119.966 113.391 112.749  1.00  0.00    -0.550 OA
ATOM     13  O   UNL     1     121.808 112.649 111.607  1.00  0.00    -0.550 OA
ENDBRANCH  10  11
ENDBRANCH   9  10
ENDBRANCH   8   9
ENDBRANCH   1   8
TORSDOF 8
ENDMDL
MODEL 8
REMARK VINA RESULT:    -3.620      1.266      7.116
REMARK INTER + INTRA:          -5.593
REMARK INTER:                  -5.253
REMARK INTRA:                  -0.340
REMARK UNBOUND:                -0.279
REMARK SMILES O=C([O-])CCCCCCCC(=O)[O-]
REMARK SMILES IDX 7 1 6 2 5 3 4 4 2 5 1 6 3 7 8 8 9 9 10 10 11 11 12 12 13 13
REMARK H PARENT
REMARK Flexibility Score: inf
ROOT
ATOM      1  C   UNL     1     120.616 109.661 109.725  1.00  0.00     0.000 C 
ENDROOT
BRANCH   1   2
ATOM      2  C   UNL     1     119.193 110.061 110.148  1.00  0.00     0.000 C 
BRANCH   2   3
ATOM      3  C   UNL     1     119.068 110.297 111.661  1.00  0.00     0.006 C 
BRANCH   3   4
ATOM      4  C   UNL     1     120.399 110.029 112.369  1.00  0.00     0.053 C 
BRANCH   4   5
ATOM      5  C   UNL     1     120.723 111.141 113.314  1.00  0.00     0.041 C 
ATOM      6  O   UNL     1     121.360 110.906 114.376  1.00  0.00    -0.550 OA
ATOM      7  O   UNL     1     120.366 112.446 113.001  1.00  0.00    -0.550 OA
ENDBRANCH   4   5
ENDBRANCH   3   4
ENDBRANCH   2   3
ENDBRANCH   1   2
BRANCH   1   8
ATOM      8  C   UNL     1     121.064 110.349 108.428  1.00  0.00     0.000 C 
BRANCH   8   9
ATOM      9  C   UNL     1     121.406 109.312 107.348  1.00  0.00     0.006 C 
BRANCH   9  10
ATOM     10  C   UNL     1     120.160 108.587 106.824  1.00  0.00     0.053 C 
BRANCH  10  11
ATOM     11  C   UNL     1     120.516 107.339 106.076  1.00  0.00     0.041 C 
ATOM     12  O   UNL     1     120.012 107.111 104.945  1.00  0.00    -0.550 OA
ATOM     13  O   UNL     1     121.380 106.412 106.644  1.00  0.00    -0.550 OA
ENDBRANCH  10  11
ENDBRANCH   9  10
ENDBRANCH   8   9
ENDBRANCH   1   8
TORSDOF 8
ENDMDL
MODEL 9
REMARK VINA RESULT:    -3.577      3.395      7.961
REMARK INTER + INTRA:          -5.530
REMARK INTER:                  -5.112
REMARK INTRA:                  -0.417
REMARK UNBOUND:                -0.279
REMARK SMILES O=C([O-])CCCCCCCC(=O)[O-]
REMARK SMILES IDX 7 1 6 2 5 3 4 4 2 5 1 6 3 7 8 8 9 9 10 10 11 11 12 12 13 13
REMARK H PARENT
REMARK Flexibility Score: inf
ROOT
ATOM      1  C   UNL     1     120.934 111.244 112.862  1.00  0.00     0.000 C 
ENDROOT
BRANCH   1   2
ATOM      2  C   UNL     1     121.104 111.204 114.390  1.00  0.00     0.000 C 
BRANCH   2   3
ATOM      3  C   UNL     1     120.714 112.527 115.065  1.00  0.00     0.006 C 
BRANCH   3   4
ATOM      4  C   UNL     1     119.939 113.428 114.099  1.00  0.00     0.053 C 
BRANCH   4   5
ATOM      5  C   UNL     1     119.081 114.391 114.854  1.00  0.00     0.041 C 
ATOM      6  O   UNL     1     118.682 114.110 116.016  1.00  0.00    -0.550 OA
ATOM      7  O   UNL     1     118.760 115.622 114.296  1.00  0.00    -0.550 OA
ENDBRANCH   4   5
ENDBRANCH   3   4
ENDBRANCH   2   3
ENDBRANCH   1   2
BRANCH   1   8
ATOM      8  C   UNL     1     120.276 109.973 112.306  1.00  0.00     0.000 C 
BRANCH   8   9
ATOM      9  C   UNL     1     119.178 110.325 111.291  1.00  0.00     0.006 C 
BRANCH   9  10
ATOM     10  C   UNL     1     119.564 109.933 109.858  1.00  0.00     0.053 C 
BRANCH  10  11
ATOM     11  C   UNL     1     119.903 111.132 109.027  1.00  0.00     0.041 C 
ATOM     12  O   UNL     1     120.191 112.226 109.578  1.00  0.00    -0.550 OA
ATOM     13  O   UNL     1     119.866 111.048 107.641  1.00  0.00    -0.550 OA
ENDBRANCH  10  11
ENDBRANCH   9  10
ENDBRANCH   8   9
ENDBRANCH   1   8
TORSDOF 8
ENDMDL
