MODEL 1
REMARK VINA RESULT:    -4.021      0.000      0.000
REMARK INTER + INTRA:          -9.983
REMARK INTER:                  -7.546
REMARK INTRA:                  -2.436
REMARK UNBOUND:                -2.436
REMARK SMILES CCCCCCCCC=CCCCCCCCC(=O)[O-]
REMARK SMILES IDX 10 1 9 2 11 3 12 4 13 5 14 6 15 7 16 8 17 9 18 10 19 11
REMARK SMILES IDX 20 12 8 13 7 14 6 15 5 16 4 17 3 18 2 19 1 20
REMARK H PARENT
REMARK Flexibility Score: inf
ROOT
ATOM      1  C   UNL     1      17.445   9.267  -0.928  1.00  0.00    -0.031 C 
ATOM      2  C   UNL     1      17.434   8.032  -1.464  1.00  0.00    -0.031 C 
ENDROOT
BRANCH   1   3
ATOM      3  C   UNL     1      16.249   9.968  -0.328  1.00  0.00     0.027 C 
BRANCH   3   4
ATOM      4  C   UNL     1      16.680  11.118   0.591  1.00  0.00     0.004 C 
BRANCH   4   5
ATOM      5  C   UNL     1      17.742  10.674   1.610  1.00  0.00     0.000 C 
BRANCH   5   6
ATOM      6  C   UNL     1      17.170  10.486   3.026  1.00  0.00     0.000 C 
BRANCH   6   7
ATOM      7  C   UNL     1      18.098  11.018   4.139  1.00  0.00     0.000 C 
BRANCH   7   8
ATOM      8  C   UNL     1      17.737  12.455   4.557  1.00  0.00     0.006 C 
BRANCH   8   9
ATOM      9  C   UNL     1      18.821  13.466   4.161  1.00  0.00     0.053 C 
BRANCH   9  10
ATOM     10  C   UNL     1      18.422  14.263   2.957  1.00  0.00     0.041 C 
ATOM     11  O   UNL     1      17.287  14.101   2.436  1.00  0.00    -0.550 OA
ATOM     12  O   UNL     1      19.293  15.210   2.431  1.00  0.00    -0.550 OA
ENDBRANCH   9  10
ENDBRANCH   8   9
ENDBRANCH   7   8
ENDBRANCH   6   7
ENDBRANCH   5   6
ENDBRANCH   4   5
ENDBRANCH   3   4
ENDBRANCH   1   3
BRANCH   2  13
ATOM     13  C   UNL     1      16.237   7.113  -1.497  1.00  0.00     0.027 C 
BRANCH  13  14
ATOM     14  C   UNL     1      16.621   5.666  -1.852  1.00  0.00     0.004 C 
BRANCH  14  15
ATOM     15  C   UNL     1      16.461   4.664  -0.692  1.00  0.00     0.000 C 
BRANCH  15  16
ATOM     16  C   UNL     1      17.781   4.111  -0.114  1.00  0.00     0.000 C 
BRANCH  16  17
ATOM     17  C   UNL     1      18.142   4.618   1.295  1.00  0.00    -0.000 C 
BRANCH  17  18
ATOM     18  C   UNL     1      18.889   5.962   1.271  1.00  0.00    -0.000 C 
BRANCH  18  19
ATOM     19  C   UNL     1      18.235   7.012   2.182  1.00  0.00    -0.003 C 
ATOM     20  C   UNL     1      16.709   6.925   2.189  1.00  0.00     0.004 C 
ENDBRANCH  18  19
ENDBRANCH  17  18
ENDBRANCH  16  17
ENDBRANCH  15  16
ENDBRANCH  14  15
ENDBRANCH  13  14
ENDBRANCH   2  13
TORSDOF 15
ENDMDL
MODEL 2
REMARK VINA RESULT:    -3.822      2.511      6.824
REMARK INTER + INTRA:          -9.610
REMARK INTER:                  -7.482
REMARK INTRA:                  -2.128
REMARK UNBOUND:                -2.436
REMARK SMILES CCCCCCCCC=CCCCCCCCC(=O)[O-]
REMARK SMILES IDX 10 1 9 2 11 3 12 4 13 5 14 6 15 7 16 8 17 9 18 10 19 11
REMARK SMILES IDX 20 12 8 13 7 14 6 15 5 16 4 17 3 18 2 19 1 20
REMARK H PARENT
REMARK Flexibility Score: inf
ROOT
ATOM      1  C   UNL     1      17.305  10.395   0.410  1.00  0.00    -0.031 C 
ATOM      2  C   UNL     1      17.503  11.665   0.809  1.00  0.00    -0.031 C 
ENDROOT
BRANCH   1   3
ATOM      3  C   UNL     1      16.027   9.861  -0.194  1.00  0.00     0.027 C 
BRANCH   3   4
ATOM      4  C   UNL     1      16.272   9.280  -1.592  1.00  0.00     0.004 C 
BRANCH   4   5
ATOM      5  C   UNL     1      17.474   8.323  -1.617  1.00  0.00     0.000 C 
BRANCH   5   6
ATOM      6  C   UNL     1      17.067   6.847  -1.473  1.00  0.00     0.000 C 
BRANCH   6   7
ATOM      7  C   UNL     1      18.159   5.966  -0.830  1.00  0.00     0.000 C 
BRANCH   7   8
ATOM      8  C   UNL     1      17.675   5.300   0.470  1.00  0.00     0.006 C 
BRANCH   8   9
ATOM      9  C   UNL     1      17.165   6.322   1.494  1.00  0.00     0.053 C 
BRANCH   9  10
ATOM     10  C   UNL     1      18.293   6.994   2.217  1.00  0.00     0.041 C 
ATOM     11  O   UNL     1      18.165   8.174   2.636  1.00  0.00    -0.550 OA
ATOM     12  O   UNL     1      19.474   6.302   2.457  1.00  0.00    -0.550 OA
ENDBRANCH   9  10
ENDBRANCH   8   9
ENDBRANCH   7   8
ENDBRANCH   6   7
ENDBRANCH   5   6
ENDBRANCH   4   5
ENDBRANCH   3   4
ENDBRANCH   1   3
BRANCH   2  13
ATOM     13  C   UNL     1      16.503  12.786   0.661  1.00  0.00     0.027 C 
BRANCH  13  14
ATOM     14  C   UNL     1      16.767  13.939   1.645  1.00  0.00     0.004 C 
BRANCH  14  15
ATOM     15  C   UNL     1      18.190  13.953   2.240  1.00  0.00     0.000 C 
BRANCH  15  16
ATOM     16  C   UNL     1      18.260  14.082   3.775  1.00  0.00     0.000 C 
BRANCH  16  17
ATOM     17  C   UNL     1      19.030  12.958   4.493  1.00  0.00    -0.000 C 
BRANCH  17  18
ATOM     18  C   UNL     1      18.330  11.593   4.385  1.00  0.00    -0.000 C 
BRANCH  18  19
ATOM     19  C   UNL     1      16.881  11.636   4.896  1.00  0.00    -0.003 C 
ATOM     20  C   UNL     1      15.875  11.113   3.870  1.00  0.00     0.004 C 
ENDBRANCH  18  19
ENDBRANCH  17  18
ENDBRANCH  16  17
ENDBRANCH  15  16
ENDBRANCH  14  15
ENDBRANCH  13  14
ENDBRANCH   2  13
TORSDOF 15
ENDMDL
MODEL 3
REMARK VINA RESULT:    -3.775      3.395      7.407
REMARK INTER + INTRA:          -9.522
REMARK INTER:                  -7.042
REMARK INTRA:                  -2.480
REMARK UNBOUND:                -2.436
REMARK SMILES CCCCCCCCC=CCCCCCCCC(=O)[O-]
REMARK SMILES IDX 10 1 9 2 11 3 12 4 13 5 14 6 15 7 16 8 17 9 18 10 19 11
REMARK SMILES IDX 20 12 8 13 7 14 6 15 5 16 4 17 3 18 2 19 1 20
REMARK H PARENT
REMARK Flexibility Score: inf
ROOT
ATOM      1  C   UNL     1      17.406  10.880   0.437  1.00  0.00    -0.031 C 
ATOM      2  C   UNL     1      17.548  10.699   1.763  1.00  0.00    -0.031 C 
ENDROOT
BRANCH   1   3
ATOM      3  C   UNL     1      16.089  11.047  -0.284  1.00  0.00     0.027 C 
BRANCH   3   4
ATOM      4  C   UNL     1      16.116  10.366  -1.658  1.00  0.00     0.004 C 
BRANCH   4   5
ATOM      5  C   UNL     1      16.206   8.836  -1.541  1.00  0.00     0.000 C 
BRANCH   5   6
ATOM      6  C   UNL     1      17.606   8.292  -1.873  1.00  0.00     0.000 C 
BRANCH   6   7
ATOM      7  C   UNL     1      18.184   7.368  -0.780  1.00  0.00     0.000 C 
BRANCH   7   8
ATOM      8  C   UNL     1      17.201   7.166   0.387  1.00  0.00     0.006 C 
BRANCH   8   9
ATOM      9  C   UNL     1      16.628   5.743   0.425  1.00  0.00     0.053 C 
BRANCH   9  10
ATOM     10  C   UNL     1      17.703   4.717   0.615  1.00  0.00     0.041 C 
ATOM     11  O   UNL     1      17.750   3.702  -0.129  1.00  0.00    -0.550 OA
ATOM     12  O   UNL     1      18.673   4.899   1.593  1.00  0.00    -0.550 OA
ENDBRANCH   9  10
ENDBRANCH   8   9
ENDBRANCH   7   8
ENDBRANCH   6   7
ENDBRANCH   5   6
ENDBRANCH   4   5
ENDBRANCH   3   4
ENDBRANCH   1   3
BRANCH   2  13
ATOM     13  C   UNL     1      16.417  10.698   2.763  1.00  0.00     0.027 C 
BRANCH  13  14
ATOM     14  C   UNL     1      16.862  11.194   4.150  1.00  0.00     0.004 C 
BRANCH  14  15
ATOM     15  C   UNL     1      18.389  11.332   4.314  1.00  0.00     0.000 C 
BRANCH  15  16
ATOM     16  C   UNL     1      18.899  12.771   4.535  1.00  0.00     0.000 C 
BRANCH  16  17
ATOM     17  C   UNL     1      18.059  13.874   3.863  1.00  0.00    -0.000 C 
BRANCH  17  18
ATOM     18  C   UNL     1      18.537  14.201   2.439  1.00  0.00    -0.000 C 
BRANCH  18  19
ATOM     19  C   UNL     1      17.372  14.514   1.486  1.00  0.00    -0.003 C 
ATOM     20  C   UNL     1      16.003  14.264   2.121  1.00  0.00     0.004 C 
ENDBRANCH  18  19
ENDBRANCH  17  18
ENDBRANCH  16  17
ENDBRANCH  15  16
ENDBRANCH  14  15
ENDBRANCH  13  14
ENDBRANCH   2  13
TORSDOF 15
ENDMDL
MODEL 4
REMARK VINA RESULT:    -3.699      1.232      2.690
REMARK INTER + INTRA:          -9.379
REMARK INTER:                  -7.354
REMARK INTRA:                  -2.025
REMARK UNBOUND:                -2.436
REMARK SMILES CCCCCCCCC=CCCCCCCCC(=O)[O-]
REMARK SMILES IDX 10 1 9 2 11 3 12 4 13 5 14 6 15 7 16 8 17 9 18 10 19 11
REMARK SMILES IDX 20 12 8 13 7 14 6 15 5 16 4 17 3 18 2 19 1 20
REMARK H PARENT
REMARK Flexibility Score: inf
ROOT
ATOM      1  C   UNL     1      17.773  10.563   1.431  1.00  0.00    -0.031 C 
ATOM      2  C   UNL     1      17.257  10.685   0.194  1.00  0.00    -0.031 C 
ENDROOT
BRANCH   1   3
ATOM      3  C   UNL     1      17.089   9.892   2.599  1.00  0.00     0.027 C 
BRANCH   3   4
ATOM      4  C   UNL     1      16.049  10.818   3.243  1.00  0.00     0.004 C 
BRANCH   4   5
ATOM      5  C   UNL     1      16.634  11.606   4.425  1.00  0.00     0.000 C 
BRANCH   5   6
ATOM      6  C   UNL     1      18.158  11.446   4.555  1.00  0.00     0.000 C 
BRANCH   6   7
ATOM      7  C   UNL     1      18.939  12.753   4.299  1.00  0.00     0.000 C 
BRANCH   7   8
ATOM      8  C   UNL     1      18.039  13.864   3.729  1.00  0.00     0.006 C 
BRANCH   8   9
ATOM      9  C   UNL     1      18.388  14.209   2.275  1.00  0.00     0.053 C 
BRANCH   9  10
ATOM     10  C   UNL     1      17.163  14.507   1.466  1.00  0.00     0.041 C 
ATOM     11  O   UNL     1      16.161  13.746   1.528  1.00  0.00    -0.550 OA
ATOM     12  O   UNL     1      17.116  15.645   0.670  1.00  0.00    -0.550 OA
ENDBRANCH   9  10
ENDBRANCH   8   9
ENDBRANCH   7   8
ENDBRANCH   6   7
ENDBRANCH   5   6
ENDBRANCH   4   5
ENDBRANCH   3   4
ENDBRANCH   1   3
BRANCH   2  13
ATOM     13  C   UNL     1      15.934  10.114  -0.253  1.00  0.00     0.027 C 
BRANCH  13  14
ATOM     14  C   UNL     1      16.051   9.333  -1.574  1.00  0.00     0.004 C 
BRANCH  14  15
ATOM     15  C   UNL     1      17.298   8.431  -1.670  1.00  0.00     0.000 C 
BRANCH  15  16
ATOM     16  C   UNL     1      17.038   6.926  -1.457  1.00  0.00     0.000 C 
BRANCH  16  17
ATOM     17  C   UNL     1      16.958   6.477   0.014  1.00  0.00    -0.000 C 
BRANCH  17  18
ATOM     18  C   UNL     1      18.215   6.847   0.819  1.00  0.00    -0.000 C 
BRANCH  18  19
ATOM     19  C   UNL     1      18.848   5.629   1.512  1.00  0.00    -0.003 C 
ATOM     20  C   UNL     1      18.210   4.307   1.087  1.00  0.00     0.004 C 
ENDBRANCH  18  19
ENDBRANCH  17  18
ENDBRANCH  16  17
ENDBRANCH  15  16
ENDBRANCH  14  15
ENDBRANCH  13  14
ENDBRANCH   2  13
TORSDOF 15
ENDMDL
MODEL 5
REMARK VINA RESULT:    -3.522      2.307      4.659
REMARK INTER + INTRA:          -9.047
REMARK INTER:                  -6.930
REMARK INTRA:                  -2.117
REMARK UNBOUND:                -2.436
REMARK SMILES CCCCCCCCC=CCCCCCCCC(=O)[O-]
REMARK SMILES IDX 10 1 9 2 11 3 12 4 13 5 14 6 15 7 16 8 17 9 18 10 19 11
REMARK SMILES IDX 20 12 8 13 7 14 6 15 5 16 4 17 3 18 2 19 1 20
REMARK H PARENT
REMARK Flexibility Score: inf
ROOT
ATOM      1  C   UNL     1      18.351  10.797   3.725  1.00  0.00    -0.031 C 
ATOM      2  C   UNL     1      17.946  10.039   2.689  1.00  0.00    -0.031 C 
ENDROOT
BRANCH   1   3
ATOM      3  C   UNL     1      17.437  11.474   4.720  1.00  0.00     0.027 C 
BRANCH   3   4
ATOM      4  C   UNL     1      17.363  12.985   4.470  1.00  0.00     0.004 C 
BRANCH   4   5
ATOM      5  C   UNL     1      18.585  13.501   3.693  1.00  0.00     0.000 C 
BRANCH   5   6
ATOM      6  C   UNL     1      18.201  14.293   2.431  1.00  0.00     0.000 C 
BRANCH   6   7
ATOM      7  C   UNL     1      16.906  13.788   1.758  1.00  0.00     0.000 C 
BRANCH   7   8
ATOM      8  C   UNL     1      16.337  14.810   0.758  1.00  0.00     0.006 C 
BRANCH   8   9
ATOM      9  C   UNL     1      17.266  16.015   0.563  1.00  0.00     0.053 C 
BRANCH   9  10
ATOM     10  C   UNL     1      16.618  17.088  -0.257  1.00  0.00     0.041 C 
ATOM     11  O   UNL     1      16.204  18.143   0.292  1.00  0.00    -0.550 OA
ATOM     12  O   UNL     1      16.503  16.937  -1.633  1.00  0.00    -0.550 OA
ENDBRANCH   9  10
ENDBRANCH   8   9
ENDBRANCH   7   8
ENDBRANCH   6   7
ENDBRANCH   5   6
ENDBRANCH   4   5
ENDBRANCH   3   4
ENDBRANCH   1   3
BRANCH   2  13
ATOM     13  C   UNL     1      16.511   9.684   2.384  1.00  0.00     0.027 C 
BRANCH  13  14
ATOM     14  C   UNL     1      16.036  10.268   1.042  1.00  0.00     0.004 C 
BRANCH  14  15
ATOM     15  C   UNL     1      17.172  10.563   0.041  1.00  0.00     0.000 C 
BRANCH  15  16
ATOM     16  C   UNL     1      16.920  10.075  -1.401  1.00  0.00     0.000 C 
BRANCH  16  17
ATOM     17  C   UNL     1      17.778   8.877  -1.847  1.00  0.00    -0.000 C 
BRANCH  17  18
ATOM     18  C   UNL     1      17.106   7.524  -1.562  1.00  0.00    -0.000 C 
BRANCH  18  19
ATOM     19  C   UNL     1      18.050   6.536  -0.858  1.00  0.00    -0.003 C 
ATOM     20  C   UNL     1      18.140   6.772   0.650  1.00  0.00     0.004 C 
ENDBRANCH  18  19
ENDBRANCH  17  18
ENDBRANCH  16  17
ENDBRANCH  15  16
ENDBRANCH  14  15
ENDBRANCH  13  14
ENDBRANCH   2  13
TORSDOF 15
ENDMDL
MODEL 6
REMARK VINA RESULT:    -3.468      1.728      2.524
REMARK INTER + INTRA:          -8.945
REMARK INTER:                  -6.931
REMARK INTRA:                  -2.014
REMARK UNBOUND:                -2.436
REMARK SMILES CCCCCCCCC=CCCCCCCCC(=O)[O-]
REMARK SMILES IDX 10 1 9 2 11 3 12 4 13 5 14 6 15 7 16 8 17 9 18 10 19 11
REMARK SMILES IDX 20 12 8 13 7 14 6 15 5 16 4 17 3 18 2 19 1 20
REMARK H PARENT
REMARK Flexibility Score: inf
ROOT
ATOM      1  C   UNL     1      17.384  10.338   0.565  1.00  0.00    -0.031 C 
ATOM      2  C   UNL     1      17.440   9.303  -0.294  1.00  0.00    -0.031 C 
ENDROOT
BRANCH   1   3
ATOM      3  C   UNL     1      16.149  11.155   0.866  1.00  0.00     0.027 C 
BRANCH   3   4
ATOM      4  C   UNL     1      15.960  12.279  -0.160  1.00  0.00     0.004 C 
BRANCH   4   5
ATOM      5  C   UNL     1      16.237  13.664   0.446  1.00  0.00     0.000 C 
BRANCH   5   6
ATOM      6  C   UNL     1      16.550  13.607   1.951  1.00  0.00     0.000 C 
BRANCH   6   7
ATOM      7  C   UNL     1      18.038  13.852   2.281  1.00  0.00     0.000 C 
BRANCH   7   8
ATOM      8  C   UNL     1      18.288  13.945   3.797  1.00  0.00     0.006 C 
BRANCH   8   9
ATOM      9  C   UNL     1      19.018  12.710   4.343  1.00  0.00     0.053 C 
BRANCH   9  10
ATOM     10  C   UNL     1      18.128  11.505   4.366  1.00  0.00     0.041 C 
ATOM     11  O   UNL     1      18.509  10.425   3.843  1.00  0.00    -0.550 OA
ATOM     12  O   UNL     1      16.891  11.567   4.996  1.00  0.00    -0.550 OA
ENDBRANCH   9  10
ENDBRANCH   8   9
ENDBRANCH   7   8
ENDBRANCH   6   7
ENDBRANCH   5   6
ENDBRANCH   4   5
ENDBRANCH   3   4
ENDBRANCH   1   3
BRANCH   2  13
ATOM     13  C   UNL     1      16.263   8.742  -1.052  1.00  0.00     0.027 C 
BRANCH  13  14
ATOM     14  C   UNL     1      16.544   7.337  -1.612  1.00  0.00     0.004 C 
BRANCH  14  15
ATOM     15  C   UNL     1      17.863   6.709  -1.120  1.00  0.00     0.000 C 
BRANCH  15  16
ATOM     16  C   UNL     1      17.747   5.265  -0.591  1.00  0.00     0.000 C 
BRANCH  16  17
ATOM     17  C   UNL     1      17.856   5.116   0.938  1.00  0.00    -0.000 C 
BRANCH  17  18
ATOM     18  C   UNL     1      16.613   5.637   1.678  1.00  0.00    -0.000 C 
BRANCH  18  19
ATOM     19  C   UNL     1      16.876   6.968   2.401  1.00  0.00    -0.003 C 
ATOM     20  C   UNL     1      18.362   7.222   2.654  1.00  0.00     0.004 C 
ENDBRANCH  18  19
ENDBRANCH  17  18
ENDBRANCH  16  17
ENDBRANCH  15  16
ENDBRANCH  14  15
ENDBRANCH  13  14
ENDBRANCH   2  13
TORSDOF 15
ENDMDL
MODEL 7
REMARK VINA RESULT:    -3.408      3.742      8.387
REMARK INTER + INTRA:          -8.834
REMARK INTER:                  -7.168
REMARK INTRA:                  -1.665
REMARK UNBOUND:                -2.436
REMARK SMILES CCCCCCCCC=CCCCCCCCC(=O)[O-]
REMARK SMILES IDX 10 1 9 2 11 3 12 4 13 5 14 6 15 7 16 8 17 9 18 10 19 11
REMARK SMILES IDX 20 12 8 13 7 14 6 15 5 16 4 17 3 18 2 19 1 20
REMARK H PARENT
REMARK Flexibility Score: inf
ROOT
ATOM      1  C   UNL     1      18.584  13.046   4.657  1.00  0.00    -0.031 C 
ATOM      2  C   UNL     1      18.585  13.972   3.680  1.00  0.00    -0.031 C 
ENDROOT
BRANCH   1   3
ATOM      3  C   UNL     1      18.084  11.627   4.512  1.00  0.00     0.027 C 
BRANCH   3   4
ATOM      4  C   UNL     1      16.556  11.561   4.623  1.00  0.00     0.004 C 
BRANCH   4   5
ATOM      5  C   UNL     1      15.917  10.893   3.395  1.00  0.00     0.000 C 
BRANCH   5   6
ATOM      6  C   UNL     1      16.882   9.947   2.659  1.00  0.00     0.000 C 
BRANCH   6   7
ATOM      7  C   UNL     1      17.149  10.357   1.195  1.00  0.00     0.000 C 
BRANCH   7   8
ATOM      8  C   UNL     1      17.071   9.158   0.234  1.00  0.00     0.006 C 
BRANCH   8   9
ATOM      9  C   UNL     1      17.540   7.853   0.891  1.00  0.00     0.053 C 
BRANCH   9  10
ATOM     10  C   UNL     1      18.216   6.948  -0.093  1.00  0.00     0.041 C 
ATOM     11  O   UNL     1      18.504   5.765   0.227  1.00  0.00    -0.550 OA
ATOM     12  O   UNL     1      18.496   7.403  -1.376  1.00  0.00    -0.550 OA
ENDBRANCH   9  10
ENDBRANCH   8   9
ENDBRANCH   7   8
ENDBRANCH   6   7
ENDBRANCH   5   6
ENDBRANCH   4   5
ENDBRANCH   3   4
ENDBRANCH   1   3
BRANCH   2  13
ATOM     13  C   UNL     1      18.147  13.730   2.257  1.00  0.00     0.027 C 
BRANCH  13  14
ATOM     14  C   UNL     1      16.728  14.259   1.984  1.00  0.00     0.004 C 
BRANCH  14  15
ATOM     15  C   UNL     1      16.206  13.974   0.561  1.00  0.00     0.000 C 
BRANCH  15  16
ATOM     16  C   UNL     1      16.069  15.211  -0.349  1.00  0.00     0.000 C 
BRANCH  16  17
ATOM     17  C   UNL     1      16.965  16.405   0.028  1.00  0.00    -0.000 C 
BRANCH  17  18
ATOM     18  C   UNL     1      16.193  17.734   0.085  1.00  0.00    -0.000 C 
BRANCH  18  19
ATOM     19  C   UNL     1      17.122  18.944   0.274  1.00  0.00    -0.003 C 
ATOM     20  C   UNL     1      18.597  18.598   0.066  1.00  0.00     0.004 C 
ENDBRANCH  18  19
ENDBRANCH  17  18
ENDBRANCH  16  17
ENDBRANCH  15  16
ENDBRANCH  14  15
ENDBRANCH  13  14
ENDBRANCH   2  13
TORSDOF 15
ENDMDL
MODEL 8
REMARK VINA RESULT:    -3.346      2.636      5.367
REMARK INTER + INTRA:          -8.716
REMARK INTER:                  -7.187
REMARK INTRA:                  -1.529
REMARK UNBOUND:                -2.436
REMARK SMILES CCCCCCCCC=CCCCCCCCC(=O)[O-]
REMARK SMILES IDX 10 1 9 2 11 3 12 4 13 5 14 6 15 7 16 8 17 9 18 10 19 11
REMARK SMILES IDX 20 12 8 13 7 14 6 15 5 16 4 17 3 18 2 19 1 20
REMARK H PARENT
REMARK Flexibility Score: inf
ROOT
ATOM      1  C   UNL     1      18.939  12.575   4.163  1.00  0.00    -0.031 C 
ATOM      2  C   UNL     1      18.145  11.559   4.549  1.00  0.00    -0.031 C 
ENDROOT
BRANCH   1   3
ATOM      3  C   UNL     1      18.463  13.957   3.781  1.00  0.00     0.027 C 
BRANCH   3   4
ATOM      4  C   UNL     1      18.228  14.066   2.269  1.00  0.00     0.004 C 
BRANCH   4   5
ATOM      5  C   UNL     1      16.758  14.362   1.934  1.00  0.00     0.000 C 
BRANCH   5   6
ATOM      6  C   UNL     1      16.370  13.929   0.510  1.00  0.00     0.000 C 
BRANCH   6   7
ATOM      7  C   UNL     1      16.199  15.111  -0.469  1.00  0.00     0.000 C 
BRANCH   7   8
ATOM      8  C   UNL     1      16.406  16.471   0.223  1.00  0.00     0.006 C 
BRANCH   8   9
ATOM      9  C   UNL     1      17.149  17.472  -0.672  1.00  0.00     0.053 C 
BRANCH   9  10
ATOM     10  C   UNL     1      18.365  18.026   0.007  1.00  0.00     0.041 C 
ATOM     11  O   UNL     1      18.662  19.243  -0.118  1.00  0.00    -0.550 OA
ATOM     12  O   UNL     1      19.150  17.203   0.806  1.00  0.00    -0.550 OA
ENDBRANCH   9  10
ENDBRANCH   8   9
ENDBRANCH   7   8
ENDBRANCH   6   7
ENDBRANCH   5   6
ENDBRANCH   4   5
ENDBRANCH   3   4
ENDBRANCH   1   3
BRANCH   2  13
ATOM     13  C   UNL     1      16.649  11.648   4.727  1.00  0.00     0.027 C 
BRANCH  13  14
ATOM     14  C   UNL     1      15.882  11.102   3.510  1.00  0.00     0.004 C 
BRANCH  14  15
ATOM     15  C   UNL     1      16.768  10.384   2.471  1.00  0.00     0.000 C 
BRANCH  15  16
ATOM     16  C   UNL     1      16.571   8.857   2.384  1.00  0.00     0.000 C 
BRANCH  16  17
ATOM     17  C   UNL     1      17.532   8.126   1.427  1.00  0.00    -0.000 C 
BRANCH  17  18
ATOM     18  C   UNL     1      18.299   6.983   2.112  1.00  0.00    -0.000 C 
BRANCH  18  19
ATOM     19  C   UNL     1      18.524   5.784   1.176  1.00  0.00    -0.003 C 
ATOM     20  C   UNL     1      18.254   6.118  -0.291  1.00  0.00     0.004 C 
ENDBRANCH  18  19
ENDBRANCH  17  18
ENDBRANCH  16  17
ENDBRANCH  15  16
ENDBRANCH  14  15
ENDBRANCH  13  14
ENDBRANCH   2  13
TORSDOF 15
ENDMDL
MODEL 9
REMARK VINA RESULT:    -3.164      3.178      5.778
REMARK INTER + INTRA:          -8.374
REMARK INTER:                  -6.679
REMARK INTRA:                  -1.695
REMARK UNBOUND:                -2.436
REMARK SMILES CCCCCCCCC=CCCCCCCCC(=O)[O-]
REMARK SMILES IDX 10 1 9 2 11 3 12 4 13 5 14 6 15 7 16 8 17 9 18 10 19 11
REMARK SMILES IDX 20 12 8 13 7 14 6 15 5 16 4 17 3 18 2 19 1 20
REMARK H PARENT
REMARK Flexibility Score: inf
ROOT
ATOM      1  C   UNL     1      18.927  12.638   4.202  1.00  0.00    -0.031 C 
ATOM      2  C   UNL     1      18.179  11.553   4.473  1.00  0.00    -0.031 C 
ENDROOT
BRANCH   1   3
ATOM      3  C   UNL     1      18.388  13.986   3.783  1.00  0.00     0.027 C 
BRANCH   3   4
ATOM      4  C   UNL     1      18.163  14.048   2.266  1.00  0.00     0.004 C 
BRANCH   4   5
ATOM      5  C   UNL     1      16.696  14.339   1.913  1.00  0.00     0.000 C 
BRANCH   5   6
ATOM      6  C   UNL     1      16.519  14.869   0.480  1.00  0.00     0.000 C 
BRANCH   6   7
ATOM      7  C   UNL     1      16.168  16.371   0.418  1.00  0.00     0.000 C 
BRANCH   7   8
ATOM      8  C   UNL     1      17.057  17.134  -0.580  1.00  0.00     0.006 C 
BRANCH   8   9
ATOM      9  C   UNL     1      17.839  18.273   0.088  1.00  0.00     0.053 C 
BRANCH   9  10
ATOM     10  C   UNL     1      16.999  19.503   0.247  1.00  0.00     0.041 C 
ATOM     11  O   UNL     1      16.591  19.850   1.386  1.00  0.00    -0.550 OA
ATOM     12  O   UNL     1      16.696  20.285  -0.861  1.00  0.00    -0.550 OA
ENDBRANCH   9  10
ENDBRANCH   8   9
ENDBRANCH   7   8
ENDBRANCH   6   7
ENDBRANCH   5   6
ENDBRANCH   4   5
ENDBRANCH   3   4
ENDBRANCH   1   3
BRANCH   2  13
ATOM     13  C   UNL     1      16.671  11.517   4.466  1.00  0.00     0.027 C 
BRANCH  13  14
ATOM     14  C   UNL     1      16.107  10.865   3.191  1.00  0.00     0.004 C 
BRANCH  14  15
ATOM     15  C   UNL     1      17.144  10.067   2.375  1.00  0.00     0.000 C 
BRANCH  15  16
ATOM     16  C   UNL     1      17.454  10.632   0.974  1.00  0.00     0.000 C 
BRANCH  16  17
ATOM     17  C   UNL     1      17.292   9.634  -0.187  1.00  0.00    -0.000 C 
BRANCH  17  18
ATOM     18  C   UNL     1      16.829   8.244   0.283  1.00  0.00    -0.000 C 
BRANCH  18  19
ATOM     19  C   UNL     1      17.919   7.174   0.113  1.00  0.00    -0.003 C 
ATOM     20  C   UNL     1      18.403   6.602   1.446  1.00  0.00     0.004 C 
ENDBRANCH  18  19
ENDBRANCH  17  18
ENDBRANCH  16  17
ENDBRANCH  15  16
ENDBRANCH  14  15
ENDBRANCH  13  14
ENDBRANCH   2  13
TORSDOF 15
ENDMDL
