MODEL 1
REMARK VINA RESULT:    -4.900      0.000      0.000
REMARK INTER + INTRA:         -10.487
REMARK INTER:                  -8.910
REMARK INTRA:                  -1.577
REMARK UNBOUND:                -1.577
REMARK SMILES CCCCCCCCCCCCCC[C@H](C)C(=O)[O-]
REMARK SMILES IDX 9 1 10 2 11 3 12 4 13 5 14 6 15 7 16 8 17 9 18 10 19 11 8 12
REMARK SMILES IDX 7 13 6 14 5 15 4 16 3 17 2 18 1 19
REMARK H PARENT
REMARK Flexibility Score: inf
ROOT
ATOM      1  C   UNL     1      11.231 -15.054  13.763  1.00  0.00     0.000 C 
ENDROOT
BRANCH   1   2
ATOM      2  C   UNL     1      10.752 -16.125  12.772  1.00  0.00     0.000 C 
BRANCH   2   3
ATOM      3  C   UNL     1      10.431 -15.500  11.405  1.00  0.00     0.000 C 
BRANCH   3   4
ATOM      4  C   UNL     1      11.463 -15.872  10.324  1.00  0.00     0.000 C 
BRANCH   4   5
ATOM      5  C   UNL     1      11.339 -17.322   9.813  1.00  0.00     0.001 C 
BRANCH   5   6
ATOM      6  C   UNL     1      11.100 -17.415   8.285  1.00  0.00     0.009 C 
BRANCH   6   7
ATOM      7  C   UNL     1      10.101 -16.373   7.722  1.00  0.00     0.032 C 
ATOM      8  C   UNL     1       8.797 -17.030   7.248  1.00  0.00     0.014 C 
BRANCH   7   9
ATOM      9  C   UNL     1      10.702 -15.505   6.640  1.00  0.00     0.044 C 
ATOM     10  O   UNL     1      11.936 -15.564   6.400  1.00  0.00    -0.550 OA
ATOM     11  O   UNL     1       9.899 -14.692   5.845  1.00  0.00    -0.550 OA
ENDBRANCH   7   9
ENDBRANCH   6   7
ENDBRANCH   5   6
ENDBRANCH   4   5
ENDBRANCH   3   4
ENDBRANCH   2   3
ENDBRANCH   1   2
BRANCH   1  12
ATOM     12  C   UNL     1      11.019 -15.467  15.230  1.00  0.00     0.000 C 
BRANCH  12  13
ATOM     13  C   UNL     1      12.053 -14.837  16.176  1.00  0.00    -0.000 C 
BRANCH  13  14
ATOM     14  C   UNL     1      13.083 -15.875  16.634  1.00  0.00    -0.000 C 
BRANCH  14  15
ATOM     15  C   UNL     1      14.268 -15.943  15.658  1.00  0.00    -0.000 C 
BRANCH  15  16
ATOM     16  C   UNL     1      14.589 -17.388  15.224  1.00  0.00    -0.000 C 
BRANCH  16  17
ATOM     17  C   UNL     1      13.673 -17.926  14.108  1.00  0.00    -0.000 C 
BRANCH  17  18
ATOM     18  C   UNL     1      14.003 -17.381  12.704  1.00  0.00    -0.003 C 
ATOM     19  C   UNL     1      15.503 -17.372  12.412  1.00  0.00     0.004 C 
ENDBRANCH  17  18
ENDBRANCH  16  17
ENDBRANCH  15  16
ENDBRANCH  14  15
ENDBRANCH  13  14
ENDBRANCH  12  13
ENDBRANCH   1  12
TORSDOF 14
ENDMDL
MODEL 2
REMARK VINA RESULT:    -4.897      4.274      6.810
REMARK INTER + INTRA:         -10.482
REMARK INTER:                  -8.302
REMARK INTRA:                  -2.180
REMARK UNBOUND:                -1.577
REMARK SMILES CCCCCCCCCCCCCC[C@H](C)C(=O)[O-]
REMARK SMILES IDX 9 1 10 2 11 3 12 4 13 5 14 6 15 7 16 8 17 9 18 10 19 11 8 12
REMARK SMILES IDX 7 13 6 14 5 15 4 16 3 17 2 18 1 19
REMARK H PARENT
REMARK Flexibility Score: inf
ROOT
ATOM      1  C   UNL     1      15.371 -17.252  12.804  1.00  0.00     0.000 C 
ENDROOT
BRANCH   1   2
ATOM      2  C   UNL     1      15.768 -15.876  12.248  1.00  0.00     0.000 C 
BRANCH   2   3
ATOM      3  C   UNL     1      14.955 -14.759  12.921  1.00  0.00     0.000 C 
BRANCH   3   4
ATOM      4  C   UNL     1      15.846 -13.707  13.608  1.00  0.00     0.000 C 
BRANCH   4   5
ATOM      5  C   UNL     1      15.167 -12.993  14.795  1.00  0.00     0.001 C 
BRANCH   5   6
ATOM      6  C   UNL     1      14.097 -11.961  14.359  1.00  0.00     0.009 C 
BRANCH   6   7
ATOM      7  C   UNL     1      14.447 -10.488  14.687  1.00  0.00     0.032 C 
ATOM      8  C   UNL     1      13.206  -9.682  15.094  1.00  0.00     0.014 C 
BRANCH   7   9
ATOM      9  C   UNL     1      15.206  -9.800  13.575  1.00  0.00     0.044 C 
ATOM     10  O   UNL     1      15.305 -10.352  12.447  1.00  0.00    -0.550 OA
ATOM     11  O   UNL     1      15.734  -8.525  13.750  1.00  0.00    -0.550 OA
ENDBRANCH   7   9
ENDBRANCH   6   7
ENDBRANCH   5   6
ENDBRANCH   4   5
ENDBRANCH   3   4
ENDBRANCH   2   3
ENDBRANCH   1   2
BRANCH   1  12
ATOM     12  C   UNL     1      15.679 -17.397  14.303  1.00  0.00     0.000 C 
BRANCH  12  13
ATOM     13  C   UNL     1      14.418 -17.646  15.144  1.00  0.00    -0.000 C 
BRANCH  13  14
ATOM     14  C   UNL     1      14.164 -16.484  16.112  1.00  0.00    -0.000 C 
BRANCH  14  15
ATOM     15  C   UNL     1      12.821 -15.801  15.813  1.00  0.00    -0.000 C 
BRANCH  15  16
ATOM     16  C   UNL     1      12.146 -16.362  14.545  1.00  0.00    -0.000 C 
BRANCH  16  17
ATOM     17  C   UNL     1      11.155 -15.389  13.879  1.00  0.00    -0.000 C 
BRANCH  17  18
ATOM     18  C   UNL     1      10.713 -15.810  12.463  1.00  0.00    -0.003 C 
ATOM     19  C   UNL     1      11.866 -16.359  11.624  1.00  0.00     0.004 C 
ENDBRANCH  17  18
ENDBRANCH  16  17
ENDBRANCH  15  16
ENDBRANCH  14  15
ENDBRANCH  13  14
ENDBRANCH  12  13
ENDBRANCH   1  12
TORSDOF 14
ENDMDL
MODEL 3
REMARK VINA RESULT:    -4.855      3.444      6.306
REMARK INTER + INTRA:         -10.407
REMARK INTER:                  -8.435
REMARK INTRA:                  -1.972
REMARK UNBOUND:                -1.577
REMARK SMILES CCCCCCCCCCCCCC[C@H](C)C(=O)[O-]
REMARK SMILES IDX 9 1 10 2 11 3 12 4 13 5 14 6 15 7 16 8 17 9 18 10 19 11 8 12
REMARK SMILES IDX 7 13 6 14 5 15 4 16 3 17 2 18 1 19
REMARK H PARENT
REMARK Flexibility Score: inf
ROOT
ATOM      1  C   UNL     1      11.047 -15.695  10.675  1.00  0.00     0.000 C 
ENDROOT
BRANCH   1   2
ATOM      2  C   UNL     1      10.659 -16.210  12.070  1.00  0.00     0.000 C 
BRANCH   2   3
ATOM      3  C   UNL     1      11.394 -15.422  13.167  1.00  0.00     0.000 C 
BRANCH   3   4
ATOM      4  C   UNL     1      11.049 -15.915  14.584  1.00  0.00     0.000 C 
BRANCH   4   5
ATOM      5  C   UNL     1      11.418 -14.916  15.700  1.00  0.00     0.001 C 
BRANCH   5   6
ATOM      6  C   UNL     1      12.842 -14.326  15.549  1.00  0.00     0.009 C 
BRANCH   6   7
ATOM      7  C   UNL     1      12.905 -12.777  15.567  1.00  0.00     0.032 C 
ATOM      8  C   UNL     1      11.558 -12.146  15.188  1.00  0.00     0.014 C 
BRANCH   7   9
ATOM      9  C   UNL     1      14.027 -12.223  14.718  1.00  0.00     0.044 C 
ATOM     10  O   UNL     1      14.902 -12.997  14.249  1.00  0.00    -0.550 OA
ATOM     11  O   UNL     1      14.069 -10.874  14.378  1.00  0.00    -0.550 OA
ENDBRANCH   7   9
ENDBRANCH   6   7
ENDBRANCH   5   6
ENDBRANCH   4   5
ENDBRANCH   3   4
ENDBRANCH   2   3
ENDBRANCH   1   2
BRANCH   1  12
ATOM     12  C   UNL     1      11.535 -16.818   9.744  1.00  0.00     0.000 C 
BRANCH  12  13
ATOM     13  C   UNL     1      12.796 -17.518  10.272  1.00  0.00    -0.000 C 
BRANCH  13  14
ATOM     14  C   UNL     1      14.027 -16.618  10.124  1.00  0.00    -0.000 C 
BRANCH  14  15
ATOM     15  C   UNL     1      15.110 -16.990  11.148  1.00  0.00    -0.000 C 
BRANCH  15  16
ATOM     16  C   UNL     1      14.524 -17.258  12.550  1.00  0.00    -0.000 C 
BRANCH  16  17
ATOM     17  C   UNL     1      15.346 -16.647  13.701  1.00  0.00    -0.000 C 
BRANCH  17  18
ATOM     18  C   UNL     1      15.324 -17.475  15.001  1.00  0.00    -0.003 C 
ATOM     19  C   UNL     1      13.917 -17.929  15.387  1.00  0.00     0.004 C 
ENDBRANCH  17  18
ENDBRANCH  16  17
ENDBRANCH  15  16
ENDBRANCH  14  15
ENDBRANCH  13  14
ENDBRANCH  12  13
ENDBRANCH   1  12
TORSDOF 14
ENDMDL
MODEL 4
REMARK VINA RESULT:    -4.836      5.239      7.328
REMARK INTER + INTRA:         -10.371
REMARK INTER:                  -8.568
REMARK INTRA:                  -1.803
REMARK UNBOUND:                -1.577
REMARK SMILES CCCCCCCCCCCCCC[C@H](C)C(=O)[O-]
REMARK SMILES IDX 9 1 10 2 11 3 12 4 13 5 14 6 15 7 16 8 17 9 18 10 19 11 8 12
REMARK SMILES IDX 7 13 6 14 5 15 4 16 3 17 2 18 1 19
REMARK H PARENT
REMARK Flexibility Score: inf
ROOT
ATOM      1  C   UNL     1      15.484 -17.292  12.981  1.00  0.00     0.000 C 
ENDROOT
BRANCH   1   2
ATOM      2  C   UNL     1      15.850 -15.927  12.379  1.00  0.00     0.000 C 
BRANCH   2   3
ATOM      3  C   UNL     1      14.778 -14.877  12.713  1.00  0.00     0.000 C 
BRANCH   3   4
ATOM      4  C   UNL     1      15.382 -13.533  13.162  1.00  0.00     0.000 C 
BRANCH   4   5
ATOM      5  C   UNL     1      14.717 -12.940  14.421  1.00  0.00     0.001 C 
BRANCH   5   6
ATOM      6  C   UNL     1      15.197 -11.504  14.749  1.00  0.00     0.009 C 
BRANCH   6   7
ATOM      7  C   UNL     1      14.544 -10.392  13.890  1.00  0.00     0.032 C 
ATOM      8  C   UNL     1      15.466  -9.935  12.751  1.00  0.00     0.014 C 
BRANCH   7   9
ATOM      9  C   UNL     1      14.065  -9.216  14.711  1.00  0.00     0.044 C 
ATOM     10  O   UNL     1      12.892  -9.205  15.167  1.00  0.00    -0.550 OA
ATOM     11  O   UNL     1      14.927  -8.173  15.040  1.00  0.00    -0.550 OA
ENDBRANCH   7   9
ENDBRANCH   6   7
ENDBRANCH   5   6
ENDBRANCH   4   5
ENDBRANCH   3   4
ENDBRANCH   2   3
ENDBRANCH   1   2
BRANCH   1  12
ATOM     12  C   UNL     1      15.780 -17.373  14.488  1.00  0.00     0.000 C 
BRANCH  12  13
ATOM     13  C   UNL     1      14.509 -17.562  15.330  1.00  0.00    -0.000 C 
BRANCH  13  14
ATOM     14  C   UNL     1      13.324 -17.977  14.451  1.00  0.00    -0.000 C 
BRANCH  14  15
ATOM     15  C   UNL     1      12.260 -16.871  14.402  1.00  0.00    -0.000 C 
BRANCH  15  16
ATOM     16  C   UNL     1      12.491 -15.786  15.474  1.00  0.00    -0.000 C 
BRANCH  16  17
ATOM     17  C   UNL     1      11.287 -14.850  15.691  1.00  0.00    -0.000 C 
BRANCH  17  18
ATOM     18  C   UNL     1      11.617 -13.570  16.484  1.00  0.00    -0.003 C 
ATOM     19  C   UNL     1      11.331 -12.295  15.692  1.00  0.00     0.004 C 
ENDBRANCH  17  18
ENDBRANCH  16  17
ENDBRANCH  15  16
ENDBRANCH  14  15
ENDBRANCH  13  14
ENDBRANCH  12  13
ENDBRANCH   1  12
TORSDOF 14
ENDMDL
MODEL 5
REMARK VINA RESULT:    -4.804      5.538      7.465
REMARK INTER + INTRA:         -10.313
REMARK INTER:                  -8.578
REMARK INTRA:                  -1.736
REMARK UNBOUND:                -1.577
REMARK SMILES CCCCCCCCCCCCCC[C@H](C)C(=O)[O-]
REMARK SMILES IDX 9 1 10 2 11 3 12 4 13 5 14 6 15 7 16 8 17 9 18 10 19 11 8 12
REMARK SMILES IDX 7 13 6 14 5 15 4 16 3 17 2 18 1 19
REMARK H PARENT
REMARK Flexibility Score: inf
ROOT
ATOM      1  C   UNL     1      11.816 -13.855  16.165  1.00  0.00     0.000 C 
ENDROOT
BRANCH   1   2
ATOM      2  C   UNL     1      12.028 -12.802  15.067  1.00  0.00     0.000 C 
BRANCH   2   3
ATOM      3  C   UNL     1      11.367 -11.469  15.453  1.00  0.00     0.000 C 
BRANCH   3   4
ATOM      4  C   UNL     1      12.250 -10.250  15.126  1.00  0.00     0.000 C 
BRANCH   4   5
ATOM      5  C   UNL     1      13.708 -10.611  14.777  1.00  0.00     0.001 C 
BRANCH   5   6
ATOM      6  C   UNL     1      14.685  -9.417  14.912  1.00  0.00     0.009 C 
BRANCH   6   7
ATOM      7  C   UNL     1      15.235  -8.876  13.568  1.00  0.00     0.032 C 
ATOM      8  C   UNL     1      15.535 -10.009  12.576  1.00  0.00     0.014 C 
BRANCH   7   9
ATOM      9  C   UNL     1      16.433  -7.970  13.742  1.00  0.00     0.044 C 
ATOM     10  O   UNL     1      16.273  -6.723  13.808  1.00  0.00    -0.550 OA
ATOM     11  O   UNL     1      17.711  -8.496  13.908  1.00  0.00    -0.550 OA
ENDBRANCH   7   9
ENDBRANCH   6   7
ENDBRANCH   5   6
ENDBRANCH   4   5
ENDBRANCH   3   4
ENDBRANCH   2   3
ENDBRANCH   1   2
BRANCH   1  12
ATOM     12  C   UNL     1      11.190 -15.153  15.628  1.00  0.00     0.000 C 
BRANCH  12  13
ATOM     13  C   UNL     1      11.069 -15.161  14.097  1.00  0.00    -0.000 C 
BRANCH  13  14
ATOM     14  C   UNL     1      12.133 -16.067  13.467  1.00  0.00    -0.000 C 
BRANCH  14  15
ATOM     15  C   UNL     1      12.571 -17.166  14.446  1.00  0.00    -0.000 C 
BRANCH  15  16
ATOM     16  C   UNL     1      14.106 -17.262  14.572  1.00  0.00    -0.000 C 
BRANCH  16  17
ATOM     17  C   UNL     1      14.778 -15.965  15.059  1.00  0.00    -0.000 C 
BRANCH  17  18
ATOM     18  C   UNL     1      15.707 -15.307  14.019  1.00  0.00    -0.003 C 
ATOM     19  C   UNL     1      15.327 -13.857  13.724  1.00  0.00     0.004 C 
ENDBRANCH  17  18
ENDBRANCH  16  17
ENDBRANCH  15  16
ENDBRANCH  14  15
ENDBRANCH  13  14
ENDBRANCH  12  13
ENDBRANCH   1  12
TORSDOF 14
ENDMDL
MODEL 6
REMARK VINA RESULT:    -4.758      5.141      9.293
REMARK INTER + INTRA:         -10.229
REMARK INTER:                  -7.529
REMARK INTRA:                  -2.699
REMARK UNBOUND:                -1.577
REMARK SMILES CCCCCCCCCCCCCC[C@H](C)C(=O)[O-]
REMARK SMILES IDX 9 1 10 2 11 3 12 4 13 5 14 6 15 7 16 8 17 9 18 10 19 11 8 12
REMARK SMILES IDX 7 13 6 14 5 15 4 16 3 17 2 18 1 19
REMARK H PARENT
REMARK Flexibility Score: inf
ROOT
ATOM      1  C   UNL     1       9.846 -16.253   3.618  1.00  0.00     0.000 C 
ENDROOT
BRANCH   1   2
ATOM      2  C   UNL     1       9.925 -15.638   5.024  1.00  0.00     0.000 C 
BRANCH   2   3
ATOM      3  C   UNL     1       8.673 -15.989   5.845  1.00  0.00     0.000 C 
BRANCH   3   4
ATOM      4  C   UNL     1       9.009 -16.726   7.155  1.00  0.00     0.000 C 
BRANCH   4   5
ATOM      5  C   UNL     1      10.487 -16.607   7.577  1.00  0.00     0.001 C 
BRANCH   5   6
ATOM      6  C   UNL     1      10.813 -17.365   8.888  1.00  0.00     0.009 C 
BRANCH   6   7
ATOM      7  C   UNL     1      11.751 -18.586   8.713  1.00  0.00     0.032 C 
ATOM      8  C   UNL     1      12.605 -18.473   7.443  1.00  0.00     0.014 C 
BRANCH   7   9
ATOM      9  C   UNL     1      11.015 -19.906   8.762  1.00  0.00     0.044 C 
ATOM     10  O   UNL     1       9.795 -19.935   9.070  1.00  0.00    -0.550 OA
ATOM     11  O   UNL     1      11.646 -21.092   8.396  1.00  0.00    -0.550 OA
ENDBRANCH   7   9
ENDBRANCH   6   7
ENDBRANCH   5   6
ENDBRANCH   4   5
ENDBRANCH   3   4
ENDBRANCH   2   3
ENDBRANCH   1   2
BRANCH   1  12
ATOM     12  C   UNL     1       8.413 -16.642   3.221  1.00  0.00     0.000 C 
BRANCH  12  13
ATOM     13  C   UNL     1       8.372 -17.813   2.227  1.00  0.00    -0.000 C 
BRANCH  13  14
ATOM     14  C   UNL     1       7.307 -18.839   2.630  1.00  0.00    -0.000 C 
BRANCH  14  15
ATOM     15  C   UNL     1       6.475 -18.333   3.818  1.00  0.00    -0.000 C 
BRANCH  15  16
ATOM     16  C   UNL     1       6.702 -19.170   5.093  1.00  0.00    -0.000 C 
BRANCH  16  17
ATOM     17  C   UNL     1       7.536 -20.446   4.867  1.00  0.00    -0.000 C 
BRANCH  17  18
ATOM     18  C   UNL     1       8.819 -20.520   5.717  1.00  0.00    -0.003 C 
ATOM     19  C   UNL     1       9.932 -19.617   5.185  1.00  0.00     0.004 C 
ENDBRANCH  17  18
ENDBRANCH  16  17
ENDBRANCH  15  16
ENDBRANCH  14  15
ENDBRANCH  13  14
ENDBRANCH  12  13
ENDBRANCH   1  12
TORSDOF 14
ENDMDL
MODEL 7
REMARK VINA RESULT:    -4.712      4.632      6.443
REMARK INTER + INTRA:         -10.147
REMARK INTER:                  -8.576
REMARK INTRA:                  -1.570
REMARK UNBOUND:                -1.577
REMARK SMILES CCCCCCCCCCCCCC[C@H](C)C(=O)[O-]
REMARK SMILES IDX 9 1 10 2 11 3 12 4 13 5 14 6 15 7 16 8 17 9 18 10 19 11 8 12
REMARK SMILES IDX 7 13 6 14 5 15 4 16 3 17 2 18 1 19
REMARK H PARENT
REMARK Flexibility Score: inf
ROOT
ATOM      1  C   UNL     1      11.362 -11.147  15.490  1.00  0.00     0.000 C 
ENDROOT
BRANCH   1   2
ATOM      2  C   UNL     1      11.738 -12.584  15.097  1.00  0.00     0.000 C 
BRANCH   2   3
ATOM      3  C   UNL     1      11.443 -13.560  16.247  1.00  0.00     0.000 C 
BRANCH   3   4
ATOM      4  C   UNL     1      11.383 -15.027  15.780  1.00  0.00     0.000 C 
BRANCH   4   5
ATOM      5  C   UNL     1      11.417 -15.197  14.248  1.00  0.00     0.001 C 
BRANCH   5   6
ATOM      6  C   UNL     1      11.879 -16.605  13.797  1.00  0.00     0.009 C 
BRANCH   6   7
ATOM      7  C   UNL     1      13.375 -16.699  13.404  1.00  0.00     0.032 C 
ATOM      8  C   UNL     1      13.561 -17.287  11.998  1.00  0.00     0.014 C 
BRANCH   7   9
ATOM      9  C   UNL     1      14.208 -17.444  14.423  1.00  0.00     0.044 C 
ATOM     10  O   UNL     1      15.464 -17.423  14.344  1.00  0.00    -0.550 OA
ATOM     11  O   UNL     1      13.611 -18.093  15.499  1.00  0.00    -0.550 OA
ENDBRANCH   7   9
ENDBRANCH   6   7
ENDBRANCH   5   6
ENDBRANCH   4   5
ENDBRANCH   3   4
ENDBRANCH   2   3
ENDBRANCH   1   2
BRANCH   1  12
ATOM     12  C   UNL     1      12.454 -10.128  15.125  1.00  0.00     0.000 C 
BRANCH  12  13
ATOM     13  C   UNL     1      13.793 -10.795  14.775  1.00  0.00    -0.000 C 
BRANCH  13  14
ATOM     14  C   UNL     1      14.709  -9.826  14.020  1.00  0.00    -0.000 C 
BRANCH  14  15
ATOM     15  C   UNL     1      16.121  -9.817  14.626  1.00  0.00    -0.000 C 
BRANCH  15  16
ATOM     16  C   UNL     1      16.516 -11.187  15.214  1.00  0.00    -0.000 C 
BRANCH  16  17
ATOM     17  C   UNL     1      17.472 -12.001  14.321  1.00  0.00    -0.000 C 
BRANCH  17  18
ATOM     18  C   UNL     1      16.766 -13.023  13.408  1.00  0.00    -0.003 C 
ATOM     19  C   UNL     1      15.724 -13.856  14.152  1.00  0.00     0.004 C 
ENDBRANCH  17  18
ENDBRANCH  16  17
ENDBRANCH  15  16
ENDBRANCH  14  15
ENDBRANCH  13  14
ENDBRANCH  12  13
ENDBRANCH   1  12
TORSDOF 14
ENDMDL
MODEL 8
REMARK VINA RESULT:    -4.709      3.369      7.518
REMARK INTER + INTRA:         -10.140
REMARK INTER:                  -8.751
REMARK INTRA:                  -1.388
REMARK UNBOUND:                -1.577
REMARK SMILES CCCCCCCCCCCCCC[C@H](C)C(=O)[O-]
REMARK SMILES IDX 9 1 10 2 11 3 12 4 13 5 14 6 15 7 16 8 17 9 18 10 19 11 8 12
REMARK SMILES IDX 7 13 6 14 5 15 4 16 3 17 2 18 1 19
REMARK H PARENT
REMARK Flexibility Score: inf
ROOT
ATOM      1  C   UNL     1      13.952 -17.621  12.759  1.00  0.00     0.000 C 
ENDROOT
BRANCH   1   2
ATOM      2  C   UNL     1      15.381 -17.322  13.237  1.00  0.00     0.000 C 
BRANCH   2   3
ATOM      3  C   UNL     1      15.532 -17.628  14.735  1.00  0.00     0.000 C 
BRANCH   3   4
ATOM      4  C   UNL     1      14.187 -17.604  15.485  1.00  0.00     0.000 C 
BRANCH   4   5
ATOM      5  C   UNL     1      13.831 -16.228  16.085  1.00  0.00     0.001 C 
BRANCH   5   6
ATOM      6  C   UNL     1      12.508 -15.642  15.534  1.00  0.00     0.009 C 
BRANCH   6   7
ATOM      7  C   UNL     1      12.679 -14.384  14.645  1.00  0.00     0.032 C 
ATOM      8  C   UNL     1      14.143 -14.167  14.238  1.00  0.00     0.014 C 
BRANCH   7   9
ATOM      9  C   UNL     1      12.094 -13.137  15.268  1.00  0.00     0.044 C 
ATOM     10  O   UNL     1      11.188 -13.234  16.138  1.00  0.00    -0.550 OA
ATOM     11  O   UNL     1      12.593 -11.876  14.954  1.00  0.00    -0.550 OA
ENDBRANCH   7   9
ENDBRANCH   6   7
ENDBRANCH   5   6
ENDBRANCH   4   5
ENDBRANCH   3   4
ENDBRANCH   2   3
ENDBRANCH   1   2
BRANCH   1  12
ATOM     12  C   UNL     1      13.695 -17.142  11.320  1.00  0.00     0.000 C 
BRANCH  12  13
ATOM     13  C   UNL     1      12.456 -16.240  11.210  1.00  0.00    -0.000 C 
BRANCH  13  14
ATOM     14  C   UNL     1      11.381 -16.890  10.332  1.00  0.00    -0.000 C 
BRANCH  14  15
ATOM     15  C   UNL     1      10.813 -15.884   9.320  1.00  0.00    -0.000 C 
BRANCH  15  16
ATOM     16  C   UNL     1      10.978 -16.361   7.862  1.00  0.00    -0.000 C 
BRANCH  16  17
ATOM     17  C   UNL     1       9.930 -17.399   7.419  1.00  0.00    -0.000 C 
BRANCH  17  18
ATOM     18  C   UNL     1       8.635 -16.785   6.851  1.00  0.00    -0.003 C 
ATOM     19  C   UNL     1       8.904 -15.623   5.895  1.00  0.00     0.004 C 
ENDBRANCH  17  18
ENDBRANCH  16  17
ENDBRANCH  15  16
ENDBRANCH  14  15
ENDBRANCH  13  14
ENDBRANCH  12  13
ENDBRANCH   1  12
TORSDOF 14
ENDMDL
MODEL 9
REMARK VINA RESULT:    -4.697      2.346      2.762
REMARK INTER + INTRA:         -10.118
REMARK INTER:                  -8.197
REMARK INTRA:                  -1.920
REMARK UNBOUND:                -1.577
REMARK SMILES CCCCCCCCCCCCCC[C@H](C)C(=O)[O-]
REMARK SMILES IDX 9 1 10 2 11 3 12 4 13 5 14 6 15 7 16 8 17 9 18 10 19 11 8 12
REMARK SMILES IDX 7 13 6 14 5 15 4 16 3 17 2 18 1 19
REMARK H PARENT
REMARK Flexibility Score: inf
ROOT
ATOM      1  C   UNL     1      11.190 -15.153  13.795  1.00  0.00     0.000 C 
ENDROOT
BRANCH   1   2
ATOM      2  C   UNL     1      10.962 -16.149  12.648  1.00  0.00     0.000 C 
BRANCH   2   3
ATOM      3  C   UNL     1      10.555 -15.416  11.359  1.00  0.00     0.000 C 
BRANCH   3   4
ATOM      4  C   UNL     1      11.409 -15.828  10.146  1.00  0.00     0.000 C 
BRANCH   4   5
ATOM      5  C   UNL     1      11.703 -17.341  10.074  1.00  0.00     0.001 C 
BRANCH   5   6
ATOM      6  C   UNL     1      11.227 -17.996   8.753  1.00  0.00     0.009 C 
BRANCH   6   7
ATOM      7  C   UNL     1      10.979 -19.523   8.843  1.00  0.00     0.032 C 
ATOM      8  C   UNL     1      11.962 -20.314   7.969  1.00  0.00     0.014 C 
BRANCH   7   9
ATOM      9  C   UNL     1       9.548 -19.906   8.540  1.00  0.00     0.044 C 
ATOM     10  O   UNL     1       8.961 -20.761   9.255  1.00  0.00    -0.550 OA
ATOM     11  O   UNL     1       8.835 -19.273   7.526  1.00  0.00    -0.550 OA
ENDBRANCH   7   9
ENDBRANCH   6   7
ENDBRANCH   5   6
ENDBRANCH   4   5
ENDBRANCH   3   4
ENDBRANCH   2   3
ENDBRANCH   1   2
BRANCH   1  12
ATOM     12  C   UNL     1      11.572 -15.845  15.114  1.00  0.00     0.000 C 
BRANCH  12  13
ATOM     13  C   UNL     1      12.885 -15.308  15.704  1.00  0.00    -0.000 C 
BRANCH  13  14
ATOM     14  C   UNL     1      13.787 -16.456  16.172  1.00  0.00    -0.000 C 
BRANCH  14  15
ATOM     15  C   UNL     1      13.645 -17.679  15.253  1.00  0.00    -0.000 C 
BRANCH  15  16
ATOM     16  C   UNL     1      14.789 -17.775  14.223  1.00  0.00    -0.000 C 
BRANCH  16  17
ATOM     17  C   UNL     1      14.378 -17.386  12.790  1.00  0.00    -0.000 C 
BRANCH  17  18
ATOM     18  C   UNL     1      14.626 -15.905  12.443  1.00  0.00    -0.003 C 
ATOM     19  C   UNL     1      15.807 -15.310  13.208  1.00  0.00     0.004 C 
ENDBRANCH  17  18
ENDBRANCH  16  17
ENDBRANCH  15  16
ENDBRANCH  14  15
ENDBRANCH  13  14
ENDBRANCH  12  13
ENDBRANCH   1  12
TORSDOF 14
ENDMDL
