MODEL 1
REMARK VINA RESULT:    29.132      0.000      0.000
REMARK INTER + INTRA:          33.995
REMARK INTER:                  34.241
REMARK INTRA:                  -0.246
REMARK UNBOUND:                -0.246
REMARK SMILES O=c1c(O)c(-c2ccc(O)cc2)oc2cc(O)cc(O)c12
REMARK SMILES IDX 5 1 3 2 2 3 1 4 21 5 19 6 18 7 16 8 15 9 14 10 13 11 6 12
REMARK SMILES IDX 7 13 8 14 9 15 12 16 11 17 10 18 4 20 20 22 17 24
REMARK H PARENT 10 19 4 21 20 23 17 25
REMARK Flexibility Score: inf
ROOT
ATOM      1  C   UNL     1       9.422   1.465   8.785  1.00  0.00     0.180 A 
ATOM      2  C   UNL     1      10.165   0.367   8.319  1.00  0.00     0.208 A 
ATOM      3  C   UNL     1      11.188   0.586   7.381  1.00  0.00     0.238 A 
ATOM      4  O   UNL     1      11.813  -0.406   6.927  1.00  0.00    -0.285 OA
ATOM      5  C   UNL     1      11.464   1.901   6.935  1.00  0.00     0.111 A 
ATOM      6  C   UNL     1      12.504   2.243   6.018  1.00  0.00     0.134 A 
ATOM      7  C   UNL     1      12.602   3.558   5.547  1.00  0.00     0.093 A 
ATOM      8  C   UNL     1      11.742   4.555   6.007  1.00  0.00     0.123 A 
ATOM      9  C   UNL     1      10.761   4.244   6.949  1.00  0.00     0.094 A 
ATOM     10  C   UNL     1      10.615   2.934   7.411  1.00  0.00     0.146 A 
ATOM     11  O   UNL     1       9.661   2.677   8.299  1.00  0.00    -0.452 OA
ENDROOT
BRANCH   1  12
ATOM     12  C   UNL     1       8.345   1.317   9.792  1.00  0.00     0.021 A 
ATOM     13  C   UNL     1       6.990   1.296   9.417  1.00  0.00     0.016 A 
ATOM     14  C   UNL     1       5.991   1.130  10.383  1.00  0.00     0.047 A 
ATOM     15  C   UNL     1       6.336   0.970  11.731  1.00  0.00     0.115 A 
ATOM     16  C   UNL     1       8.682   1.133  11.143  1.00  0.00     0.016 A 
ATOM     17  C   UNL     1       7.682   0.969  12.107  1.00  0.00     0.047 A 
BRANCH  15  18
ATOM     18  O   UNL     1       5.350   0.805  12.702  1.00  0.00    -0.508 OA
ATOM     19  H   UNL     1       4.534   0.228  12.535  1.00  0.00     0.293 HD
ENDBRANCH  15  18
ENDBRANCH   1  12
BRANCH   2  20
ATOM     20  O   UNL     1       9.861  -0.926   8.756  1.00  0.00    -0.502 OA
ATOM     21  H   UNL     1       9.268  -1.553   8.225  1.00  0.00     0.293 HD
ENDBRANCH   2  20
BRANCH   6  22
ATOM     22  O   UNL     1      13.472   1.344   5.566  1.00  0.00    -0.507 OA
ATOM     23  H   UNL     1      13.775   1.259   4.607  1.00  0.00     0.293 HD
ENDBRANCH   6  22
BRANCH   8  24
ATOM     24  O   UNL     1      11.880   5.856   5.528  1.00  0.00    -0.508 OA
ATOM     25  H   UNL     1      12.778   6.326   5.520  1.00  0.00     0.293 HD
ENDBRANCH   8  24
TORSDOF 5
ENDMDL
MODEL 2
REMARK VINA RESULT:    29.342      1.211      3.059
REMARK INTER + INTRA:          34.241
REMARK INTER:                  34.401
REMARK INTRA:                  -0.159
REMARK UNBOUND:                -0.246
REMARK SMILES O=c1c(O)c(-c2ccc(O)cc2)oc2cc(O)cc(O)c12
REMARK SMILES IDX 5 1 3 2 2 3 1 4 21 5 19 6 18 7 16 8 15 9 14 10 13 11 6 12
REMARK SMILES IDX 7 13 8 14 9 15 12 16 11 17 10 18 4 20 20 22 17 24
REMARK H PARENT 10 19 4 21 20 23 17 25
REMARK Flexibility Score: inf
ROOT
ATOM      1  C   UNL     1       9.407   2.130   8.627  1.00  0.00     0.180 A 
ATOM      2  C   UNL     1       9.344   3.439   8.119  1.00  0.00     0.208 A 
ATOM      3  C   UNL     1      10.280   3.840   7.153  1.00  0.00     0.238 A 
ATOM      4  O   UNL     1      10.252   5.029   6.743  1.00  0.00    -0.285 OA
ATOM      5  C   UNL     1      11.257   2.924   6.695  1.00  0.00     0.111 A 
ATOM      6  C   UNL     1      12.228   3.210   5.689  1.00  0.00     0.134 A 
ATOM      7  C   UNL     1      13.228   2.271   5.408  1.00  0.00     0.093 A 
ATOM      8  C   UNL     1      13.253   1.031   6.047  1.00  0.00     0.123 A 
ATOM      9  C   UNL     1      12.272   0.717   6.988  1.00  0.00     0.094 A 
ATOM     10  C   UNL     1      11.283   1.647   7.317  1.00  0.00     0.146 A 
ATOM     11  O   UNL     1      10.375   1.314   8.226  1.00  0.00    -0.452 OA
ENDROOT
BRANCH   1  12
ATOM     12  C   UNL     1       8.440   1.626   9.629  1.00  0.00     0.021 A 
ATOM     13  C   UNL     1       8.831   1.351  10.952  1.00  0.00     0.016 A 
ATOM     14  C   UNL     1       7.894   0.899  11.888  1.00  0.00     0.047 A 
ATOM     15  C   UNL     1       6.555   0.730  11.516  1.00  0.00     0.115 A 
ATOM     16  C   UNL     1       7.090   1.473   9.272  1.00  0.00     0.016 A 
ATOM     17  C   UNL     1       6.156   1.019  10.209  1.00  0.00     0.047 A 
BRANCH  15  18
ATOM     18  O   UNL     1       5.614   0.278  12.440  1.00  0.00    -0.508 OA
ATOM     19  H   UNL     1       5.001  -0.501  12.233  1.00  0.00     0.293 HD
ENDBRANCH  15  18
ENDBRANCH   1  12
BRANCH   2  20
ATOM     20  O   UNL     1       8.385   4.335   8.602  1.00  0.00    -0.502 OA
ATOM     21  H   UNL     1       8.524   4.876   9.448  1.00  0.00     0.293 HD
ENDBRANCH   2  20
BRANCH   6  22
ATOM     22  O   UNL     1      12.239   4.380   4.926  1.00  0.00    -0.507 OA
ATOM     23  H   UNL     1      12.176   4.411   3.920  1.00  0.00     0.293 HD
ENDBRANCH   6  22
BRANCH   8  24
ATOM     24  O   UNL     1      14.253   0.115   5.730  1.00  0.00    -0.508 OA
ATOM     25  H   UNL     1      14.333  -0.283   4.801  1.00  0.00     0.293 HD
ENDBRANCH   8  24
TORSDOF 5
ENDMDL
MODEL 3
REMARK VINA RESULT:    29.910      4.718      7.485
REMARK INTER + INTRA:          34.909
REMARK INTER:                  35.137
REMARK INTRA:                  -0.229
REMARK UNBOUND:                -0.246
REMARK SMILES O=c1c(O)c(-c2ccc(O)cc2)oc2cc(O)cc(O)c12
REMARK SMILES IDX 5 1 3 2 2 3 1 4 21 5 19 6 18 7 16 8 15 9 14 10 13 11 6 12
REMARK SMILES IDX 7 13 8 14 9 15 12 16 11 17 10 18 4 20 20 22 17 24
REMARK H PARENT 10 19 4 21 20 23 17 25
REMARK Flexibility Score: inf
ROOT
ATOM      1  C   UNL     1      14.943   3.641   8.597  1.00  0.00     0.180 A 
ATOM      2  C   UNL     1      14.160   4.731   8.179  1.00  0.00     0.208 A 
ATOM      3  C   UNL     1      13.114   4.509   7.268  1.00  0.00     0.238 A 
ATOM      4  O   UNL     1      12.452   5.496   6.857  1.00  0.00    -0.285 OA
ATOM      5  C   UNL     1      12.855   3.199   6.800  1.00  0.00     0.111 A 
ATOM      6  C   UNL     1      11.796   2.852   5.907  1.00  0.00     0.134 A 
ATOM      7  C   UNL     1      11.714   1.547   5.408  1.00  0.00     0.093 A 
ATOM      8  C   UNL     1      12.611   0.560   5.818  1.00  0.00     0.123 A 
ATOM      9  C   UNL     1      13.613   0.873   6.737  1.00  0.00     0.094 A 
ATOM     10  C   UNL     1      13.743   2.176   7.225  1.00  0.00     0.146 A 
ATOM     11  O   UNL     1      14.717   2.435   8.089  1.00  0.00    -0.452 OA
ENDROOT
BRANCH   1  12
ATOM     12  C   UNL     1      16.046   3.792   9.573  1.00  0.00     0.021 A 
ATOM     13  C   UNL     1      17.392   3.803   9.163  1.00  0.00     0.016 A 
ATOM     14  C   UNL     1      18.416   3.971  10.101  1.00  0.00     0.047 A 
ATOM     15  C   UNL     1      18.108   4.144  11.456  1.00  0.00     0.115 A 
ATOM     16  C   UNL     1      15.746   3.987  10.932  1.00  0.00     0.016 A 
ATOM     17  C   UNL     1      16.772   4.154  11.868  1.00  0.00     0.047 A 
BRANCH  15  18
ATOM     18  O   UNL     1      19.120   4.311  12.399  1.00  0.00    -0.508 OA
ATOM     19  H   UNL     1      20.097   4.300  12.134  1.00  0.00     0.293 HD
ENDBRANCH  15  18
ENDBRANCH   1  12
BRANCH   2  20
ATOM     20  O   UNL     1      14.448   6.020   8.638  1.00  0.00    -0.502 OA
ATOM     21  H   UNL     1      14.034   6.848   8.226  1.00  0.00     0.293 HD
ENDBRANCH   2  20
BRANCH   6  22
ATOM     22  O   UNL     1      10.794   3.738   5.506  1.00  0.00    -0.507 OA
ATOM     23  H   UNL     1      10.235   3.636   4.672  1.00  0.00     0.293 HD
ENDBRANCH   6  22
BRANCH   8  24
ATOM     24  O   UNL     1      12.489  -0.732   5.312  1.00  0.00    -0.508 OA
ATOM     25  H   UNL     1      13.207  -1.142   4.727  1.00  0.00     0.293 HD
ENDBRANCH   8  24
TORSDOF 5
ENDMDL
MODEL 4
REMARK VINA RESULT:    30.110      4.654      6.870
REMARK INTER + INTRA:          35.144
REMARK INTER:                  35.283
REMARK INTRA:                  -0.139
REMARK UNBOUND:                -0.246
REMARK SMILES O=c1c(O)c(-c2ccc(O)cc2)oc2cc(O)cc(O)c12
REMARK SMILES IDX 5 1 3 2 2 3 1 4 21 5 19 6 18 7 16 8 15 9 14 10 13 11 6 12
REMARK SMILES IDX 7 13 8 14 9 15 12 16 11 17 10 18 4 20 20 22 17 24
REMARK H PARENT 10 19 4 21 20 23 17 25
REMARK Flexibility Score: inf
ROOT
ATOM      1  C   UNL     1      14.997   3.053   8.516  1.00  0.00     0.180 A 
ATOM      2  C   UNL     1      15.045   1.761   7.965  1.00  0.00     0.208 A 
ATOM      3  C   UNL     1      14.067   1.383   7.030  1.00  0.00     0.238 A 
ATOM      4  O   UNL     1      14.083   0.208   6.581  1.00  0.00    -0.285 OA
ATOM      5  C   UNL     1      13.066   2.307   6.646  1.00  0.00     0.111 A 
ATOM      6  C   UNL     1      12.051   2.045   5.677  1.00  0.00     0.134 A 
ATOM      7  C   UNL     1      11.034   2.986   5.472  1.00  0.00     0.093 A 
ATOM      8  C   UNL     1      11.031   4.204   6.151  1.00  0.00     0.123 A 
ATOM      9  C   UNL     1      12.052   4.495   7.056  1.00  0.00     0.094 A 
ATOM     10  C   UNL     1      13.061   3.562   7.309  1.00  0.00     0.146 A 
ATOM     11  O   UNL     1      14.008   3.874   8.185  1.00  0.00    -0.452 OA
ENDROOT
BRANCH   1  12
ATOM     12  C   UNL     1      16.007   3.532   9.489  1.00  0.00     0.021 A 
ATOM     13  C   UNL     1      15.666   3.799  10.827  1.00  0.00     0.016 A 
ATOM     14  C   UNL     1      16.641   4.228  11.733  1.00  0.00     0.047 A 
ATOM     15  C   UNL     1      17.970   4.380  11.317  1.00  0.00     0.115 A 
ATOM     16  C   UNL     1      17.346   3.667   9.086  1.00  0.00     0.016 A 
ATOM     17  C   UNL     1      18.319   4.097   9.994  1.00  0.00     0.047 A 
BRANCH  15  18
ATOM     18  O   UNL     1      18.950   4.808  12.211  1.00  0.00    -0.508 OA
ATOM     19  H   UNL     1      19.382   4.169  12.867  1.00  0.00     0.293 HD
ENDBRANCH  15  18
ENDBRANCH   1  12
BRANCH   2  20
ATOM     20  O   UNL     1      16.030   0.857   8.375  1.00  0.00    -0.502 OA
ATOM     21  H   UNL     1      17.013   1.099   8.401  1.00  0.00     0.293 HD
ENDBRANCH   2  20
BRANCH   6  22
ATOM     22  O   UNL     1      12.012   0.899   4.878  1.00  0.00    -0.507 OA
ATOM     23  H   UNL     1      12.816   0.476   4.440  1.00  0.00     0.293 HD
ENDBRANCH   6  22
BRANCH   8  24
ATOM     24  O   UNL     1      10.012   5.122   5.909  1.00  0.00    -0.508 OA
ATOM     25  H   UNL     1       9.937   5.610   5.024  1.00  0.00     0.293 HD
ENDBRANCH   8  24
TORSDOF 5
ENDMDL
