MODEL 1
REMARK VINA RESULT:    -7.261      0.000      0.000
REMARK INTER + INTRA:          -8.812
REMARK INTER:                  -8.747
REMARK INTRA:                  -0.064
REMARK UNBOUND:                -0.064
REMARK SMILES O=c1c(O)c(-c2ccc(O)c(O)c2)oc2cc(O)cc(O)c12
REMARK SMILES IDX 5 1 3 2 2 3 1 4 22 5 20 6 19 7 17 8 16 9 15 10 14 11 6 12
REMARK SMILES IDX 7 13 8 14 9 15 13 16 11 17 10 18 12 20 4 22 21 24 18 26
REMARK H PARENT 10 19 12 21 4 23 21 25 18 27
REMARK Flexibility Score: inf
ROOT
ATOM      1  C   UNL     1     -12.375 -39.545 -18.035  1.00  0.00     0.180 A 
ATOM      2  C   UNL     1     -13.688 -39.089 -17.834  1.00  0.00     0.208 A 
ATOM      3  C   UNL     1     -14.218 -38.129 -18.711  1.00  0.00     0.238 A 
ATOM      4  O   UNL     1     -15.419 -37.781 -18.571  1.00  0.00    -0.285 OA
ATOM      5  C   UNL     1     -13.409 -37.596 -19.744  1.00  0.00     0.111 A 
ATOM      6  C   UNL     1     -13.827 -36.586 -20.664  1.00  0.00     0.134 A 
ATOM      7  C   UNL     1     -12.977 -36.212 -21.712  1.00  0.00     0.093 A 
ATOM      8  C   UNL     1     -11.702 -36.762 -21.837  1.00  0.00     0.123 A 
ATOM      9  C   UNL     1     -11.262 -37.709 -20.912  1.00  0.00     0.094 A 
ATOM     10  C   UNL     1     -12.101 -38.131 -19.878  1.00  0.00     0.146 A 
ATOM     11  O   UNL     1     -11.651 -39.051 -19.032  1.00  0.00    -0.452 OA
ENDROOT
BRANCH   1  12
ATOM     12  C   UNL     1     -11.751 -40.566 -17.161  1.00  0.00     0.025 A 
ATOM     13  C   UNL     1     -12.369 -41.808 -16.932  1.00  0.00     0.016 A 
ATOM     14  C   UNL     1     -11.749 -42.765 -16.123  1.00  0.00     0.051 A 
ATOM     15  C   UNL     1     -10.501 -42.502 -15.544  1.00  0.00     0.157 A 
ATOM     16  C   UNL     1     -10.491 -40.314 -16.597  1.00  0.00     0.062 A 
ATOM     17  C   UNL     1      -9.868 -41.270 -15.786  1.00  0.00     0.158 A 
BRANCH  15  18
ATOM     18  O   UNL     1      -9.888 -43.457 -14.736  1.00  0.00    -0.504 OA
ATOM     19  H   UNL     1      -8.889 -43.449 -14.569  1.00  0.00     0.293 HD
ENDBRANCH  15  18
BRANCH  17  20
ATOM     20  O   UNL     1      -8.622 -40.980 -15.231  1.00  0.00    -0.504 OA
ATOM     21  H   UNL     1      -8.287 -41.439 -14.392  1.00  0.00     0.293 HD
ENDBRANCH  17  20
ENDBRANCH   1  12
BRANCH   2  22
ATOM     22  O   UNL     1     -14.444 -39.571 -16.762  1.00  0.00    -0.502 OA
ATOM     23  H   UNL     1     -14.238 -40.450 -16.303  1.00  0.00     0.293 HD
ENDBRANCH   2  22
BRANCH   6  24
ATOM     24  O   UNL     1     -15.046 -35.906 -20.581  1.00  0.00    -0.507 OA
ATOM     25  H   UNL     1     -15.288 -35.087 -21.118  1.00  0.00     0.293 HD
ENDBRANCH   6  24
BRANCH   8  26
ATOM     26  O   UNL     1     -10.876 -36.353 -22.882  1.00  0.00    -0.508 OA
ATOM     27  H   UNL     1     -11.219 -35.758 -23.626  1.00  0.00     0.293 HD
ENDBRANCH   8  26
TORSDOF 6
ENDMDL
MODEL 2
REMARK VINA RESULT:    -6.987      2.877      5.120
REMARK INTER + INTRA:          -8.482
REMARK INTER:                  -8.154
REMARK INTRA:                  -0.327
REMARK UNBOUND:                -0.064
REMARK SMILES O=c1c(O)c(-c2ccc(O)c(O)c2)oc2cc(O)cc(O)c12
REMARK SMILES IDX 5 1 3 2 2 3 1 4 22 5 20 6 19 7 17 8 16 9 15 10 14 11 6 12
REMARK SMILES IDX 7 13 8 14 9 15 13 16 11 17 10 18 12 20 4 22 21 24 18 26
REMARK H PARENT 10 19 12 21 4 23 21 25 18 27
REMARK Flexibility Score: inf
ROOT
ATOM      1  C   UNL     1     -11.489 -39.627 -19.688  1.00  0.00     0.180 A 
ATOM      2  C   UNL     1     -11.377 -40.879 -20.317  1.00  0.00     0.208 A 
ATOM      3  C   UNL     1     -10.420 -41.049 -21.330  1.00  0.00     0.238 A 
ATOM      4  O   UNL     1     -10.274 -42.192 -21.835  1.00  0.00    -0.285 OA
ATOM      5  C   UNL     1      -9.627 -39.951 -21.743  1.00  0.00     0.111 A 
ATOM      6  C   UNL     1      -8.658 -39.997 -22.791  1.00  0.00     0.134 A 
ATOM      7  C   UNL     1      -7.856 -38.876 -23.041  1.00  0.00     0.093 A 
ATOM      8  C   UNL     1      -8.031 -37.692 -22.325  1.00  0.00     0.123 A 
ATOM      9  C   UNL     1      -9.012 -37.618 -21.337  1.00  0.00     0.094 A 
ATOM     10  C   UNL     1      -9.801 -38.731 -21.038  1.00  0.00     0.146 A 
ATOM     11  O   UNL     1     -10.709 -38.625 -20.075  1.00  0.00    -0.452 OA
ENDROOT
BRANCH   1  12
ATOM     12  C   UNL     1     -12.463 -39.374 -18.602  1.00  0.00     0.025 A 
ATOM     13  C   UNL     1     -12.162 -39.682 -17.264  1.00  0.00     0.016 A 
ATOM     14  C   UNL     1     -13.089 -39.412 -16.252  1.00  0.00     0.051 A 
ATOM     15  C   UNL     1     -14.320 -38.818 -16.560  1.00  0.00     0.157 A 
ATOM     16  C   UNL     1     -13.689 -38.759 -18.903  1.00  0.00     0.062 A 
ATOM     17  C   UNL     1     -14.618 -38.487 -17.893  1.00  0.00     0.158 A 
BRANCH  15  18
ATOM     18  O   UNL     1     -15.241 -38.551 -15.549  1.00  0.00    -0.504 OA
ATOM     19  H   UNL     1     -14.971 -38.542 -14.573  1.00  0.00     0.293 HD
ENDBRANCH  15  18
BRANCH  17  20
ATOM     20  O   UNL     1     -15.831 -37.888 -18.232  1.00  0.00    -0.504 OA
ATOM     21  H   UNL     1     -16.229 -37.966 -19.161  1.00  0.00     0.293 HD
ENDBRANCH  17  20
ENDBRANCH   1  12
BRANCH   2  22
ATOM     22  O   UNL     1     -12.221 -41.930 -19.948  1.00  0.00    -0.502 OA
ATOM     23  H   UNL     1     -12.472 -42.676 -20.585  1.00  0.00     0.293 HD
ENDBRANCH   2  22
BRANCH   6  24
ATOM     24  O   UNL     1      -8.460 -41.100 -23.627  1.00  0.00    -0.507 OA
ATOM     25  H   UNL     1      -7.822 -41.126 -24.408  1.00  0.00     0.293 HD
ENDBRANCH   6  24
BRANCH   8  26
ATOM     26  O   UNL     1      -7.227 -36.591 -22.613  1.00  0.00    -0.508 OA
ATOM     27  H   UNL     1      -6.756 -36.073 -21.881  1.00  0.00     0.293 HD
ENDBRANCH   8  26
TORSDOF 6
ENDMDL
MODEL 3
REMARK VINA RESULT:    -6.964      2.189      2.851
REMARK INTER + INTRA:          -8.454
REMARK INTER:                  -8.465
REMARK INTRA:                   0.011
REMARK UNBOUND:                -0.064
REMARK SMILES O=c1c(O)c(-c2ccc(O)c(O)c2)oc2cc(O)cc(O)c12
REMARK SMILES IDX 5 1 3 2 2 3 1 4 22 5 20 6 19 7 17 8 16 9 15 10 14 11 6 12
REMARK SMILES IDX 7 13 8 14 9 15 13 16 11 17 10 18 12 20 4 22 21 24 18 26
REMARK H PARENT 10 19 12 21 4 23 21 25 18 27
REMARK Flexibility Score: inf
ROOT
ATOM      1  C   UNL     1     -13.481 -40.116 -18.063  1.00  0.00     0.180 A 
ATOM      2  C   UNL     1     -14.748 -40.184 -17.458  1.00  0.00     0.208 A 
ATOM      3  C   UNL     1     -15.880 -39.822 -18.205  1.00  0.00     0.238 A 
ATOM      4  O   UNL     1     -17.016 -39.957 -17.683  1.00  0.00    -0.285 OA
ATOM      5  C   UNL     1     -15.727 -39.343 -19.529  1.00  0.00     0.111 A 
ATOM      6  C   UNL     1     -16.801 -38.905 -20.364  1.00  0.00     0.134 A 
ATOM      7  C   UNL     1     -16.541 -38.552 -21.695  1.00  0.00     0.093 A 
ATOM      8  C   UNL     1     -15.242 -38.559 -22.202  1.00  0.00     0.123 A 
ATOM      9  C   UNL     1     -14.179 -38.931 -21.379  1.00  0.00     0.094 A 
ATOM     10  C   UNL     1     -14.410 -39.326 -20.059  1.00  0.00     0.146 A 
ATOM     11  O   UNL     1     -13.373 -39.694 -19.317  1.00  0.00    -0.452 OA
ENDROOT
BRANCH   1  12
ATOM     12  C   UNL     1     -12.243 -40.494 -17.345  1.00  0.00     0.025 A 
ATOM     13  C   UNL     1     -11.150 -39.614 -17.256  1.00  0.00     0.016 A 
ATOM     14  C   UNL     1     -10.001 -39.985 -16.552  1.00  0.00     0.051 A 
ATOM     15  C   UNL     1      -9.932 -41.231 -15.916  1.00  0.00     0.157 A 
ATOM     16  C   UNL     1     -12.178 -41.734 -16.687  1.00  0.00     0.062 A 
ATOM     17  C   UNL     1     -11.028 -42.107 -15.981  1.00  0.00     0.158 A 
BRANCH  15  18
ATOM     18  O   UNL     1      -8.783 -41.597 -15.216  1.00  0.00    -0.504 OA
ATOM     19  H   UNL     1      -8.559 -41.192 -14.315  1.00  0.00     0.293 HD
ENDBRANCH  15  18
BRANCH  17  20
ATOM     20  O   UNL     1     -10.995 -43.351 -15.352  1.00  0.00    -0.504 OA
ATOM     21  H   UNL     1     -10.173 -43.944 -15.375  1.00  0.00     0.293 HD
ENDBRANCH  17  20
ENDBRANCH   1  12
BRANCH   2  22
ATOM     22  O   UNL     1     -14.871 -40.586 -16.125  1.00  0.00    -0.502 OA
ATOM     23  H   UNL     1     -15.110 -41.535 -15.864  1.00  0.00     0.293 HD
ENDBRANCH   2  22
BRANCH   6  24
ATOM     24  O   UNL     1     -18.125 -38.777 -19.935  1.00  0.00    -0.507 OA
ATOM     25  H   UNL     1     -18.729 -39.545 -19.685  1.00  0.00     0.293 HD
ENDBRANCH   6  24
BRANCH   8  26
ATOM     26  O   UNL     1     -15.019 -38.184 -23.525  1.00  0.00    -0.508 OA
ATOM     27  H   UNL     1     -15.729 -37.707 -24.067  1.00  0.00     0.293 HD
ENDBRANCH   8  26
TORSDOF 6
ENDMDL
MODEL 4
REMARK VINA RESULT:    -6.926     11.896     14.483
REMARK INTER + INTRA:          -8.407
REMARK INTER:                  -8.090
REMARK INTRA:                  -0.317
REMARK UNBOUND:                -0.064
REMARK SMILES O=c1c(O)c(-c2ccc(O)c(O)c2)oc2cc(O)cc(O)c12
REMARK SMILES IDX 5 1 3 2 2 3 1 4 22 5 20 6 19 7 17 8 16 9 15 10 14 11 6 12
REMARK SMILES IDX 7 13 8 14 9 15 13 16 11 17 10 18 12 20 4 22 21 24 18 26
REMARK H PARENT 10 19 12 21 4 23 21 25 18 27
REMARK Flexibility Score: inf
ROOT
ATOM      1  C   UNL     1      -0.313 -47.764 -19.429  1.00  0.00     0.180 A 
ATOM      2  C   UNL     1      -0.340 -48.004 -20.813  1.00  0.00     0.208 A 
ATOM      3  C   UNL     1      -0.790 -46.990 -21.672  1.00  0.00     0.238 A 
ATOM      4  O   UNL     1      -0.741 -47.184 -22.914  1.00  0.00    -0.285 OA
ATOM      5  C   UNL     1      -1.263 -45.768 -21.134  1.00  0.00     0.111 A 
ATOM      6  C   UNL     1      -1.785 -44.687 -21.907  1.00  0.00     0.134 A 
ATOM      7  C   UNL     1      -2.124 -43.484 -21.273  1.00  0.00     0.093 A 
ATOM      8  C   UNL     1      -2.020 -43.345 -19.890  1.00  0.00     0.123 A 
ATOM      9  C   UNL     1      -1.564 -44.414 -19.118  1.00  0.00     0.094 A 
ATOM     10  C   UNL     1      -1.182 -45.613 -19.725  1.00  0.00     0.146 A 
ATOM     11  O   UNL     1      -0.732 -46.597 -18.956  1.00  0.00    -0.452 OA
ENDROOT
BRANCH   1  12
ATOM     12  C   UNL     1       0.163 -48.779 -18.461  1.00  0.00     0.025 A 
ATOM     13  C   UNL     1       1.533 -48.962 -18.207  1.00  0.00     0.016 A 
ATOM     14  C   UNL     1       1.956 -49.910 -17.271  1.00  0.00     0.051 A 
ATOM     15  C   UNL     1       1.020 -50.677 -16.567  1.00  0.00     0.157 A 
ATOM     16  C   UNL     1      -0.774 -49.535 -17.737  1.00  0.00     0.062 A 
ATOM     17  C   UNL     1      -0.353 -50.485 -16.800  1.00  0.00     0.158 A 
BRANCH  15  18
ATOM     18  O   UNL     1       1.446 -51.623 -15.636  1.00  0.00    -0.504 OA
ATOM     19  H   UNL     1       1.548 -52.600 -15.881  1.00  0.00     0.293 HD
ENDBRANCH  15  18
BRANCH  17  20
ATOM     20  O   UNL     1      -1.311 -51.226 -16.110  1.00  0.00    -0.504 OA
ATOM     21  H   UNL     1      -2.285 -51.240 -16.390  1.00  0.00     0.293 HD
ENDBRANCH  17  20
ENDBRANCH   1  12
BRANCH   2  22
ATOM     22  O   UNL     1       0.059 -49.244 -21.320  1.00  0.00    -0.502 OA
ATOM     23  H   UNL     1      -0.015 -49.479 -22.303  1.00  0.00     0.293 HD
ENDBRANCH   2  22
BRANCH   6  24
ATOM     24  O   UNL     1      -2.013 -44.747 -23.285  1.00  0.00    -0.507 OA
ATOM     25  H   UNL     1      -1.327 -45.018 -23.973  1.00  0.00     0.293 HD
ENDBRANCH   6  24
BRANCH   8  26
ATOM     26  O   UNL     1      -2.383 -42.141 -19.291  1.00  0.00    -0.508 OA
ATOM     27  H   UNL     1      -1.873 -41.767 -18.500  1.00  0.00     0.293 HD
ENDBRANCH   8  26
TORSDOF 6
ENDMDL
MODEL 5
REMARK VINA RESULT:    -6.925      3.197      4.266
REMARK INTER + INTRA:          -8.407
REMARK INTER:                  -8.217
REMARK INTRA:                  -0.189
REMARK UNBOUND:                -0.064
REMARK SMILES O=c1c(O)c(-c2ccc(O)c(O)c2)oc2cc(O)cc(O)c12
REMARK SMILES IDX 5 1 3 2 2 3 1 4 22 5 20 6 19 7 17 8 16 9 15 10 14 11 6 12
REMARK SMILES IDX 7 13 8 14 9 15 13 16 11 17 10 18 12 20 4 22 21 24 18 26
REMARK H PARENT 10 19 12 21 4 23 21 25 18 27
REMARK Flexibility Score: inf
ROOT
ATOM      1  C   UNL     1     -13.347 -38.578 -19.482  1.00  0.00     0.180 A 
ATOM      2  C   UNL     1     -13.701 -37.435 -20.218  1.00  0.00     0.208 A 
ATOM      3  C   UNL     1     -12.806 -36.940 -21.180  1.00  0.00     0.238 A 
ATOM      4  O   UNL     1     -13.161 -35.962 -21.888  1.00  0.00    -0.285 OA
ATOM      5  C   UNL     1     -11.544 -37.558 -21.353  1.00  0.00     0.111 A 
ATOM      6  C   UNL     1     -10.540 -37.113 -22.266  1.00  0.00     0.134 A 
ATOM      7  C   UNL     1      -9.371 -37.868 -22.428  1.00  0.00     0.093 A 
ATOM      8  C   UNL     1      -9.141 -39.013 -21.666  1.00  0.00     0.123 A 
ATOM      9  C   UNL     1     -10.090 -39.426 -20.732  1.00  0.00     0.094 A 
ATOM     10  C   UNL     1     -11.283 -38.716 -20.574  1.00  0.00     0.146 A 
ATOM     11  O   UNL     1     -12.170 -39.156 -19.689  1.00  0.00    -0.452 OA
ENDROOT
BRANCH   1  12
ATOM     12  C   UNL     1     -14.244 -39.169 -18.462  1.00  0.00     0.025 A 
ATOM     13  C   UNL     1     -14.810 -40.443 -18.635  1.00  0.00     0.016 A 
ATOM     14  C   UNL     1     -15.635 -40.989 -17.647  1.00  0.00     0.051 A 
ATOM     15  C   UNL     1     -15.893 -40.279 -16.468  1.00  0.00     0.157 A 
ATOM     16  C   UNL     1     -14.487 -38.469 -17.269  1.00  0.00     0.062 A 
ATOM     17  C   UNL     1     -15.312 -39.013 -16.278  1.00  0.00     0.158 A 
BRANCH  15  18
ATOM     18  O   UNL     1     -16.716 -40.826 -15.486  1.00  0.00    -0.504 OA
ATOM     19  H   UNL     1     -16.834 -40.381 -14.584  1.00  0.00     0.293 HD
ENDBRANCH  15  18
BRANCH  17  20
ATOM     20  O   UNL     1     -15.542 -38.283 -15.112  1.00  0.00    -0.504 OA
ATOM     21  H   UNL     1     -16.478 -38.092 -14.773  1.00  0.00     0.293 HD
ENDBRANCH  17  20
ENDBRANCH   1  12
BRANCH   2  22
ATOM     22  O   UNL     1     -14.920 -36.793 -19.979  1.00  0.00    -0.502 OA
ATOM     23  H   UNL     1     -15.000 -35.786 -19.914  1.00  0.00     0.293 HD
ENDBRANCH   2  22
BRANCH   6  24
ATOM     24  O   UNL     1     -10.627 -35.935 -23.014  1.00  0.00    -0.507 OA
ATOM     25  H   UNL     1     -11.437 -35.336 -23.056  1.00  0.00     0.293 HD
ENDBRANCH   6  24
BRANCH   8  26
ATOM     26  O   UNL     1      -7.959 -39.729 -21.841  1.00  0.00    -0.508 OA
ATOM     27  H   UNL     1      -7.897 -40.498 -22.498  1.00  0.00     0.293 HD
ENDBRANCH   8  26
TORSDOF 6
ENDMDL
MODEL 6
REMARK VINA RESULT:    -6.698     13.043     14.393
REMARK INTER + INTRA:          -8.133
REMARK INTER:                  -7.870
REMARK INTRA:                  -0.263
REMARK UNBOUND:                -0.064
REMARK SMILES O=c1c(O)c(-c2ccc(O)c(O)c2)oc2cc(O)cc(O)c12
REMARK SMILES IDX 5 1 3 2 2 3 1 4 22 5 20 6 19 7 17 8 16 9 15 10 14 11 6 12
REMARK SMILES IDX 7 13 8 14 9 15 13 16 11 17 10 18 12 20 4 22 21 24 18 26
REMARK H PARENT 10 19 12 21 4 23 21 25 18 27
REMARK Flexibility Score: inf
ROOT
ATOM      1  C   UNL     1      -0.472 -47.527 -19.463  1.00  0.00     0.180 A 
ATOM      2  C   UNL     1      -0.323 -46.171 -19.126  1.00  0.00     0.208 A 
ATOM      3  C   UNL     1      -0.649 -45.193 -20.078  1.00  0.00     0.238 A 
ATOM      4  O   UNL     1      -0.586 -43.981 -19.745  1.00  0.00    -0.285 OA
ATOM      5  C   UNL     1      -1.067 -45.582 -21.374  1.00  0.00     0.111 A 
ATOM      6  C   UNL     1      -1.380 -44.677 -22.434  1.00  0.00     0.134 A 
ATOM      7  C   UNL     1      -1.885 -45.174 -23.642  1.00  0.00     0.093 A 
ATOM      8  C   UNL     1      -2.028 -46.546 -23.852  1.00  0.00     0.123 A 
ATOM      9  C   UNL     1      -1.673 -47.442 -22.845  1.00  0.00     0.094 A 
ATOM     10  C   UNL     1      -1.202 -46.975 -21.615  1.00  0.00     0.146 A 
ATOM     11  O   UNL     1      -0.897 -47.861 -20.675  1.00  0.00    -0.452 OA
ENDROOT
BRANCH   1  12
ATOM     12  C   UNL     1      -0.162 -48.616 -18.508  1.00  0.00     0.025 A 
ATOM     13  C   UNL     1       1.165 -48.964 -18.200  1.00  0.00     0.016 A 
ATOM     14  C   UNL     1       1.432 -49.979 -17.277  1.00  0.00     0.051 A 
ATOM     15  C   UNL     1       0.381 -50.650 -16.638  1.00  0.00     0.157 A 
ATOM     16  C   UNL     1      -1.212 -49.276 -17.849  1.00  0.00     0.062 A 
ATOM     17  C   UNL     1      -0.948 -50.293 -16.924  1.00  0.00     0.158 A 
BRANCH  15  18
ATOM     18  O   UNL     1       0.652 -51.662 -15.720  1.00  0.00    -0.504 OA
ATOM     19  H   UNL     1       1.133 -51.474 -14.848  1.00  0.00     0.293 HD
ENDBRANCH  15  18
BRANCH  17  20
ATOM     20  O   UNL     1      -2.016 -50.935 -16.300  1.00  0.00    -0.504 OA
ATOM     21  H   UNL     1      -2.918 -51.041 -16.750  1.00  0.00     0.293 HD
ENDBRANCH  17  20
ENDBRANCH   1  12
BRANCH   2  22
ATOM     22  O   UNL     1       0.164 -45.808 -17.867  1.00  0.00    -0.502 OA
ATOM     23  H   UNL     1      -0.067 -44.924 -17.429  1.00  0.00     0.293 HD
ENDBRANCH   2  22
BRANCH   6  24
ATOM     24  O   UNL     1      -1.193 -43.293 -22.363  1.00  0.00    -0.507 OA
ATOM     25  H   UNL     1      -1.021 -42.776 -21.514  1.00  0.00     0.293 HD
ENDBRANCH   6  24
BRANCH   8  26
ATOM     26  O   UNL     1      -2.517 -47.006 -25.073  1.00  0.00    -0.508 OA
ATOM     27  H   UNL     1      -3.281 -47.669 -25.122  1.00  0.00     0.293 HD
ENDBRANCH   8  26
TORSDOF 6
ENDMDL
MODEL 7
REMARK VINA RESULT:    -6.683      2.920      4.462
REMARK INTER + INTRA:          -8.115
REMARK INTER:                  -7.792
REMARK INTRA:                  -0.323
REMARK UNBOUND:                -0.064
REMARK SMILES O=c1c(O)c(-c2ccc(O)c(O)c2)oc2cc(O)cc(O)c12
REMARK SMILES IDX 5 1 3 2 2 3 1 4 22 5 20 6 19 7 17 8 16 9 15 10 14 11 6 12
REMARK SMILES IDX 7 13 8 14 9 15 13 16 11 17 10 18 12 20 4 22 21 24 18 26
REMARK H PARENT 10 19 12 21 4 23 21 25 18 27
REMARK Flexibility Score: inf
ROOT
ATOM      1  C   UNL     1     -13.362 -39.545 -19.465  1.00  0.00     0.180 A 
ATOM      2  C   UNL     1     -12.039 -40.005 -19.352  1.00  0.00     0.208 A 
ATOM      3  C   UNL     1     -11.116 -39.677 -20.358  1.00  0.00     0.238 A 
ATOM      4  O   UNL     1      -9.917 -40.027 -20.213  1.00  0.00    -0.285 OA
ATOM      5  C   UNL     1     -11.540 -38.943 -21.493  1.00  0.00     0.111 A 
ATOM      6  C   UNL     1     -10.702 -38.594 -22.595  1.00  0.00     0.134 A 
ATOM      7  C   UNL     1     -11.205 -37.774 -23.613  1.00  0.00     0.093 A 
ATOM      8  C   UNL     1     -12.531 -37.343 -23.602  1.00  0.00     0.123 A 
ATOM      9  C   UNL     1     -13.375 -37.724 -22.558  1.00  0.00     0.094 A 
ATOM     10  C   UNL     1     -12.892 -38.510 -21.509  1.00  0.00     0.146 A 
ATOM     11  O   UNL     1     -13.723 -38.831 -20.524  1.00  0.00    -0.452 OA
ENDROOT
BRANCH   1  12
ATOM     12  C   UNL     1     -14.389 -39.836 -18.438  1.00  0.00     0.025 A 
ATOM     13  C   UNL     1     -15.198 -40.983 -18.517  1.00  0.00     0.016 A 
ATOM     14  C   UNL     1     -16.144 -41.249 -17.523  1.00  0.00     0.051 A 
ATOM     15  C   UNL     1     -16.285 -40.384 -16.430  1.00  0.00     0.157 A 
ATOM     16  C   UNL     1     -14.518 -38.983 -17.330  1.00  0.00     0.062 A 
ATOM     17  C   UNL     1     -15.464 -39.247 -16.333  1.00  0.00     0.158 A 
BRANCH  15  18
ATOM     18  O   UNL     1     -17.230 -40.652 -15.441  1.00  0.00    -0.504 OA
ATOM     19  H   UNL     1     -17.158 -40.248 -14.515  1.00  0.00     0.293 HD
ENDBRANCH  15  18
BRANCH  17  20
ATOM     20  O   UNL     1     -15.574 -38.370 -15.254  1.00  0.00    -0.504 OA
ATOM     21  H   UNL     1     -15.447 -38.677 -14.296  1.00  0.00     0.293 HD
ENDBRANCH  17  20
ENDBRANCH   1  12
BRANCH   2  22
ATOM     22  O   UNL     1     -11.658 -40.792 -18.262  1.00  0.00    -0.502 OA
ATOM     23  H   UNL     1     -10.865 -41.421 -18.297  1.00  0.00     0.293 HD
ENDBRANCH   2  22
BRANCH   6  24
ATOM     24  O   UNL     1      -9.387 -39.042 -22.752  1.00  0.00    -0.507 OA
ATOM     25  H   UNL     1      -8.934 -39.723 -22.161  1.00  0.00     0.293 HD
ENDBRANCH   6  24
BRANCH   8  26
ATOM     26  O   UNL     1     -13.002 -36.543 -24.640  1.00  0.00    -0.508 OA
ATOM     27  H   UNL     1     -13.942 -36.646 -25.005  1.00  0.00     0.293 HD
ENDBRANCH   8  26
TORSDOF 6
ENDMDL
MODEL 8
REMARK VINA RESULT:    -6.661      2.686      5.864
REMARK INTER + INTRA:          -8.088
REMARK INTER:                  -7.819
REMARK INTRA:                  -0.268
REMARK UNBOUND:                -0.064
REMARK SMILES O=c1c(O)c(-c2ccc(O)c(O)c2)oc2cc(O)cc(O)c12
REMARK SMILES IDX 5 1 3 2 2 3 1 4 22 5 20 6 19 7 17 8 16 9 15 10 14 11 6 12
REMARK SMILES IDX 7 13 8 14 9 15 13 16 11 17 10 18 12 20 4 22 21 24 18 26
REMARK H PARENT 10 19 12 21 4 23 21 25 18 27
REMARK Flexibility Score: inf
ROOT
ATOM      1  C   UNL     1     -12.011 -39.038 -19.684  1.00  0.00     0.180 A 
ATOM      2  C   UNL     1     -11.813 -39.236 -18.307  1.00  0.00     0.208 A 
ATOM      3  C   UNL     1     -12.854 -39.783 -17.541  1.00  0.00     0.238 A 
ATOM      4  O   UNL     1     -12.645 -40.028 -16.325  1.00  0.00    -0.285 OA
ATOM      5  C   UNL     1     -14.101 -40.070 -18.149  1.00  0.00     0.111 A 
ATOM      6  C   UNL     1     -15.242 -40.584 -17.461  1.00  0.00     0.134 A 
ATOM      7  C   UNL     1     -16.389 -40.931 -18.186  1.00  0.00     0.093 A 
ATOM      8  C   UNL     1     -16.460 -40.724 -19.564  1.00  0.00     0.123 A 
ATOM      9  C   UNL     1     -15.371 -40.171 -20.238  1.00  0.00     0.094 A 
ATOM     10  C   UNL     1     -14.199 -39.850 -19.549  1.00  0.00     0.146 A 
ATOM     11  O   UNL     1     -13.179 -39.347 -20.233  1.00  0.00    -0.452 OA
ENDROOT
BRANCH   1  12
ATOM     12  C   UNL     1     -10.955 -38.480 -20.561  1.00  0.00     0.025 A 
ATOM     13  C   UNL     1     -10.979 -37.136 -20.971  1.00  0.00     0.016 A 
ATOM     14  C   UNL     1      -9.958 -36.626 -21.778  1.00  0.00     0.051 A 
ATOM     15  C   UNL     1      -8.894 -37.446 -22.175  1.00  0.00     0.157 A 
ATOM     16  C   UNL     1      -9.875 -39.292 -20.943  1.00  0.00     0.062 A 
ATOM     17  C   UNL     1      -8.851 -38.785 -21.751  1.00  0.00     0.158 A 
BRANCH  15  18
ATOM     18  O   UNL     1      -7.878 -36.934 -22.982  1.00  0.00    -0.504 OA
ATOM     19  H   UNL     1      -7.839 -37.132 -23.975  1.00  0.00     0.293 HD
ENDBRANCH  15  18
BRANCH  17  20
ATOM     20  O   UNL     1      -7.802 -39.625 -22.122  1.00  0.00    -0.504 OA
ATOM     21  H   UNL     1      -7.737 -40.582 -21.794  1.00  0.00     0.293 HD
ENDBRANCH  17  20
ENDBRANCH   1  12
BRANCH   2  22
ATOM     22  O   UNL     1     -10.602 -38.875 -17.711  1.00  0.00    -0.502 OA
ATOM     23  H   UNL     1     -10.383 -37.918 -17.459  1.00  0.00     0.293 HD
ENDBRANCH   2  22
BRANCH   6  24
ATOM     24  O   UNL     1     -15.312 -40.749 -16.074  1.00  0.00    -0.507 OA
ATOM     25  H   UNL     1     -14.723 -40.275 -15.405  1.00  0.00     0.293 HD
ENDBRANCH   6  24
BRANCH   8  26
ATOM     26  O   UNL     1     -17.623 -41.064 -20.250  1.00  0.00    -0.508 OA
ATOM     27  H   UNL     1     -18.263 -40.357 -20.592  1.00  0.00     0.293 HD
ENDBRANCH   8  26
TORSDOF 6
ENDMDL
MODEL 9
REMARK VINA RESULT:    -6.627      3.259      5.609
REMARK INTER + INTRA:          -8.047
REMARK INTER:                  -7.784
REMARK INTRA:                  -0.263
REMARK UNBOUND:                -0.064
REMARK SMILES O=c1c(O)c(-c2ccc(O)c(O)c2)oc2cc(O)cc(O)c12
REMARK SMILES IDX 5 1 3 2 2 3 1 4 22 5 20 6 19 7 17 8 16 9 15 10 14 11 6 12
REMARK SMILES IDX 7 13 8 14 9 15 13 16 11 17 10 18 12 20 4 22 21 24 18 26
REMARK H PARENT 10 19 12 21 4 23 21 25 18 27
REMARK Flexibility Score: inf
ROOT
ATOM      1  C   UNL     1     -11.529 -39.617 -20.115  1.00  0.00     0.180 A 
ATOM      2  C   UNL     1     -10.849 -38.566 -20.753  1.00  0.00     0.208 A 
ATOM      3  C   UNL     1     -10.070 -38.847 -21.886  1.00  0.00     0.238 A 
ATOM      4  O   UNL     1      -9.526 -37.891 -22.497  1.00  0.00    -0.285 OA
ATOM      5  C   UNL     1      -9.934 -40.184 -22.334  1.00  0.00     0.111 A 
ATOM      6  C   UNL     1      -9.134 -40.591 -23.445  1.00  0.00     0.134 A 
ATOM      7  C   UNL     1      -9.161 -41.928 -23.862  1.00  0.00     0.093 A 
ATOM      8  C   UNL     1      -9.906 -42.884 -23.172  1.00  0.00     0.123 A 
ATOM      9  C   UNL     1     -10.648 -42.508 -22.052  1.00  0.00     0.094 A 
ATOM     10  C   UNL     1     -10.672 -41.175 -21.634  1.00  0.00     0.146 A 
ATOM     11  O   UNL     1     -11.409 -40.856 -20.577  1.00  0.00    -0.452 OA
ENDROOT
BRANCH   1  12
ATOM     12  C   UNL     1     -12.381 -39.397 -18.923  1.00  0.00     0.025 A 
ATOM     13  C   UNL     1     -11.932 -39.725 -17.632  1.00  0.00     0.016 A 
ATOM     14  C   UNL     1     -12.746 -39.485 -16.521  1.00  0.00     0.051 A 
ATOM     15  C   UNL     1     -14.010 -38.904 -16.680  1.00  0.00     0.157 A 
ATOM     16  C   UNL     1     -13.641 -38.795 -19.077  1.00  0.00     0.062 A 
ATOM     17  C   UNL     1     -14.457 -38.555 -17.966  1.00  0.00     0.158 A 
BRANCH  15  18
ATOM     18  O   UNL     1     -14.818 -38.669 -15.570  1.00  0.00    -0.504 OA
ATOM     19  H   UNL     1     -14.430 -38.590 -14.638  1.00  0.00     0.293 HD
ENDBRANCH  15  18
BRANCH  17  20
ATOM     20  O   UNL     1     -15.707 -37.968 -18.159  1.00  0.00    -0.504 OA
ATOM     21  H   UNL     1     -16.464 -38.082 -17.494  1.00  0.00     0.293 HD
ENDBRANCH  17  20
ENDBRANCH   1  12
BRANCH   2  22
ATOM     22  O   UNL     1     -10.934 -37.265 -20.250  1.00  0.00    -0.502 OA
ATOM     23  H   UNL     1     -10.590 -37.013 -19.331  1.00  0.00     0.293 HD
ENDBRANCH   2  22
BRANCH   6  24
ATOM     24  O   UNL     1      -8.284 -39.737 -24.153  1.00  0.00    -0.507 OA
ATOM     25  H   UNL     1      -7.904 -39.928 -25.068  1.00  0.00     0.293 HD
ENDBRANCH   6  24
BRANCH   8  26
ATOM     26  O   UNL     1      -9.894 -44.208 -23.605  1.00  0.00    -0.508 OA
ATOM     27  H   UNL     1      -9.035 -44.742 -23.653  1.00  0.00     0.293 HD
ENDBRANCH   8  26
TORSDOF 6
ENDMDL
