MODEL 1
REMARK VINA RESULT:     1.447      0.000      0.000
REMARK INTER + INTRA:           1.789
REMARK INTER:                   2.124
REMARK INTRA:                  -0.336
REMARK UNBOUND:                -0.336
REMARK SMILES O=C([O-])CCCCCCCC(=O)[O-]
REMARK SMILES IDX 7 1 6 2 5 3 4 4 2 5 1 6 3 7 8 8 9 9 10 10 11 11 12 12 13 13
REMARK H PARENT
REMARK Flexibility Score: inf
ROOT
ATOM      1  C   UNL     1      68.680  75.774  95.931  1.00  0.00     0.000 C 
ENDROOT
BRANCH   1   2
ATOM      2  C   UNL     1      68.194  77.025  95.183  1.00  0.00     0.000 C 
BRANCH   2   3
ATOM      3  C   UNL     1      67.875  76.743  93.706  1.00  0.00     0.006 C 
BRANCH   3   4
ATOM      4  C   UNL     1      68.708  75.591  93.130  1.00  0.00     0.053 C 
BRANCH   4   5
ATOM      5  C   UNL     1      68.489  75.475  91.655  1.00  0.00     0.041 C 
ATOM      6  O   UNL     1      67.997  76.438  91.010  1.00  0.00    -0.550 OA
ATOM      7  O   UNL     1      68.781  74.285  90.999  1.00  0.00    -0.550 OA
ENDBRANCH   4   5
ENDBRANCH   3   4
ENDBRANCH   2   3
ENDBRANCH   1   2
BRANCH   1   8
ATOM      8  C   UNL     1      68.339  75.862  97.423  1.00  0.00     0.000 C 
BRANCH   8   9
ATOM      9  C   UNL     1      67.892  77.278  97.804  1.00  0.00     0.006 C 
BRANCH   9  10
ATOM     10  C   UNL     1      68.695  77.807  98.996  1.00  0.00     0.053 C 
BRANCH  10  11
ATOM     11  C   UNL     1      68.565  79.294  99.098  1.00  0.00     0.041 C 
ATOM     12  O   UNL     1      68.323  79.979  98.070  1.00  0.00    -0.550 OA
ATOM     13  O   UNL     1      68.662  79.917 100.335  1.00  0.00    -0.550 OA
ENDBRANCH  10  11
ENDBRANCH   9  10
ENDBRANCH   8   9
ENDBRANCH   1   8
TORSDOF 8
ENDMDL
MODEL 2
REMARK VINA RESULT:     2.927     15.032     16.770
REMARK INTER + INTRA:           3.960
REMARK INTER:                   3.450
REMARK INTRA:                   0.509
REMARK UNBOUND:                -0.336
REMARK SMILES O=C([O-])CCCCCCCC(=O)[O-]
REMARK SMILES IDX 7 1 6 2 5 3 4 4 2 5 1 6 3 7 8 8 9 9 10 10 11 11 12 12 13 13
REMARK H PARENT
REMARK Flexibility Score: inf
ROOT
ATOM      1  C   UNL     1      75.373  62.939  99.361  1.00  0.00     0.000 C 
ENDROOT
BRANCH   1   2
ATOM      2  C   UNL     1      75.388  62.201  98.013  1.00  0.00     0.000 C 
BRANCH   2   3
ATOM      3  C   UNL     1      74.938  60.737  98.135  1.00  0.00     0.006 C 
BRANCH   3   4
ATOM      4  C   UNL     1      75.252  59.915  96.877  1.00  0.00     0.053 C 
BRANCH   4   5
ATOM      5  C   UNL     1      76.695  60.055  96.509  1.00  0.00     0.041 C 
ATOM      6  O   UNL     1      77.587  59.949  97.392  1.00  0.00    -0.550 OA
ATOM      7  O   UNL     1      77.054  60.352  95.200  1.00  0.00    -0.550 OA
ENDBRANCH   4   5
ENDBRANCH   3   4
ENDBRANCH   2   3
ENDBRANCH   1   2
BRANCH   1   8
ATOM      8  C   UNL     1      74.602  64.259  99.255  1.00  0.00     0.000 C 
BRANCH   8   9
ATOM      9  C   UNL     1      73.816  64.334  97.940  1.00  0.00     0.006 C 
BRANCH   9  10
ATOM     10  C   UNL     1      74.642  65.010  96.842  1.00  0.00     0.053 C 
BRANCH  10  11
ATOM     11  C   UNL     1      74.817  64.090  95.675  1.00  0.00     0.041 C 
ATOM     12  O   UNL     1      73.811  63.671  95.045  1.00  0.00    -0.550 OA
ATOM     13  O   UNL     1      76.091  63.736  95.254  1.00  0.00    -0.550 OA
ENDBRANCH  10  11
ENDBRANCH   9  10
ENDBRANCH   8   9
ENDBRANCH   1   8
TORSDOF 8
ENDMDL
MODEL 3
REMARK VINA RESULT:     3.193     15.000     16.923
REMARK INTER + INTRA:           4.350
REMARK INTER:                   3.690
REMARK INTRA:                   0.660
REMARK UNBOUND:                -0.336
REMARK SMILES O=C([O-])CCCCCCCC(=O)[O-]
REMARK SMILES IDX 7 1 6 2 5 3 4 4 2 5 1 6 3 7 8 8 9 9 10 10 11 11 12 12 13 13
REMARK H PARENT
REMARK Flexibility Score: inf
ROOT
ATOM      1  C   UNL     1      75.748  63.243  99.054  1.00  0.00     0.000 C 
ENDROOT
BRANCH   1   2
ATOM      2  C   UNL     1      74.256  63.604  99.119  1.00  0.00     0.000 C 
BRANCH   2   3
ATOM      3  C   UNL     1      73.881  64.744  98.159  1.00  0.00     0.006 C 
BRANCH   3   4
ATOM      4  C   UNL     1      74.967  65.015  97.109  1.00  0.00     0.053 C 
BRANCH   4   5
ATOM      5  C   UNL     1      74.761  64.146  95.910  1.00  0.00     0.041 C 
ATOM      6  O   UNL     1      73.665  63.550  95.739  1.00  0.00    -0.550 OA
ATOM      7  O   UNL     1      75.797  63.952  95.005  1.00  0.00    -0.550 OA
ENDBRANCH   4   5
ENDBRANCH   3   4
ENDBRANCH   2   3
ENDBRANCH   1   2
BRANCH   1   8
ATOM      8  C   UNL     1      76.008  62.180  97.980  1.00  0.00     0.000 C 
BRANCH   8   9
ATOM      9  C   UNL     1      74.956  61.065  98.042  1.00  0.00     0.006 C 
BRANCH   9  10
ATOM     10  C   UNL     1      75.225  59.995  96.980  1.00  0.00     0.053 C 
BRANCH  10  11
ATOM     11  C   UNL     1      76.628  60.104  96.471  1.00  0.00     0.041 C 
ATOM     12  O   UNL     1      77.599  59.879  97.240  1.00  0.00    -0.550 OA
ATOM     13  O   UNL     1      76.861  60.405  95.136  1.00  0.00    -0.550 OA
ENDBRANCH  10  11
ENDBRANCH   9  10
ENDBRANCH   8   9
ENDBRANCH   1   8
TORSDOF 8
ENDMDL
MODEL 4
REMARK VINA RESULT:     3.610     15.410     16.744
REMARK INTER + INTRA:           4.963
REMARK INTER:                   3.751
REMARK INTRA:                   1.212
REMARK UNBOUND:                -0.336
REMARK SMILES O=C([O-])CCCCCCCC(=O)[O-]
REMARK SMILES IDX 7 1 6 2 5 3 4 4 2 5 1 6 3 7 8 8 9 9 10 10 11 11 12 12 13 13
REMARK H PARENT
REMARK Flexibility Score: inf
ROOT
ATOM      1  C   UNL     1      75.697  62.431  97.477  1.00  0.00     0.000 C 
ENDROOT
BRANCH   1   2
ATOM      2  C   UNL     1      75.018  61.165  98.021  1.00  0.00     0.000 C 
BRANCH   2   3
ATOM      3  C   UNL     1      75.481  59.889  97.299  1.00  0.00     0.006 C 
BRANCH   3   4
ATOM      4  C   UNL     1      76.983  59.899  96.985  1.00  0.00     0.053 C 
BRANCH   4   5
ATOM      5  C   UNL     1      77.209  60.141  95.526  1.00  0.00     0.041 C 
ATOM      6  O   UNL     1      78.350  59.964  95.024  1.00  0.00    -0.550 OA
ATOM      7  O   UNL     1      76.172  60.608  94.729  1.00  0.00    -0.550 OA
ENDBRANCH   4   5
ENDBRANCH   3   4
ENDBRANCH   2   3
ENDBRANCH   1   2
BRANCH   1   8
ATOM      8  C   UNL     1      75.028  62.897  96.178  1.00  0.00     0.000 C 
BRANCH   8   9
ATOM      9  C   UNL     1      74.442  64.305  96.334  1.00  0.00     0.006 C 
BRANCH   9  10
ATOM     10  C   UNL     1      74.920  64.959  97.634  1.00  0.00     0.053 C 
BRANCH  10  11
ATOM     11  C   UNL     1      74.171  64.407  98.805  1.00  0.00     0.041 C 
ATOM     12  O   UNL     1      74.782  64.116  99.867  1.00  0.00    -0.550 OA
ATOM     13  O   UNL     1      72.792  64.259  98.741  1.00  0.00    -0.550 OA
ENDBRANCH  10  11
ENDBRANCH   9  10
ENDBRANCH   8   9
ENDBRANCH   1   8
TORSDOF 8
ENDMDL
MODEL 5
REMARK VINA RESULT:     3.636      3.452      7.823
REMARK INTER + INTRA:           5.001
REMARK INTER:                   5.427
REMARK INTRA:                  -0.426
REMARK UNBOUND:                -0.336
REMARK SMILES O=C([O-])CCCCCCCC(=O)[O-]
REMARK SMILES IDX 7 1 6 2 5 3 4 4 2 5 1 6 3 7 8 8 9 9 10 10 11 11 12 12 13 13
REMARK H PARENT
REMARK Flexibility Score: inf
ROOT
ATOM      1  C   UNL     1      68.978  79.314  99.526  1.00  0.00     0.000 C 
ENDROOT
BRANCH   1   2
ATOM      2  C   UNL     1      68.451  80.125 100.720  1.00  0.00     0.000 C 
BRANCH   2   3
ATOM      3  C   UNL     1      68.807  79.486 102.072  1.00  0.00     0.006 C 
BRANCH   3   4
ATOM      4  C   UNL     1      68.290  78.047 102.200  1.00  0.00     0.053 C 
BRANCH   4   5
ATOM      5  C   UNL     1      68.960  77.352 103.342  1.00  0.00     0.041 C 
ATOM      6  O   UNL     1      69.730  77.989 104.108  1.00  0.00    -0.550 OA
ATOM      7  O   UNL     1      68.776  75.988 103.532  1.00  0.00    -0.550 OA
ENDBRANCH   4   5
ENDBRANCH   3   4
ENDBRANCH   2   3
ENDBRANCH   1   2
BRANCH   1   8
ATOM      8  C   UNL     1      68.327  79.780  98.218  1.00  0.00     0.000 C 
BRANCH   8   9
ATOM      9  C   UNL     1      67.884  78.584  97.366  1.00  0.00     0.006 C 
BRANCH   9  10
ATOM     10  C   UNL     1      68.214  77.260  98.063  1.00  0.00     0.053 C 
BRANCH  10  11
ATOM     11  C   UNL     1      68.195  76.132  97.080  1.00  0.00     0.041 C 
ATOM     12  O   UNL     1      68.183  76.370  95.844  1.00  0.00    -0.550 OA
ATOM     13  O   UNL     1      68.239  74.819  97.529  1.00  0.00    -0.550 OA
ENDBRANCH  10  11
ENDBRANCH   9  10
ENDBRANCH   8   9
ENDBRANCH   1   8
TORSDOF 8
ENDMDL
MODEL 6
REMARK VINA RESULT:     3.748      1.701      2.218
REMARK INTER + INTRA:           5.165
REMARK INTER:                   4.617
REMARK INTRA:                   0.549
REMARK UNBOUND:                -0.336
REMARK SMILES O=C([O-])CCCCCCCC(=O)[O-]
REMARK SMILES IDX 7 1 6 2 5 3 4 4 2 5 1 6 3 7 8 8 9 9 10 10 11 11 12 12 13 13
REMARK H PARENT
REMARK Flexibility Score: inf
ROOT
ATOM      1  C   UNL     1      67.875  77.146  94.419  1.00  0.00     0.000 C 
ENDROOT
BRANCH   1   2
ATOM      2  C   UNL     1      68.763  76.605  93.288  1.00  0.00     0.000 C 
BRANCH   2   3
ATOM      3  C   UNL     1      68.106  76.740  91.905  1.00  0.00     0.006 C 
BRANCH   3   4
ATOM      4  C   UNL     1      68.615  75.695  90.904  1.00  0.00     0.053 C 
BRANCH   4   5
ATOM      5  C   UNL     1      69.115  74.483  91.624  1.00  0.00     0.041 C 
ATOM      6  O   UNL     1      68.516  73.381  91.502  1.00  0.00    -0.550 OA
ATOM      7  O   UNL     1      70.213  74.579  92.469  1.00  0.00    -0.550 OA
ENDBRANCH   4   5
ENDBRANCH   3   4
ENDBRANCH   2   3
ENDBRANCH   1   2
BRANCH   1   8
ATOM      8  C   UNL     1      68.328  78.546  94.848  1.00  0.00     0.000 C 
BRANCH   8   9
ATOM      9  C   UNL     1      67.875  78.857  96.280  1.00  0.00     0.006 C 
BRANCH   9  10
ATOM     10  C   UNL     1      69.073  78.930  97.232  1.00  0.00     0.053 C 
BRANCH  10  11
ATOM     11  C   UNL     1      68.611  78.944  98.655  1.00  0.00     0.041 C 
ATOM     12  O   UNL     1      68.729  77.913  99.369  1.00  0.00    -0.550 OA
ATOM     13  O   UNL     1      68.095  80.108  99.207  1.00  0.00    -0.550 OA
ENDBRANCH  10  11
ENDBRANCH   9  10
ENDBRANCH   8   9
ENDBRANCH   1   8
TORSDOF 8
ENDMDL
MODEL 7
REMARK VINA RESULT:     4.325     15.375     17.307
REMARK INTER + INTRA:           6.012
REMARK INTER:                   5.329
REMARK INTRA:                   0.683
REMARK UNBOUND:                -0.336
REMARK SMILES O=C([O-])CCCCCCCC(=O)[O-]
REMARK SMILES IDX 7 1 6 2 5 3 4 4 2 5 1 6 3 7 8 8 9 9 10 10 11 11 12 12 13 13
REMARK H PARENT
REMARK Flexibility Score: inf
ROOT
ATOM      1  C   UNL     1      75.315  63.650  95.327  1.00  0.00     0.000 C 
ENDROOT
BRANCH   1   2
ATOM      2  C   UNL     1      74.122  63.972  96.240  1.00  0.00     0.000 C 
BRANCH   2   3
ATOM      3  C   UNL     1      74.421  65.113  97.225  1.00  0.00     0.006 C 
BRANCH   3   4
ATOM      4  C   UNL     1      74.248  64.690  98.690  1.00  0.00     0.053 C 
BRANCH   4   5
ATOM      5  C   UNL     1      75.227  63.616  99.042  1.00  0.00     0.041 C 
ATOM      6  O   UNL     1      74.902  62.700  99.843  1.00  0.00    -0.550 OA
ATOM      7  O   UNL     1      76.516  63.652  98.525  1.00  0.00    -0.550 OA
ENDBRANCH   4   5
ENDBRANCH   3   4
ENDBRANCH   2   3
ENDBRANCH   1   2
BRANCH   1   8
ATOM      8  C   UNL     1      75.820  62.223  95.567  1.00  0.00     0.000 C 
BRANCH   8   9
ATOM      9  C   UNL     1      75.087  61.570  96.745  1.00  0.00     0.006 C 
BRANCH   9  10
ATOM     10  C   UNL     1      75.541  60.121  96.940  1.00  0.00     0.053 C 
BRANCH  10  11
ATOM     11  C   UNL     1      77.002  59.986  96.651  1.00  0.00     0.041 C 
ATOM     12  O   UNL     1      77.405  59.878  95.463  1.00  0.00    -0.550 OA
ATOM     13  O   UNL     1      77.923  60.027  97.690  1.00  0.00    -0.550 OA
ENDBRANCH  10  11
ENDBRANCH   9  10
ENDBRANCH   8   9
ENDBRANCH   1   8
TORSDOF 8
ENDMDL
