MODEL 1
REMARK VINA RESULT:    -5.790      0.000      0.000
REMARK INTER + INTRA:         -12.622
REMARK INTER:                 -10.528
REMARK INTRA:                  -2.094
REMARK UNBOUND:                -2.094
REMARK SMILES CCCCCC=CCC=CCCCCCCCC(=O)[O-]
REMARK SMILES IDX 11 1 12 2 13 3 14 4 15 5 16 6 17 7 18 8 19 9 20 10 10 11
REMARK SMILES IDX 9 12 8 13 7 14 6 15 5 16 4 17 3 18 2 19 1 20
REMARK H PARENT
REMARK Flexibility Score: inf
ROOT
ATOM      1  C   UNL     1     -27.395  -1.521  21.083  1.00  0.00     0.027 C 
ENDROOT
BRANCH   1   2
ATOM      2  C   UNL     1     -28.577  -0.858  20.361  1.00  0.00     0.004 C 
BRANCH   2   3
ATOM      3  C   UNL     1     -29.576  -1.881  19.799  1.00  0.00     0.000 C 
BRANCH   3   4
ATOM      4  C   UNL     1     -29.003  -2.678  18.613  1.00  0.00     0.000 C 
BRANCH   4   5
ATOM      5  C   UNL     1     -28.129  -1.815  17.690  1.00  0.00     0.000 C 
BRANCH   5   6
ATOM      6  C   UNL     1     -28.245  -2.227  16.212  1.00  0.00     0.006 C 
BRANCH   6   7
ATOM      7  C   UNL     1     -28.739  -3.671  16.050  1.00  0.00     0.053 C 
BRANCH   7   8
ATOM      8  C   UNL     1     -28.289  -4.272  14.753  1.00  0.00     0.041 C 
ATOM      9  O   UNL     1     -27.188  -3.933  14.245  1.00  0.00    -0.550 OA
ATOM     10  O   UNL     1     -29.103  -5.181  14.088  1.00  0.00    -0.550 OA
ENDBRANCH   7   8
ENDBRANCH   6   7
ENDBRANCH   5   6
ENDBRANCH   4   5
ENDBRANCH   3   4
ENDBRANCH   2   3
ENDBRANCH   1   2
BRANCH   1  11
ATOM     11  C   UNL     1     -27.321  -1.080  22.520  1.00  0.00    -0.031 C 
ATOM     12  C   UNL     1     -27.319   0.222  22.837  1.00  0.00    -0.027 C 
BRANCH  12  13
ATOM     13  C   UNL     1     -27.251   0.689  24.264  1.00  0.00     0.054 C 
BRANCH  13  14
ATOM     14  C   UNL     1     -27.377  -0.479  25.209  1.00  0.00    -0.027 C 
ATOM     15  C   UNL     1     -28.413  -0.705  26.041  1.00  0.00    -0.031 C 
BRANCH  15  16
ATOM     16  C   UNL     1     -29.606   0.200  26.229  1.00  0.00     0.027 C 
BRANCH  16  17
ATOM     17  C   UNL     1     -30.827  -0.299  25.445  1.00  0.00     0.004 C 
BRANCH  17  18
ATOM     18  C   UNL     1     -30.845   0.217  23.999  1.00  0.00     0.000 C 
BRANCH  18  19
ATOM     19  C   UNL     1     -31.168  -0.914  23.017  1.00  0.00    -0.003 C 
ATOM     20  C   UNL     1     -30.795  -2.273  23.602  1.00  0.00     0.004 C 
ENDBRANCH  18  19
ENDBRANCH  17  18
ENDBRANCH  16  17
ENDBRANCH  15  16
ENDBRANCH  13  14
ENDBRANCH  12  13
ENDBRANCH   1  11
TORSDOF 14
ENDMDL
MODEL 2
REMARK VINA RESULT:    -5.768      7.529     11.627
REMARK INTER + INTRA:         -12.583
REMARK INTER:                 -10.794
REMARK INTRA:                  -1.789
REMARK UNBOUND:                -2.094
REMARK SMILES CCCCCC=CCC=CCCCCCCCC(=O)[O-]
REMARK SMILES IDX 11 1 12 2 13 3 14 4 15 5 16 6 17 7 18 8 19 9 20 10 10 11
REMARK SMILES IDX 9 12 8 13 7 14 6 15 5 16 4 17 3 18 2 19 1 20
REMARK H PARENT
REMARK Flexibility Score: inf
ROOT
ATOM      1  C   UNL     1     -30.148   1.158  28.049  1.00  0.00     0.027 C 
ENDROOT
BRANCH   1   2
ATOM      2  C   UNL     1     -29.234   0.879  29.251  1.00  0.00     0.004 C 
BRANCH   2   3
ATOM      3  C   UNL     1     -29.722   1.564  30.537  1.00  0.00     0.000 C 
BRANCH   3   4
ATOM      4  C   UNL     1     -28.705   1.455  31.687  1.00  0.00     0.000 C 
BRANCH   4   5
ATOM      5  C   UNL     1     -29.326   1.769  33.057  1.00  0.00     0.000 C 
BRANCH   5   6
ATOM      6  C   UNL     1     -29.937   3.179  33.119  1.00  0.00     0.006 C 
BRANCH   6   7
ATOM      7  C   UNL     1     -31.308   3.187  33.809  1.00  0.00     0.053 C 
BRANCH   7   8
ATOM      8  C   UNL     1     -32.285   2.285  33.119  1.00  0.00     0.041 C 
ATOM      9  O   UNL     1     -32.771   2.612  32.003  1.00  0.00    -0.550 OA
ATOM     10  O   UNL     1     -32.686   1.100  33.723  1.00  0.00    -0.550 OA
ENDBRANCH   7   8
ENDBRANCH   6   7
ENDBRANCH   5   6
ENDBRANCH   4   5
ENDBRANCH   3   4
ENDBRANCH   2   3
ENDBRANCH   1   2
BRANCH   1  11
ATOM     11  C   UNL     1     -29.535   0.650  26.772  1.00  0.00    -0.031 C 
ATOM     12  C   UNL     1     -28.705  -0.402  26.783  1.00  0.00    -0.027 C 
BRANCH  12  13
ATOM     13  C   UNL     1     -28.083  -0.933  25.522  1.00  0.00     0.054 C 
BRANCH  13  14
ATOM     14  C   UNL     1     -27.209   0.116  24.881  1.00  0.00    -0.027 C 
ATOM     15  C   UNL     1     -27.432   0.699  23.687  1.00  0.00    -0.031 C 
BRANCH  15  16
ATOM     16  C   UNL     1     -28.560   0.366  22.740  1.00  0.00     0.027 C 
BRANCH  16  17
ATOM     17  C   UNL     1     -29.807   1.215  23.022  1.00  0.00     0.004 C 
BRANCH  17  18
ATOM     18  C   UNL     1     -31.075   0.362  23.168  1.00  0.00     0.000 C 
BRANCH  18  19
ATOM     19  C   UNL     1     -30.764  -1.123  22.949  1.00  0.00    -0.003 C 
ATOM     20  C   UNL     1     -31.220  -1.962  24.140  1.00  0.00     0.004 C 
ENDBRANCH  18  19
ENDBRANCH  17  18
ENDBRANCH  16  17
ENDBRANCH  15  16
ENDBRANCH  13  14
ENDBRANCH  12  13
ENDBRANCH   1  11
TORSDOF 14
ENDMDL
MODEL 3
REMARK VINA RESULT:    -5.736      1.490      3.054
REMARK INTER + INTRA:         -12.524
REMARK INTER:                 -10.531
REMARK INTRA:                  -1.993
REMARK UNBOUND:                -2.094
REMARK SMILES CCCCCC=CCC=CCCCCCCCC(=O)[O-]
REMARK SMILES IDX 11 1 12 2 13 3 14 4 15 5 16 6 17 7 18 8 19 9 20 10 10 11
REMARK SMILES IDX 9 12 8 13 7 14 6 15 5 16 4 17 3 18 2 19 1 20
REMARK H PARENT
REMARK Flexibility Score: inf
ROOT
ATOM      1  C   UNL     1     -28.224  -2.201  20.589  1.00  0.00     0.027 C 
ENDROOT
BRANCH   1   2
ATOM      2  C   UNL     1     -28.358  -1.120  19.508  1.00  0.00     0.004 C 
BRANCH   2   3
ATOM      3  C   UNL     1     -28.198  -1.682  18.087  1.00  0.00     0.000 C 
BRANCH   3   4
ATOM      4  C   UNL     1     -28.959  -3.006  17.886  1.00  0.00     0.000 C 
BRANCH   4   5
ATOM      5  C   UNL     1     -28.710  -3.627  16.503  1.00  0.00     0.000 C 
BRANCH   5   6
ATOM      6  C   UNL     1     -28.816  -2.597  15.365  1.00  0.00     0.006 C 
BRANCH   6   7
ATOM      7  C   UNL     1     -27.859  -2.911  14.208  1.00  0.00     0.053 C 
BRANCH   7   8
ATOM      8  C   UNL     1     -26.624  -2.064  14.258  1.00  0.00     0.041 C 
ATOM      9  O   UNL     1     -26.717  -0.809  14.300  1.00  0.00    -0.550 OA
ATOM     10  O   UNL     1     -25.369  -2.660  14.225  1.00  0.00    -0.550 OA
ENDBRANCH   7   8
ENDBRANCH   6   7
ENDBRANCH   5   6
ENDBRANCH   4   5
ENDBRANCH   3   4
ENDBRANCH   2   3
ENDBRANCH   1   2
BRANCH   1  11
ATOM     11  C   UNL     1     -29.355  -2.123  21.578  1.00  0.00    -0.031 C 
ATOM     12  C   UNL     1     -29.953  -0.953  21.843  1.00  0.00    -0.027 C 
BRANCH  12  13
ATOM     13  C   UNL     1     -31.089  -0.848  22.822  1.00  0.00     0.054 C 
BRANCH  13  14
ATOM     14  C   UNL     1     -30.898   0.343  23.727  1.00  0.00    -0.027 C 
ATOM     15  C   UNL     1     -30.174   0.357  24.863  1.00  0.00    -0.031 C 
BRANCH  15  16
ATOM     16  C   UNL     1     -29.474  -0.833  25.476  1.00  0.00     0.027 C 
BRANCH  16  17
ATOM     17  C   UNL     1     -27.949  -0.661  25.465  1.00  0.00     0.004 C 
BRANCH  17  18
ATOM     18  C   UNL     1     -27.260  -1.618  24.482  1.00  0.00     0.000 C 
BRANCH  18  19
ATOM     19  C   UNL     1     -26.404  -0.843  23.474  1.00  0.00    -0.003 C 
ATOM     20  C   UNL     1     -26.767   0.638  23.467  1.00  0.00     0.004 C 
ENDBRANCH  18  19
ENDBRANCH  17  18
ENDBRANCH  16  17
ENDBRANCH  15  16
ENDBRANCH  13  14
ENDBRANCH  12  13
ENDBRANCH   1  11
TORSDOF 14
ENDMDL
MODEL 4
REMARK VINA RESULT:    -5.645      1.366      1.718
REMARK INTER + INTRA:         -12.359
REMARK INTER:                 -10.559
REMARK INTRA:                  -1.800
REMARK UNBOUND:                -2.094
REMARK SMILES CCCCCC=CCC=CCCCCCCCC(=O)[O-]
REMARK SMILES IDX 11 1 12 2 13 3 14 4 15 5 16 6 17 7 18 8 19 9 20 10 10 11
REMARK SMILES IDX 9 12 8 13 7 14 6 15 5 16 4 17 3 18 2 19 1 20
REMARK H PARENT
REMARK Flexibility Score: inf
ROOT
ATOM      1  C   UNL     1     -27.470  -1.494  20.644  1.00  0.00     0.027 C 
ENDROOT
BRANCH   1   2
ATOM      2  C   UNL     1     -28.565  -1.210  19.606  1.00  0.00     0.004 C 
BRANCH   2   3
ATOM      3  C   UNL     1     -28.908  -2.443  18.756  1.00  0.00     0.000 C 
BRANCH   3   4
ATOM      4  C   UNL     1     -28.400  -2.323  17.308  1.00  0.00     0.000 C 
BRANCH   4   5
ATOM      5  C   UNL     1     -29.017  -3.378  16.376  1.00  0.00     0.000 C 
BRANCH   5   6
ATOM      6  C   UNL     1     -28.602  -3.183  14.907  1.00  0.00     0.006 C 
BRANCH   6   7
ATOM      7  C   UNL     1     -27.208  -3.754  14.617  1.00  0.00     0.053 C 
BRANCH   7   8
ATOM      8  C   UNL     1     -26.212  -2.674  14.326  1.00  0.00     0.041 C 
ATOM      9  O   UNL     1     -26.582  -1.472  14.252  1.00  0.00    -0.550 OA
ATOM     10  O   UNL     1     -24.879  -2.998  14.103  1.00  0.00    -0.550 OA
ENDBRANCH   7   8
ENDBRANCH   6   7
ENDBRANCH   5   6
ENDBRANCH   4   5
ENDBRANCH   3   4
ENDBRANCH   2   3
ENDBRANCH   1   2
BRANCH   1  11
ATOM     11  C   UNL     1     -27.429  -0.420  21.697  1.00  0.00    -0.031 C 
ATOM     12  C   UNL     1     -27.112  -0.717  22.965  1.00  0.00    -0.027 C 
BRANCH  12  13
ATOM     13  C   UNL     1     -27.059   0.337  24.035  1.00  0.00     0.054 C 
BRANCH  13  14
ATOM     14  C   UNL     1     -27.455  -0.243  25.369  1.00  0.00    -0.027 C 
ATOM     15  C   UNL     1     -28.654  -0.090  25.966  1.00  0.00    -0.031 C 
BRANCH  15  16
ATOM     16  C   UNL     1     -29.798   0.745  25.443  1.00  0.00     0.027 C 
BRANCH  16  17
ATOM     17  C   UNL     1     -30.861  -0.118  24.752  1.00  0.00     0.004 C 
BRANCH  17  18
ATOM     18  C   UNL     1     -31.176   0.367  23.330  1.00  0.00     0.000 C 
BRANCH  18  19
ATOM     19  C   UNL     1     -30.922  -0.742  22.303  1.00  0.00    -0.003 C 
ATOM     20  C   UNL     1     -30.554  -2.054  22.990  1.00  0.00     0.004 C 
ENDBRANCH  18  19
ENDBRANCH  17  18
ENDBRANCH  16  17
ENDBRANCH  15  16
ENDBRANCH  13  14
ENDBRANCH  12  13
ENDBRANCH   1  11
TORSDOF 14
ENDMDL
MODEL 5
REMARK VINA RESULT:    -5.631      7.275     11.418
REMARK INTER + INTRA:         -12.334
REMARK INTER:                 -10.433
REMARK INTRA:                  -1.902
REMARK UNBOUND:                -2.094
REMARK SMILES CCCCCC=CCC=CCCCCCCCC(=O)[O-]
REMARK SMILES IDX 11 1 12 2 13 3 14 4 15 5 16 6 17 7 18 8 19 9 20 10 10 11
REMARK SMILES IDX 9 12 8 13 7 14 6 15 5 16 4 17 3 18 2 19 1 20
REMARK H PARENT
REMARK Flexibility Score: inf
ROOT
ATOM      1  C   UNL     1     -30.311   1.130  27.960  1.00  0.00     0.027 C 
ENDROOT
BRANCH   1   2
ATOM      2  C   UNL     1     -29.337   1.087  29.147  1.00  0.00     0.004 C 
BRANCH   2   3
ATOM      3  C   UNL     1     -30.044   1.280  30.497  1.00  0.00     0.000 C 
BRANCH   3   4
ATOM      4  C   UNL     1     -30.461   2.742  30.743  1.00  0.00     0.000 C 
BRANCH   4   5
ATOM      5  C   UNL     1     -30.973   2.978  32.172  1.00  0.00     0.000 C 
BRANCH   5   6
ATOM      6  C   UNL     1     -29.974   2.510  33.243  1.00  0.00     0.006 C 
BRANCH   6   7
ATOM      7  C   UNL     1     -28.682   3.339  33.233  1.00  0.00     0.053 C 
BRANCH   7   8
ATOM      8  C   UNL     1     -27.470   2.479  33.044  1.00  0.00     0.041 C 
ATOM      9  O   UNL     1     -26.331   3.006  32.927  1.00  0.00    -0.550 OA
ATOM     10  O   UNL     1     -27.600   1.099  32.963  1.00  0.00    -0.550 OA
ENDBRANCH   7   8
ENDBRANCH   6   7
ENDBRANCH   5   6
ENDBRANCH   4   5
ENDBRANCH   3   4
ENDBRANCH   2   3
ENDBRANCH   1   2
BRANCH   1  11
ATOM     11  C   UNL     1     -29.657   0.621  26.704  1.00  0.00    -0.031 C 
ATOM     12  C   UNL     1     -28.787  -0.398  26.749  1.00  0.00    -0.027 C 
BRANCH  12  13
ATOM     13  C   UNL     1     -28.124  -0.929  25.510  1.00  0.00     0.054 C 
BRANCH  13  14
ATOM     14  C   UNL     1     -27.256   0.131  24.879  1.00  0.00    -0.027 C 
ATOM     15  C   UNL     1     -27.461   0.697  23.674  1.00  0.00    -0.031 C 
BRANCH  15  16
ATOM     16  C   UNL     1     -28.557   0.330  22.702  1.00  0.00     0.027 C 
BRANCH  16  17
ATOM     17  C   UNL     1     -29.800   1.210  22.890  1.00  0.00     0.004 C 
BRANCH  17  18
ATOM     18  C   UNL     1     -31.033   0.399  23.311  1.00  0.00     0.000 C 
BRANCH  18  19
ATOM     19  C   UNL     1     -30.883  -1.073  22.912  1.00  0.00    -0.003 C 
ATOM     20  C   UNL     1     -31.267  -1.997  24.064  1.00  0.00     0.004 C 
ENDBRANCH  18  19
ENDBRANCH  17  18
ENDBRANCH  16  17
ENDBRANCH  15  16
ENDBRANCH  13  14
ENDBRANCH  12  13
ENDBRANCH   1  11
TORSDOF 14
ENDMDL
MODEL 6
REMARK VINA RESULT:    -5.621      3.511      8.376
REMARK INTER + INTRA:         -12.316
REMARK INTER:                 -10.793
REMARK INTRA:                  -1.523
REMARK UNBOUND:                -2.094
REMARK SMILES CCCCCC=CCC=CCCCCCCCC(=O)[O-]
REMARK SMILES IDX 11 1 12 2 13 3 14 4 15 5 16 6 17 7 18 8 19 9 20 10 10 11
REMARK SMILES IDX 9 12 8 13 7 14 6 15 5 16 4 17 3 18 2 19 1 20
REMARK H PARENT
REMARK Flexibility Score: inf
ROOT
ATOM      1  C   UNL     1     -28.274  -2.252  22.904  1.00  0.00     0.027 C 
ENDROOT
BRANCH   1   2
ATOM      2  C   UNL     1     -27.053  -1.391  23.261  1.00  0.00     0.004 C 
BRANCH   2   3
ATOM      3  C   UNL     1     -27.183  -0.724  24.639  1.00  0.00     0.000 C 
BRANCH   3   4
ATOM      4  C   UNL     1     -28.327  -1.321  25.479  1.00  0.00     0.000 C 
BRANCH   4   5
ATOM      5  C   UNL     1     -28.963  -0.293  26.427  1.00  0.00     0.000 C 
BRANCH   5   6
ATOM      6  C   UNL     1     -30.178   0.415  25.802  1.00  0.00     0.006 C 
BRANCH   6   7
ATOM      7  C   UNL     1     -30.779  -0.384  24.637  1.00  0.00     0.053 C 
BRANCH   7   8
ATOM      8  C   UNL     1     -30.838   0.424  23.378  1.00  0.00     0.041 C 
ATOM      9  O   UNL     1     -31.915   0.511  22.730  1.00  0.00    -0.550 OA
ATOM     10  O   UNL     1     -29.695   1.054  22.900  1.00  0.00    -0.550 OA
ENDBRANCH   7   8
ENDBRANCH   6   7
ENDBRANCH   5   6
ENDBRANCH   4   5
ENDBRANCH   3   4
ENDBRANCH   2   3
ENDBRANCH   1   2
BRANCH   1  11
ATOM     11  C   UNL     1     -28.564  -2.196  21.429  1.00  0.00    -0.031 C 
ATOM     12  C   UNL     1     -27.893  -1.354  20.631  1.00  0.00    -0.027 C 
BRANCH  12  13
ATOM     13  C   UNL     1     -28.159  -1.282  19.153  1.00  0.00     0.054 C 
BRANCH  13  14
ATOM     14  C   UNL     1     -28.859  -2.531  18.680  1.00  0.00    -0.027 C 
ATOM     15  C   UNL     1     -28.813  -3.028  17.428  1.00  0.00    -0.031 C 
BRANCH  15  16
ATOM     16  C   UNL     1     -28.109  -2.393  16.253  1.00  0.00     0.027 C 
BRANCH  16  17
ATOM     17  C   UNL     1     -28.667  -2.899  14.916  1.00  0.00     0.004 C 
BRANCH  17  18
ATOM     18  C   UNL     1     -28.699  -4.432  14.838  1.00  0.00     0.000 C 
BRANCH  18  19
ATOM     19  C   UNL     1     -29.871  -4.912  13.975  1.00  0.00    -0.003 C 
ATOM     20  C   UNL     1     -31.116  -4.064  14.217  1.00  0.00     0.004 C 
ENDBRANCH  18  19
ENDBRANCH  17  18
ENDBRANCH  16  17
ENDBRANCH  15  16
ENDBRANCH  13  14
ENDBRANCH  12  13
ENDBRANCH   1  11
TORSDOF 14
ENDMDL
MODEL 7
REMARK VINA RESULT:    -5.572      7.370     11.656
REMARK INTER + INTRA:         -12.226
REMARK INTER:                 -10.602
REMARK INTRA:                  -1.624
REMARK UNBOUND:                -2.094
REMARK SMILES CCCCCC=CCC=CCCCCCCCC(=O)[O-]
REMARK SMILES IDX 11 1 12 2 13 3 14 4 15 5 16 6 17 7 18 8 19 9 20 10 10 11
REMARK SMILES IDX 9 12 8 13 7 14 6 15 5 16 4 17 3 18 2 19 1 20
REMARK H PARENT
REMARK Flexibility Score: inf
ROOT
ATOM      1  C   UNL     1     -29.152   0.627  27.820  1.00  0.00     0.027 C 
ENDROOT
BRANCH   1   2
ATOM      2  C   UNL     1     -30.180   1.499  28.556  1.00  0.00     0.004 C 
BRANCH   2   3
ATOM      3  C   UNL     1     -29.985   1.483  30.080  1.00  0.00     0.000 C 
BRANCH   3   4
ATOM      4  C   UNL     1     -30.500   2.768  30.754  1.00  0.00     0.000 C 
BRANCH   4   5
ATOM      5  C   UNL     1     -31.364   2.481  31.992  1.00  0.00     0.000 C 
BRANCH   5   6
ATOM      6  C   UNL     1     -30.557   2.537  33.301  1.00  0.00     0.006 C 
BRANCH   6   7
ATOM      7  C   UNL     1     -29.227   3.284  33.131  1.00  0.00     0.053 C 
BRANCH   7   8
ATOM      8  C   UNL     1     -28.051   2.370  33.286  1.00  0.00     0.041 C 
ATOM      9  O   UNL     1     -28.222   1.124  33.374  1.00  0.00    -0.550 OA
ATOM     10  O   UNL     1     -26.767   2.894  33.369  1.00  0.00    -0.550 OA
ENDBRANCH   7   8
ENDBRANCH   6   7
ENDBRANCH   5   6
ENDBRANCH   4   5
ENDBRANCH   3   4
ENDBRANCH   2   3
ENDBRANCH   1   2
BRANCH   1  11
ATOM     11  C   UNL     1     -29.372   0.667  26.332  1.00  0.00    -0.031 C 
ATOM     12  C   UNL     1     -30.427   0.053  25.780  1.00  0.00    -0.027 C 
BRANCH  12  13
ATOM     13  C   UNL     1     -30.674   0.082  24.297  1.00  0.00     0.054 C 
BRANCH  13  14
ATOM     14  C   UNL     1     -31.225  -1.241  23.827  1.00  0.00    -0.027 C 
ATOM     15  C   UNL     1     -30.503  -2.249  23.302  1.00  0.00    -0.031 C 
BRANCH  15  16
ATOM     16  C   UNL     1     -29.018  -2.219  23.024  1.00  0.00     0.027 C 
BRANCH  16  17
ATOM     17  C   UNL     1     -28.198  -2.502  24.290  1.00  0.00     0.004 C 
BRANCH  17  18
ATOM     18  C   UNL     1     -27.005  -1.549  24.439  1.00  0.00     0.000 C 
BRANCH  18  19
ATOM     19  C   UNL     1     -26.873  -0.639  23.213  1.00  0.00    -0.003 C 
ATOM     20  C   UNL     1     -26.750   0.825  23.625  1.00  0.00     0.004 C 
ENDBRANCH  18  19
ENDBRANCH  17  18
ENDBRANCH  16  17
ENDBRANCH  15  16
ENDBRANCH  13  14
ENDBRANCH  12  13
ENDBRANCH   1  11
TORSDOF 14
ENDMDL
MODEL 8
REMARK VINA RESULT:    -5.559      7.180     11.127
REMARK INTER + INTRA:         -12.203
REMARK INTER:                 -10.416
REMARK INTRA:                  -1.787
REMARK UNBOUND:                -2.094
REMARK SMILES CCCCCC=CCC=CCCCCCCCC(=O)[O-]
REMARK SMILES IDX 11 1 12 2 13 3 14 4 15 5 16 6 17 7 18 8 19 9 20 10 10 11
REMARK SMILES IDX 9 12 8 13 7 14 6 15 5 16 4 17 3 18 2 19 1 20
REMARK H PARENT
REMARK Flexibility Score: inf
ROOT
ATOM      1  C   UNL     1     -29.534   0.816  26.059  1.00  0.00     0.027 C 
ENDROOT
BRANCH   1   2
ATOM      2  C   UNL     1     -28.974  -0.236  27.027  1.00  0.00     0.004 C 
BRANCH   2   3
ATOM      3  C   UNL     1     -28.689   0.337  28.424  1.00  0.00     0.000 C 
BRANCH   3   4
ATOM      4  C   UNL     1     -29.860   1.176  28.967  1.00  0.00     0.000 C 
BRANCH   4   5
ATOM      5  C   UNL     1     -29.731   1.467  30.470  1.00  0.00     0.000 C 
BRANCH   5   6
ATOM      6  C   UNL     1     -30.497   2.731  30.896  1.00  0.00     0.006 C 
BRANCH   6   7
ATOM      7  C   UNL     1     -30.427   2.970  32.410  1.00  0.00     0.053 C 
BRANCH   7   8
ATOM      8  C   UNL     1     -31.406   2.116  33.155  1.00  0.00     0.041 C 
ATOM      9  O   UNL     1     -32.645   2.287  32.999  1.00  0.00    -0.550 OA
ATOM     10  O   UNL     1     -30.953   1.154  34.050  1.00  0.00    -0.550 OA
ENDBRANCH   7   8
ENDBRANCH   6   7
ENDBRANCH   5   6
ENDBRANCH   4   5
ENDBRANCH   3   4
ENDBRANCH   2   3
ENDBRANCH   1   2
BRANCH   1  11
ATOM     11  C   UNL     1     -30.116   0.170  24.832  1.00  0.00    -0.031 C 
ATOM     12  C   UNL     1     -30.424  -1.135  24.826  1.00  0.00    -0.027 C 
BRANCH  12  13
ATOM     13  C   UNL     1     -31.011  -1.805  23.616  1.00  0.00     0.054 C 
BRANCH  13  14
ATOM     14  C   UNL     1     -30.934  -0.893  22.417  1.00  0.00    -0.027 C 
ATOM     15  C   UNL     1     -29.998  -0.947  21.450  1.00  0.00    -0.031 C 
BRANCH  15  16
ATOM     16  C   UNL     1     -28.815  -1.885  21.419  1.00  0.00     0.027 C 
BRANCH  16  17
ATOM     17  C   UNL     1     -27.484  -1.121  21.451  1.00  0.00     0.004 C 
BRANCH  17  18
ATOM     18  C   UNL     1     -27.497   0.034  22.463  1.00  0.00     0.000 C 
BRANCH  18  19
ATOM     19  C   UNL     1     -26.452  -0.189  23.561  1.00  0.00    -0.003 C 
ATOM     20  C   UNL     1     -26.723  -1.482  24.325  1.00  0.00     0.004 C 
ENDBRANCH  18  19
ENDBRANCH  17  18
ENDBRANCH  16  17
ENDBRANCH  15  16
ENDBRANCH  13  14
ENDBRANCH  12  13
ENDBRANCH   1  11
TORSDOF 14
ENDMDL
MODEL 9
REMARK VINA RESULT:    -5.556      5.609      8.096
REMARK INTER + INTRA:         -12.198
REMARK INTER:                 -10.556
REMARK INTRA:                  -1.642
REMARK UNBOUND:                -2.094
REMARK SMILES CCCCCC=CCC=CCCCCCCCC(=O)[O-]
REMARK SMILES IDX 11 1 12 2 13 3 14 4 15 5 16 6 17 7 18 8 19 9 20 10 10 11
REMARK SMILES IDX 9 12 8 13 7 14 6 15 5 16 4 17 3 18 2 19 1 20
REMARK H PARENT
REMARK Flexibility Score: inf
ROOT
ATOM      1  C   UNL     1     -29.939   0.332  26.510  1.00  0.00     0.027 C 
ENDROOT
BRANCH   1   2
ATOM      2  C   UNL     1     -28.638  -0.481  26.559  1.00  0.00     0.004 C 
BRANCH   2   3
ATOM      3  C   UNL     1     -27.605  -0.006  25.525  1.00  0.00     0.000 C 
BRANCH   3   4
ATOM      4  C   UNL     1     -27.218  -1.113  24.526  1.00  0.00     0.000 C 
BRANCH   4   5
ATOM      5  C   UNL     1     -28.296  -2.201  24.403  1.00  0.00     0.000 C 
BRANCH   5   6
ATOM      6  C   UNL     1     -29.034  -2.152  23.055  1.00  0.00     0.006 C 
BRANCH   6   7
ATOM      7  C   UNL     1     -30.466  -1.618  23.196  1.00  0.00     0.053 C 
BRANCH   7   8
ATOM      8  C   UNL     1     -30.553  -0.160  22.866  1.00  0.00     0.041 C 
ATOM      9  O   UNL     1     -31.608   0.484  23.109  1.00  0.00    -0.550 OA
ATOM     10  O   UNL     1     -29.482   0.482  22.257  1.00  0.00    -0.550 OA
ENDBRANCH   7   8
ENDBRANCH   6   7
ENDBRANCH   5   6
ENDBRANCH   4   5
ENDBRANCH   3   4
ENDBRANCH   2   3
ENDBRANCH   1   2
BRANCH   1  11
ATOM     11  C   UNL     1     -30.129   1.131  27.771  1.00  0.00    -0.031 C 
ATOM     12  C   UNL     1     -29.517   0.770  28.908  1.00  0.00    -0.027 C 
BRANCH  12  13
ATOM     13  C   UNL     1     -29.685   1.553  30.179  1.00  0.00     0.054 C 
BRANCH  13  14
ATOM     14  C   UNL     1     -29.002   0.852  31.326  1.00  0.00    -0.027 C 
ATOM     15  C   UNL     1     -28.510   1.450  32.429  1.00  0.00    -0.031 C 
BRANCH  15  16
ATOM     16  C   UNL     1     -28.490   2.937  32.691  1.00  0.00     0.027 C 
BRANCH  16  17
ATOM     17  C   UNL     1     -29.204   3.292  34.002  1.00  0.00     0.004 C 
BRANCH  17  18
ATOM     18  C   UNL     1     -30.653   3.746  33.775  1.00  0.00     0.000 C 
BRANCH  18  19
ATOM     19  C   UNL     1     -31.630   2.583  33.977  1.00  0.00    -0.003 C 
ATOM     20  C   UNL     1     -32.385   2.269  32.689  1.00  0.00     0.004 C 
ENDBRANCH  18  19
ENDBRANCH  17  18
ENDBRANCH  16  17
ENDBRANCH  15  16
ENDBRANCH  13  14
ENDBRANCH  12  13
ENDBRANCH   1  11
TORSDOF 14
ENDMDL
