MODEL 1
REMARK VINA RESULT:    -4.814      0.000      0.000
REMARK INTER + INTRA:          -5.184
REMARK INTER:                  -5.095
REMARK INTRA:                  -0.088
REMARK UNBOUND:                -0.088
REMARK SMILES C=C(C)[C@H]1CC=C(C)C(=O)C1
REMARK SMILES IDX 8 1 7 2 6 3 5 4 4 5 11 6 9 7 10 8 2 9 1 10 3 11
REMARK H PARENT
REMARK Flexibility Score: inf
ROOT
ATOM      1  C   UNL     1       8.693 -14.225 -45.756  1.00  0.00     0.048 C 
ATOM      2  C   UNL     1       9.119 -12.868 -45.269  1.00  0.00    -0.012 C 
ATOM      3  C   UNL     1      10.247 -12.738 -44.548  1.00  0.00    -0.019 C 
ATOM      4  C   UNL     1      10.708 -11.406 -44.020  1.00  0.00     0.036 C 
ATOM      5  C   UNL     1      10.313 -10.264 -44.975  1.00  0.00     0.025 C 
ATOM      6  C   UNL     1       8.798 -10.291 -45.242  1.00  0.00     0.089 C 
ATOM      7  C   UNL     1       8.363 -11.661 -45.688  1.00  0.00     0.158 C 
ATOM      8  O   UNL     1       7.325 -11.776 -46.393  1.00  0.00    -0.295 OA
ENDROOT
BRANCH   5   9
ATOM      9  C   UNL     1      10.760  -8.910 -44.440  1.00  0.00    -0.077 C 
ATOM     10  C   UNL     1      12.007  -8.471 -44.675  1.00  0.00     0.008 C 
ATOM     11  C   UNL     1       9.826  -8.034 -43.642  1.00  0.00     0.039 C 
ENDBRANCH   5   9
TORSDOF 1
ENDMDL
MODEL 2
REMARK VINA RESULT:    -4.736      2.166      2.696
REMARK INTER + INTRA:          -5.101
REMARK INTER:                  -5.005
REMARK INTRA:                  -0.097
REMARK UNBOUND:                -0.088
REMARK SMILES C=C(C)[C@H]1CC=C(C)C(=O)C1
REMARK SMILES IDX 8 1 7 2 6 3 5 4 4 5 11 6 9 7 10 8 2 9 1 10 3 11
REMARK H PARENT
REMARK Flexibility Score: inf
ROOT
ATOM      1  C   UNL     1      10.367 -14.462 -44.381  1.00  0.00     0.048 C 
ATOM      2  C   UNL     1      10.566 -12.973 -44.455  1.00  0.00    -0.012 C 
ATOM      3  C   UNL     1       9.646 -12.203 -45.060  1.00  0.00    -0.019 C 
ATOM      4  C   UNL     1       9.806 -10.711 -45.177  1.00  0.00     0.036 C 
ATOM      5  C   UNL     1      10.559 -10.136 -43.962  1.00  0.00     0.025 C 
ATOM      6  C   UNL     1      11.908 -10.854 -43.781  1.00  0.00     0.089 C 
ATOM      7  C   UNL     1      11.714 -12.346 -43.752  1.00  0.00     0.158 C 
ATOM      8  O   UNL     1      12.560 -13.063 -43.153  1.00  0.00    -0.295 OA
ENDROOT
BRANCH   5   9
ATOM      9  C   UNL     1      10.741  -8.629 -44.080  1.00  0.00    -0.077 C 
ATOM     10  C   UNL     1      11.708  -8.127 -44.866  1.00  0.00     0.008 C 
ATOM     11  C   UNL     1       9.853  -7.669 -43.328  1.00  0.00     0.039 C 
ENDBRANCH   5   9
TORSDOF 1
ENDMDL
MODEL 3
REMARK VINA RESULT:    -4.684      2.595      3.280
REMARK INTER + INTRA:          -5.046
REMARK INTER:                  -4.948
REMARK INTRA:                  -0.097
REMARK UNBOUND:                -0.088
REMARK SMILES C=C(C)[C@H]1CC=C(C)C(=O)C1
REMARK SMILES IDX 8 1 7 2 6 3 5 4 4 5 11 6 9 7 10 8 2 9 1 10 3 11
REMARK H PARENT
REMARK Flexibility Score: inf
ROOT
ATOM      1  C   UNL     1      11.845 -14.464 -43.679  1.00  0.00     0.048 C 
ATOM      2  C   UNL     1      11.645 -12.998 -43.943  1.00  0.00    -0.012 C 
ATOM      3  C   UNL     1      10.421 -12.533 -44.249  1.00  0.00    -0.019 C 
ATOM      4  C   UNL     1      10.170 -11.078 -44.540  1.00  0.00     0.036 C 
ATOM      5  C   UNL     1      11.112 -10.177 -43.719  1.00  0.00     0.025 C 
ATOM      6  C   UNL     1      12.578 -10.574 -43.963  1.00  0.00     0.089 C 
ATOM      7  C   UNL     1      12.771 -12.050 -43.743  1.00  0.00     0.158 C 
ATOM      8  O   UNL     1      13.911 -12.480 -43.421  1.00  0.00    -0.295 OA
ENDROOT
BRANCH   5   9
ATOM      9  C   UNL     1      10.878  -8.703 -44.021  1.00  0.00    -0.077 C 
ATOM     10  C   UNL     1      11.605  -8.084 -44.965  1.00  0.00     0.008 C 
ATOM     11  C   UNL     1       9.835  -7.905 -43.277  1.00  0.00     0.039 C 
ENDBRANCH   5   9
TORSDOF 1
ENDMDL
MODEL 4
REMARK VINA RESULT:    -4.648      1.952      2.688
REMARK INTER + INTRA:          -5.008
REMARK INTER:                  -4.921
REMARK INTRA:                  -0.087
REMARK UNBOUND:                -0.088
REMARK SMILES C=C(C)[C@H]1CC=C(C)C(=O)C1
REMARK SMILES IDX 8 1 7 2 6 3 5 4 4 5 11 6 9 7 10 8 2 9 1 10 3 11
REMARK H PARENT
REMARK Flexibility Score: inf
ROOT
ATOM      1  C   UNL     1       9.501 -14.454 -44.362  1.00  0.00     0.048 C 
ATOM      2  C   UNL     1       9.947 -13.020 -44.436  1.00  0.00    -0.012 C 
ATOM      3  C   UNL     1       9.259 -12.143 -45.188  1.00  0.00    -0.019 C 
ATOM      4  C   UNL     1       9.674 -10.701 -45.311  1.00  0.00     0.036 C 
ATOM      5  C   UNL     1      10.326 -10.198 -44.010  1.00  0.00     0.025 C 
ATOM      6  C   UNL     1      11.501 -11.109 -43.614  1.00  0.00     0.089 C 
ATOM      7  C   UNL     1      11.067 -12.549 -43.583  1.00  0.00     0.158 C 
ATOM      8  O   UNL     1      11.690 -13.363 -42.849  1.00  0.00    -0.295 OA
ENDROOT
BRANCH   5   9
ATOM      9  C   UNL     1      10.764  -8.745 -44.131  1.00  0.00    -0.077 C 
ATOM     10  C   UNL     1       9.973  -7.761 -43.673  1.00  0.00     0.008 C 
ATOM     11  C   UNL     1      12.084  -8.373 -44.761  1.00  0.00     0.039 C 
ENDBRANCH   5   9
TORSDOF 1
ENDMDL
MODEL 5
REMARK VINA RESULT:    -4.534      2.876      3.242
REMARK INTER + INTRA:          -4.887
REMARK INTER:                  -4.794
REMARK INTRA:                  -0.093
REMARK UNBOUND:                -0.088
REMARK SMILES C=C(C)[C@H]1CC=C(C)C(=O)C1
REMARK SMILES IDX 8 1 7 2 6 3 5 4 4 5 11 6 9 7 10 8 2 9 1 10 3 11
REMARK H PARENT
REMARK Flexibility Score: inf
ROOT
ATOM      1  C   UNL     1      12.694 -14.884 -43.575  1.00  0.00     0.048 C 
ATOM      2  C   UNL     1      12.440 -13.404 -43.500  1.00  0.00    -0.012 C 
ATOM      3  C   UNL     1      13.266 -12.550 -44.128  1.00  0.00    -0.019 C 
ATOM      4  C   UNL     1      13.068 -11.059 -44.069  1.00  0.00     0.036 C 
ATOM      5  C   UNL     1      11.572 -10.701 -43.981  1.00  0.00     0.025 C 
ATOM      6  C   UNL     1      10.920 -11.422 -42.788  1.00  0.00     0.089 C 
ATOM      7  C   UNL     1      11.211 -12.898 -42.839  1.00  0.00     0.158 C 
ATOM      8  O   UNL     1      10.415 -13.700 -42.280  1.00  0.00    -0.295 OA
ENDROOT
BRANCH   5   9
ATOM      9  C   UNL     1      11.363  -9.195 -43.902  1.00  0.00    -0.077 C 
ATOM     10  C   UNL     1      11.859  -8.395 -44.860  1.00  0.00     0.008 C 
ATOM     11  C   UNL     1      10.601  -8.566 -42.761  1.00  0.00     0.039 C 
ENDBRANCH   5   9
TORSDOF 1
ENDMDL
MODEL 6
REMARK VINA RESULT:    -4.458      1.798      4.156
REMARK INTER + INTRA:          -4.807
REMARK INTER:                  -4.708
REMARK INTRA:                  -0.099
REMARK UNBOUND:                -0.088
REMARK SMILES C=C(C)[C@H]1CC=C(C)C(=O)C1
REMARK SMILES IDX 8 1 7 2 6 3 5 4 4 5 11 6 9 7 10 8 2 9 1 10 3 11
REMARK H PARENT
REMARK Flexibility Score: inf
ROOT
ATOM      1  C   UNL     1       9.719  -8.036 -43.835  1.00  0.00     0.048 C 
ATOM      2  C   UNL     1      10.426  -9.300 -44.239  1.00  0.00    -0.012 C 
ATOM      3  C   UNL     1      11.698  -9.508 -43.859  1.00  0.00    -0.019 C 
ATOM      4  C   UNL     1      12.457 -10.747 -44.252  1.00  0.00     0.036 C 
ATOM      5  C   UNL     1      11.517 -11.962 -44.360  1.00  0.00     0.025 C 
ATOM      6  C   UNL     1      10.359 -11.658 -45.327  1.00  0.00     0.089 C 
ATOM      7  C   UNL     1       9.680 -10.369 -44.950  1.00  0.00     0.158 C 
ATOM      8  O   UNL     1       8.475 -10.192 -45.276  1.00  0.00    -0.295 OA
ENDROOT
BRANCH   5   9
ATOM      9  C   UNL     1      12.273 -13.217 -44.775  1.00  0.00    -0.077 C 
ATOM     10  C   UNL     1      12.020 -13.795 -45.960  1.00  0.00     0.008 C 
ATOM     11  C   UNL     1      13.316 -13.838 -43.879  1.00  0.00     0.039 C 
ENDBRANCH   5   9
TORSDOF 1
ENDMDL
MODEL 7
REMARK VINA RESULT:    -4.184     12.311     14.147
REMARK INTER + INTRA:          -4.517
REMARK INTER:                  -4.425
REMARK INTRA:                  -0.092
REMARK UNBOUND:                -0.088
REMARK SMILES C=C(C)[C@H]1CC=C(C)C(=O)C1
REMARK SMILES IDX 8 1 7 2 6 3 5 4 4 5 11 6 9 7 10 8 2 9 1 10 3 11
REMARK H PARENT
REMARK Flexibility Score: inf
ROOT
ATOM      1  C   UNL     1       5.130 -18.795 -37.200  1.00  0.00     0.048 C 
ATOM      2  C   UNL     1       6.164 -19.862 -36.970  1.00  0.00    -0.012 C 
ATOM      3  C   UNL     1       7.362 -19.534 -36.456  1.00  0.00    -0.019 C 
ATOM      4  C   UNL     1       8.439 -20.560 -36.224  1.00  0.00     0.036 C 
ATOM      5  C   UNL     1       7.833 -21.928 -35.857  1.00  0.00     0.025 C 
ATOM      6  C   UNL     1       6.827 -22.373 -36.934  1.00  0.00     0.089 C 
ATOM      7  C   UNL     1       5.818 -21.288 -37.196  1.00  0.00     0.158 C 
ATOM      8  O   UNL     1       4.682 -21.601 -37.644  1.00  0.00    -0.295 OA
ENDROOT
BRANCH   5   9
ATOM      9  C   UNL     1       8.915 -22.977 -35.639  1.00  0.00    -0.077 C 
ATOM     10  C   UNL     1       9.795 -22.838 -34.634  1.00  0.00     0.008 C 
ATOM     11  C   UNL     1       9.027 -24.187 -36.532  1.00  0.00     0.039 C 
ENDBRANCH   5   9
TORSDOF 1
ENDMDL
MODEL 8
REMARK VINA RESULT:    -4.073      2.198      3.633
REMARK INTER + INTRA:          -4.399
REMARK INTER:                  -4.301
REMARK INTRA:                  -0.098
REMARK UNBOUND:                -0.088
REMARK SMILES C=C(C)[C@H]1CC=C(C)C(=O)C1
REMARK SMILES IDX 8 1 7 2 6 3 5 4 4 5 11 6 9 7 10 8 2 9 1 10 3 11
REMARK H PARENT
REMARK Flexibility Score: inf
ROOT
ATOM      1  C   UNL     1       7.990 -10.754 -46.081  1.00  0.00     0.048 C 
ATOM      2  C   UNL     1       9.198 -11.299 -45.370  1.00  0.00    -0.012 C 
ATOM      3  C   UNL     1       9.523 -12.597 -45.500  1.00  0.00    -0.019 C 
ATOM      4  C   UNL     1      10.710 -13.197 -44.795  1.00  0.00     0.036 C 
ATOM      5  C   UNL     1      11.847 -12.168 -44.649  1.00  0.00     0.025 C 
ATOM      6  C   UNL     1      11.332 -10.900 -43.945  1.00  0.00     0.089 C 
ATOM      7  C   UNL     1      10.097 -10.379 -44.630  1.00  0.00     0.158 C 
ATOM      8  O   UNL     1       9.814  -9.154 -44.537  1.00  0.00    -0.295 OA
ENDROOT
BRANCH   5   9
ATOM      9  C   UNL     1      13.045 -12.760 -43.921  1.00  0.00    -0.077 C 
ATOM     10  C   UNL     1      13.101 -14.079 -43.676  1.00  0.00     0.008 C 
ATOM     11  C   UNL     1      14.192 -11.894 -43.460  1.00  0.00     0.039 C 
ENDBRANCH   5   9
TORSDOF 1
ENDMDL
MODEL 9
REMARK VINA RESULT:    -4.070      2.363      4.295
REMARK INTER + INTRA:          -4.396
REMARK INTER:                  -4.298
REMARK INTRA:                  -0.098
REMARK UNBOUND:                -0.088
REMARK SMILES C=C(C)[C@H]1CC=C(C)C(=O)C1
REMARK SMILES IDX 8 1 7 2 6 3 5 4 4 5 11 6 9 7 10 8 2 9 1 10 3 11
REMARK H PARENT
REMARK Flexibility Score: inf
ROOT
ATOM      1  C   UNL     1      13.788 -11.865 -43.260  1.00  0.00     0.048 C 
ATOM      2  C   UNL     1      12.352 -11.836 -43.705  1.00  0.00    -0.012 C 
ATOM      3  C   UNL     1      11.839 -10.715 -44.243  1.00  0.00    -0.019 C 
ATOM      4  C   UNL     1      10.404 -10.628 -44.687  1.00  0.00     0.036 C 
ATOM      5  C   UNL     1       9.900 -11.987 -45.208  1.00  0.00     0.025 C 
ATOM      6  C   UNL     1      10.114 -13.079 -44.144  1.00  0.00     0.089 C 
ATOM      7  C   UNL     1      11.540 -13.079 -43.666  1.00  0.00     0.158 C 
ATOM      8  O   UNL     1      12.030 -14.141 -43.195  1.00  0.00    -0.295 OA
ENDROOT
BRANCH   5   9
ATOM      9  C   UNL     1       8.443 -11.912 -45.643  1.00  0.00    -0.077 C 
ATOM     10  C   UNL     1       7.876 -10.722 -45.899  1.00  0.00     0.008 C 
ATOM     11  C   UNL     1       7.604 -13.157 -45.797  1.00  0.00     0.039 C 
ENDBRANCH   5   9
TORSDOF 1
ENDMDL
