MODEL 1
REMARK VINA RESULT:    -6.229      0.000      0.000
REMARK INTER + INTRA:          -7.697
REMARK INTER:                  -7.685
REMARK INTRA:                  -0.012
REMARK UNBOUND:                -0.012
REMARK SMILES COC(=O)c1ccccc1C(=O)OC
REMARK SMILES IDX 5 1 6 2 7 3 8 4 9 5 10 6 3 7 4 8 2 9 1 10 11 11 12 12 13 13
REMARK SMILES IDX 14 14
REMARK H PARENT
REMARK Flexibility Score: inf
ROOT
ATOM      1  C   UNL     1      31.444   6.268 106.696  1.00  0.00     0.074 A 
ATOM      2  C   UNL     1      30.775   6.005 105.487  1.00  0.00     0.016 A 
ATOM      3  C   UNL     1      30.452   7.041 104.609  1.00  0.00     0.001 A 
ATOM      4  C   UNL     1      30.793   8.354 104.924  1.00  0.00     0.001 A 
ATOM      5  C   UNL     1      31.437   8.641 106.128  1.00  0.00     0.016 A 
ATOM      6  C   UNL     1      31.751   7.616 107.038  1.00  0.00     0.074 A 
ENDROOT
BRANCH   1   7
ATOM      7  C   UNL     1      31.855   5.112 107.524  1.00  0.00     0.338 C 
ATOM      8  O   UNL     1      31.607   5.094 108.761  1.00  0.00    -0.246 OA
BRANCH   7   9
ATOM      9  O   UNL     1      32.575   4.065 106.938  1.00  0.00    -0.465 OA
ATOM     10  C   UNL     1      33.991   3.964 107.025  1.00  0.00     0.282 C 
ENDBRANCH   7   9
ENDBRANCH   1   7
BRANCH   6  11
ATOM     11  C   UNL     1      32.332   8.004 108.344  1.00  0.00     0.338 C 
ATOM     12  O   UNL     1      31.583   8.384 109.287  1.00  0.00    -0.246 OA
BRANCH  11  13
ATOM     13  O   UNL     1      33.720   8.004 108.509  1.00  0.00    -0.465 OA
ATOM     14  C   UNL     1      34.575   8.908 107.820  1.00  0.00     0.282 C 
ENDBRANCH  11  13
ENDBRANCH   6  11
TORSDOF 4
ENDMDL
MODEL 2
REMARK VINA RESULT:    -6.211      0.043      3.313
REMARK INTER + INTRA:          -7.675
REMARK INTER:                  -7.680
REMARK INTRA:                   0.005
REMARK UNBOUND:                -0.012
REMARK SMILES COC(=O)c1ccccc1C(=O)OC
REMARK SMILES IDX 5 1 6 2 7 3 8 4 9 5 10 6 3 7 4 8 2 9 1 10 11 11 12 12 13 13
REMARK SMILES IDX 14 14
REMARK H PARENT
REMARK Flexibility Score: inf
ROOT
ATOM      1  C   UNL     1      31.715   7.621 107.026  1.00  0.00     0.074 A 
ATOM      2  C   UNL     1      31.400   8.641 106.110  1.00  0.00     0.016 A 
ATOM      3  C   UNL     1      30.773   8.345 104.899  1.00  0.00     0.001 A 
ATOM      4  C   UNL     1      30.450   7.027 104.584  1.00  0.00     0.001 A 
ATOM      5  C   UNL     1      30.774   5.997 105.468  1.00  0.00     0.016 A 
ATOM      6  C   UNL     1      31.426   6.270 106.683  1.00  0.00     0.074 A 
ENDROOT
BRANCH   1   7
ATOM      7  C   UNL     1      32.276   8.018 108.337  1.00  0.00     0.338 C 
ATOM      8  O   UNL     1      31.513   8.390 109.271  1.00  0.00    -0.246 OA
BRANCH   7   9
ATOM      9  O   UNL     1      33.664   8.036 108.516  1.00  0.00    -0.465 OA
ATOM     10  C   UNL     1      34.518   8.920 107.800  1.00  0.00     0.282 C 
ENDBRANCH   7   9
ENDBRANCH   1   7
BRANCH   6  11
ATOM     11  C   UNL     1      31.840   5.119 107.520  1.00  0.00     0.338 C 
ATOM     12  O   UNL     1      31.584   5.106 108.756  1.00  0.00    -0.246 OA
BRANCH  11  13
ATOM     13  O   UNL     1      32.568   4.074 106.943  1.00  0.00    -0.465 OA
ATOM     14  C   UNL     1      33.981   3.965 107.064  1.00  0.00     0.282 C 
ENDBRANCH  11  13
ENDBRANCH   6  11
TORSDOF 4
ENDMDL
MODEL 3
REMARK VINA RESULT:    -5.175      1.847      3.803
REMARK INTER + INTRA:          -6.397
REMARK INTER:                  -6.253
REMARK INTRA:                  -0.144
REMARK UNBOUND:                -0.012
REMARK SMILES COC(=O)c1ccccc1C(=O)OC
REMARK SMILES IDX 5 1 6 2 7 3 8 4 9 5 10 6 3 7 4 8 2 9 1 10 11 11 12 12 13 13
REMARK SMILES IDX 14 14
REMARK H PARENT
REMARK Flexibility Score: inf
ROOT
ATOM      1  C   UNL     1      31.387   7.872 105.897  1.00  0.00     0.074 A 
ATOM      2  C   UNL     1      30.823   7.029 104.922  1.00  0.00     0.016 A 
ATOM      3  C   UNL     1      30.666   5.663 105.163  1.00  0.00     0.001 A 
ATOM      4  C   UNL     1      31.071   5.118 106.379  1.00  0.00     0.001 A 
ATOM      5  C   UNL     1      31.654   5.931 107.351  1.00  0.00     0.016 A 
ATOM      6  C   UNL     1      31.842   7.306 107.121  1.00  0.00     0.074 A 
ENDROOT
BRANCH   1   7
ATOM      7  C   UNL     1      31.419   9.325 105.619  1.00  0.00     0.338 C 
ATOM      8  O   UNL     1      32.520   9.916 105.442  1.00  0.00    -0.246 OA
BRANCH   7   9
ATOM      9  O   UNL     1      30.223  10.052 105.613  1.00  0.00    -0.465 OA
ATOM     10  C   UNL     1      30.174  11.446 105.332  1.00  0.00     0.282 C 
ENDBRANCH   7   9
ENDBRANCH   1   7
BRANCH   6  11
ATOM     11  C   UNL     1      32.569   8.086 108.149  1.00  0.00     0.338 C 
ATOM     12  O   UNL     1      31.932   8.757 109.008  1.00  0.00    -0.246 OA
BRANCH  11  13
ATOM     13  O   UNL     1      33.967   8.123 108.126  1.00  0.00    -0.465 OA
ATOM     14  C   UNL     1      34.698   9.293 107.782  1.00  0.00     0.282 C 
ENDBRANCH  11  13
ENDBRANCH   6  11
TORSDOF 4
ENDMDL
MODEL 4
REMARK VINA RESULT:    -5.153      1.855      3.637
REMARK INTER + INTRA:          -6.369
REMARK INTER:                  -6.251
REMARK INTRA:                  -0.118
REMARK UNBOUND:                -0.012
REMARK SMILES COC(=O)c1ccccc1C(=O)OC
REMARK SMILES IDX 5 1 6 2 7 3 8 4 9 5 10 6 3 7 4 8 2 9 1 10 11 11 12 12 13 13
REMARK SMILES IDX 14 14
REMARK H PARENT
REMARK Flexibility Score: inf
ROOT
ATOM      1  C   UNL     1      31.812   7.287 107.122  1.00  0.00     0.074 A 
ATOM      2  C   UNL     1      31.647   5.911 107.366  1.00  0.00     0.016 A 
ATOM      3  C   UNL     1      31.083   5.077 106.400  1.00  0.00     0.001 A 
ATOM      4  C   UNL     1      30.676   5.603 105.176  1.00  0.00     0.001 A 
ATOM      5  C   UNL     1      30.809   6.968 104.921  1.00  0.00     0.016 A 
ATOM      6  C   UNL     1      31.354   7.831 105.889  1.00  0.00     0.074 A 
ENDROOT
BRANCH   1   7
ATOM      7  C   UNL     1      32.519   8.090 108.145  1.00  0.00     0.338 C 
ATOM      8  O   UNL     1      31.867   8.760 108.992  1.00  0.00    -0.246 OA
BRANCH   7   9
ATOM      9  O   UNL     1      33.917   8.149 108.129  1.00  0.00    -0.465 OA
ATOM     10  C   UNL     1      34.631   9.328 107.775  1.00  0.00     0.282 C 
ENDBRANCH   7   9
ENDBRANCH   1   7
BRANCH   6  11
ATOM     11  C   UNL     1      31.361   9.283 105.596  1.00  0.00     0.338 C 
ATOM     12  O   UNL     1      32.454   9.897 105.446  1.00  0.00    -0.246 OA
BRANCH  11  13
ATOM     13  O   UNL     1      30.151   9.982 105.544  1.00  0.00    -0.465 OA
ATOM     14  C   UNL     1      30.088  11.399 105.436  1.00  0.00     0.282 C 
ENDBRANCH  11  13
ENDBRANCH   6  11
TORSDOF 4
ENDMDL
MODEL 5
REMARK VINA RESULT:    -5.072      2.217      3.915
REMARK INTER + INTRA:          -6.270
REMARK INTER:                  -6.059
REMARK INTRA:                  -0.210
REMARK UNBOUND:                -0.012
REMARK SMILES COC(=O)c1ccccc1C(=O)OC
REMARK SMILES IDX 5 1 6 2 7 3 8 4 9 5 10 6 3 7 4 8 2 9 1 10 11 11 12 12 13 13
REMARK SMILES IDX 14 14
REMARK H PARENT
REMARK Flexibility Score: inf
ROOT
ATOM      1  C   UNL     1      32.875   8.486 107.363  1.00  0.00     0.074 A 
ATOM      2  C   UNL     1      34.186   8.503 107.872  1.00  0.00     0.016 A 
ATOM      3  C   UNL     1      35.186   9.249 107.247  1.00  0.00     0.001 A 
ATOM      4  C   UNL     1      34.892   9.990 106.104  1.00  0.00     0.001 A 
ATOM      5  C   UNL     1      33.604   9.970 105.569  1.00  0.00     0.016 A 
ATOM      6  C   UNL     1      32.587   9.207 106.169  1.00  0.00     0.074 A 
ENDROOT
BRANCH   1   7
ATOM      7  C   UNL     1      31.842   7.765 108.139  1.00  0.00     0.338 C 
ATOM      8  O   UNL     1      31.405   8.247 109.221  1.00  0.00    -0.246 OA
BRANCH   7   9
ATOM      9  O   UNL     1      31.393   6.516 107.696  1.00  0.00    -0.465 OA
ATOM     10  C   UNL     1      32.187   5.339 107.790  1.00  0.00     0.282 C 
ENDBRANCH   7   9
ENDBRANCH   1   7
BRANCH   6  11
ATOM     11  C   UNL     1      31.275   9.141 105.485  1.00  0.00     0.338 C 
ATOM     12  O   UNL     1      31.008   8.181 104.710  1.00  0.00    -0.246 OA
BRANCH  11  13
ATOM     13  O   UNL     1      30.356  10.181 105.656  1.00  0.00    -0.465 OA
ATOM     14  C   UNL     1      30.544  11.473 105.090  1.00  0.00     0.282 C 
ENDBRANCH  11  13
ENDBRANCH   6  11
TORSDOF 4
ENDMDL
MODEL 6
REMARK VINA RESULT:    -5.069      2.218      4.566
REMARK INTER + INTRA:          -6.266
REMARK INTER:                  -6.109
REMARK INTRA:                  -0.157
REMARK UNBOUND:                -0.012
REMARK SMILES COC(=O)c1ccccc1C(=O)OC
REMARK SMILES IDX 5 1 6 2 7 3 8 4 9 5 10 6 3 7 4 8 2 9 1 10 11 11 12 12 13 13
REMARK SMILES IDX 14 14
REMARK H PARENT
REMARK Flexibility Score: inf
ROOT
ATOM      1  C   UNL     1      32.584   9.215 106.163  1.00  0.00     0.074 A 
ATOM      2  C   UNL     1      33.587   9.986 105.548  1.00  0.00     0.016 A 
ATOM      3  C   UNL     1      34.882  10.020 106.068  1.00  0.00     0.001 A 
ATOM      4  C   UNL     1      35.195   9.285 107.209  1.00  0.00     0.001 A 
ATOM      5  C   UNL     1      34.210   8.532 107.848  1.00  0.00     0.016 A 
ATOM      6  C   UNL     1      32.894   8.501 107.355  1.00  0.00     0.074 A 
ENDROOT
BRANCH   1   7
ATOM      7  C   UNL     1      31.266   9.136 105.494  1.00  0.00     0.338 C 
ATOM      8  O   UNL     1      30.982   8.149 104.759  1.00  0.00    -0.246 OA
BRANCH   7   9
ATOM      9  O   UNL     1      30.357  10.190 105.634  1.00  0.00    -0.465 OA
ATOM     10  C   UNL     1      30.599  11.487 105.100  1.00  0.00     0.282 C 
ENDBRANCH   7   9
ENDBRANCH   1   7
BRANCH   6  11
ATOM     11  C   UNL     1      31.875   7.773 108.146  1.00  0.00     0.338 C 
ATOM     12  O   UNL     1      31.448   8.255 109.232  1.00  0.00    -0.246 OA
BRANCH  11  13
ATOM     13  O   UNL     1      31.432   6.519 107.713  1.00  0.00    -0.465 OA
ATOM     14  C   UNL     1      32.227   5.345 107.822  1.00  0.00     0.282 C 
ENDBRANCH  11  13
ENDBRANCH   6  11
TORSDOF 4
ENDMDL
MODEL 7
REMARK VINA RESULT:    -4.726      2.897      4.316
REMARK INTER + INTRA:          -5.843
REMARK INTER:                  -5.943
REMARK INTRA:                   0.100
REMARK UNBOUND:                -0.012
REMARK SMILES COC(=O)c1ccccc1C(=O)OC
REMARK SMILES IDX 5 1 6 2 7 3 8 4 9 5 10 6 3 7 4 8 2 9 1 10 11 11 12 12 13 13
REMARK SMILES IDX 14 14
REMARK H PARENT
REMARK Flexibility Score: inf
ROOT
ATOM      1  C   UNL     1      32.434   8.489 106.654  1.00  0.00     0.074 A 
ATOM      2  C   UNL     1      31.378   7.560 106.625  1.00  0.00     0.016 A 
ATOM      3  C   UNL     1      31.328   6.508 107.539  1.00  0.00     0.001 A 
ATOM      4  C   UNL     1      32.330   6.367 108.497  1.00  0.00     0.001 A 
ATOM      5  C   UNL     1      33.398   7.263 108.529  1.00  0.00     0.016 A 
ATOM      6  C   UNL     1      33.481   8.317 107.603  1.00  0.00     0.074 A 
ENDROOT
BRANCH   1   7
ATOM      7  C   UNL     1      32.365   9.643 105.729  1.00  0.00     0.338 C 
ATOM      8  O   UNL     1      31.249  10.142 105.415  1.00  0.00    -0.246 OA
BRANCH   7   9
ATOM      9  O   UNL     1      33.542  10.140 105.158  1.00  0.00    -0.465 OA
ATOM     10  C   UNL     1      33.819  11.532 105.061  1.00  0.00     0.282 C 
ENDBRANCH   7   9
ENDBRANCH   1   7
BRANCH   6  11
ATOM     11  C   UNL     1      34.698   9.162 107.623  1.00  0.00     0.338 C 
ATOM     12  O   UNL     1      35.725   8.816 106.975  1.00  0.00    -0.246 OA
BRANCH  11  13
ATOM     13  O   UNL     1      34.723  10.316 108.412  1.00  0.00    -0.465 OA
ATOM     14  C   UNL     1      35.747  11.297 108.305  1.00  0.00     0.282 C 
ENDBRANCH  11  13
ENDBRANCH   6  11
TORSDOF 4
ENDMDL
MODEL 8
REMARK VINA RESULT:    -4.309      5.052      7.095
REMARK INTER + INTRA:          -5.328
REMARK INTER:                  -4.983
REMARK INTRA:                  -0.345
REMARK UNBOUND:                -0.012
REMARK SMILES COC(=O)c1ccccc1C(=O)OC
REMARK SMILES IDX 5 1 6 2 7 3 8 4 9 5 10 6 3 7 4 8 2 9 1 10 11 11 12 12 13 13
REMARK SMILES IDX 14 14
REMARK H PARENT
REMARK Flexibility Score: inf
ROOT
ATOM      1  C   UNL     1      35.618  11.920 105.945  1.00  0.00     0.074 A 
ATOM      2  C   UNL     1      34.335  12.383 105.598  1.00  0.00     0.016 A 
ATOM      3  C   UNL     1      34.133  13.120 104.431  1.00  0.00     0.001 A 
ATOM      4  C   UNL     1      35.208  13.407 103.592  1.00  0.00     0.001 A 
ATOM      5  C   UNL     1      36.492  12.978 103.928  1.00  0.00     0.016 A 
ATOM      6  C   UNL     1      36.723  12.253 105.111  1.00  0.00     0.074 A 
ENDROOT
BRANCH   1   7
ATOM      7  C   UNL     1      35.740  11.050 107.136  1.00  0.00     0.338 C 
ATOM      8  O   UNL     1      35.991  11.549 108.268  1.00  0.00    -0.246 OA
BRANCH   7   9
ATOM      9  O   UNL     1      35.634   9.662 106.989  1.00  0.00    -0.465 OA
ATOM     10  C   UNL     1      34.598   8.903 107.602  1.00  0.00     0.282 C 
ENDBRANCH   7   9
ENDBRANCH   1   7
BRANCH   6  11
ATOM     11  C   UNL     1      38.124  11.928 105.462  1.00  0.00     0.338 C 
ATOM     12  O   UNL     1      38.771  11.082 104.784  1.00  0.00    -0.246 OA
BRANCH  11  13
ATOM     13  O   UNL     1      38.709  12.520 106.586  1.00  0.00    -0.465 OA
ATOM     14  C   UNL     1      38.593  13.909 106.869  1.00  0.00     0.282 C 
ENDBRANCH  11  13
ENDBRANCH   6  11
TORSDOF 4
ENDMDL
MODEL 9
REMARK VINA RESULT:    -4.289      5.010      7.309
REMARK INTER + INTRA:          -5.303
REMARK INTER:                  -5.043
REMARK INTRA:                  -0.260
REMARK UNBOUND:                -0.012
REMARK SMILES COC(=O)c1ccccc1C(=O)OC
REMARK SMILES IDX 5 1 6 2 7 3 8 4 9 5 10 6 3 7 4 8 2 9 1 10 11 11 12 12 13 13
REMARK SMILES IDX 14 14
REMARK H PARENT
REMARK Flexibility Score: inf
ROOT
ATOM      1  C   UNL     1      36.649  12.289 105.299  1.00  0.00     0.074 A 
ATOM      2  C   UNL     1      36.461  13.048 104.129  1.00  0.00     0.016 A 
ATOM      3  C   UNL     1      35.183  13.434 103.726  1.00  0.00     0.001 A 
ATOM      4  C   UNL     1      34.072  13.070 104.483  1.00  0.00     0.001 A 
ATOM      5  C   UNL     1      34.232  12.298 105.634  1.00  0.00     0.016 A 
ATOM      6  C   UNL     1      35.509  11.878 106.047  1.00  0.00     0.074 A 
ENDROOT
BRANCH   1   7
ATOM      7  C   UNL     1      38.038  12.011 105.728  1.00  0.00     0.338 C 
ATOM      8  O   UNL     1      38.528  12.606 106.727  1.00  0.00    -0.246 OA
BRANCH   7   9
ATOM      9  O   UNL     1      38.826  11.127 104.981  1.00  0.00    -0.465 OA
ATOM     10  C   UNL     1      40.156  11.436 104.582  1.00  0.00     0.282 C 
ENDBRANCH   7   9
ENDBRANCH   1   7
BRANCH   6  11
ATOM     11  C   UNL     1      35.595  10.968 107.212  1.00  0.00     0.338 C 
ATOM     12  O   UNL     1      35.852  11.425 108.361  1.00  0.00    -0.246 OA
BRANCH  11  13
ATOM     13  O   UNL     1      35.447   9.590 107.024  1.00  0.00    -0.465 OA
ATOM     14  C   UNL     1      34.474   8.820 107.719  1.00  0.00     0.282 C 
ENDBRANCH  11  13
ENDBRANCH   6  11
TORSDOF 4
ENDMDL
