MODEL 1
REMARK VINA RESULT:    -7.517      0.000      0.000
REMARK INTER + INTRA:          -9.378
REMARK INTER:                  -9.055
REMARK INTRA:                  -0.322
REMARK UNBOUND:                -0.322
REMARK SMILES O=c1c(O)c(-c2ccc(O)c(O)c2)oc2cc(O)cc(O)c12
REMARK SMILES IDX 5 1 3 2 2 3 1 4 22 5 20 6 19 7 17 8 16 9 15 10 14 11 6 12
REMARK SMILES IDX 7 13 8 14 9 15 13 16 11 17 10 18 12 20 4 22 21 24 18 26
REMARK H PARENT 10 19 12 21 4 23 21 25 18 27
REMARK Flexibility Score: inf
ROOT
ATOM      1  C   UNL     1      39.251  20.208  38.838  1.00  0.00     0.180 A 
ATOM      2  C   UNL     1      40.524  20.159  39.433  1.00  0.00     0.208 A 
ATOM      3  C   UNL     1      41.441  21.188  39.165  1.00  0.00     0.238 A 
ATOM      4  O   UNL     1      42.597  21.110  39.657  1.00  0.00    -0.285 OA
ATOM      5  C   UNL     1      41.069  22.261  38.319  1.00  0.00     0.111 A 
ATOM      6  C   UNL     1      41.904  23.377  38.010  1.00  0.00     0.134 A 
ATOM      7  C   UNL     1      41.481  24.313  37.060  1.00  0.00     0.093 A 
ATOM      8  C   UNL     1      40.229  24.210  36.455  1.00  0.00     0.123 A 
ATOM      9  C   UNL     1      39.380  23.156  36.793  1.00  0.00     0.094 A 
ATOM     10  C   UNL     1      39.789  22.186  37.711  1.00  0.00     0.146 A 
ATOM     11  O   UNL     1      38.955  21.192  37.998  1.00  0.00    -0.452 OA
ENDROOT
BRANCH   1  12
ATOM     12  C   UNL     1      38.222  19.174  39.093  1.00  0.00     0.025 A 
ATOM     13  C   UNL     1      37.331  19.334  40.165  1.00  0.00     0.016 A 
ATOM     14  C   UNL     1      36.367  18.362  40.437  1.00  0.00     0.051 A 
ATOM     15  C   UNL     1      36.287  17.205  39.649  1.00  0.00     0.157 A 
ATOM     16  C   UNL     1      38.153  18.003  38.316  1.00  0.00     0.062 A 
ATOM     17  C   UNL     1      37.189  17.025  38.586  1.00  0.00     0.158 A 
BRANCH  15  18
ATOM     18  O   UNL     1      35.323  16.237  39.920  1.00  0.00    -0.504 OA
ATOM     19  H   UNL     1      35.577  15.301  40.211  1.00  0.00     0.293 HD
ENDBRANCH  15  18
BRANCH  17  20
ATOM     20  O   UNL     1      37.147  15.879  37.792  1.00  0.00    -0.504 OA
ATOM     21  H   UNL     1      36.687  15.029  38.099  1.00  0.00     0.293 HD
ENDBRANCH  17  20
ENDBRANCH   1  12
BRANCH   2  22
ATOM     22  O   UNL     1      40.879  19.080  40.247  1.00  0.00    -0.502 OA
ATOM     23  H   UNL     1      41.230  18.207  39.873  1.00  0.00     0.293 HD
ENDBRANCH   2  22
BRANCH   6  24
ATOM     24  O   UNL     1      43.134  23.624  38.626  1.00  0.00    -0.507 OA
ATOM     25  H   UNL     1      43.645  24.492  38.563  1.00  0.00     0.293 HD
ENDBRANCH   6  24
BRANCH   8  26
ATOM     26  O   UNL     1      39.835  25.169  35.524  1.00  0.00    -0.508 OA
ATOM     27  H   UNL     1      39.850  24.980  34.528  1.00  0.00     0.293 HD
ENDBRANCH   8  26
TORSDOF 6
ENDMDL
MODEL 2
REMARK VINA RESULT:    -7.412      1.595      7.019
REMARK INTER + INTRA:          -9.251
REMARK INTER:                  -8.945
REMARK INTRA:                  -0.305
REMARK UNBOUND:                -0.322
REMARK SMILES O=c1c(O)c(-c2ccc(O)c(O)c2)oc2cc(O)cc(O)c12
REMARK SMILES IDX 5 1 3 2 2 3 1 4 22 5 20 6 19 7 17 8 16 9 15 10 14 11 6 12
REMARK SMILES IDX 7 13 8 14 9 15 13 16 11 17 10 18 12 20 4 22 21 24 18 26
REMARK H PARENT 10 19 12 21 4 23 21 25 18 27
REMARK Flexibility Score: inf
ROOT
ATOM      1  C   UNL     1      38.992  19.938  39.361  1.00  0.00     0.180 A 
ATOM      2  C   UNL     1      39.086  18.628  38.859  1.00  0.00     0.208 A 
ATOM      3  C   UNL     1      38.032  17.731  39.097  1.00  0.00     0.238 A 
ATOM      4  O   UNL     1      38.146  16.545  38.692  1.00  0.00    -0.285 OA
ATOM      5  C   UNL     1      36.892  18.159  39.819  1.00  0.00     0.111 A 
ATOM      6  C   UNL     1      35.748  17.346  40.084  1.00  0.00     0.134 A 
ATOM      7  C   UNL     1      34.736  17.831  40.919  1.00  0.00     0.093 A 
ATOM      8  C   UNL     1      34.792  19.120  41.446  1.00  0.00     0.123 A 
ATOM      9  C   UNL     1      35.877  19.945  41.146  1.00  0.00     0.094 A 
ATOM     10  C   UNL     1      36.921  19.477  40.344  1.00  0.00     0.146 A 
ATOM     11  O   UNL     1      37.940  20.289  40.091  1.00  0.00    -0.452 OA
ENDROOT
BRANCH   1  12
ATOM     12  C   UNL     1      40.051  20.948  39.130  1.00  0.00     0.025 A 
ATOM     13  C   UNL     1      39.933  21.837  38.051  1.00  0.00     0.016 A 
ATOM     14  C   UNL     1      40.929  22.784  37.802  1.00  0.00     0.051 A 
ATOM     15  C   UNL     1      42.066  22.846  38.618  1.00  0.00     0.157 A 
ATOM     16  C   UNL     1      41.202  20.999  39.936  1.00  0.00     0.062 A 
ATOM     17  C   UNL     1      42.204  21.944  39.687  1.00  0.00     0.158 A 
BRANCH  15  18
ATOM     18  O   UNL     1      43.058  23.792  38.369  1.00  0.00    -0.504 OA
ATOM     19  H   UNL     1      43.798  23.622  37.699  1.00  0.00     0.293 HD
ENDBRANCH  15  18
BRANCH  17  20
ATOM     20  O   UNL     1      43.330  21.970  40.510  1.00  0.00    -0.504 OA
ATOM     21  H   UNL     1      43.456  22.675  41.227  1.00  0.00     0.293 HD
ENDBRANCH  17  20
ENDBRANCH   1  12
BRANCH   2  22
ATOM     22  O   UNL     1      40.230  18.220  38.168  1.00  0.00    -0.502 OA
ATOM     23  H   UNL     1      41.054  17.867  38.639  1.00  0.00     0.293 HD
ENDBRANCH   2  22
BRANCH   6  24
ATOM     24  O   UNL     1      35.549  16.077  39.533  1.00  0.00    -0.507 OA
ATOM     25  H   UNL     1      35.022  15.336  39.971  1.00  0.00     0.293 HD
ENDBRANCH   6  24
BRANCH   8  26
ATOM     26  O   UNL     1      33.759  19.577  42.261  1.00  0.00    -0.508 OA
ATOM     27  H   UNL     1      33.191  18.938  42.807  1.00  0.00     0.293 HD
ENDBRANCH   8  26
TORSDOF 6
ENDMDL
MODEL 3
REMARK VINA RESULT:    -7.255      9.553     13.164
REMARK INTER + INTRA:          -9.061
REMARK INTER:                  -8.770
REMARK INTRA:                  -0.291
REMARK UNBOUND:                -0.322
REMARK SMILES O=c1c(O)c(-c2ccc(O)c(O)c2)oc2cc(O)cc(O)c12
REMARK SMILES IDX 5 1 3 2 2 3 1 4 22 5 20 6 19 7 17 8 16 9 15 10 14 11 6 12
REMARK SMILES IDX 7 13 8 14 9 15 13 16 11 17 10 18 12 20 4 22 21 24 18 26
REMARK H PARENT 10 19 12 21 4 23 21 25 18 27
REMARK Flexibility Score: inf
ROOT
ATOM      1  C   UNL     1      33.315  30.604  35.064  1.00  0.00     0.180 A 
ATOM      2  C   UNL     1      34.019  30.429  36.269  1.00  0.00     0.208 A 
ATOM      3  C   UNL     1      34.901  29.343  36.389  1.00  0.00     0.238 A 
ATOM      4  O   UNL     1      35.487  29.161  37.488  1.00  0.00    -0.285 OA
ATOM      5  C   UNL     1      35.080  28.456  35.301  1.00  0.00     0.111 A 
ATOM      6  C   UNL     1      35.977  27.345  35.299  1.00  0.00     0.134 A 
ATOM      7  C   UNL     1      35.976  26.459  34.216  1.00  0.00     0.093 A 
ATOM      8  C   UNL     1      35.160  26.677  33.108  1.00  0.00     0.123 A 
ATOM      9  C   UNL     1      34.321  27.792  33.072  1.00  0.00     0.094 A 
ATOM     10  C   UNL     1      34.273  28.674  34.154  1.00  0.00     0.146 A 
ATOM     11  O   UNL     1      33.454  29.717  34.086  1.00  0.00    -0.452 OA
ENDROOT
BRANCH   1  12
ATOM     12  C   UNL     1      32.387  31.739  34.852  1.00  0.00     0.025 A 
ATOM     13  C   UNL     1      31.002  31.511  34.867  1.00  0.00     0.016 A 
ATOM     14  C   UNL     1      30.109  32.562  34.648  1.00  0.00     0.051 A 
ATOM     15  C   UNL     1      30.587  33.855  34.396  1.00  0.00     0.157 A 
ATOM     16  C   UNL     1      32.864  33.034  34.579  1.00  0.00     0.062 A 
ATOM     17  C   UNL     1      31.972  34.089  34.356  1.00  0.00     0.158 A 
BRANCH  15  18
ATOM     18  O   UNL     1      29.694  34.903  34.180  1.00  0.00    -0.504 OA
ATOM     19  H   UNL     1      29.591  35.333  33.269  1.00  0.00     0.293 HD
ENDBRANCH  15  18
BRANCH  17  20
ATOM     20  O   UNL     1      32.480  35.361  34.094  1.00  0.00    -0.504 OA
ATOM     21  H   UNL     1      32.195  36.175  34.626  1.00  0.00     0.293 HD
ENDBRANCH  17  20
ENDBRANCH   1  12
BRANCH   2  22
ATOM     22  O   UNL     1      33.811  31.304  37.338  1.00  0.00    -0.502 OA
ATOM     23  H   UNL     1      33.039  31.958  37.364  1.00  0.00     0.293 HD
ENDBRANCH   2  22
BRANCH   6  24
ATOM     24  O   UNL     1      36.902  27.088  36.316  1.00  0.00    -0.507 OA
ATOM     25  H   UNL     1      36.970  26.219  36.824  1.00  0.00     0.293 HD
ENDBRANCH   6  24
BRANCH   8  26
ATOM     26  O   UNL     1      35.196  25.783  32.040  1.00  0.00    -0.508 OA
ATOM     27  H   UNL     1      36.058  25.578  31.547  1.00  0.00     0.293 HD
ENDBRANCH   8  26
TORSDOF 6
ENDMDL
MODEL 4
REMARK VINA RESULT:    -7.167      2.445      4.026
REMARK INTER + INTRA:          -8.955
REMARK INTER:                  -8.674
REMARK INTRA:                  -0.281
REMARK UNBOUND:                -0.322
REMARK SMILES O=c1c(O)c(-c2ccc(O)c(O)c2)oc2cc(O)cc(O)c12
REMARK SMILES IDX 5 1 3 2 2 3 1 4 22 5 20 6 19 7 17 8 16 9 15 10 14 11 6 12
REMARK SMILES IDX 7 13 8 14 9 15 13 16 11 17 10 18 12 20 4 22 21 24 18 26
REMARK H PARENT 10 19 12 21 4 23 21 25 18 27
REMARK Flexibility Score: inf
ROOT
ATOM      1  C   UNL     1      37.942  18.716  39.116  1.00  0.00     0.180 A 
ATOM      2  C   UNL     1      38.563  17.459  39.010  1.00  0.00     0.208 A 
ATOM      3  C   UNL     1      39.963  17.384  39.084  1.00  0.00     0.238 A 
ATOM      4  O   UNL     1      40.516  16.263  38.934  1.00  0.00    -0.285 OA
ATOM      5  C   UNL     1      40.723  18.562  39.278  1.00  0.00     0.111 A 
ATOM      6  C   UNL     1      42.145  18.598  39.407  1.00  0.00     0.134 A 
ATOM      7  C   UNL     1      42.801  19.832  39.466  1.00  0.00     0.093 A 
ATOM      8  C   UNL     1      42.087  21.029  39.465  1.00  0.00     0.123 A 
ATOM      9  C   UNL     1      40.693  21.005  39.399  1.00  0.00     0.094 A 
ATOM     10  C   UNL     1      40.012  19.790  39.304  1.00  0.00     0.146 A 
ATOM     11  O   UNL     1      38.686  19.810  39.232  1.00  0.00    -0.452 OA
ENDROOT
BRANCH   1  12
ATOM     12  C   UNL     1      36.470  18.874  39.073  1.00  0.00     0.025 A 
ATOM     13  C   UNL     1      35.706  18.543  40.203  1.00  0.00     0.016 A 
ATOM     14  C   UNL     1      34.315  18.664  40.179  1.00  0.00     0.051 A 
ATOM     15  C   UNL     1      33.664  19.102  39.018  1.00  0.00     0.157 A 
ATOM     16  C   UNL     1      35.812  19.294  37.903  1.00  0.00     0.062 A 
ATOM     17  C   UNL     1      34.418  19.414  37.873  1.00  0.00     0.158 A 
BRANCH  15  18
ATOM     18  O   UNL     1      32.276  19.224  38.996  1.00  0.00    -0.504 OA
ATOM     19  H   UNL     1      31.818  20.108  39.184  1.00  0.00     0.293 HD
ENDBRANCH  15  18
BRANCH  17  20
ATOM     20  O   UNL     1      33.800  19.839  36.697  1.00  0.00    -0.504 OA
ATOM     21  H   UNL     1      33.942  20.770  36.322  1.00  0.00     0.293 HD
ENDBRANCH  17  20
ENDBRANCH   1  12
BRANCH   2  22
ATOM     22  O   UNL     1      37.796  16.311  38.797  1.00  0.00    -0.502 OA
ATOM     23  H   UNL     1      37.359  15.800  39.554  1.00  0.00     0.293 HD
ENDBRANCH   2  22
BRANCH   6  24
ATOM     24  O   UNL     1      42.948  17.458  39.510  1.00  0.00    -0.507 OA
ATOM     25  H   UNL     1      43.884  17.446  39.887  1.00  0.00     0.293 HD
ENDBRANCH   6  24
BRANCH   8  26
ATOM     26  O   UNL     1      42.773  22.240  39.540  1.00  0.00    -0.508 OA
ATOM     27  H   UNL     1      43.372  22.558  38.788  1.00  0.00     0.293 HD
ENDBRANCH   8  26
TORSDOF 6
ENDMDL
MODEL 5
REMARK VINA RESULT:    -6.945     11.863     13.971
REMARK INTER + INTRA:          -8.688
REMARK INTER:                  -8.478
REMARK INTRA:                  -0.211
REMARK UNBOUND:                -0.322
REMARK SMILES O=c1c(O)c(-c2ccc(O)c(O)c2)oc2cc(O)cc(O)c12
REMARK SMILES IDX 5 1 3 2 2 3 1 4 22 5 20 6 19 7 17 8 16 9 15 10 14 11 6 12
REMARK SMILES IDX 7 13 8 14 9 15 13 16 11 17 10 18 12 20 4 22 21 24 18 26
REMARK H PARENT 10 19 12 21 4 23 21 25 18 27
REMARK Flexibility Score: inf
ROOT
ATOM      1  C   UNL     1      28.264  25.864  43.126  1.00  0.00     0.180 A 
ATOM      2  C   UNL     1      28.026  24.805  42.232  1.00  0.00     0.208 A 
ATOM      3  C   UNL     1      28.977  23.778  42.126  1.00  0.00     0.238 A 
ATOM      4  O   UNL     1      28.784  22.861  41.286  1.00  0.00    -0.285 OA
ATOM      5  C   UNL     1      30.145  23.813  42.926  1.00  0.00     0.111 A 
ATOM      6  C   UNL     1      31.156  22.805  42.929  1.00  0.00     0.134 A 
ATOM      7  C   UNL     1      32.329  23.008  43.664  1.00  0.00     0.093 A 
ATOM      8  C   UNL     1      32.503  24.149  44.445  1.00  0.00     0.123 A 
ATOM      9  C   UNL     1      31.496  25.114  44.496  1.00  0.00     0.094 A 
ATOM     10  C   UNL     1      30.328  24.957  43.746  1.00  0.00     0.146 A 
ATOM     11  O   UNL     1      29.399  25.903  43.813  1.00  0.00    -0.452 OA
ENDROOT
BRANCH   1  12
ATOM     12  C   UNL     1      27.296  26.971  43.312  1.00  0.00     0.025 A 
ATOM     13  C   UNL     1      27.669  28.279  42.969  1.00  0.00     0.016 A 
ATOM     14  C   UNL     1      26.781  29.340  43.154  1.00  0.00     0.051 A 
ATOM     15  C   UNL     1      25.511  29.112  43.701  1.00  0.00     0.157 A 
ATOM     16  C   UNL     1      26.028  26.747  43.878  1.00  0.00     0.062 A 
ATOM     17  C   UNL     1      25.136  27.809  44.069  1.00  0.00     0.158 A 
BRANCH  15  18
ATOM     18  O   UNL     1      24.625  30.172  43.884  1.00  0.00    -0.504 OA
ATOM     19  H   UNL     1      24.954  31.118  44.038  1.00  0.00     0.293 HD
ENDBRANCH  15  18
BRANCH  17  20
ATOM     20  O   UNL     1      23.885  27.550  44.629  1.00  0.00    -0.504 OA
ATOM     21  H   UNL     1      23.209  28.285  44.797  1.00  0.00     0.293 HD
ENDBRANCH  17  20
ENDBRANCH   1  12
BRANCH   2  22
ATOM     22  O   UNL     1      26.877  24.801  41.436  1.00  0.00    -0.502 OA
ATOM     23  H   UNL     1      26.895  24.547  40.456  1.00  0.00     0.293 HD
ENDBRANCH   2  22
BRANCH   6  24
ATOM     24  O   UNL     1      31.043  21.585  42.256  1.00  0.00    -0.507 OA
ATOM     25  H   UNL     1      30.405  21.405  41.496  1.00  0.00     0.293 HD
ENDBRANCH   6  24
BRANCH   8  26
ATOM     26  O   UNL     1      33.678  24.311  45.175  1.00  0.00    -0.508 OA
ATOM     27  H   UNL     1      34.590  24.247  44.736  1.00  0.00     0.293 HD
ENDBRANCH   8  26
TORSDOF 6
ENDMDL
MODEL 6
REMARK VINA RESULT:    -6.916     10.750     13.697
REMARK INTER + INTRA:          -8.653
REMARK INTER:                  -8.427
REMARK INTRA:                  -0.226
REMARK UNBOUND:                -0.322
REMARK SMILES O=c1c(O)c(-c2ccc(O)c(O)c2)oc2cc(O)cc(O)c12
REMARK SMILES IDX 5 1 3 2 2 3 1 4 22 5 20 6 19 7 17 8 16 9 15 10 14 11 6 12
REMARK SMILES IDX 7 13 8 14 9 15 13 16 11 17 10 18 12 20 4 22 21 24 18 26
REMARK H PARENT 10 19 12 21 4 23 21 25 18 27
REMARK Flexibility Score: inf
ROOT
ATOM      1  C   UNL     1      39.784  33.165  40.273  1.00  0.00     0.180 A 
ATOM      2  C   UNL     1      40.642  34.271  40.405  1.00  0.00     0.208 A 
ATOM      3  C   UNL     1      40.678  34.961  41.627  1.00  0.00     0.238 A 
ATOM      4  O   UNL     1      41.407  35.983  41.723  1.00  0.00    -0.285 OA
ATOM      5  C   UNL     1      39.868  34.529  42.705  1.00  0.00     0.111 A 
ATOM      6  C   UNL     1      39.854  35.130  44.000  1.00  0.00     0.134 A 
ATOM      7  C   UNL     1      38.919  34.701  44.949  1.00  0.00     0.093 A 
ATOM      8  C   UNL     1      38.042  33.653  44.675  1.00  0.00     0.123 A 
ATOM      9  C   UNL     1      38.088  33.018  43.433  1.00  0.00     0.094 A 
ATOM     10  C   UNL     1      38.985  33.447  42.453  1.00  0.00     0.146 A 
ATOM     11  O   UNL     1      38.989  32.824  41.280  1.00  0.00    -0.452 OA
ENDROOT
BRANCH   1  12
ATOM     12  C   UNL     1      39.710  32.371  39.024  1.00  0.00     0.025 A 
ATOM     13  C   UNL     1      38.520  32.362  38.281  1.00  0.00     0.016 A 
ATOM     14  C   UNL     1      38.420  31.605  37.112  1.00  0.00     0.051 A 
ATOM     15  C   UNL     1      39.504  30.831  36.677  1.00  0.00     0.157 A 
ATOM     16  C   UNL     1      40.790  31.577  38.596  1.00  0.00     0.062 A 
ATOM     17  C   UNL     1      40.693  30.814  37.426  1.00  0.00     0.158 A 
BRANCH  15  18
ATOM     18  O   UNL     1      39.403  30.077  35.509  1.00  0.00    -0.504 OA
ATOM     19  H   UNL     1      40.218  29.658  35.076  1.00  0.00     0.293 HD
ENDBRANCH  15  18
BRANCH  17  20
ATOM     20  O   UNL     1      41.785  30.044  37.029  1.00  0.00    -0.504 OA
ATOM     21  H   UNL     1      42.731  30.406  37.040  1.00  0.00     0.293 HD
ENDBRANCH  17  20
ENDBRANCH   1  12
BRANCH   2  22
ATOM     22  O   UNL     1      41.417  34.694  39.322  1.00  0.00    -0.502 OA
ATOM     23  H   UNL     1      41.116  34.584  38.362  1.00  0.00     0.293 HD
ENDBRANCH   2  22
BRANCH   6  24
ATOM     24  O   UNL     1      40.749  36.123  44.409  1.00  0.00    -0.507 OA
ATOM     25  H   UNL     1      41.635  36.316  43.967  1.00  0.00     0.293 HD
ENDBRANCH   6  24
BRANCH   8  26
ATOM     26  O   UNL     1      37.135  33.242  45.649  1.00  0.00    -0.508 OA
ATOM     27  H   UNL     1      36.149  33.133  45.444  1.00  0.00     0.293 HD
ENDBRANCH   8  26
TORSDOF 6
ENDMDL
MODEL 7
REMARK VINA RESULT:    -6.755      2.010      6.429
REMARK INTER + INTRA:          -8.460
REMARK INTER:                  -8.130
REMARK INTRA:                  -0.330
REMARK UNBOUND:                -0.322
REMARK SMILES O=c1c(O)c(-c2ccc(O)c(O)c2)oc2cc(O)cc(O)c12
REMARK SMILES IDX 5 1 3 2 2 3 1 4 22 5 20 6 19 7 17 8 16 9 15 10 14 11 6 12
REMARK SMILES IDX 7 13 8 14 9 15 13 16 11 17 10 18 12 20 4 22 21 24 18 26
REMARK H PARENT 10 19 12 21 4 23 21 25 18 27
REMARK Flexibility Score: inf
ROOT
ATOM      1  C   UNL     1      40.815  21.818  39.005  1.00  0.00     0.180 A 
ATOM      2  C   UNL     1      42.124  21.548  39.440  1.00  0.00     0.208 A 
ATOM      3  C   UNL     1      42.514  20.213  39.633  1.00  0.00     0.238 A 
ATOM      4  O   UNL     1      43.670  19.979  40.074  1.00  0.00    -0.285 OA
ATOM      5  C   UNL     1      41.597  19.165  39.375  1.00  0.00     0.111 A 
ATOM      6  C   UNL     1      41.898  17.775  39.499  1.00  0.00     0.134 A 
ATOM      7  C   UNL     1      40.876  16.832  39.343  1.00  0.00     0.093 A 
ATOM      8  C   UNL     1      39.581  17.221  39.005  1.00  0.00     0.123 A 
ATOM      9  C   UNL     1      39.289  18.573  38.823  1.00  0.00     0.094 A 
ATOM     10  C   UNL     1      40.279  19.541  39.007  1.00  0.00     0.146 A 
ATOM     11  O   UNL     1      39.958  20.818  38.834  1.00  0.00    -0.452 OA
ENDROOT
BRANCH   1  12
ATOM     12  C   UNL     1      40.337  23.198  38.754  1.00  0.00     0.025 A 
ATOM     13  C   UNL     1      39.611  23.869  39.749  1.00  0.00     0.016 A 
ATOM     14  C   UNL     1      39.133  25.162  39.527  1.00  0.00     0.051 A 
ATOM     15  C   UNL     1      39.361  25.799  38.299  1.00  0.00     0.157 A 
ATOM     16  C   UNL     1      40.548  23.832  37.516  1.00  0.00     0.062 A 
ATOM     17  C   UNL     1      40.069  25.127  37.288  1.00  0.00     0.158 A 
BRANCH  15  18
ATOM     18  O   UNL     1      38.885  27.090  38.080  1.00  0.00    -0.504 OA
ATOM     19  H   UNL     1      38.506  27.651  38.834  1.00  0.00     0.293 HD
ENDBRANCH  15  18
BRANCH  17  20
ATOM     20  O   UNL     1      40.301  25.727  36.051  1.00  0.00    -0.504 OA
ATOM     21  H   UNL     1      39.928  25.344  35.189  1.00  0.00     0.293 HD
ENDBRANCH  17  20
ENDBRANCH   1  12
BRANCH   2  22
ATOM     22  O   UNL     1      43.007  22.597  39.710  1.00  0.00    -0.502 OA
ATOM     23  H   UNL     1      42.799  23.323  40.385  1.00  0.00     0.293 HD
ENDBRANCH   2  22
BRANCH   6  24
ATOM     24  O   UNL     1      43.180  17.273  39.744  1.00  0.00    -0.507 OA
ATOM     25  H   UNL     1      43.653  17.315  40.634  1.00  0.00     0.293 HD
ENDBRANCH   6  24
BRANCH   8  26
ATOM     26  O   UNL     1      38.592  16.254  38.843  1.00  0.00    -0.508 OA
ATOM     27  H   UNL     1      38.720  15.303  39.171  1.00  0.00     0.293 HD
ENDBRANCH   8  26
TORSDOF 6
ENDMDL
MODEL 8
REMARK VINA RESULT:    -6.676     10.859     13.230
REMARK INTER + INTRA:          -8.364
REMARK INTER:                  -8.361
REMARK INTRA:                  -0.004
REMARK UNBOUND:                -0.322
REMARK SMILES O=c1c(O)c(-c2ccc(O)c(O)c2)oc2cc(O)cc(O)c12
REMARK SMILES IDX 5 1 3 2 2 3 1 4 22 5 20 6 19 7 17 8 16 9 15 10 14 11 6 12
REMARK SMILES IDX 7 13 8 14 9 15 13 16 11 17 10 18 12 20 4 22 21 24 18 26
REMARK H PARENT 10 19 12 21 4 23 21 25 18 27
REMARK Flexibility Score: inf
ROOT
ATOM      1  C   UNL     1      34.728  31.816  35.977  1.00  0.00     0.180 A 
ATOM      2  C   UNL     1      35.537  30.720  35.630  1.00  0.00     0.208 A 
ATOM      3  C   UNL     1      36.806  30.599  36.219  1.00  0.00     0.238 A 
ATOM      4  O   UNL     1      37.548  29.646  35.864  1.00  0.00    -0.285 OA
ATOM      5  C   UNL     1      37.244  31.565  37.157  1.00  0.00     0.111 A 
ATOM      6  C   UNL     1      38.494  31.520  37.844  1.00  0.00     0.134 A 
ATOM      7  C   UNL     1      38.877  32.596  38.652  1.00  0.00     0.093 A 
ATOM      8  C   UNL     1      38.031  33.686  38.849  1.00  0.00     0.123 A 
ATOM      9  C   UNL     1      36.781  33.714  38.229  1.00  0.00     0.094 A 
ATOM     10  C   UNL     1      36.385  32.671  37.389  1.00  0.00     0.146 A 
ATOM     11  O   UNL     1      35.192  32.740  36.809  1.00  0.00    -0.452 OA
ENDROOT
BRANCH   1  12
ATOM     12  C   UNL     1      33.368  31.999  35.418  1.00  0.00     0.025 A 
ATOM     13  C   UNL     1      32.449  30.941  35.478  1.00  0.00     0.016 A 
ATOM     14  C   UNL     1      31.168  31.084  34.939  1.00  0.00     0.051 A 
ATOM     15  C   UNL     1      30.793  32.282  34.317  1.00  0.00     0.157 A 
ATOM     16  C   UNL     1      32.995  33.194  34.775  1.00  0.00     0.062 A 
ATOM     17  C   UNL     1      31.714  33.340  34.231  1.00  0.00     0.158 A 
BRANCH  15  18
ATOM     18  O   UNL     1      29.514  32.424  33.782  1.00  0.00    -0.504 OA
ATOM     19  H   UNL     1      28.704  32.008  34.226  1.00  0.00     0.293 HD
ENDBRANCH  15  18
BRANCH  17  20
ATOM     20  O   UNL     1      31.377  34.540  33.606  1.00  0.00    -0.504 OA
ATOM     21  H   UNL     1      30.731  34.577  32.826  1.00  0.00     0.293 HD
ENDBRANCH  17  20
ENDBRANCH   1  12
BRANCH   2  22
ATOM     22  O   UNL     1      35.096  29.790  34.686  1.00  0.00    -0.502 OA
ATOM     23  H   UNL     1      35.714  29.374  34.000  1.00  0.00     0.293 HD
ENDBRANCH   2  22
BRANCH   6  24
ATOM     24  O   UNL     1      39.376  30.436  37.790  1.00  0.00    -0.507 OA
ATOM     25  H   UNL     1      39.389  29.742  37.057  1.00  0.00     0.293 HD
ENDBRANCH   6  24
BRANCH   8  26
ATOM     26  O   UNL     1      38.438  34.734  39.672  1.00  0.00    -0.508 OA
ATOM     27  H   UNL     1      38.099  34.824  40.623  1.00  0.00     0.293 HD
ENDBRANCH   8  26
TORSDOF 6
ENDMDL
MODEL 9
REMARK VINA RESULT:    -6.596      2.599      4.623
REMARK INTER + INTRA:          -8.268
REMARK INTER:                  -7.952
REMARK INTRA:                  -0.316
REMARK UNBOUND:                -0.322
REMARK SMILES O=c1c(O)c(-c2ccc(O)c(O)c2)oc2cc(O)cc(O)c12
REMARK SMILES IDX 5 1 3 2 2 3 1 4 22 5 20 6 19 7 17 8 16 9 15 10 14 11 6 12
REMARK SMILES IDX 7 13 8 14 9 15 13 16 11 17 10 18 12 20 4 22 21 24 18 26
REMARK H PARENT 10 19 12 21 4 23 21 25 18 27
REMARK Flexibility Score: inf
ROOT
ATOM      1  C   UNL     1      36.261  18.560  39.881  1.00  0.00     0.180 A 
ATOM      2  C   UNL     1      36.939  17.506  39.244  1.00  0.00     0.208 A 
ATOM      3  C   UNL     1      38.290  17.677  38.899  1.00  0.00     0.238 A 
ATOM      4  O   UNL     1      38.876  16.750  38.281  1.00  0.00    -0.285 OA
ATOM      5  C   UNL     1      38.949  18.891  39.208  1.00  0.00     0.111 A 
ATOM      6  C   UNL     1      40.326  19.157  38.940  1.00  0.00     0.134 A 
ATOM      7  C   UNL     1      40.838  20.439  39.170  1.00  0.00     0.093 A 
ATOM      8  C   UNL     1      40.044  21.445  39.718  1.00  0.00     0.123 A 
ATOM      9  C   UNL     1      38.712  21.179  40.039  1.00  0.00     0.094 A 
ATOM     10  C   UNL     1      38.162  19.920  39.788  1.00  0.00     0.146 A 
ATOM     11  O   UNL     1      36.888  19.710  40.098  1.00  0.00    -0.452 OA
ENDROOT
BRANCH   1  12
ATOM     12  C   UNL     1      34.844  18.447  40.298  1.00  0.00     0.025 A 
ATOM     13  C   UNL     1      34.532  17.844  41.526  1.00  0.00     0.016 A 
ATOM     14  C   UNL     1      33.202  17.708  41.930  1.00  0.00     0.051 A 
ATOM     15  C   UNL     1      32.163  18.159  41.105  1.00  0.00     0.157 A 
ATOM     16  C   UNL     1      33.798  18.881  39.463  1.00  0.00     0.062 A 
ATOM     17  C   UNL     1      32.464  18.743  39.864  1.00  0.00     0.158 A 
BRANCH  15  18
ATOM     18  O   UNL     1      30.837  18.024  41.511  1.00  0.00    -0.504 OA
ATOM     19  H   UNL     1      30.576  18.047  42.490  1.00  0.00     0.293 HD
ENDBRANCH  15  18
BRANCH  17  20
ATOM     20  O   UNL     1      31.453  19.189  39.013  1.00  0.00    -0.504 OA
ATOM     21  H   UNL     1      31.590  19.965  38.375  1.00  0.00     0.293 HD
ENDBRANCH  17  20
ENDBRANCH   1  12
BRANCH   2  22
ATOM     22  O   UNL     1      36.264  16.324  38.928  1.00  0.00    -0.502 OA
ATOM     23  H   UNL     1      36.743  15.441  38.804  1.00  0.00     0.293 HD
ENDBRANCH   2  22
BRANCH   6  24
ATOM     24  O   UNL     1      41.230  18.196  38.478  1.00  0.00    -0.507 OA
ATOM     25  H   UNL     1      41.431  18.016  37.506  1.00  0.00     0.293 HD
ENDBRANCH   6  24
BRANCH   8  26
ATOM     26  O   UNL     1      40.591  22.705  39.948  1.00  0.00    -0.508 OA
ATOM     27  H   UNL     1      41.566  22.823  40.199  1.00  0.00     0.293 HD
ENDBRANCH   8  26
TORSDOF 6
ENDMDL
