MODEL 1
REMARK VINA RESULT:    -4.455      0.000      0.000
REMARK INTER + INTRA:          -6.124
REMARK INTER:                  -5.758
REMARK INTRA:                  -0.366
REMARK UNBOUND:                -0.366
REMARK SMILES CCCCCCC(=O)[O-]
REMARK SMILES IDX 5 1 6 2 7 3 8 4 9 5 4 6 3 7 2 8 1 9
REMARK H PARENT
REMARK Flexibility Score: inf
ROOT
ATOM      1  C   UNL     1      13.462 -11.229  22.511  1.00  0.00     0.006 C 
ENDROOT
BRANCH   1   2
ATOM      2  C   UNL     1      13.943 -10.455  21.272  1.00  0.00     0.053 C 
BRANCH   2   3
ATOM      3  C   UNL     1      14.284  -9.033  21.595  1.00  0.00     0.041 C 
ATOM      4  O   UNL     1      13.475  -8.110  21.317  1.00  0.00    -0.550 OA
ATOM      5  O   UNL     1      15.510  -8.724  22.171  1.00  0.00    -0.550 OA
ENDBRANCH   2   3
ENDBRANCH   1   2
BRANCH   1   6
ATOM      6  C   UNL     1      14.510 -12.183  23.113  1.00  0.00     0.000 C 
BRANCH   6   7
ATOM      7  C   UNL     1      15.420 -12.816  22.046  1.00  0.00    -0.000 C 
BRANCH   7   8
ATOM      8  C   UNL     1      16.912 -12.594  22.338  1.00  0.00    -0.003 C 
ATOM      9  C   UNL     1      17.542 -11.535  21.434  1.00  0.00     0.004 C 
ENDBRANCH   7   8
ENDBRANCH   6   7
ENDBRANCH   1   6
TORSDOF 5
ENDMDL
MODEL 2
REMARK VINA RESULT:    -4.149      1.470      2.393
REMARK INTER + INTRA:          -5.729
REMARK INTER:                  -5.453
REMARK INTRA:                  -0.276
REMARK UNBOUND:                -0.366
REMARK SMILES CCCCCCC(=O)[O-]
REMARK SMILES IDX 5 1 6 2 7 3 8 4 9 5 4 6 3 7 2 8 1 9
REMARK H PARENT
REMARK Flexibility Score: inf
ROOT
ATOM      1  C   UNL     1      16.108 -10.084  21.899  1.00  0.00     0.006 C 
ENDROOT
BRANCH   1   2
ATOM      2  C   UNL     1      15.018  -9.379  22.725  1.00  0.00     0.053 C 
BRANCH   2   3
ATOM      3  C   UNL     1      13.695  -9.377  22.024  1.00  0.00     0.041 C 
ATOM      4  O   UNL     1      12.824 -10.240  22.312  1.00  0.00    -0.550 OA
ATOM      5  O   UNL     1      13.435  -8.445  21.027  1.00  0.00    -0.550 OA
ENDBRANCH   2   3
ENDBRANCH   1   2
BRANCH   1   6
ATOM      6  C   UNL     1      15.803 -11.556  21.568  1.00  0.00     0.000 C 
BRANCH   6   7
ATOM      7  C   UNL     1      16.607 -12.540  22.436  1.00  0.00    -0.000 C 
BRANCH   7   8
ATOM      8  C   UNL     1      16.060 -12.642  23.869  1.00  0.00    -0.003 C 
ATOM      9  C   UNL     1      14.559 -12.922  23.913  1.00  0.00     0.004 C 
ENDBRANCH   7   8
ENDBRANCH   6   7
ENDBRANCH   1   6
TORSDOF 5
ENDMDL
MODEL 3
REMARK VINA RESULT:    -4.049      2.653      3.973
REMARK INTER + INTRA:          -5.600
REMARK INTER:                  -5.393
REMARK INTRA:                  -0.207
REMARK UNBOUND:                -0.366
REMARK SMILES CCCCCCC(=O)[O-]
REMARK SMILES IDX 5 1 6 2 7 3 8 4 9 5 4 6 3 7 2 8 1 9
REMARK H PARENT
REMARK Flexibility Score: inf
ROOT
ATOM      1  C   UNL     1      13.834 -11.979  22.170  1.00  0.00     0.006 C 
ENDROOT
BRANCH   1   2
ATOM      2  C   UNL     1      14.810 -13.125  22.483  1.00  0.00     0.053 C 
BRANCH   2   3
ATOM      3  C   UNL     1      16.019 -12.647  23.226  1.00  0.00     0.041 C 
ATOM      4  O   UNL     1      15.935 -12.346  24.445  1.00  0.00    -0.550 OA
ATOM      5  O   UNL     1      17.232 -12.501  22.564  1.00  0.00    -0.550 OA
ENDBRANCH   2   3
ENDBRANCH   1   2
BRANCH   1   6
ATOM      6  C   UNL     1      14.364 -10.949  21.156  1.00  0.00     0.000 C 
BRANCH   6   7
ATOM      7  C   UNL     1      13.366  -9.809  20.889  1.00  0.00    -0.000 C 
BRANCH   7   8
ATOM      8  C   UNL     1      13.825  -8.472  21.491  1.00  0.00    -0.003 C 
ATOM      9  C   UNL     1      15.216  -8.551  22.120  1.00  0.00     0.004 C 
ENDBRANCH   7   8
ENDBRANCH   6   7
ENDBRANCH   1   6
TORSDOF 5
ENDMDL
MODEL 4
REMARK VINA RESULT:    -3.612      2.710      4.239
REMARK INTER + INTRA:          -5.034
REMARK INTER:                  -5.149
REMARK INTRA:                   0.115
REMARK UNBOUND:                -0.366
REMARK SMILES CCCCCCC(=O)[O-]
REMARK SMILES IDX 5 1 6 2 7 3 8 4 9 5 4 6 3 7 2 8 1 9
REMARK H PARENT
REMARK Flexibility Score: inf
ROOT
ATOM      1  C   UNL     1      15.742 -10.140  22.348  1.00  0.00     0.006 C 
ENDROOT
BRANCH   1   2
ATOM      2  C   UNL     1      15.113 -10.786  23.593  1.00  0.00     0.053 C 
BRANCH   2   3
ATOM      3  C   UNL     1      15.352 -12.264  23.641  1.00  0.00     0.041 C 
ATOM      4  O   UNL     1      15.963 -12.775  24.616  1.00  0.00    -0.550 OA
ATOM      5  O   UNL     1      14.931 -13.072  22.593  1.00  0.00    -0.550 OA
ENDBRANCH   2   3
ENDBRANCH   1   2
BRANCH   1   6
ATOM      6  C   UNL     1      15.074  -8.825  21.906  1.00  0.00     0.000 C 
BRANCH   6   7
ATOM      7  C   UNL     1      13.540  -8.931  21.840  1.00  0.00    -0.000 C 
BRANCH   7   8
ATOM      8  C   UNL     1      13.068 -10.255  21.220  1.00  0.00    -0.003 C 
ATOM      9  C   UNL     1      13.419 -10.375  19.737  1.00  0.00     0.004 C 
ENDBRANCH   7   8
ENDBRANCH   6   7
ENDBRANCH   1   6
TORSDOF 5
ENDMDL
MODEL 5
REMARK VINA RESULT:    -3.407     15.086     16.071
REMARK INTER + INTRA:          -4.769
REMARK INTER:                  -4.455
REMARK INTRA:                  -0.314
REMARK UNBOUND:                -0.366
REMARK SMILES CCCCCCC(=O)[O-]
REMARK SMILES IDX 5 1 6 2 7 3 8 4 9 5 4 6 3 7 2 8 1 9
REMARK H PARENT
REMARK Flexibility Score: inf
ROOT
ATOM      1  C   UNL     1      16.186  -9.885  38.847  1.00  0.00     0.006 C 
ENDROOT
BRANCH   1   2
ATOM      2  C   UNL     1      16.696  -9.365  37.493  1.00  0.00     0.053 C 
BRANCH   2   3
ATOM      3  C   UNL     1      17.839 -10.180  36.971  1.00  0.00     0.041 C 
ATOM      4  O   UNL     1      19.010  -9.962  37.377  1.00  0.00    -0.550 OA
ATOM      5  O   UNL     1      17.615 -11.159  36.010  1.00  0.00    -0.550 OA
ENDBRANCH   2   3
ENDBRANCH   1   2
BRANCH   1   6
ATOM      6  C   UNL     1      14.951 -10.800  38.754  1.00  0.00     0.000 C 
BRANCH   6   7
ATOM      7  C   UNL     1      15.292 -12.284  38.977  1.00  0.00    -0.000 C 
BRANCH   7   8
ATOM      8  C   UNL     1      15.129 -13.123  37.700  1.00  0.00    -0.003 C 
ATOM      9  C   UNL     1      13.772 -12.920  37.026  1.00  0.00     0.004 C 
ENDBRANCH   7   8
ENDBRANCH   6   7
ENDBRANCH   1   6
TORSDOF 5
ENDMDL
MODEL 6
REMARK VINA RESULT:    -3.353     13.897     14.636
REMARK INTER + INTRA:          -4.699
REMARK INTER:                  -4.570
REMARK INTRA:                  -0.129
REMARK UNBOUND:                -0.366
REMARK SMILES CCCCCCC(=O)[O-]
REMARK SMILES IDX 5 1 6 2 7 3 8 4 9 5 4 6 3 7 2 8 1 9
REMARK H PARENT
REMARK Flexibility Score: inf
ROOT
ATOM      1  C   UNL     1      19.453   2.234  27.452  1.00  0.00     0.006 C 
ENDROOT
BRANCH   1   2
ATOM      2  C   UNL     1      19.571   2.280  25.919  1.00  0.00     0.053 C 
BRANCH   2   3
ATOM      3  C   UNL     1      19.725   3.680  25.409  1.00  0.00     0.041 C 
ATOM      4  O   UNL     1      20.829   4.066  24.942  1.00  0.00    -0.550 OA
ATOM      5  O   UNL     1      18.660   4.568  25.480  1.00  0.00    -0.550 OA
ENDBRANCH   2   3
ENDBRANCH   1   2
BRANCH   1   6
ATOM      6  C   UNL     1      19.160   0.836  28.026  1.00  0.00     0.000 C 
BRANCH   6   7
ATOM      7  C   UNL     1      20.122   0.446  29.162  1.00  0.00    -0.000 C 
BRANCH   7   8
ATOM      8  C   UNL     1      21.435  -0.159  28.639  1.00  0.00    -0.003 C 
ATOM      9  C   UNL     1      21.631  -1.612  29.067  1.00  0.00     0.004 C 
ENDBRANCH   7   8
ENDBRANCH   6   7
ENDBRANCH   1   6
TORSDOF 5
ENDMDL
MODEL 7
REMARK VINA RESULT:    -3.255     15.612     16.733
REMARK INTER + INTRA:          -4.573
REMARK INTER:                  -4.375
REMARK INTRA:                  -0.198
REMARK UNBOUND:                -0.366
REMARK SMILES CCCCCCC(=O)[O-]
REMARK SMILES IDX 5 1 6 2 7 3 8 4 9 5 4 6 3 7 2 8 1 9
REMARK H PARENT
REMARK Flexibility Score: inf
ROOT
ATOM      1  C   UNL     1      15.476  -9.571  38.420  1.00  0.00     0.006 C 
ENDROOT
BRANCH   1   2
ATOM      2  C   UNL     1      16.876 -10.156  38.671  1.00  0.00     0.053 C 
BRANCH   2   3
ATOM      3  C   UNL     1      17.725 -10.131  37.438  1.00  0.00     0.041 C 
ATOM      4  O   UNL     1      18.913  -9.719  37.495  1.00  0.00    -0.550 OA
ATOM      5  O   UNL     1      17.194 -10.530  36.218  1.00  0.00    -0.550 OA
ENDBRANCH   2   3
ENDBRANCH   1   2
BRANCH   1   6
ATOM      6  C   UNL     1      15.386  -8.043  38.584  1.00  0.00     0.000 C 
BRANCH   6   7
ATOM      7  C   UNL     1      13.970  -7.567  38.957  1.00  0.00    -0.000 C 
BRANCH   7   8
ATOM      8  C   UNL     1      12.903  -8.643  38.705  1.00  0.00    -0.003 C 
ATOM      9  C   UNL     1      11.739  -8.137  37.852  1.00  0.00     0.004 C 
ENDBRANCH   7   8
ENDBRANCH   6   7
ENDBRANCH   1   6
TORSDOF 5
ENDMDL
MODEL 8
REMARK VINA RESULT:    -3.119     16.139     16.718
REMARK INTER + INTRA:          -4.397
REMARK INTER:                  -4.236
REMARK INTRA:                  -0.161
REMARK UNBOUND:                -0.366
REMARK SMILES CCCCCCC(=O)[O-]
REMARK SMILES IDX 5 1 6 2 7 3 8 4 9 5 4 6 3 7 2 8 1 9
REMARK H PARENT
REMARK Flexibility Score: inf
ROOT
ATOM      1  C   UNL     1      13.932  -8.477  38.732  1.00  0.00     0.006 C 
ENDROOT
BRANCH   1   2
ATOM      2  C   UNL     1      12.630  -7.668  38.602  1.00  0.00     0.053 C 
BRANCH   2   3
ATOM      3  C   UNL     1      12.887  -6.194  38.549  1.00  0.00     0.041 C 
ATOM      4  O   UNL     1      11.935  -5.391  38.366  1.00  0.00    -0.550 OA
ATOM      5  O   UNL     1      14.183  -5.708  38.668  1.00  0.00    -0.550 OA
ENDBRANCH   2   3
ENDBRANCH   1   2
BRANCH   1   6
ATOM      6  C   UNL     1      13.738 -10.004  38.698  1.00  0.00     0.000 C 
BRANCH   6   7
ATOM      7  C   UNL     1      15.012 -10.756  38.272  1.00  0.00    -0.000 C 
BRANCH   7   8
ATOM      8  C   UNL     1      16.295 -10.034  38.710  1.00  0.00    -0.003 C 
ATOM      9  C   UNL     1      17.261  -9.783  37.553  1.00  0.00     0.004 C 
ENDBRANCH   7   8
ENDBRANCH   6   7
ENDBRANCH   1   6
TORSDOF 5
ENDMDL
