MODEL 1
REMARK VINA RESULT:    -4.530      0.000      0.000
REMARK INTER + INTRA:          -4.816
REMARK INTER:                  -4.795
REMARK INTRA:                  -0.021
REMARK UNBOUND:                -0.021
REMARK SMILES O=C([O-])c1cccnc1
REMARK SMILES IDX 4 1 5 2 9 3 6 4 8 5 7 6 2 7 1 8 3 9
REMARK H PARENT
REMARK Flexibility Score: inf
ROOT
ATOM      1  C   UNL     1      11.824 -15.552   5.558  1.00  0.00     0.016 A 
ATOM      2  C   UNL     1      11.987 -16.947   5.627  1.00  0.00     0.013 A 
ATOM      3  C   UNL     1      10.588 -15.046   5.122  1.00  0.00     0.120 A 
ATOM      4  C   UNL     1      10.938 -17.793   5.266  1.00  0.00     0.021 A 
ATOM      5  N   UNL     1       9.582 -15.893   4.777  1.00  0.00    -0.264 NA
ATOM      6  C   UNL     1       9.729 -17.242   4.840  1.00  0.00     0.111 A 
ENDROOT
BRANCH   1   7
ATOM      7  C   UNL     1      12.929 -14.645   5.938  1.00  0.00     0.073 C 
ATOM      8  O   UNL     1      13.115 -13.566   5.313  1.00  0.00    -0.545 OA
ATOM      9  O   UNL     1      13.779 -14.971   6.989  1.00  0.00    -0.545 OA
ENDBRANCH   1   7
TORSDOF 1
ENDMDL
MODEL 2
REMARK VINA RESULT:    -4.452      2.193      2.727
REMARK INTER + INTRA:          -4.733
REMARK INTER:                  -4.714
REMARK INTRA:                  -0.019
REMARK UNBOUND:                -0.021
REMARK SMILES O=C([O-])c1cccnc1
REMARK SMILES IDX 4 1 5 2 9 3 6 4 8 5 7 6 2 7 1 8 3 9
REMARK H PARENT
REMARK Flexibility Score: inf
ROOT
ATOM      1  C   UNL     1      10.807 -16.511   4.557  1.00  0.00     0.016 A 
ATOM      2  C   UNL     1      10.094 -17.543   5.190  1.00  0.00     0.013 A 
ATOM      3  C   UNL     1      11.769 -16.859   3.592  1.00  0.00     0.120 A 
ATOM      4  C   UNL     1      10.347 -18.875   4.860  1.00  0.00     0.021 A 
ATOM      5  N   UNL     1      11.996 -18.165   3.290  1.00  0.00    -0.264 NA
ATOM      6  C   UNL     1      11.312 -19.170   3.896  1.00  0.00     0.111 A 
ENDROOT
BRANCH   1   7
ATOM      7  C   UNL     1      10.548 -15.096   4.898  1.00  0.00     0.073 C 
ATOM      8  O   UNL     1       9.370 -14.650   4.926  1.00  0.00    -0.545 OA
ATOM      9  O   UNL     1      11.601 -14.238   5.194  1.00  0.00    -0.545 OA
ENDBRANCH   1   7
TORSDOF 1
ENDMDL
MODEL 3
REMARK VINA RESULT:    -4.404      2.972      3.777
REMARK INTER + INTRA:          -4.682
REMARK INTER:                  -4.660
REMARK INTRA:                  -0.023
REMARK UNBOUND:                -0.021
REMARK SMILES O=C([O-])c1cccnc1
REMARK SMILES IDX 4 1 5 2 9 3 6 4 8 5 7 6 2 7 1 8 3 9
REMARK H PARENT
REMARK Flexibility Score: inf
ROOT
ATOM      1  C   UNL     1      10.598 -17.274   5.165  1.00  0.00     0.016 A 
ATOM      2  C   UNL     1      11.897 -16.871   5.522  1.00  0.00     0.013 A 
ATOM      3  C   UNL     1       9.666 -16.283   4.810  1.00  0.00     0.120 A 
ATOM      4  C   UNL     1      12.235 -15.517   5.522  1.00  0.00     0.021 A 
ATOM      5  N   UNL     1      10.022 -14.971   4.819  1.00  0.00    -0.264 NA
ATOM      6  C   UNL     1      11.274 -14.571   5.163  1.00  0.00     0.111 A 
ENDROOT
BRANCH   1   7
ATOM      7  C   UNL     1      10.228 -18.706   5.161  1.00  0.00     0.073 C 
ATOM      8  O   UNL     1       9.018 -19.054   5.209  1.00  0.00    -0.545 OA
ATOM      9  O   UNL     1      11.211 -19.687   5.105  1.00  0.00    -0.545 OA
ENDBRANCH   1   7
TORSDOF 1
ENDMDL
MODEL 4
REMARK VINA RESULT:    -4.385      7.064      8.330
REMARK INTER + INTRA:          -4.662
REMARK INTER:                  -4.646
REMARK INTRA:                  -0.016
REMARK UNBOUND:                -0.021
REMARK SMILES O=C([O-])c1cccnc1
REMARK SMILES IDX 4 1 5 2 9 3 6 4 8 5 7 6 2 7 1 8 3 9
REMARK H PARENT
REMARK Flexibility Score: inf
ROOT
ATOM      1  C   UNL     1      13.947  -8.824   9.533  1.00  0.00     0.016 A 
ATOM      2  C   UNL     1      14.011  -8.677   8.137  1.00  0.00     0.013 A 
ATOM      3  C   UNL     1      13.683 -10.101  10.059  1.00  0.00     0.120 A 
ATOM      4  C   UNL     1      13.814  -9.781   7.307  1.00  0.00     0.021 A 
ATOM      5  N   UNL     1      13.495 -11.159   9.227  1.00  0.00    -0.264 NA
ATOM      6  C   UNL     1      13.555 -11.029   7.876  1.00  0.00     0.111 A 
ENDROOT
BRANCH   1   7
ATOM      7  C   UNL     1      14.154  -7.661  10.423  1.00  0.00     0.073 C 
ATOM      8  O   UNL     1      15.299  -7.400  10.880  1.00  0.00    -0.545 OA
ATOM      9  O   UNL     1      13.087  -6.839  10.769  1.00  0.00    -0.545 OA
ENDBRANCH   1   7
TORSDOF 1
ENDMDL
MODEL 5
REMARK VINA RESULT:    -4.297      6.835      7.775
REMARK INTER + INTRA:          -4.569
REMARK INTER:                  -4.550
REMARK INTRA:                  -0.019
REMARK UNBOUND:                -0.021
REMARK SMILES O=C([O-])c1cccnc1
REMARK SMILES IDX 4 1 5 2 9 3 6 4 8 5 7 6 2 7 1 8 3 9
REMARK H PARENT
REMARK Flexibility Score: inf
ROOT
ATOM      1  C   UNL     1      13.320 -10.656   9.999  1.00  0.00     0.016 A 
ATOM      2  C   UNL     1      13.477 -11.031   8.653  1.00  0.00     0.013 A 
ATOM      3  C   UNL     1      13.598  -9.326  10.358  1.00  0.00     0.120 A 
ATOM      4  C   UNL     1      13.902 -10.094   7.710  1.00  0.00     0.021 A 
ATOM      5  N   UNL     1      14.011  -8.434   9.419  1.00  0.00    -0.264 NA
ATOM      6  C   UNL     1      14.166  -8.785   8.116  1.00  0.00     0.111 A 
ENDROOT
BRANCH   1   7
ATOM      7  C   UNL     1      12.870 -11.640  11.007  1.00  0.00     0.073 C 
ATOM      8  O   UNL     1      13.427 -12.767  11.094  1.00  0.00    -0.545 OA
ATOM      9  O   UNL     1      11.826 -11.336  11.872  1.00  0.00    -0.545 OA
ENDBRANCH   1   7
TORSDOF 1
ENDMDL
MODEL 6
REMARK VINA RESULT:    -4.289      2.619      3.564
REMARK INTER + INTRA:          -4.561
REMARK INTER:                  -4.540
REMARK INTRA:                  -0.021
REMARK UNBOUND:                -0.021
REMARK SMILES O=C([O-])c1cccnc1
REMARK SMILES IDX 4 1 5 2 9 3 6 4 8 5 7 6 2 7 1 8 3 9
REMARK H PARENT
REMARK Flexibility Score: inf
ROOT
ATOM      1  C   UNL     1      11.727 -15.948   5.447  1.00  0.00     0.016 A 
ATOM      2  C   UNL     1      12.817 -15.995   6.333  1.00  0.00     0.013 A 
ATOM      3  C   UNL     1      11.447 -14.734   4.796  1.00  0.00     0.120 A 
ATOM      4  C   UNL     1      13.592 -14.855   6.551  1.00  0.00     0.021 A 
ATOM      5  N   UNL     1      12.218 -13.639   5.027  1.00  0.00    -0.264 NA
ATOM      6  C   UNL     1      13.275 -13.672   5.880  1.00  0.00     0.111 A 
ENDROOT
BRANCH   1   7
ATOM      7  C   UNL     1      10.899 -17.150   5.209  1.00  0.00     0.073 C 
ATOM      8  O   UNL     1       9.664 -17.041   4.980  1.00  0.00    -0.545 OA
ATOM      9  O   UNL     1      11.471 -18.416   5.233  1.00  0.00    -0.545 OA
ENDBRANCH   1   7
TORSDOF 1
ENDMDL
MODEL 7
REMARK VINA RESULT:    -4.254      2.350      3.056
REMARK INTER + INTRA:          -4.524
REMARK INTER:                  -4.507
REMARK INTRA:                  -0.017
REMARK UNBOUND:                -0.021
REMARK SMILES O=C([O-])c1cccnc1
REMARK SMILES IDX 4 1 5 2 9 3 6 4 8 5 7 6 2 7 1 8 3 9
REMARK H PARENT
REMARK Flexibility Score: inf
ROOT
ATOM      1  C   UNL     1      10.560 -16.907   4.279  1.00  0.00     0.016 A 
ATOM      2  C   UNL     1      11.589 -17.663   3.689  1.00  0.00     0.013 A 
ATOM      3  C   UNL     1       9.594 -17.580   5.047  1.00  0.00     0.120 A 
ATOM      4  C   UNL     1      11.634 -19.046   3.870  1.00  0.00     0.021 A 
ATOM      5  N   UNL     1       9.662 -18.928   5.207  1.00  0.00    -0.264 NA
ATOM      6  C   UNL     1      10.652 -19.668   4.642  1.00  0.00     0.111 A 
ENDROOT
BRANCH   1   7
ATOM      7  C   UNL     1      10.502 -15.442   4.093  1.00  0.00     0.073 C 
ATOM      8  O   UNL     1      10.810 -14.664   5.037  1.00  0.00    -0.545 OA
ATOM      9  O   UNL     1      10.106 -14.900   2.876  1.00  0.00    -0.545 OA
ENDBRANCH   1   7
TORSDOF 1
ENDMDL
MODEL 8
REMARK VINA RESULT:    -4.193     12.618     13.469
REMARK INTER + INTRA:          -4.458
REMARK INTER:                  -4.436
REMARK INTRA:                  -0.023
REMARK UNBOUND:                -0.021
REMARK SMILES O=C([O-])c1cccnc1
REMARK SMILES IDX 4 1 5 2 9 3 6 4 8 5 7 6 2 7 1 8 3 9
REMARK H PARENT
REMARK Flexibility Score: inf
ROOT
ATOM      1  C   UNL     1      11.943  -5.248  13.608  1.00  0.00     0.016 A 
ATOM      2  C   UNL     1      11.303  -5.732  12.454  1.00  0.00     0.013 A 
ATOM      3  C   UNL     1      13.213  -4.662  13.471  1.00  0.00     0.120 A 
ATOM      4  C   UNL     1      11.927  -5.626  11.211  1.00  0.00     0.021 A 
ATOM      5  N   UNL     1      13.799  -4.572  12.248  1.00  0.00    -0.264 NA
ATOM      6  C   UNL     1      13.189  -5.036  11.126  1.00  0.00     0.111 A 
ENDROOT
BRANCH   1   7
ATOM      7  C   UNL     1      11.291  -5.355  14.932  1.00  0.00     0.073 C 
ATOM      8  O   UNL     1      10.037  -5.445  15.022  1.00  0.00    -0.545 OA
ATOM      9  O   UNL     1      12.053  -5.356  16.094  1.00  0.00    -0.545 OA
ENDBRANCH   1   7
TORSDOF 1
ENDMDL
MODEL 9
REMARK VINA RESULT:    -4.087      9.090     10.259
REMARK INTER + INTRA:          -4.347
REMARK INTER:                  -4.323
REMARK INTRA:                  -0.024
REMARK UNBOUND:                -0.021
REMARK SMILES O=C([O-])c1cccnc1
REMARK SMILES IDX 4 1 5 2 9 3 6 4 8 5 7 6 2 7 1 8 3 9
REMARK H PARENT
REMARK Flexibility Score: inf
ROOT
ATOM      1  C   UNL     1      14.178  -7.310  10.498  1.00  0.00     0.016 A 
ATOM      2  C   UNL     1      13.466  -8.225   9.704  1.00  0.00     0.013 A 
ATOM      3  C   UNL     1      15.531  -7.575  10.771  1.00  0.00     0.120 A 
ATOM      4  C   UNL     1      14.100  -9.365   9.208  1.00  0.00     0.021 A 
ATOM      5  N   UNL     1      16.125  -8.693  10.275  1.00  0.00    -0.264 NA
ATOM      6  C   UNL     1      15.446  -9.584   9.506  1.00  0.00     0.111 A 
ENDROOT
BRANCH   1   7
ATOM      7  C   UNL     1      13.516  -6.099  11.030  1.00  0.00     0.073 C 
ATOM      8  O   UNL     1      12.323  -5.834  10.722  1.00  0.00    -0.545 OA
ATOM      9  O   UNL     1      14.201  -5.236  11.877  1.00  0.00    -0.545 OA
ENDBRANCH   1   7
TORSDOF 1
ENDMDL
