MODEL 1
REMARK VINA RESULT:    -4.946      0.000      0.000
REMARK INTER + INTRA:          -6.852
REMARK INTER:                  -6.247
REMARK INTRA:                  -0.605
REMARK UNBOUND:                -0.605
REMARK SMILES O=C(C=Cc1ccc(O)cc1)c1ccc(O)cc1O
REMARK SMILES IDX 4 1 3 2 5 3 6 4 7 5 8 6 11 7 10 8 9 9 2 11 1 12 12 13 18 14
REMARK SMILES IDX 13 15 17 16 14 17 15 18 19 19 16 21
REMARK H PARENT 9 10 19 20 16 22
REMARK Flexibility Score: inf
ROOT
ATOM      1  C   UNL     1      -6.489  -6.721  -8.940  1.00  0.00     0.012 C 
ATOM      2  C   UNL     1      -6.866  -7.643  -9.837  1.00  0.00     0.053 C 
ENDROOT
BRANCH   1   3
ATOM      3  C   UNL     1      -7.443  -5.913  -8.140  1.00  0.00    -0.025 A 
ATOM      4  C   UNL     1      -7.901  -6.429  -6.916  1.00  0.00     0.012 A 
ATOM      5  C   UNL     1      -8.793  -5.699  -6.125  1.00  0.00     0.047 A 
ATOM      6  C   UNL     1      -9.231  -4.438  -6.539  1.00  0.00     0.115 A 
ATOM      7  C   UNL     1      -7.878  -4.634  -8.544  1.00  0.00     0.012 A 
ATOM      8  C   UNL     1      -8.769  -3.906  -7.749  1.00  0.00     0.047 A 
BRANCH   6   9
ATOM      9  O   UNL     1     -10.120  -3.722  -5.741  1.00  0.00    -0.508 OA
ATOM     10  H   UNL     1     -10.068  -3.755  -4.729  1.00  0.00     0.293 HD
ENDBRANCH   6   9
ENDBRANCH   1   3
BRANCH   2  11
ATOM     11  C   UNL     1      -5.886  -8.441 -10.606  1.00  0.00     0.189 C 
ATOM     12  O   UNL     1      -5.911  -8.431 -11.868  1.00  0.00    -0.289 OA
BRANCH  11  13
ATOM     13  C   UNL     1      -4.890  -9.279  -9.905  1.00  0.00     0.064 A 
ATOM     14  C   UNL     1      -3.540  -8.875  -9.757  1.00  0.00     0.130 A 
ATOM     15  C   UNL     1      -5.285 -10.534  -9.404  1.00  0.00     0.020 A 
ATOM     16  C   UNL     1      -2.619  -9.738  -9.151  1.00  0.00     0.093 A 
ATOM     17  C   UNL     1      -4.358 -11.378  -8.787  1.00  0.00     0.047 A 
ATOM     18  C   UNL     1      -3.022 -10.984  -8.664  1.00  0.00     0.119 A 
BRANCH  14  19
ATOM     19  O   UNL     1      -3.087  -7.621 -10.173  1.00  0.00    -0.507 OA
ATOM     20  H   UNL     1      -3.676  -6.798 -10.195  1.00  0.00     0.293 HD
ENDBRANCH  14  19
BRANCH  18  21
ATOM     21  O   UNL     1      -2.087 -11.820  -8.058  1.00  0.00    -0.508 OA
ATOM     22  H   UNL     1      -1.948 -11.819  -7.054  1.00  0.00     0.293 HD
ENDBRANCH  18  21
ENDBRANCH  11  13
ENDBRANCH   2  11
TORSDOF 6
ENDMDL
MODEL 2
REMARK VINA RESULT:    -4.890      4.678      6.239
REMARK INTER + INTRA:          -6.782
REMARK INTER:                  -6.108
REMARK INTRA:                  -0.674
REMARK UNBOUND:                -0.605
REMARK SMILES O=C(C=Cc1ccc(O)cc1)c1ccc(O)cc1O
REMARK SMILES IDX 4 1 3 2 5 3 6 4 7 5 8 6 11 7 10 8 9 9 2 11 1 12 12 13 18 14
REMARK SMILES IDX 13 15 17 16 14 17 15 18 19 19 16 21
REMARK H PARENT 9 10 19 20 16 22
REMARK Flexibility Score: inf
ROOT
ATOM      1  C   UNL     1      -3.917  -6.348  -9.635  1.00  0.00     0.012 C 
ATOM      2  C   UNL     1      -3.838  -5.814 -10.862  1.00  0.00     0.053 C 
ENDROOT
BRANCH   1   3
ATOM      3  C   UNL     1      -5.184  -6.828  -9.027  1.00  0.00    -0.025 A 
ATOM      4  C   UNL     1      -5.531  -8.182  -9.176  1.00  0.00     0.012 A 
ATOM      5  C   UNL     1      -6.709  -8.681  -8.613  1.00  0.00     0.047 A 
ATOM      6  C   UNL     1      -7.551  -7.838  -7.883  1.00  0.00     0.115 A 
ATOM      7  C   UNL     1      -6.031  -5.988  -8.277  1.00  0.00     0.012 A 
ATOM      8  C   UNL     1      -7.208  -6.491  -7.714  1.00  0.00     0.047 A 
BRANCH   6   9
ATOM      9  O   UNL     1      -8.723  -8.348  -7.327  1.00  0.00    -0.508 OA
ATOM     10  H   UNL     1      -8.714  -8.862  -6.454  1.00  0.00     0.293 HD
ENDBRANCH   6   9
ENDBRANCH   1   3
BRANCH   2  11
ATOM     11  C   UNL     1      -2.555  -5.359 -11.441  1.00  0.00     0.189 C 
ATOM     12  O   UNL     1      -1.819  -6.171 -12.067  1.00  0.00    -0.289 OA
BRANCH  11  13
ATOM     13  C   UNL     1      -2.110  -3.960 -11.266  1.00  0.00     0.064 A 
ATOM     14  C   UNL     1      -0.861  -3.638 -10.681  1.00  0.00     0.130 A 
ATOM     15  C   UNL     1      -2.970  -2.916 -11.654  1.00  0.00     0.020 A 
ATOM     16  C   UNL     1      -0.518  -2.297 -10.469  1.00  0.00     0.093 A 
ATOM     17  C   UNL     1      -2.609  -1.582 -11.450  1.00  0.00     0.047 A 
ATOM     18  C   UNL     1      -1.384  -1.269 -10.853  1.00  0.00     0.119 A 
BRANCH  14  19
ATOM     19  O   UNL     1       0.071  -4.616 -10.326  1.00  0.00    -0.507 OA
ATOM     20  H   UNL     1       0.792  -4.948 -10.954  1.00  0.00     0.293 HD
ENDBRANCH  14  19
BRANCH  18  21
ATOM     21  O   UNL     1      -1.016   0.057 -10.637  1.00  0.00    -0.508 OA
ATOM     22  H   UNL     1      -0.125   0.418 -10.959  1.00  0.00     0.293 HD
ENDBRANCH  18  21
ENDBRANCH  11  13
ENDBRANCH   2  11
TORSDOF 6
ENDMDL
MODEL 3
REMARK VINA RESULT:    -4.820      3.460      8.729
REMARK INTER + INTRA:          -6.693
REMARK INTER:                  -6.061
REMARK INTRA:                  -0.632
REMARK UNBOUND:                -0.605
REMARK SMILES O=C(C=Cc1ccc(O)cc1)c1ccc(O)cc1O
REMARK SMILES IDX 4 1 3 2 5 3 6 4 7 5 8 6 11 7 10 8 9 9 2 11 1 12 12 13 18 14
REMARK SMILES IDX 13 15 17 16 14 17 15 18 19 19 16 21
REMARK H PARENT 9 10 19 20 16 22
REMARK Flexibility Score: inf
ROOT
ATOM      1  C   UNL     1      -7.333  -4.130  -9.293  1.00  0.00     0.012 C 
ATOM      2  C   UNL     1      -7.276  -2.822  -9.586  1.00  0.00     0.053 C 
ENDROOT
BRANCH   1   3
ATOM      3  C   UNL     1      -6.191  -5.062  -9.465  1.00  0.00    -0.025 A 
ATOM      4  C   UNL     1      -5.401  -4.952 -10.623  1.00  0.00     0.012 A 
ATOM      5  C   UNL     1      -4.310  -5.801 -10.824  1.00  0.00     0.047 A 
ATOM      6  C   UNL     1      -3.984  -6.766  -9.866  1.00  0.00     0.115 A 
ATOM      7  C   UNL     1      -5.846  -6.027  -8.497  1.00  0.00     0.012 A 
ATOM      8  C   UNL     1      -4.753  -6.874  -8.701  1.00  0.00     0.047 A 
BRANCH   6   9
ATOM      9  O   UNL     1      -2.893  -7.606 -10.079  1.00  0.00    -0.508 OA
ATOM     10  H   UNL     1      -1.962  -7.237 -10.232  1.00  0.00     0.293 HD
ENDBRANCH   6   9
ENDBRANCH   1   3
BRANCH   2  11
ATOM     11  C   UNL     1      -8.431  -1.920  -9.388  1.00  0.00     0.189 C 
ATOM     12  O   UNL     1      -9.339  -1.852 -10.261  1.00  0.00    -0.289 OA
BRANCH  11  13
ATOM     13  C   UNL     1      -8.515  -1.068  -8.182  1.00  0.00     0.064 A 
ATOM     14  C   UNL     1      -8.323   0.335  -8.239  1.00  0.00     0.130 A 
ATOM     15  C   UNL     1      -8.754  -1.672  -6.934  1.00  0.00     0.020 A 
ATOM     16  C   UNL     1      -8.339   1.087  -7.059  1.00  0.00     0.093 A 
ATOM     17  C   UNL     1      -8.782  -0.907  -5.766  1.00  0.00     0.047 A 
ATOM     18  C   UNL     1      -8.571   0.474  -5.825  1.00  0.00     0.119 A 
BRANCH  14  19
ATOM     19  O   UNL     1      -8.143   1.014  -9.447  1.00  0.00    -0.507 OA
ATOM     20  H   UNL     1      -8.846   1.051 -10.173  1.00  0.00     0.293 HD
ENDBRANCH  14  19
BRANCH  18  21
ATOM     21  O   UNL     1      -8.589   1.246  -4.666  1.00  0.00    -0.508 OA
ATOM     22  H   UNL     1      -9.388   1.247  -4.043  1.00  0.00     0.293 HD
ENDBRANCH  18  21
ENDBRANCH  11  13
ENDBRANCH   2  11
TORSDOF 6
ENDMDL
MODEL 4
REMARK VINA RESULT:    -4.809      3.530      4.628
REMARK INTER + INTRA:          -6.679
REMARK INTER:                  -6.020
REMARK INTRA:                  -0.659
REMARK UNBOUND:                -0.605
REMARK SMILES O=C(C=Cc1ccc(O)cc1)c1ccc(O)cc1O
REMARK SMILES IDX 4 1 3 2 5 3 6 4 7 5 8 6 11 7 10 8 9 9 2 11 1 12 12 13 18 14
REMARK SMILES IDX 13 15 17 16 14 17 15 18 19 19 16 21
REMARK H PARENT 9 10 19 20 16 22
REMARK Flexibility Score: inf
ROOT
ATOM      1  C   UNL     1      -4.937  -5.748 -11.368  1.00  0.00     0.012 C 
ATOM      2  C   UNL     1      -5.320  -6.324 -10.219  1.00  0.00     0.053 C 
ENDROOT
BRANCH   1   3
ATOM      3  C   UNL     1      -4.493  -4.336 -11.471  1.00  0.00    -0.025 A 
ATOM      4  C   UNL     1      -5.446  -3.316 -11.307  1.00  0.00     0.012 A 
ATOM      5  C   UNL     1      -5.073  -1.972 -11.386  1.00  0.00     0.047 A 
ATOM      6  C   UNL     1      -3.739  -1.625 -11.619  1.00  0.00     0.115 A 
ATOM      7  C   UNL     1      -3.147  -3.978 -11.691  1.00  0.00     0.012 A 
ATOM      8  C   UNL     1      -2.777  -2.631 -11.769  1.00  0.00     0.047 A 
BRANCH   6   9
ATOM      9  O   UNL     1      -3.381  -0.281 -11.696  1.00  0.00    -0.508 OA
ATOM     10  H   UNL     1      -2.787   0.067 -12.440  1.00  0.00     0.293 HD
ENDBRANCH   6   9
ENDBRANCH   1   3
BRANCH   2  11
ATOM     11  C   UNL     1      -5.743  -7.740 -10.151  1.00  0.00     0.189 C 
ATOM     12  O   UNL     1      -6.923  -8.064 -10.459  1.00  0.00    -0.289 OA
BRANCH  11  13
ATOM     13  C   UNL     1      -4.799  -8.781  -9.692  1.00  0.00     0.064 A 
ATOM     14  C   UNL     1      -4.717 -10.049 -10.319  1.00  0.00     0.130 A 
ATOM     15  C   UNL     1      -3.984  -8.520  -8.574  1.00  0.00     0.020 A 
ATOM     16  C   UNL     1      -3.860 -11.027  -9.800  1.00  0.00     0.093 A 
ATOM     17  C   UNL     1      -3.122  -9.501  -8.077  1.00  0.00     0.047 A 
ATOM     18  C   UNL     1      -3.062 -10.758  -8.686  1.00  0.00     0.119 A 
BRANCH  14  19
ATOM     19  O   UNL     1      -5.447 -10.361 -11.468  1.00  0.00    -0.507 OA
ATOM     20  H   UNL     1      -5.042 -10.378 -12.395  1.00  0.00     0.293 HD
ENDBRANCH  14  19
BRANCH  18  21
ATOM     21  O   UNL     1      -2.212 -11.745  -8.194  1.00  0.00    -0.508 OA
ATOM     22  H   UNL     1      -1.745 -12.399  -8.813  1.00  0.00     0.293 HD
ENDBRANCH  18  21
ENDBRANCH  11  13
ENDBRANCH   2  11
TORSDOF 6
ENDMDL
MODEL 5
REMARK VINA RESULT:    -4.777      2.652      7.406
REMARK INTER + INTRA:          -6.639
REMARK INTER:                  -5.996
REMARK INTRA:                  -0.643
REMARK UNBOUND:                -0.605
REMARK SMILES O=C(C=Cc1ccc(O)cc1)c1ccc(O)cc1O
REMARK SMILES IDX 4 1 3 2 5 3 6 4 7 5 8 6 11 7 10 8 9 9 2 11 1 12 12 13 18 14
REMARK SMILES IDX 13 15 17 16 14 17 15 18 19 19 16 21
REMARK H PARENT 9 10 19 20 16 22
REMARK Flexibility Score: inf
ROOT
ATOM      1  C   UNL     1      -6.360  -7.597  -8.871  1.00  0.00     0.012 C 
ATOM      2  C   UNL     1      -6.284  -6.366  -8.345  1.00  0.00     0.053 C 
ENDROOT
BRANCH   1   3
ATOM      3  C   UNL     1      -5.305  -8.628  -8.706  1.00  0.00    -0.025 A 
ATOM      4  C   UNL     1      -5.693  -9.974  -8.581  1.00  0.00     0.012 A 
ATOM      5  C   UNL     1      -4.734 -10.980  -8.433  1.00  0.00     0.047 A 
ATOM      6  C   UNL     1      -3.374 -10.659  -8.420  1.00  0.00     0.115 A 
ATOM      7  C   UNL     1      -3.931  -8.314  -8.706  1.00  0.00     0.012 A 
ATOM      8  C   UNL     1      -2.975  -9.324  -8.560  1.00  0.00     0.047 A 
BRANCH   6   9
ATOM      9  O   UNL     1      -2.429 -11.672  -8.272  1.00  0.00    -0.508 OA
ATOM     10  H   UNL     1      -2.214 -12.310  -9.029  1.00  0.00     0.293 HD
ENDBRANCH   6   9
ENDBRANCH   1   3
BRANCH   2  11
ATOM     11  C   UNL     1      -7.362  -5.368  -8.519  1.00  0.00     0.189 C 
ATOM     12  O   UNL     1      -8.500  -5.569  -8.012  1.00  0.00    -0.289 OA
BRANCH  11  13
ATOM     13  C   UNL     1      -7.125  -4.142  -9.312  1.00  0.00     0.064 A 
ATOM     14  C   UNL     1      -7.915  -2.978  -9.147  1.00  0.00     0.130 A 
ATOM     15  C   UNL     1      -6.111  -4.145 -10.288  1.00  0.00     0.020 A 
ATOM     16  C   UNL     1      -7.700  -1.869  -9.974  1.00  0.00     0.093 A 
ATOM     17  C   UNL     1      -5.898  -3.026 -11.096  1.00  0.00     0.047 A 
ATOM     18  C   UNL     1      -6.694  -1.887 -10.944  1.00  0.00     0.119 A 
BRANCH  14  19
ATOM     19  O   UNL     1      -8.899  -2.877  -8.159  1.00  0.00    -0.507 OA
ATOM     20  H   UNL     1      -9.670  -3.527  -8.077  1.00  0.00     0.293 HD
ENDBRANCH  14  19
BRANCH  18  21
ATOM     21  O   UNL     1      -6.495  -0.768 -11.749  1.00  0.00    -0.508 OA
ATOM     22  H   UNL     1      -7.217  -0.067 -11.869  1.00  0.00     0.293 HD
ENDBRANCH  18  21
ENDBRANCH  11  13
ENDBRANCH   2  11
TORSDOF 6
ENDMDL
MODEL 6
REMARK VINA RESULT:    -4.659      2.841      3.719
REMARK INTER + INTRA:          -6.490
REMARK INTER:                  -5.803
REMARK INTRA:                  -0.688
REMARK UNBOUND:                -0.605
REMARK SMILES O=C(C=Cc1ccc(O)cc1)c1ccc(O)cc1O
REMARK SMILES IDX 4 1 3 2 5 3 6 4 7 5 8 6 11 7 10 8 9 9 2 11 1 12 12 13 18 14
REMARK SMILES IDX 13 15 17 16 14 17 15 18 19 19 16 21
REMARK H PARENT 9 10 19 20 16 22
REMARK Flexibility Score: inf
ROOT
ATOM      1  C   UNL     1      -6.494  -5.816  -9.071  1.00  0.00     0.012 C 
ATOM      2  C   UNL     1      -6.364  -6.998  -9.689  1.00  0.00     0.053 C 
ENDROOT
BRANCH   1   3
ATOM      3  C   UNL     1      -6.400  -4.509  -9.768  1.00  0.00    -0.025 A 
ATOM      4  C   UNL     1      -5.392  -4.331 -10.731  1.00  0.00     0.012 A 
ATOM      5  C   UNL     1      -5.270  -3.121 -11.420  1.00  0.00     0.047 A 
ATOM      6  C   UNL     1      -6.161  -2.074 -11.165  1.00  0.00     0.115 A 
ATOM      7  C   UNL     1      -7.303  -3.454  -9.527  1.00  0.00     0.012 A 
ATOM      8  C   UNL     1      -7.179  -2.244 -10.219  1.00  0.00     0.047 A 
BRANCH   6   9
ATOM      9  O   UNL     1      -6.028  -0.873 -11.858  1.00  0.00    -0.508 OA
ATOM     10  H   UNL     1      -6.458  -0.019 -11.524  1.00  0.00     0.293 HD
ENDBRANCH   6   9
ENDBRANCH   1   3
BRANCH   2  11
ATOM     11  C   UNL     1      -6.478  -8.283  -8.965  1.00  0.00     0.189 C 
ATOM     12  O   UNL     1      -7.573  -8.615  -8.433  1.00  0.00    -0.289 OA
BRANCH  11  13
ATOM     13  C   UNL     1      -5.304  -9.172  -8.830  1.00  0.00     0.064 A 
ATOM     14  C   UNL     1      -5.419 -10.582  -8.904  1.00  0.00     0.130 A 
ATOM     15  C   UNL     1      -4.041  -8.604  -8.582  1.00  0.00     0.020 A 
ATOM     16  C   UNL     1      -4.290 -11.384  -8.696  1.00  0.00     0.093 A 
ATOM     17  C   UNL     1      -2.920  -9.415  -8.391  1.00  0.00     0.047 A 
ATOM     18  C   UNL     1      -3.043 -10.807  -8.443  1.00  0.00     0.119 A 
BRANCH  14  19
ATOM     19  O   UNL     1      -6.626 -11.218  -9.208  1.00  0.00    -0.507 OA
ATOM     20  H   UNL     1      -7.378 -10.767  -9.712  1.00  0.00     0.293 HD
ENDBRANCH  14  19
BRANCH  18  21
ATOM     21  O   UNL     1      -1.933 -11.626  -8.248  1.00  0.00    -0.508 OA
ATOM     22  H   UNL     1      -1.713 -12.381  -8.886  1.00  0.00     0.293 HD
ENDBRANCH  18  21
ENDBRANCH  11  13
ENDBRANCH   2  11
TORSDOF 6
ENDMDL
MODEL 7
REMARK VINA RESULT:    -4.594      8.630     10.301
REMARK INTER + INTRA:          -6.408
REMARK INTER:                  -5.729
REMARK INTRA:                  -0.680
REMARK UNBOUND:                -0.605
REMARK SMILES O=C(C=Cc1ccc(O)cc1)c1ccc(O)cc1O
REMARK SMILES IDX 4 1 3 2 5 3 6 4 7 5 8 6 11 7 10 8 9 9 2 11 1 12 12 13 18 14
REMARK SMILES IDX 13 15 17 16 14 17 15 18 19 19 16 21
REMARK H PARENT 9 10 19 20 16 22
REMARK Flexibility Score: inf
ROOT
ATOM      1  C   UNL     1       2.095  -4.201 -11.501  1.00  0.00     0.012 C 
ATOM      2  C   UNL     1       2.534  -4.949 -10.479  1.00  0.00     0.053 C 
ENDROOT
BRANCH   1   3
ATOM      3  C   UNL     1       1.230  -3.006 -11.334  1.00  0.00    -0.025 A 
ATOM      4  C   UNL     1       0.122  -3.092 -10.474  1.00  0.00     0.012 A 
ATOM      5  C   UNL     1      -0.714  -1.990 -10.277  1.00  0.00     0.047 A 
ATOM      6  C   UNL     1      -0.449  -0.781 -10.927  1.00  0.00     0.115 A 
ATOM      7  C   UNL     1       1.499  -1.779 -11.974  1.00  0.00     0.012 A 
ATOM      8  C   UNL     1       0.661  -0.678 -11.774  1.00  0.00     0.047 A 
BRANCH   6   9
ATOM      9  O   UNL     1      -1.291   0.310 -10.723  1.00  0.00    -0.508 OA
ATOM     10  H   UNL     1      -1.999   0.567 -11.400  1.00  0.00     0.293 HD
ENDBRANCH   6   9
ENDBRANCH   1   3
BRANCH   2  11
ATOM     11  C   UNL     1       3.406  -6.126 -10.683  1.00  0.00     0.189 C 
ATOM     12  O   UNL     1       2.979  -7.130 -11.317  1.00  0.00    -0.289 OA
BRANCH  11  13
ATOM     13  C   UNL     1       4.773  -6.150 -10.119  1.00  0.00     0.064 A 
ATOM     14  C   UNL     1       5.238  -7.226  -9.323  1.00  0.00     0.130 A 
ATOM     15  C   UNL     1       5.625  -5.053 -10.346  1.00  0.00     0.020 A 
ATOM     16  C   UNL     1       6.514  -7.167  -8.751  1.00  0.00     0.093 A 
ATOM     17  C   UNL     1       6.902  -5.014  -9.781  1.00  0.00     0.047 A 
ATOM     18  C   UNL     1       7.348  -6.069  -8.978  1.00  0.00     0.119 A 
BRANCH  14  19
ATOM     19  O   UNL     1       4.475  -8.376  -9.104  1.00  0.00    -0.507 OA
ATOM     20  H   UNL     1       3.974  -8.552  -8.243  1.00  0.00     0.293 HD
ENDBRANCH  14  19
BRANCH  18  21
ATOM     21  O   UNL     1       8.616  -6.037  -8.404  1.00  0.00    -0.508 OA
ATOM     22  H   UNL     1       8.930  -6.765  -7.772  1.00  0.00     0.293 HD
ENDBRANCH  18  21
ENDBRANCH  11  13
ENDBRANCH   2  11
TORSDOF 6
ENDMDL
MODEL 8
REMARK VINA RESULT:    -4.546      7.937      9.222
REMARK INTER + INTRA:          -6.347
REMARK INTER:                  -5.620
REMARK INTRA:                  -0.727
REMARK UNBOUND:                -0.605
REMARK SMILES O=C(C=Cc1ccc(O)cc1)c1ccc(O)cc1O
REMARK SMILES IDX 4 1 3 2 5 3 6 4 7 5 8 6 11 7 10 8 9 9 2 11 1 12 12 13 18 14
REMARK SMILES IDX 13 15 17 16 14 17 15 18 19 19 16 21
REMARK H PARENT 9 10 19 20 16 22
REMARK Flexibility Score: inf
ROOT
ATOM      1  C   UNL     1       0.748  -2.347 -10.989  1.00  0.00     0.012 C 
ATOM      2  C   UNL     1       1.697  -2.249 -11.931  1.00  0.00     0.053 C 
ENDROOT
BRANCH   1   3
ATOM      3  C   UNL     1      -0.672  -1.973 -11.212  1.00  0.00    -0.025 A 
ATOM      4  C   UNL     1      -1.018  -0.611 -11.205  1.00  0.00     0.012 A 
ATOM      5  C   UNL     1      -2.340  -0.211 -11.420  1.00  0.00     0.047 A 
ATOM      6  C   UNL     1      -3.334  -1.166 -11.656  1.00  0.00     0.115 A 
ATOM      7  C   UNL     1      -1.677  -2.928 -11.465  1.00  0.00     0.012 A 
ATOM      8  C   UNL     1      -2.998  -2.524 -11.681  1.00  0.00     0.047 A 
BRANCH   6   9
ATOM      9  O   UNL     1      -4.647  -0.753 -11.868  1.00  0.00    -0.508 OA
ATOM     10  H   UNL     1      -5.338  -1.373 -12.274  1.00  0.00     0.293 HD
ENDBRANCH   6   9
ENDBRANCH   1   3
BRANCH   2  11
ATOM     11  C   UNL     1       3.100  -2.644 -11.677  1.00  0.00     0.189 C 
ATOM     12  O   UNL     1       4.041  -1.843 -11.933  1.00  0.00    -0.289 OA
BRANCH  11  13
ATOM     13  C   UNL     1       3.414  -3.991 -11.153  1.00  0.00     0.064 A 
ATOM     14  C   UNL     1       4.140  -4.177  -9.950  1.00  0.00     0.130 A 
ATOM     15  C   UNL     1       3.015  -5.122 -11.889  1.00  0.00     0.020 A 
ATOM     16  C   UNL     1       4.477  -5.471  -9.535  1.00  0.00     0.093 A 
ATOM     17  C   UNL     1       3.345  -6.408 -11.454  1.00  0.00     0.047 A 
ATOM     18  C   UNL     1       4.080  -6.585 -10.278  1.00  0.00     0.119 A 
BRANCH  14  19
ATOM     19  O   UNL     1       4.518  -3.108  -9.134  1.00  0.00    -0.507 OA
ATOM     20  H   UNL     1       4.091  -2.192  -9.186  1.00  0.00     0.293 HD
ENDBRANCH  14  19
BRANCH  18  21
ATOM     21  O   UNL     1       4.421  -7.862  -9.839  1.00  0.00    -0.508 OA
ATOM     22  H   UNL     1       4.794  -8.021  -8.911  1.00  0.00     0.293 HD
ENDBRANCH  18  21
ENDBRANCH  11  13
ENDBRANCH   2  11
TORSDOF 6
ENDMDL
MODEL 9
REMARK VINA RESULT:    -4.534      8.987     10.574
REMARK INTER + INTRA:          -6.332
REMARK INTER:                  -5.683
REMARK INTRA:                  -0.648
REMARK UNBOUND:                -0.605
REMARK SMILES O=C(C=Cc1ccc(O)cc1)c1ccc(O)cc1O
REMARK SMILES IDX 4 1 3 2 5 3 6 4 7 5 8 6 11 7 10 8 9 9 2 11 1 12 12 13 18 14
REMARK SMILES IDX 13 15 17 16 14 17 15 18 19 19 16 21
REMARK H PARENT 9 10 19 20 16 22
REMARK Flexibility Score: inf
ROOT
ATOM      1  C   UNL     1       2.757  -3.088 -11.609  1.00  0.00     0.012 C 
ATOM      2  C   UNL     1       3.673  -3.310 -10.655  1.00  0.00     0.053 C 
ENDROOT
BRANCH   1   3
ATOM      3  C   UNL     1       1.548  -2.251 -11.407  1.00  0.00    -0.025 A 
ATOM      4  C   UNL     1       1.435  -1.047 -12.125  1.00  0.00     0.012 A 
ATOM      5  C   UNL     1       0.310  -0.232 -11.975  1.00  0.00     0.047 A 
ATOM      6  C   UNL     1      -0.725  -0.611 -11.115  1.00  0.00     0.115 A 
ATOM      7  C   UNL     1       0.493  -2.633 -10.554  1.00  0.00     0.012 A 
ATOM      8  C   UNL     1      -0.631  -1.815 -10.407  1.00  0.00     0.047 A 
BRANCH   6   9
ATOM      9  O   UNL     1      -1.840   0.211 -10.975  1.00  0.00    -0.508 OA
ATOM     10  H   UNL     1      -2.441   0.154 -10.162  1.00  0.00     0.293 HD
ENDBRANCH   6   9
ENDBRANCH   1   3
BRANCH   2  11
ATOM     11  C   UNL     1       4.874  -4.139 -10.896  1.00  0.00     0.189 C 
ATOM     12  O   UNL     1       5.597  -3.929 -11.909  1.00  0.00    -0.289 OA
BRANCH  11  13
ATOM     13  C   UNL     1       5.221  -5.240  -9.971  1.00  0.00     0.064 A 
ATOM     14  C   UNL     1       6.551  -5.467  -9.540  1.00  0.00     0.130 A 
ATOM     15  C   UNL     1       4.205  -6.111  -9.535  1.00  0.00     0.020 A 
ATOM     16  C   UNL     1       6.839  -6.567  -8.723  1.00  0.00     0.093 A 
ATOM     17  C   UNL     1       4.504  -7.196  -8.708  1.00  0.00     0.047 A 
ATOM     18  C   UNL     1       5.823  -7.429  -8.303  1.00  0.00     0.119 A 
BRANCH  14  19
ATOM     19  O   UNL     1       7.602  -4.611  -9.880  1.00  0.00    -0.507 OA
ATOM     20  H   UNL     1       7.650  -3.646  -9.580  1.00  0.00     0.293 HD
ENDBRANCH  14  19
BRANCH  18  21
ATOM     21  O   UNL     1       6.134  -8.512  -7.485  1.00  0.00    -0.508 OA
ATOM     22  H   UNL     1       7.094  -8.747  -7.260  1.00  0.00     0.293 HD
ENDBRANCH  18  21
ENDBRANCH  11  13
ENDBRANCH   2  11
TORSDOF 6
ENDMDL
