MODEL 1
REMARK VINA RESULT:    -4.353      0.000      0.000
REMARK INTER + INTRA:          -8.777
REMARK INTER:                  -7.661
REMARK INTRA:                  -1.116
REMARK UNBOUND:                -1.116
REMARK SMILES CCCCCCCCCCCCCCC(=O)[O-]
REMARK SMILES IDX 9 1 10 2 11 3 12 4 13 5 14 6 15 7 16 8 17 9 8 10 7 11 6 12
REMARK SMILES IDX 5 13 4 14 3 15 2 16 1 17
REMARK H PARENT
REMARK Flexibility Score: inf
ROOT
ATOM      1  C   UNL     1      -6.761  -5.635   1.583  1.00  0.00     0.000 C 
ENDROOT
BRANCH   1   2
ATOM      2  C   UNL     1      -8.019  -5.272   0.774  1.00  0.00     0.000 C 
BRANCH   2   3
ATOM      3  C   UNL     1      -7.693  -4.458  -0.489  1.00  0.00     0.000 C 
BRANCH   3   4
ATOM      4  C   UNL     1      -8.872  -3.580  -0.946  1.00  0.00     0.000 C 
BRANCH   4   5
ATOM      5  C   UNL     1     -10.229  -4.119  -0.466  1.00  0.00     0.006 C 
BRANCH   5   6
ATOM      6  C   UNL     1     -10.992  -4.867  -1.567  1.00  0.00     0.053 C 
BRANCH   6   7
ATOM      7  C   UNL     1     -11.266  -6.277  -1.146  1.00  0.00     0.041 C 
ATOM      8  O   UNL     1     -10.915  -7.237  -1.881  1.00  0.00    -0.550 OA
ATOM      9  O   UNL     1     -11.952  -6.529   0.035  1.00  0.00    -0.550 OA
ENDBRANCH   6   7
ENDBRANCH   5   6
ENDBRANCH   4   5
ENDBRANCH   3   4
ENDBRANCH   2   3
ENDBRANCH   1   2
BRANCH   1  10
ATOM     10  C   UNL     1      -5.461  -5.273   0.845  1.00  0.00     0.000 C 
BRANCH  10  11
ATOM     11  C   UNL     1      -4.512  -4.414   1.699  1.00  0.00    -0.000 C 
BRANCH  11  12
ATOM     12  C   UNL     1      -4.752  -2.906   1.517  1.00  0.00    -0.000 C 
BRANCH  12  13
ATOM     13  C   UNL     1      -3.491  -2.071   1.800  1.00  0.00    -0.000 C 
BRANCH  13  14
ATOM     14  C   UNL     1      -2.196  -2.819   1.442  1.00  0.00    -0.000 C 
BRANCH  14  15
ATOM     15  C   UNL     1      -1.380  -2.098   0.354  1.00  0.00    -0.000 C 
BRANCH  15  16
ATOM     16  C   UNL     1      -1.031  -3.019  -0.826  1.00  0.00    -0.003 C 
ATOM     17  C   UNL     1      -1.377  -4.483  -0.559  1.00  0.00     0.004 C 
ENDBRANCH  15  16
ENDBRANCH  14  15
ENDBRANCH  13  14
ENDBRANCH  12  13
ENDBRANCH  11  12
ENDBRANCH  10  11
ENDBRANCH   1  10
TORSDOF 13
ENDMDL
MODEL 2
REMARK VINA RESULT:    -4.269      1.027      1.541
REMARK INTER + INTRA:          -8.630
REMARK INTER:                  -7.759
REMARK INTRA:                  -0.872
REMARK UNBOUND:                -1.116
REMARK SMILES CCCCCCCCCCCCCCC(=O)[O-]
REMARK SMILES IDX 9 1 10 2 11 3 12 4 13 5 14 6 15 7 16 8 17 9 8 10 7 11 6 12
REMARK SMILES IDX 5 13 4 14 3 15 2 16 1 17
REMARK H PARENT
REMARK Flexibility Score: inf
ROOT
ATOM      1  C   UNL     1      -5.839  -6.281   0.681  1.00  0.00     0.000 C 
ENDROOT
BRANCH   1   2
ATOM      2  C   UNL     1      -6.971  -5.884   1.645  1.00  0.00     0.000 C 
BRANCH   2   3
ATOM      3  C   UNL     1      -8.195  -5.308   0.913  1.00  0.00     0.000 C 
BRANCH   3   4
ATOM      4  C   UNL     1      -7.804  -4.428  -0.288  1.00  0.00     0.000 C 
BRANCH   4   5
ATOM      5  C   UNL     1      -9.023  -3.786  -0.969  1.00  0.00     0.006 C 
BRANCH   5   6
ATOM      6  C   UNL     1     -10.355  -4.323  -0.429  1.00  0.00     0.053 C 
BRANCH   6   7
ATOM      7  C   UNL     1     -11.000  -5.223  -1.436  1.00  0.00     0.041 C 
ATOM      8  O   UNL     1     -11.964  -5.960  -1.100  1.00  0.00    -0.550 OA
ATOM      9  O   UNL     1     -10.505  -5.284  -2.731  1.00  0.00    -0.550 OA
ENDBRANCH   6   7
ENDBRANCH   5   6
ENDBRANCH   4   5
ENDBRANCH   3   4
ENDBRANCH   2   3
ENDBRANCH   1   2
BRANCH   1  10
ATOM     10  C   UNL     1      -4.608  -5.369   0.810  1.00  0.00     0.000 C 
BRANCH  10  11
ATOM     11  C   UNL     1      -4.739  -4.354   1.959  1.00  0.00    -0.000 C 
BRANCH  11  12
ATOM     12  C   UNL     1      -4.828  -2.902   1.460  1.00  0.00    -0.000 C 
BRANCH  12  13
ATOM     13  C   UNL     1      -3.580  -2.077   1.823  1.00  0.00    -0.000 C 
BRANCH  13  14
ATOM     14  C   UNL     1      -2.273  -2.858   1.603  1.00  0.00    -0.000 C 
BRANCH  14  15
ATOM     15  C   UNL     1      -1.516  -2.400   0.344  1.00  0.00    -0.000 C 
BRANCH  15  16
ATOM     16  C   UNL     1       0.009  -2.477   0.515  1.00  0.00    -0.003 C 
ATOM     17  C   UNL     1       0.468  -3.777   1.174  1.00  0.00     0.004 C 
ENDBRANCH  15  16
ENDBRANCH  14  15
ENDBRANCH  13  14
ENDBRANCH  12  13
ENDBRANCH  11  12
ENDBRANCH  10  11
ENDBRANCH   1  10
TORSDOF 13
ENDMDL
MODEL 3
REMARK VINA RESULT:    -4.262      4.160      8.240
REMARK INTER + INTRA:          -8.618
REMARK INTER:                  -7.662
REMARK INTRA:                  -0.956
REMARK UNBOUND:                -1.116
REMARK SMILES CCCCCCCCCCCCCCC(=O)[O-]
REMARK SMILES IDX 9 1 10 2 11 3 12 4 13 5 14 6 15 7 16 8 17 9 8 10 7 11 6 12
REMARK SMILES IDX 5 13 4 14 3 15 2 16 1 17
REMARK H PARENT
REMARK Flexibility Score: inf
ROOT
ATOM      1  C   UNL     1      -4.720  -4.282   1.893  1.00  0.00     0.000 C 
ENDROOT
BRANCH   1   2
ATOM      2  C   UNL     1      -4.873  -2.789   1.553  1.00  0.00     0.000 C 
BRANCH   2   3
ATOM      3  C   UNL     1      -3.565  -2.003   1.746  1.00  0.00     0.000 C 
BRANCH   3   4
ATOM      4  C   UNL     1      -2.315  -2.877   1.542  1.00  0.00     0.000 C 
BRANCH   4   5
ATOM      5  C   UNL     1      -1.394  -2.340   0.435  1.00  0.00     0.006 C 
BRANCH   5   6
ATOM      6  C   UNL     1       0.087  -2.643   0.697  1.00  0.00     0.053 C 
BRANCH   6   7
ATOM      7  C   UNL     1       0.288  -4.111   0.912  1.00  0.00     0.041 C 
ATOM      8  O   UNL     1       0.771  -4.531   1.996  1.00  0.00    -0.550 OA
ATOM      9  O   UNL     1      -0.012  -5.010  -0.102  1.00  0.00    -0.550 OA
ENDBRANCH   6   7
ENDBRANCH   5   6
ENDBRANCH   4   5
ENDBRANCH   3   4
ENDBRANCH   2   3
ENDBRANCH   1   2
BRANCH   1  10
ATOM     10  C   UNL     1      -5.554  -5.186   0.971  1.00  0.00     0.000 C 
BRANCH  10  11
ATOM     11  C   UNL     1      -6.852  -5.677   1.636  1.00  0.00    -0.000 C 
BRANCH  11  12
ATOM     12  C   UNL     1      -8.074  -5.559   0.710  1.00  0.00    -0.000 C 
BRANCH  12  13
ATOM     13  C   UNL     1      -7.765  -4.774  -0.577  1.00  0.00    -0.000 C 
BRANCH  13  14
ATOM     14  C   UNL     1      -8.808  -3.681  -0.865  1.00  0.00    -0.000 C 
BRANCH  14  15
ATOM     15  C   UNL     1     -10.235  -4.111  -0.480  1.00  0.00    -0.000 C 
BRANCH  15  16
ATOM     16  C   UNL     1     -10.985  -4.774  -1.646  1.00  0.00    -0.003 C 
ATOM     17  C   UNL     1     -11.162  -6.280  -1.458  1.00  0.00     0.004 C 
ENDBRANCH  15  16
ENDBRANCH  14  15
ENDBRANCH  13  14
ENDBRANCH  12  13
ENDBRANCH  11  12
ENDBRANCH  10  11
ENDBRANCH   1  10
TORSDOF 13
ENDMDL
MODEL 4
REMARK VINA RESULT:    -4.223      1.342      2.845
REMARK INTER + INTRA:          -8.550
REMARK INTER:                  -7.390
REMARK INTRA:                  -1.159
REMARK UNBOUND:                -1.116
REMARK SMILES CCCCCCCCCCCCCCC(=O)[O-]
REMARK SMILES IDX 9 1 10 2 11 3 12 4 13 5 14 6 15 7 16 8 17 9 8 10 7 11 6 12
REMARK SMILES IDX 5 13 4 14 3 15 2 16 1 17
REMARK H PARENT
REMARK Flexibility Score: inf
ROOT
ATOM      1  C   UNL     1      -4.865  -3.171   1.350  1.00  0.00     0.000 C 
ENDROOT
BRANCH   1   2
ATOM      2  C   UNL     1      -4.914  -4.679   1.654  1.00  0.00     0.000 C 
BRANCH   2   3
ATOM      3  C   UNL     1      -6.092  -5.383   0.960  1.00  0.00     0.000 C 
BRANCH   3   4
ATOM      4  C   UNL     1      -7.018  -4.398   0.224  1.00  0.00     0.000 C 
BRANCH   4   5
ATOM      5  C   UNL     1      -8.481  -4.867   0.204  1.00  0.00     0.006 C 
BRANCH   5   6
ATOM      6  C   UNL     1      -9.341  -4.082  -0.796  1.00  0.00     0.053 C 
BRANCH   6   7
ATOM      7  C   UNL     1     -10.795  -4.310  -0.524  1.00  0.00     0.041 C 
ATOM      8  O   UNL     1     -11.209  -4.414   0.661  1.00  0.00    -0.550 OA
ATOM      9  O   UNL     1     -11.685  -4.458  -1.580  1.00  0.00    -0.550 OA
ENDBRANCH   6   7
ENDBRANCH   5   6
ENDBRANCH   4   5
ENDBRANCH   3   4
ENDBRANCH   2   3
ENDBRANCH   1   2
BRANCH   1  10
ATOM     10  C   UNL     1      -3.770  -2.444   2.147  1.00  0.00     0.000 C 
BRANCH  10  11
ATOM     11  C   UNL     1      -2.351  -2.870   1.731  1.00  0.00    -0.000 C 
BRANCH  11  12
ATOM     12  C   UNL     1      -1.782  -2.005   0.593  1.00  0.00    -0.000 C 
BRANCH  12  13
ATOM     13  C   UNL     1      -0.425  -2.521   0.083  1.00  0.00    -0.000 C 
BRANCH  13  14
ATOM     14  C   UNL     1       0.091  -3.722   0.894  1.00  0.00    -0.000 C 
BRANCH  14  15
ATOM     15  C   UNL     1       0.155  -5.014   0.060  1.00  0.00    -0.000 C 
BRANCH  15  16
ATOM     16  C   UNL     1      -1.030  -5.953   0.339  1.00  0.00    -0.003 C 
ATOM     17  C   UNL     1      -2.180  -5.767  -0.649  1.00  0.00     0.004 C 
ENDBRANCH  15  16
ENDBRANCH  14  15
ENDBRANCH  13  14
ENDBRANCH  12  13
ENDBRANCH  11  12
ENDBRANCH  10  11
ENDBRANCH   1  10
TORSDOF 13
ENDMDL
MODEL 5
REMARK VINA RESULT:    -4.198      1.202      2.284
REMARK INTER + INTRA:          -8.504
REMARK INTER:                  -7.339
REMARK INTRA:                  -1.165
REMARK UNBOUND:                -1.116
REMARK SMILES CCCCCCCCCCCCCCC(=O)[O-]
REMARK SMILES IDX 9 1 10 2 11 3 12 4 13 5 14 6 15 7 16 8 17 9 8 10 7 11 6 12
REMARK SMILES IDX 5 13 4 14 3 15 2 16 1 17
REMARK H PARENT
REMARK Flexibility Score: inf
ROOT
ATOM      1  C   UNL     1      -4.741  -4.300   1.692  1.00  0.00     0.000 C 
ENDROOT
BRANCH   1   2
ATOM      2  C   UNL     1      -5.626  -5.179   0.790  1.00  0.00     0.000 C 
BRANCH   2   3
ATOM      3  C   UNL     1      -6.955  -5.564   1.463  1.00  0.00     0.000 C 
BRANCH   3   4
ATOM      4  C   UNL     1      -8.168  -5.344   0.542  1.00  0.00     0.000 C 
BRANCH   4   5
ATOM      5  C   UNL     1      -7.984  -4.143  -0.399  1.00  0.00     0.006 C 
BRANCH   5   6
ATOM      6  C   UNL     1      -8.364  -4.464  -1.851  1.00  0.00     0.053 C 
BRANCH   6   7
ATOM      7  C   UNL     1      -9.722  -5.090  -1.908  1.00  0.00     0.041 C 
ATOM      8  O   UNL     1      -9.877  -6.219  -2.445  1.00  0.00    -0.550 OA
ATOM      9  O   UNL     1     -10.824  -4.406  -1.413  1.00  0.00    -0.550 OA
ENDBRANCH   6   7
ENDBRANCH   5   6
ENDBRANCH   4   5
ENDBRANCH   3   4
ENDBRANCH   2   3
ENDBRANCH   1   2
BRANCH   1  10
ATOM     10  C   UNL     1      -5.022  -2.799   1.510  1.00  0.00     0.000 C 
BRANCH  10  11
ATOM     11  C   UNL     1      -3.805  -1.922   1.853  1.00  0.00    -0.000 C 
BRANCH  11  12
ATOM     12  C   UNL     1      -2.474  -2.685   1.744  1.00  0.00    -0.000 C 
BRANCH  12  13
ATOM     13  C   UNL     1      -1.625  -2.220   0.547  1.00  0.00    -0.000 C 
BRANCH  13  14
ATOM     14  C   UNL     1      -0.189  -2.769   0.595  1.00  0.00    -0.000 C 
BRANCH  14  15
ATOM     15  C   UNL     1      -0.079  -4.186   0.005  1.00  0.00    -0.000 C 
BRANCH  15  16
ATOM     16  C   UNL     1      -1.147  -4.462  -1.065  1.00  0.00    -0.003 C 
ATOM     17  C   UNL     1      -2.038  -5.655  -0.720  1.00  0.00     0.004 C 
ENDBRANCH  15  16
ENDBRANCH  14  15
ENDBRANCH  13  14
ENDBRANCH  12  13
ENDBRANCH  11  12
ENDBRANCH  10  11
ENDBRANCH   1  10
TORSDOF 13
ENDMDL
MODEL 6
REMARK VINA RESULT:    -4.190      3.350      7.239
REMARK INTER + INTRA:          -8.491
REMARK INTER:                  -7.279
REMARK INTRA:                  -1.212
REMARK UNBOUND:                -1.116
REMARK SMILES CCCCCCCCCCCCCCC(=O)[O-]
REMARK SMILES IDX 9 1 10 2 11 3 12 4 13 5 14 6 15 7 16 8 17 9 8 10 7 11 6 12
REMARK SMILES IDX 5 13 4 14 3 15 2 16 1 17
REMARK H PARENT
REMARK Flexibility Score: inf
ROOT
ATOM      1  C   UNL     1      -4.364  -2.726   1.838  1.00  0.00     0.000 C 
ENDROOT
BRANCH   1   2
ATOM      2  C   UNL     1      -3.105  -1.905   1.507  1.00  0.00     0.000 C 
BRANCH   2   3
ATOM      3  C   UNL     1      -1.835  -2.770   1.453  1.00  0.00     0.000 C 
BRANCH   3   4
ATOM      4  C   UNL     1      -0.932  -2.420   0.257  1.00  0.00     0.000 C 
BRANCH   4   5
ATOM      5  C   UNL     1      -1.072  -3.421  -0.901  1.00  0.00     0.006 C 
BRANCH   5   6
ATOM      6  C   UNL     1      -0.503  -4.805  -0.560  1.00  0.00     0.053 C 
BRANCH   6   7
ATOM      7  C   UNL     1      -1.587  -5.836  -0.590  1.00  0.00     0.041 C 
ATOM      8  O   UNL     1      -2.335  -5.939  -1.598  1.00  0.00    -0.550 OA
ATOM      9  O   UNL     1      -1.804  -6.649   0.514  1.00  0.00    -0.550 OA
ENDBRANCH   6   7
ENDBRANCH   5   6
ENDBRANCH   4   5
ENDBRANCH   3   4
ENDBRANCH   2   3
ENDBRANCH   1   2
BRANCH   1  10
ATOM     10  C   UNL     1      -4.076  -4.233   1.939  1.00  0.00     0.000 C 
BRANCH  10  11
ATOM     11  C   UNL     1      -5.039  -5.080   1.089  1.00  0.00    -0.000 C 
BRANCH  11  12
ATOM     12  C   UNL     1      -6.361  -4.354   0.790  1.00  0.00    -0.000 C 
BRANCH  12  13
ATOM     13  C   UNL     1      -7.577  -5.295   0.850  1.00  0.00    -0.000 C 
BRANCH  13  14
ATOM     14  C   UNL     1      -8.796  -4.732   0.099  1.00  0.00    -0.000 C 
BRANCH  14  15
ATOM     15  C   UNL     1      -8.397  -3.799  -1.058  1.00  0.00    -0.000 C 
BRANCH  15  16
ATOM     16  C   UNL     1      -8.168  -4.559  -2.374  1.00  0.00    -0.003 C 
ATOM     17  C   UNL     1      -9.282  -5.557  -2.684  1.00  0.00     0.004 C 
ENDBRANCH  15  16
ENDBRANCH  14  15
ENDBRANCH  13  14
ENDBRANCH  12  13
ENDBRANCH  11  12
ENDBRANCH  10  11
ENDBRANCH   1  10
TORSDOF 13
ENDMDL
MODEL 7
REMARK VINA RESULT:    -4.189      3.886      7.912
REMARK INTER + INTRA:          -8.490
REMARK INTER:                  -7.287
REMARK INTRA:                  -1.203
REMARK UNBOUND:                -1.116
REMARK SMILES CCCCCCCCCCCCCCC(=O)[O-]
REMARK SMILES IDX 9 1 10 2 11 3 12 4 13 5 14 6 15 7 16 8 17 9 8 10 7 11 6 12
REMARK SMILES IDX 5 13 4 14 3 15 2 16 1 17
REMARK H PARENT
REMARK Flexibility Score: inf
ROOT
ATOM      1  C   UNL     1      -2.809  -2.873   1.518  1.00  0.00     0.000 C 
ENDROOT
BRANCH   1   2
ATOM      2  C   UNL     1      -1.860  -1.956   0.726  1.00  0.00     0.000 C 
BRANCH   2   3
ATOM      3  C   UNL     1      -0.685  -2.725   0.098  1.00  0.00     0.000 C 
BRANCH   3   4
ATOM      4  C   UNL     1       0.338  -3.197   1.147  1.00  0.00     0.000 C 
BRANCH   4   5
ATOM      5  C   UNL     1       0.783  -4.651   0.923  1.00  0.00     0.006 C 
BRANCH   5   6
ATOM      6  C   UNL     1       0.556  -5.536   2.155  1.00  0.00     0.053 C 
BRANCH   6   7
ATOM      7  C   UNL     1      -0.894  -5.885   2.287  1.00  0.00     0.041 C 
ATOM      8  O   UNL     1      -1.511  -6.400   1.318  1.00  0.00    -0.550 OA
ATOM      9  O   UNL     1      -1.574  -5.595   3.462  1.00  0.00    -0.550 OA
ENDBRANCH   6   7
ENDBRANCH   5   6
ENDBRANCH   4   5
ENDBRANCH   3   4
ENDBRANCH   2   3
ENDBRANCH   1   2
BRANCH   1  10
ATOM     10  C   UNL     1      -4.190  -2.236   1.746  1.00  0.00     0.000 C 
BRANCH  10  11
ATOM     11  C   UNL     1      -5.348  -3.190   1.404  1.00  0.00    -0.000 C 
BRANCH  11  12
ATOM     12  C   UNL     1      -4.896  -4.656   1.295  1.00  0.00    -0.000 C 
BRANCH  12  13
ATOM     13  C   UNL     1      -5.983  -5.564   0.692  1.00  0.00    -0.000 C 
BRANCH  13  14
ATOM     14  C   UNL     1      -7.267  -5.588   1.540  1.00  0.00    -0.000 C 
BRANCH  14  15
ATOM     15  C   UNL     1      -8.536  -5.379   0.696  1.00  0.00    -0.000 C 
BRANCH  15  16
ATOM     16  C   UNL     1      -8.222  -4.900  -0.731  1.00  0.00    -0.003 C 
ATOM     17  C   UNL     1      -8.519  -3.416  -0.937  1.00  0.00     0.004 C 
ENDBRANCH  15  16
ENDBRANCH  14  15
ENDBRANCH  13  14
ENDBRANCH  12  13
ENDBRANCH  11  12
ENDBRANCH  10  11
ENDBRANCH   1  10
TORSDOF 13
ENDMDL
MODEL 8
REMARK VINA RESULT:    -4.164      1.474      2.374
REMARK INTER + INTRA:          -8.445
REMARK INTER:                  -7.724
REMARK INTRA:                  -0.721
REMARK UNBOUND:                -1.116
REMARK SMILES CCCCCCCCCCCCCCC(=O)[O-]
REMARK SMILES IDX 9 1 10 2 11 3 12 4 13 5 14 6 15 7 16 8 17 9 8 10 7 11 6 12
REMARK SMILES IDX 5 13 4 14 3 15 2 16 1 17
REMARK H PARENT
REMARK Flexibility Score: inf
ROOT
ATOM      1  C   UNL     1      -8.282  -5.016  -0.286  1.00  0.00     0.000 C 
ENDROOT
BRANCH   1   2
ATOM      2  C   UNL     1      -9.473  -4.131  -0.696  1.00  0.00     0.000 C 
BRANCH   2   3
ATOM      3  C   UNL     1     -10.738  -4.425   0.129  1.00  0.00     0.000 C 
BRANCH   3   4
ATOM      4  C   UNL     1     -12.023  -4.349  -0.714  1.00  0.00     0.000 C 
BRANCH   4   5
ATOM      5  C   UNL     1     -11.873  -5.033  -2.081  1.00  0.00     0.006 C 
BRANCH   5   6
ATOM      6  C   UNL     1     -11.773  -6.560  -1.972  1.00  0.00     0.053 C 
BRANCH   6   7
ATOM      7  C   UNL     1     -10.973  -7.113  -3.109  1.00  0.00     0.041 C 
ATOM      8  O   UNL     1     -11.430  -8.058  -3.805  1.00  0.00    -0.550 OA
ATOM      9  O   UNL     1      -9.702  -6.618  -3.370  1.00  0.00    -0.550 OA
ENDBRANCH   6   7
ENDBRANCH   5   6
ENDBRANCH   4   5
ENDBRANCH   3   4
ENDBRANCH   2   3
ENDBRANCH   1   2
BRANCH   1  10
ATOM     10  C   UNL     1      -7.126  -4.203   0.320  1.00  0.00     0.000 C 
BRANCH  10  11
ATOM     11  C   UNL     1      -6.088  -5.087   1.033  1.00  0.00    -0.000 C 
BRANCH  11  12
ATOM     12  C   UNL     1      -4.802  -4.323   1.389  1.00  0.00    -0.000 C 
BRANCH  12  13
ATOM     13  C   UNL     1      -5.044  -2.813   1.565  1.00  0.00    -0.000 C 
BRANCH  13  14
ATOM     14  C   UNL     1      -3.746  -2.037   1.843  1.00  0.00    -0.000 C 
BRANCH  14  15
ATOM     15  C   UNL     1      -2.486  -2.870   1.551  1.00  0.00    -0.000 C 
BRANCH  15  16
ATOM     16  C   UNL     1      -1.471  -2.115   0.678  1.00  0.00    -0.003 C 
ATOM     17  C   UNL     1      -0.113  -2.812   0.609  1.00  0.00     0.004 C 
ENDBRANCH  15  16
ENDBRANCH  14  15
ENDBRANCH  13  14
ENDBRANCH  12  13
ENDBRANCH  11  12
ENDBRANCH  10  11
ENDBRANCH   1  10
TORSDOF 13
ENDMDL
MODEL 9
REMARK VINA RESULT:    -4.131      1.693      3.580
REMARK INTER + INTRA:          -8.386
REMARK INTER:                  -6.766
REMARK INTRA:                  -1.620
REMARK UNBOUND:                -1.116
REMARK SMILES CCCCCCCCCCCCCCC(=O)[O-]
REMARK SMILES IDX 9 1 10 2 11 3 12 4 13 5 14 6 15 7 16 8 17 9 8 10 7 11 6 12
REMARK SMILES IDX 5 13 4 14 3 15 2 16 1 17
REMARK H PARENT
REMARK Flexibility Score: inf
ROOT
ATOM      1  C   UNL     1      -3.600  -3.386   1.998  1.00  0.00     0.000 C 
ENDROOT
BRANCH   1   2
ATOM      2  C   UNL     1      -5.021  -3.398   1.405  1.00  0.00     0.000 C 
BRANCH   2   3
ATOM      3  C   UNL     1      -5.528  -4.821   1.118  1.00  0.00     0.000 C 
BRANCH   3   4
ATOM      4  C   UNL     1      -7.023  -4.853   0.756  1.00  0.00     0.000 C 
BRANCH   4   5
ATOM      5  C   UNL     1      -7.451  -3.645  -0.093  1.00  0.00     0.006 C 
BRANCH   5   6
ATOM      6  C   UNL     1      -8.798  -3.862  -0.795  1.00  0.00     0.053 C 
BRANCH   6   7
ATOM      7  C   UNL     1      -8.658  -4.869  -1.893  1.00  0.00     0.041 C 
ATOM      8  O   UNL     1      -9.458  -5.839  -1.968  1.00  0.00    -0.550 OA
ATOM      9  O   UNL     1      -7.615  -4.765  -2.803  1.00  0.00    -0.550 OA
ENDBRANCH   6   7
ENDBRANCH   5   6
ENDBRANCH   4   5
ENDBRANCH   3   4
ENDBRANCH   2   3
ENDBRANCH   1   2
BRANCH   1  10
ATOM     10  C   UNL     1      -2.728  -2.263   1.414  1.00  0.00     0.000 C 
BRANCH  10  11
ATOM     11  C   UNL     1      -1.263  -2.691   1.215  1.00  0.00    -0.000 C 
BRANCH  11  12
ATOM     12  C   UNL     1      -0.731  -2.350  -0.187  1.00  0.00    -0.000 C 
BRANCH  12  13
ATOM     13  C   UNL     1      -1.081  -3.429  -1.228  1.00  0.00    -0.000 C 
BRANCH  13  14
ATOM     14  C   UNL     1      -0.881  -4.855  -0.688  1.00  0.00    -0.000 C 
BRANCH  14  15
ATOM     15  C   UNL     1      -2.141  -5.725  -0.837  1.00  0.00    -0.000 C 
BRANCH  15  16
ATOM     16  C   UNL     1      -2.437  -6.553   0.425  1.00  0.00    -0.003 C 
ATOM     17  C   UNL     1      -1.323  -6.464   1.467  1.00  0.00     0.004 C 
ENDBRANCH  15  16
ENDBRANCH  14  15
ENDBRANCH  13  14
ENDBRANCH  12  13
ENDBRANCH  11  12
ENDBRANCH  10  11
ENDBRANCH   1  10
TORSDOF 13
ENDMDL
