MODEL 1
REMARK VINA RESULT:    -3.536      0.000      0.000
REMARK INTER + INTRA:          -4.448
REMARK INTER:                  -4.156
REMARK INTRA:                  -0.292
REMARK UNBOUND:                -0.292
REMARK SMILES O=c1cc(-c2ccc(O)c(O)c2)oc2cc(O)cc(O)c12
REMARK SMILES IDX 4 1 3 2 2 3 1 4 21 5 19 6 18 7 16 8 15 9 14 10 13 11 5 12
REMARK SMILES IDX 6 13 7 14 8 15 12 16 10 17 9 18 11 20 20 22 17 24
REMARK H PARENT 9 19 11 21 20 23 17 25
REMARK Flexibility Score: inf
ROOT
ATOM      1  C   UNL     1      -2.790  -6.192  27.763  1.00  0.00     0.138 A 
ATOM      2  C   UNL     1      -2.633  -7.468  27.203  1.00  0.00     0.100 A 
ATOM      3  C   UNL     1      -2.475  -7.601  25.822  1.00  0.00     0.197 A 
ATOM      4  O   UNL     1      -2.398  -8.762  25.343  1.00  0.00    -0.289 OA
ATOM      5  C   UNL     1      -2.445  -6.447  25.004  1.00  0.00     0.107 A 
ATOM      6  C   UNL     1      -2.249  -6.459  23.590  1.00  0.00     0.134 A 
ATOM      7  C   UNL     1      -2.355  -5.263  22.869  1.00  0.00     0.093 A 
ATOM      8  C   UNL     1      -2.587  -4.050  23.515  1.00  0.00     0.123 A 
ATOM      9  C   UNL     1      -2.726  -4.019  24.903  1.00  0.00     0.094 A 
ATOM     10  C   UNL     1      -2.661  -5.199  25.648  1.00  0.00     0.146 A 
ATOM     11  O   UNL     1      -2.812  -5.129  26.965  1.00  0.00    -0.456 OA
ENDROOT
BRANCH   1  12
ATOM     12  C   UNL     1      -2.960  -5.994  29.225  1.00  0.00     0.021 A 
ATOM     13  C   UNL     1      -3.569  -4.818  29.696  1.00  0.00     0.016 A 
ATOM     14  C   UNL     1      -3.733  -4.603  31.067  1.00  0.00     0.051 A 
ATOM     15  C   UNL     1      -3.284  -5.555  31.989  1.00  0.00     0.157 A 
ATOM     16  C   UNL     1      -2.498  -6.942  30.159  1.00  0.00     0.062 A 
ATOM     17  C   UNL     1      -2.662  -6.725  31.535  1.00  0.00     0.158 A 
BRANCH  15  18
ATOM     18  O   UNL     1      -3.447  -5.346  33.358  1.00  0.00    -0.504 OA
ATOM     19  H   UNL     1      -3.488  -6.119  34.011  1.00  0.00     0.293 HD
ENDBRANCH  15  18
BRANCH  17  20
ATOM     20  O   UNL     1      -2.206  -7.665  32.457  1.00  0.00    -0.504 OA
ATOM     21  H   UNL     1      -1.490  -7.438  33.137  1.00  0.00     0.293 HD
ENDBRANCH  17  20
ENDBRANCH   1  12
BRANCH   6  22
ATOM     22  O   UNL     1      -1.928  -7.604  22.856  1.00  0.00    -0.507 OA
ATOM     23  H   UNL     1      -1.072  -8.129  22.952  1.00  0.00     0.293 HD
ENDBRANCH   6  22
BRANCH   8  24
ATOM     24  O   UNL     1      -2.670  -2.878  22.767  1.00  0.00    -0.508 OA
ATOM     25  H   UNL     1      -1.983  -2.652  22.057  1.00  0.00     0.293 HD
ENDBRANCH   8  24
TORSDOF 5
ENDMDL
MODEL 2
REMARK VINA RESULT:    -3.484      4.877      6.660
REMARK INTER + INTRA:          -4.386
REMARK INTER:                  -4.085
REMARK INTRA:                  -0.301
REMARK UNBOUND:                -0.292
REMARK SMILES O=c1cc(-c2ccc(O)c(O)c2)oc2cc(O)cc(O)c12
REMARK SMILES IDX 4 1 3 2 2 3 1 4 21 5 19 6 18 7 16 8 15 9 14 10 13 11 5 12
REMARK SMILES IDX 6 13 7 14 8 15 12 16 10 17 9 18 11 20 20 22 17 24
REMARK H PARENT 9 19 11 21 20 23 17 25
REMARK Flexibility Score: inf
ROOT
ATOM      1  C   UNL     1      -7.609  -4.959  29.624  1.00  0.00     0.138 A 
ATOM      2  C   UNL     1      -7.444  -5.087  28.238  1.00  0.00     0.100 A 
ATOM      3  C   UNL     1      -6.185  -5.391  27.717  1.00  0.00     0.197 A 
ATOM      4  O   UNL     1      -6.056  -5.437  26.466  1.00  0.00    -0.289 OA
ATOM      5  C   UNL     1      -5.094  -5.599  28.593  1.00  0.00     0.107 A 
ATOM      6  C   UNL     1      -3.775  -5.954  28.177  1.00  0.00     0.134 A 
ATOM      7  C   UNL     1      -2.748  -6.020  29.126  1.00  0.00     0.093 A 
ATOM      8  C   UNL     1      -3.001  -5.804  30.480  1.00  0.00     0.123 A 
ATOM      9  C   UNL     1      -4.297  -5.510  30.904  1.00  0.00     0.094 A 
ATOM     10  C   UNL     1      -5.338  -5.402  29.979  1.00  0.00     0.146 A 
ATOM     11  O   UNL     1      -6.555  -5.107  30.421  1.00  0.00    -0.456 OA
ENDROOT
BRANCH   1  12
ATOM     12  C   UNL     1      -8.925  -4.638  30.231  1.00  0.00     0.021 A 
ATOM     13  C   UNL     1      -9.806  -3.777  29.555  1.00  0.00     0.016 A 
ATOM     14  C   UNL     1     -11.048  -3.453  30.108  1.00  0.00     0.051 A 
ATOM     15  C   UNL     1     -11.426  -3.977  31.350  1.00  0.00     0.157 A 
ATOM     16  C   UNL     1      -9.306  -5.151  31.486  1.00  0.00     0.062 A 
ATOM     17  C   UNL     1     -10.553  -4.825  32.042  1.00  0.00     0.158 A 
BRANCH  15  18
ATOM     18  O   UNL     1     -12.664  -3.657  31.904  1.00  0.00    -0.504 OA
ATOM     19  H   UNL     1     -13.004  -2.703  31.925  1.00  0.00     0.293 HD
ENDBRANCH  15  18
BRANCH  17  20
ATOM     20  O   UNL     1     -10.927  -5.335  33.283  1.00  0.00    -0.504 OA
ATOM     21  H   UNL     1     -10.853  -6.324  33.495  1.00  0.00     0.293 HD
ENDBRANCH  17  20
ENDBRANCH   1  12
BRANCH   6  22
ATOM     22  O   UNL     1      -3.430  -6.273  26.861  1.00  0.00    -0.507 OA
ATOM     23  H   UNL     1      -3.921  -5.948  26.042  1.00  0.00     0.293 HD
ENDBRANCH   6  22
BRANCH   8  24
ATOM     24  O   UNL     1      -1.957  -5.893  31.398  1.00  0.00    -0.508 OA
ATOM     25  H   UNL     1      -1.644  -5.086  31.925  1.00  0.00     0.293 HD
ENDBRANCH   8  24
TORSDOF 5
ENDMDL
MODEL 3
REMARK VINA RESULT:    -3.472      1.362      3.129
REMARK INTER + INTRA:          -4.373
REMARK INTER:                  -4.077
REMARK INTRA:                  -0.296
REMARK UNBOUND:                -0.292
REMARK SMILES O=c1cc(-c2ccc(O)c(O)c2)oc2cc(O)cc(O)c12
REMARK SMILES IDX 4 1 3 2 2 3 1 4 21 5 19 6 18 7 16 8 15 9 14 10 13 11 5 12
REMARK SMILES IDX 6 13 7 14 8 15 12 16 10 17 9 18 11 20 20 22 17 24
REMARK H PARENT 9 19 11 21 20 23 17 25
REMARK Flexibility Score: inf
ROOT
ATOM      1  C   UNL     1      -2.289  -6.347  26.975  1.00  0.00     0.138 A 
ATOM      2  C   UNL     1      -2.327  -4.994  26.609  1.00  0.00     0.100 A 
ATOM      3  C   UNL     1      -2.412  -4.645  25.260  1.00  0.00     0.197 A 
ATOM      4  O   UNL     1      -2.380  -3.424  24.960  1.00  0.00    -0.289 OA
ATOM      5  C   UNL     1      -2.491  -5.659  24.276  1.00  0.00     0.107 A 
ATOM      6  C   UNL     1      -2.622  -5.421  22.874  1.00  0.00     0.134 A 
ATOM      7  C   UNL     1      -2.573  -6.502  21.985  1.00  0.00     0.093 A 
ATOM      8  C   UNL     1      -2.461  -7.812  22.447  1.00  0.00     0.123 A 
ATOM      9  C   UNL     1      -2.387  -8.059  23.818  1.00  0.00     0.094 A 
ATOM     10  C   UNL     1      -2.397  -7.002  24.730  1.00  0.00     0.146 A 
ATOM     11  O   UNL     1      -2.311  -7.278  26.026  1.00  0.00    -0.456 OA
ENDROOT
BRANCH   1  12
ATOM     12  C   UNL     1      -2.201  -6.773  28.394  1.00  0.00     0.021 A 
ATOM     13  C   UNL     1      -1.956  -8.124  28.696  1.00  0.00     0.016 A 
ATOM     14  C   UNL     1      -1.875  -8.553  30.023  1.00  0.00     0.051 A 
ATOM     15  C   UNL     1      -2.048  -7.640  31.071  1.00  0.00     0.157 A 
ATOM     16  C   UNL     1      -2.386  -5.863  29.453  1.00  0.00     0.062 A 
ATOM     17  C   UNL     1      -2.307  -6.294  30.786  1.00  0.00     0.158 A 
BRANCH  15  18
ATOM     18  O   UNL     1      -1.967  -8.063  32.396  1.00  0.00    -0.504 OA
ATOM     19  H   UNL     1      -2.087  -7.416  33.167  1.00  0.00     0.293 HD
ENDBRANCH  15  18
BRANCH  17  20
ATOM     20  O   UNL     1      -2.489  -5.391  31.831  1.00  0.00    -0.504 OA
ATOM     21  H   UNL     1      -1.783  -5.256  32.546  1.00  0.00     0.293 HD
ENDBRANCH  17  20
ENDBRANCH   1  12
BRANCH   6  22
ATOM     22  O   UNL     1      -2.824  -4.158  22.312  1.00  0.00    -0.507 OA
ATOM     23  H   UNL     1      -2.416  -3.840  21.446  1.00  0.00     0.293 HD
ENDBRANCH   6  22
BRANCH   8  24
ATOM     24  O   UNL     1      -2.431  -8.863  21.533  1.00  0.00    -0.508 OA
ATOM     25  H   UNL     1      -2.951  -8.825  20.664  1.00  0.00     0.293 HD
ENDBRANCH   8  24
TORSDOF 5
ENDMDL
MODEL 4
REMARK VINA RESULT:    -3.429      1.266      6.792
REMARK INTER + INTRA:          -4.322
REMARK INTER:                  -4.029
REMARK INTRA:                  -0.293
REMARK UNBOUND:                -0.292
REMARK SMILES O=c1cc(-c2ccc(O)c(O)c2)oc2cc(O)cc(O)c12
REMARK SMILES IDX 4 1 3 2 2 3 1 4 21 5 19 6 18 7 16 8 15 9 14 10 13 11 5 12
REMARK SMILES IDX 6 13 7 14 8 15 12 16 10 17 9 18 11 20 20 22 17 24
REMARK H PARENT 9 19 11 21 20 23 17 25
REMARK Flexibility Score: inf
ROOT
ATOM      1  C   UNL     1      -2.444  -6.201  26.962  1.00  0.00     0.138 A 
ATOM      2  C   UNL     1      -2.168  -7.575  26.946  1.00  0.00     0.100 A 
ATOM      3  C   UNL     1      -2.188  -8.297  28.140  1.00  0.00     0.197 A 
ATOM      4  O   UNL     1      -1.875  -9.515  28.102  1.00  0.00    -0.289 OA
ATOM      5  C   UNL     1      -2.517  -7.644  29.351  1.00  0.00     0.107 A 
ATOM      6  C   UNL     1      -2.609  -8.287  30.622  1.00  0.00     0.134 A 
ATOM      7  C   UNL     1      -2.828  -7.517  31.771  1.00  0.00     0.093 A 
ATOM      8  C   UNL     1      -3.021  -6.138  31.689  1.00  0.00     0.123 A 
ATOM      9  C   UNL     1      -2.987  -5.507  30.445  1.00  0.00     0.094 A 
ATOM     10  C   UNL     1      -2.735  -6.242  29.284  1.00  0.00     0.146 A 
ATOM     11  O   UNL     1      -2.698  -5.601  28.121  1.00  0.00    -0.456 OA
ENDROOT
BRANCH   1  12
ATOM     12  C   UNL     1      -2.438  -5.385  25.721  1.00  0.00     0.021 A 
ATOM     13  C   UNL     1      -2.337  -3.986  25.814  1.00  0.00     0.016 A 
ATOM     14  C   UNL     1      -2.337  -3.196  24.662  1.00  0.00     0.051 A 
ATOM     15  C   UNL     1      -2.446  -3.789  23.399  1.00  0.00     0.157 A 
ATOM     16  C   UNL     1      -2.561  -5.975  24.447  1.00  0.00     0.062 A 
ATOM     17  C   UNL     1      -2.562  -5.180  23.291  1.00  0.00     0.158 A 
BRANCH  15  18
ATOM     18  O   UNL     1      -2.445  -3.004  22.247  1.00  0.00    -0.504 OA
ATOM     19  H   UNL     1      -1.673  -2.385  22.029  1.00  0.00     0.293 HD
ENDBRANCH  15  18
BRANCH  17  20
ATOM     20  O   UNL     1      -2.682  -5.766  22.033  1.00  0.00    -0.504 OA
ATOM     21  H   UNL     1      -2.987  -5.234  21.226  1.00  0.00     0.293 HD
ENDBRANCH  17  20
ENDBRANCH   1  12
BRANCH   6  22
ATOM     22  O   UNL     1      -2.516  -9.670  30.806  1.00  0.00    -0.507 OA
ATOM     23  H   UNL     1      -2.474 -10.349  30.062  1.00  0.00     0.293 HD
ENDBRANCH   6  22
BRANCH   8  24
ATOM     24  O   UNL     1      -3.252  -5.406  32.851  1.00  0.00    -0.508 OA
ATOM     25  H   UNL     1      -2.554  -4.775  33.228  1.00  0.00     0.293 HD
ENDBRANCH   8  24
TORSDOF 5
ENDMDL
MODEL 5
REMARK VINA RESULT:    -3.354      5.035      6.509
REMARK INTER + INTRA:          -4.234
REMARK INTER:                  -3.942
REMARK INTRA:                  -0.292
REMARK UNBOUND:                -0.292
REMARK SMILES O=c1cc(-c2ccc(O)c(O)c2)oc2cc(O)cc(O)c12
REMARK SMILES IDX 4 1 3 2 2 3 1 4 21 5 19 6 18 7 16 8 15 9 14 10 13 11 5 12
REMARK SMILES IDX 6 13 7 14 8 15 12 16 10 17 9 18 11 20 20 22 17 24
REMARK H PARENT 9 19 11 21 20 23 17 25
REMARK Flexibility Score: inf
ROOT
ATOM      1  C   UNL     1      -7.592  -5.441  30.395  1.00  0.00     0.138 A 
ATOM      2  C   UNL     1      -7.171  -6.744  30.694  1.00  0.00     0.100 A 
ATOM      3  C   UNL     1      -5.900  -7.167  30.300  1.00  0.00     0.197 A 
ATOM      4  O   UNL     1      -5.575  -8.361  30.527  1.00  0.00    -0.289 OA
ATOM      5  C   UNL     1      -5.037  -6.268  29.630  1.00  0.00     0.107 A 
ATOM      6  C   UNL     1      -3.706  -6.575  29.217  1.00  0.00     0.134 A 
ATOM      7  C   UNL     1      -2.987  -5.644  28.458  1.00  0.00     0.093 A 
ATOM      8  C   UNL     1      -3.525  -4.395  28.150  1.00  0.00     0.123 A 
ATOM      9  C   UNL     1      -4.805  -4.063  28.595  1.00  0.00     0.094 A 
ATOM     10  C   UNL     1      -5.562  -4.984  29.324  1.00  0.00     0.146 A 
ATOM     11  O   UNL     1      -6.782  -4.634  29.717  1.00  0.00    -0.456 OA
ENDROOT
BRANCH   1  12
ATOM     12  C   UNL     1      -8.932  -4.940  30.793  1.00  0.00     0.021 A 
ATOM     13  C   UNL     1      -9.486  -3.839  30.117  1.00  0.00     0.016 A 
ATOM     14  C   UNL     1     -10.743  -3.344  30.476  1.00  0.00     0.051 A 
ATOM     15  C   UNL     1     -11.461  -3.933  31.523  1.00  0.00     0.157 A 
ATOM     16  C   UNL     1      -9.654  -5.520  31.854  1.00  0.00     0.062 A 
ATOM     17  C   UNL     1     -10.915  -5.021  32.215  1.00  0.00     0.158 A 
BRANCH  15  18
ATOM     18  O   UNL     1     -12.714  -3.442  31.884  1.00  0.00    -0.504 OA
ATOM     19  H   UNL     1     -13.259  -2.866  31.253  1.00  0.00     0.293 HD
ENDBRANCH  15  18
BRANCH  17  20
ATOM     20  O   UNL     1     -11.627  -5.598  33.264  1.00  0.00    -0.504 OA
ATOM     21  H   UNL     1     -12.273  -5.058  33.829  1.00  0.00     0.293 HD
ENDBRANCH  17  20
ENDBRANCH   1  12
BRANCH   6  22
ATOM     22  O   UNL     1      -3.041  -7.761  29.543  1.00  0.00    -0.507 OA
ATOM     23  H   UNL     1      -3.494  -8.623  29.802  1.00  0.00     0.293 HD
ENDBRANCH   6  22
BRANCH   8  24
ATOM     24  O   UNL     1      -2.774  -3.488  27.406  1.00  0.00    -0.508 OA
ATOM     25  H   UNL     1      -2.315  -3.760  26.545  1.00  0.00     0.293 HD
ENDBRANCH   8  24
TORSDOF 5
ENDMDL
MODEL 6
REMARK VINA RESULT:    -3.333     16.949     18.677
REMARK INTER + INTRA:          -4.210
REMARK INTER:                  -3.915
REMARK INTRA:                  -0.295
REMARK UNBOUND:                -0.292
REMARK SMILES O=c1cc(-c2ccc(O)c(O)c2)oc2cc(O)cc(O)c12
REMARK SMILES IDX 4 1 3 2 2 3 1 4 21 5 19 6 18 7 16 8 15 9 14 10 13 11 5 12
REMARK SMILES IDX 6 13 7 14 8 15 12 16 10 17 9 18 11 20 20 22 17 24
REMARK H PARENT 9 19 11 21 20 23 17 25
REMARK Flexibility Score: inf
ROOT
ATOM      1  C   UNL     1     -17.190  -7.962  15.884  1.00  0.00     0.138 A 
ATOM      2  C   UNL     1     -16.928  -9.323  15.672  1.00  0.00     0.100 A 
ATOM      3  C   UNL     1     -15.694  -9.716  15.153  1.00  0.00     0.197 A 
ATOM      4  O   UNL     1     -15.512 -10.938  14.914  1.00  0.00    -0.289 OA
ATOM      5  C   UNL     1     -14.706  -8.742  14.875  1.00  0.00     0.107 A 
ATOM      6  C   UNL     1     -13.397  -9.030  14.383  1.00  0.00     0.134 A 
ATOM      7  C   UNL     1     -12.544  -7.976  14.035  1.00  0.00     0.093 A 
ATOM      8  C   UNL     1     -12.926  -6.648  14.218  1.00  0.00     0.123 A 
ATOM      9  C   UNL     1     -14.183  -6.356  14.750  1.00  0.00     0.094 A 
ATOM     10  C   UNL     1     -15.071  -7.384  15.074  1.00  0.00     0.146 A 
ATOM     11  O   UNL     1     -16.263  -7.064  15.565  1.00  0.00    -0.456 OA
ENDROOT
BRANCH   1  12
ATOM     12  C   UNL     1     -18.485  -7.489  16.435  1.00  0.00     0.021 A 
ATOM     13  C   UNL     1     -18.605  -6.159  16.873  1.00  0.00     0.016 A 
ATOM     14  C   UNL     1     -19.811  -5.691  17.402  1.00  0.00     0.051 A 
ATOM     15  C   UNL     1     -20.913  -6.547  17.512  1.00  0.00     0.157 A 
ATOM     16  C   UNL     1     -19.594  -8.349  16.561  1.00  0.00     0.062 A 
ATOM     17  C   UNL     1     -20.804  -7.879  17.094  1.00  0.00     0.158 A 
BRANCH  15  18
ATOM     18  O   UNL     1     -22.117  -6.084  18.039  1.00  0.00    -0.504 OA
ATOM     19  H   UNL     1     -22.449  -6.386  18.947  1.00  0.00     0.293 HD
ENDBRANCH  15  18
BRANCH  17  20
ATOM     20  O   UNL     1     -21.899  -8.732  17.216  1.00  0.00    -0.504 OA
ATOM     21  H   UNL     1     -22.759  -8.431  17.660  1.00  0.00     0.293 HD
ENDBRANCH  17  20
ENDBRANCH   1  12
BRANCH   6  22
ATOM     22  O   UNL     1     -12.883 -10.322  14.241  1.00  0.00    -0.507 OA
ATOM     23  H   UNL     1     -12.667 -10.943  15.005  1.00  0.00     0.293 HD
ENDBRANCH   6  22
BRANCH   8  24
ATOM     24  O   UNL     1     -12.046  -5.625  13.875  1.00  0.00    -0.508 OA
ATOM     25  H   UNL     1     -11.334  -5.754  13.165  1.00  0.00     0.293 HD
ENDBRANCH   8  24
TORSDOF 5
ENDMDL
MODEL 7
REMARK VINA RESULT:    -3.329      1.508      2.446
REMARK INTER + INTRA:          -4.204
REMARK INTER:                  -3.888
REMARK INTRA:                  -0.316
REMARK UNBOUND:                -0.292
REMARK SMILES O=c1cc(-c2ccc(O)c(O)c2)oc2cc(O)cc(O)c12
REMARK SMILES IDX 4 1 3 2 2 3 1 4 21 5 19 6 18 7 16 8 15 9 14 10 13 11 5 12
REMARK SMILES IDX 6 13 7 14 8 15 12 16 10 17 9 18 11 20 20 22 17 24
REMARK H PARENT 9 19 11 21 20 23 17 25
REMARK Flexibility Score: inf
ROOT
ATOM      1  C   UNL     1      -2.528  -6.387  25.835  1.00  0.00     0.138 A 
ATOM      2  C   UNL     1      -2.159  -7.551  25.145  1.00  0.00     0.100 A 
ATOM      3  C   UNL     1      -2.185  -7.564  23.750  1.00  0.00     0.197 A 
ATOM      4  O   UNL     1      -1.909  -8.641  23.161  1.00  0.00    -0.289 OA
ATOM      5  C   UNL     1      -2.554  -6.395  23.042  1.00  0.00     0.107 A 
ATOM      6  C   UNL     1      -2.578  -6.280  21.620  1.00  0.00     0.134 A 
ATOM      7  C   UNL     1      -3.072  -5.110  21.031  1.00  0.00     0.093 A 
ATOM      8  C   UNL     1      -3.485  -4.030  21.809  1.00  0.00     0.123 A 
ATOM      9  C   UNL     1      -3.415  -4.111  23.200  1.00  0.00     0.094 A 
ATOM     10  C   UNL     1      -2.960  -5.278  23.819  1.00  0.00     0.146 A 
ATOM     11  O   UNL     1      -2.922  -5.320  25.146  1.00  0.00    -0.456 OA
ENDROOT
BRANCH   1  12
ATOM     12  C   UNL     1      -2.517  -6.317  27.318  1.00  0.00     0.021 A 
ATOM     13  C   UNL     1      -1.893  -7.341  28.052  1.00  0.00     0.016 A 
ATOM     14  C   UNL     1      -1.875  -7.303  29.449  1.00  0.00     0.051 A 
ATOM     15  C   UNL     1      -2.487  -6.247  30.135  1.00  0.00     0.157 A 
ATOM     16  C   UNL     1      -3.142  -5.265  28.014  1.00  0.00     0.062 A 
ATOM     17  C   UNL     1      -3.125  -5.228  29.417  1.00  0.00     0.158 A 
BRANCH  15  18
ATOM     18  O   UNL     1      -2.470  -6.205  31.528  1.00  0.00    -0.504 OA
ATOM     19  H   UNL     1      -2.832  -6.970  32.085  1.00  0.00     0.293 HD
ENDBRANCH  15  18
BRANCH  17  20
ATOM     20  O   UNL     1      -3.743  -4.185  30.102  1.00  0.00    -0.504 OA
ATOM     21  H   UNL     1      -4.684  -3.884  29.875  1.00  0.00     0.293 HD
ENDBRANCH  17  20
ENDBRANCH   1  12
BRANCH   6  22
ATOM     22  O   UNL     1      -2.109  -7.268  20.748  1.00  0.00    -0.507 OA
ATOM     23  H   UNL     1      -2.271  -7.283  19.754  1.00  0.00     0.293 HD
ENDBRANCH   6  22
BRANCH   8  24
ATOM     24  O   UNL     1      -3.956  -2.876  21.188  1.00  0.00    -0.508 OA
ATOM     25  H   UNL     1      -3.737  -1.953  21.546  1.00  0.00     0.293 HD
ENDBRANCH   8  24
TORSDOF 5
ENDMDL
MODEL 8
REMARK VINA RESULT:    -3.282      1.451      7.190
REMARK INTER + INTRA:          -4.150
REMARK INTER:                  -3.845
REMARK INTRA:                  -0.305
REMARK UNBOUND:                -0.292
REMARK SMILES O=c1cc(-c2ccc(O)c(O)c2)oc2cc(O)cc(O)c12
REMARK SMILES IDX 4 1 3 2 2 3 1 4 21 5 19 6 18 7 16 8 15 9 14 10 13 11 5 12
REMARK SMILES IDX 6 13 7 14 8 15 12 16 10 17 9 18 11 20 20 22 17 24
REMARK H PARENT 9 19 11 21 20 23 17 25
REMARK Flexibility Score: inf
ROOT
ATOM      1  C   UNL     1      -2.992  -5.227  27.557  1.00  0.00     0.138 A 
ATOM      2  C   UNL     1      -3.516  -4.391  28.553  1.00  0.00     0.100 A 
ATOM      3  C   UNL     1      -3.593  -4.850  29.869  1.00  0.00     0.197 A 
ATOM      4  O   UNL     1      -4.125  -4.101  30.729  1.00  0.00    -0.289 OA
ATOM      5  C   UNL     1      -3.113  -6.141  30.193  1.00  0.00     0.107 A 
ATOM      6  C   UNL     1      -3.103  -6.698  31.507  1.00  0.00     0.134 A 
ATOM      7  C   UNL     1      -2.711  -8.030  31.688  1.00  0.00     0.093 A 
ATOM      8  C   UNL     1      -2.272  -8.805  30.616  1.00  0.00     0.123 A 
ATOM      9  C   UNL     1      -2.226  -8.253  29.335  1.00  0.00     0.094 A 
ATOM     10  C   UNL     1      -2.644  -6.939  29.115  1.00  0.00     0.146 A 
ATOM     11  O   UNL     1      -2.598  -6.455  27.879  1.00  0.00    -0.456 OA
ENDROOT
BRANCH   1  12
ATOM     12  C   UNL     1      -2.886  -4.789  26.142  1.00  0.00     0.021 A 
ATOM     13  C   UNL     1      -2.679  -3.429  25.854  1.00  0.00     0.016 A 
ATOM     14  C   UNL     1      -2.583  -2.990  24.530  1.00  0.00     0.051 A 
ATOM     15  C   UNL     1      -2.702  -3.901  23.474  1.00  0.00     0.157 A 
ATOM     16  C   UNL     1      -3.018  -5.698  25.074  1.00  0.00     0.062 A 
ATOM     17  C   UNL     1      -2.923  -5.257  23.746  1.00  0.00     0.158 A 
BRANCH  15  18
ATOM     18  O   UNL     1      -2.606  -3.468  22.153  1.00  0.00    -0.504 OA
ATOM     19  H   UNL     1      -2.624  -4.121  21.379  1.00  0.00     0.293 HD
ENDBRANCH  15  18
BRANCH  17  20
ATOM     20  O   UNL     1      -3.053  -6.159  22.692  1.00  0.00    -0.504 OA
ATOM     21  H   UNL     1      -3.710  -6.002  21.936  1.00  0.00     0.293 HD
ENDBRANCH  17  20
ENDBRANCH   1  12
BRANCH   6  22
ATOM     22  O   UNL     1      -3.442  -5.985  32.661  1.00  0.00    -0.507 OA
ATOM     23  H   UNL     1      -3.378  -6.345  33.600  1.00  0.00     0.293 HD
ENDBRANCH   6  22
BRANCH   8  24
ATOM     24  O   UNL     1      -1.875 -10.122  30.836  1.00  0.00    -0.508 OA
ATOM     25  H   UNL     1      -2.456 -10.771  31.355  1.00  0.00     0.293 HD
ENDBRANCH   8  24
TORSDOF 5
ENDMDL
