MODEL 1
REMARK VINA RESULT:    -3.017      0.000      0.000
REMARK INTER + INTRA:          -3.408
REMARK INTER:                  -3.370
REMARK INTRA:                  -0.038
REMARK UNBOUND:                -0.038
REMARK SMILES CCCC(=O)[O-]
REMARK SMILES IDX 3 1 4 2 5 3 6 4 2 5 1 6
REMARK H PARENT
REMARK Flexibility Score: inf
ROOT
ATOM      1  C   UNL     1      30.232   6.695  47.980  1.00  0.00     0.052 C 
ENDROOT
BRANCH   1   2
ATOM      2  C   UNL     1      31.472   5.944  47.599  1.00  0.00     0.041 C 
ATOM      3  O   UNL     1      31.607   4.737  47.929  1.00  0.00    -0.550 OA
ATOM      4  O   UNL     1      32.491   6.587  46.910  1.00  0.00    -0.550 OA
ENDBRANCH   1   2
BRANCH   1   5
ATOM      5  C   UNL     1      29.161   5.765  48.565  1.00  0.00     0.003 C 
ATOM      6  C   UNL     1      28.042   5.466  47.569  1.00  0.00     0.004 C 
ENDBRANCH   1   5
TORSDOF 2
ENDMDL
MODEL 2
REMARK VINA RESULT:    -2.901      1.288      1.635
REMARK INTER + INTRA:          -3.278
REMARK INTER:                  -3.252
REMARK INTRA:                  -0.025
REMARK UNBOUND:                -0.038
REMARK SMILES CCCC(=O)[O-]
REMARK SMILES IDX 3 1 4 2 5 3 6 4 2 5 1 6
REMARK H PARENT
REMARK Flexibility Score: inf
ROOT
ATOM      1  C   UNL     1      31.348   6.250  47.245  1.00  0.00     0.052 C 
ENDROOT
BRANCH   1   2
ATOM      2  C   UNL     1      32.600   5.911  47.995  1.00  0.00     0.041 C 
ATOM      3  O   UNL     1      33.321   4.948  47.623  1.00  0.00    -0.550 OA
ATOM      4  O   UNL     1      32.953   6.637  49.125  1.00  0.00    -0.550 OA
ENDBRANCH   1   2
BRANCH   1   5
ATOM      5  C   UNL     1      30.264   6.813  48.173  1.00  0.00     0.003 C 
ATOM      6  C   UNL     1      29.117   5.827  48.394  1.00  0.00     0.004 C 
ENDBRANCH   1   5
TORSDOF 2
ENDMDL
MODEL 3
REMARK VINA RESULT:    -2.880     15.751     16.565
REMARK INTER + INTRA:          -3.255
REMARK INTER:                  -3.221
REMARK INTRA:                  -0.034
REMARK UNBOUND:                -0.038
REMARK SMILES CCCC(=O)[O-]
REMARK SMILES IDX 3 1 4 2 5 3 6 4 2 5 1 6
REMARK H PARENT
REMARK Flexibility Score: inf
ROOT
ATOM      1  C   UNL     1      21.550  10.915  35.649  1.00  0.00     0.052 C 
ENDROOT
BRANCH   1   2
ATOM      2  C   UNL     1      20.729  12.168  35.661  1.00  0.00     0.041 C 
ATOM      3  O   UNL     1      21.149  13.206  35.086  1.00  0.00    -0.550 OA
ATOM      4  O   UNL     1      19.516  12.199  36.336  1.00  0.00    -0.550 OA
ENDBRANCH   1   2
BRANCH   1   5
ATOM      5  C   UNL     1      22.808  11.068  34.785  1.00  0.00     0.003 C 
ATOM      6  C   UNL     1      24.093  10.864  35.586  1.00  0.00     0.004 C 
ENDBRANCH   1   5
TORSDOF 2
ENDMDL
MODEL 4
REMARK VINA RESULT:    -2.868     15.774     16.544
REMARK INTER + INTRA:          -3.241
REMARK INTER:                  -3.212
REMARK INTRA:                  -0.029
REMARK UNBOUND:                -0.038
REMARK SMILES CCCC(=O)[O-]
REMARK SMILES IDX 3 1 4 2 5 3 6 4 2 5 1 6
REMARK H PARENT
REMARK Flexibility Score: inf
ROOT
ATOM      1  C   UNL     1      21.505  10.891  35.640  1.00  0.00     0.052 C 
ENDROOT
BRANCH   1   2
ATOM      2  C   UNL     1      20.658  12.126  35.697  1.00  0.00     0.041 C 
ATOM      3  O   UNL     1      19.555  12.110  36.304  1.00  0.00    -0.550 OA
ATOM      4  O   UNL     1      21.070  13.283  35.050  1.00  0.00    -0.550 OA
ENDBRANCH   1   2
BRANCH   1   5
ATOM      5  C   UNL     1      22.759  11.101  34.782  1.00  0.00     0.003 C 
ATOM      6  C   UNL     1      24.048  10.859  35.566  1.00  0.00     0.004 C 
ENDBRANCH   1   5
TORSDOF 2
ENDMDL
MODEL 5
REMARK VINA RESULT:    -2.836      2.323      3.222
REMARK INTER + INTRA:          -3.206
REMARK INTER:                  -3.193
REMARK INTRA:                  -0.012
REMARK UNBOUND:                -0.038
REMARK SMILES CCCC(=O)[O-]
REMARK SMILES IDX 3 1 4 2 5 3 6 4 2 5 1 6
REMARK H PARENT
REMARK Flexibility Score: inf
ROOT
ATOM      1  C   UNL     1      33.107   6.872  46.995  1.00  0.00     0.052 C 
ENDROOT
BRANCH   1   2
ATOM      2  C   UNL     1      33.883   6.278  45.860  1.00  0.00     0.041 C 
ATOM      3  O   UNL     1      33.719   6.706  44.687  1.00  0.00    -0.550 OA
ATOM      4  O   UNL     1      34.762   5.228  46.092  1.00  0.00    -0.550 OA
ENDBRANCH   1   2
BRANCH   1   5
ATOM      5  C   UNL     1      32.132   5.859  47.609  1.00  0.00     0.003 C 
ATOM      6  C   UNL     1      30.686   6.353  47.586  1.00  0.00     0.004 C 
ENDBRANCH   1   5
TORSDOF 2
ENDMDL
MODEL 6
REMARK VINA RESULT:    -2.740     15.423     16.180
REMARK INTER + INTRA:          -3.099
REMARK INTER:                  -3.062
REMARK INTRA:                  -0.037
REMARK UNBOUND:                -0.038
REMARK SMILES CCCC(=O)[O-]
REMARK SMILES IDX 3 1 4 2 5 3 6 4 2 5 1 6
REMARK H PARENT
REMARK Flexibility Score: inf
ROOT
ATOM      1  C   UNL     1      21.729  11.413  35.636  1.00  0.00     0.052 C 
ENDROOT
BRANCH   1   2
ATOM      2  C   UNL     1      20.663  10.360  35.595  1.00  0.00     0.041 C 
ATOM      3  O   UNL     1      19.473  10.652  35.885  1.00  0.00    -0.550 OA
ATOM      4  O   UNL     1      20.990   9.051  35.268  1.00  0.00    -0.550 OA
ENDBRANCH   1   2
BRANCH   1   5
ATOM      5  C   UNL     1      22.947  11.022  34.789  1.00  0.00     0.003 C 
ATOM      6  C   UNL     1      24.212  10.853  35.630  1.00  0.00     0.004 C 
ENDBRANCH   1   5
TORSDOF 2
ENDMDL
MODEL 7
REMARK VINA RESULT:    -2.729     15.861     16.616
REMARK INTER + INTRA:          -3.086
REMARK INTER:                  -3.073
REMARK INTRA:                  -0.013
REMARK UNBOUND:                -0.038
REMARK SMILES CCCC(=O)[O-]
REMARK SMILES IDX 3 1 4 2 5 3 6 4 2 5 1 6
REMARK H PARENT
REMARK Flexibility Score: inf
ROOT
ATOM      1  C   UNL     1      21.381  11.412  35.650  1.00  0.00     0.052 C 
ENDROOT
BRANCH   1   2
ATOM      2  C   UNL     1      22.515  11.262  34.682  1.00  0.00     0.041 C 
ATOM      3  O   UNL     1      22.335  11.484  33.456  1.00  0.00    -0.550 OA
ATOM      4  O   UNL     1      23.761  10.843  35.130  1.00  0.00    -0.550 OA
ENDBRANCH   1   2
BRANCH   1   5
ATOM      5  C   UNL     1      20.731  12.799  35.553  1.00  0.00     0.003 C 
ATOM      6  C   UNL     1      19.268  12.788  35.993  1.00  0.00     0.004 C 
ENDBRANCH   1   5
TORSDOF 2
ENDMDL
MODEL 8
REMARK VINA RESULT:    -2.724      2.141      2.633
REMARK INTER + INTRA:          -3.081
REMARK INTER:                  -3.072
REMARK INTRA:                  -0.009
REMARK UNBOUND:                -0.038
REMARK SMILES CCCC(=O)[O-]
REMARK SMILES IDX 3 1 4 2 5 3 6 4 2 5 1 6
REMARK H PARENT
REMARK Flexibility Score: inf
ROOT
ATOM      1  C   UNL     1      30.216   7.883  48.802  1.00  0.00     0.052 C 
ENDROOT
BRANCH   1   2
ATOM      2  C   UNL     1      31.414   8.693  48.411  1.00  0.00     0.041 C 
ATOM      3  O   UNL     1      32.450   8.123  47.978  1.00  0.00    -0.550 OA
ATOM      4  O   UNL     1      31.399  10.074  48.557  1.00  0.00    -0.550 OA
ENDBRANCH   1   2
BRANCH   1   5
ATOM      5  C   UNL     1      30.152   6.555  48.035  1.00  0.00     0.003 C 
ATOM      6  C   UNL     1      28.816   5.837  48.224  1.00  0.00     0.004 C 
ENDBRANCH   1   5
TORSDOF 2
ENDMDL
MODEL 9
REMARK VINA RESULT:    -2.718      2.308      3.431
REMARK INTER + INTRA:          -3.074
REMARK INTER:                  -3.059
REMARK INTRA:                  -0.015
REMARK UNBOUND:                -0.038
REMARK SMILES CCCC(=O)[O-]
REMARK SMILES IDX 3 1 4 2 5 3 6 4 2 5 1 6
REMARK H PARENT
REMARK Flexibility Score: inf
ROOT
ATOM      1  C   UNL     1      30.430   7.868  48.738  1.00  0.00     0.052 C 
ENDROOT
BRANCH   1   2
ATOM      2  C   UNL     1      30.224   6.624  47.929  1.00  0.00     0.041 C 
ATOM      3  O   UNL     1      31.129   6.213  47.156  1.00  0.00    -0.550 OA
ATOM      4  O   UNL     1      29.019   5.937  48.004  1.00  0.00    -0.550 OA
ENDBRANCH   1   2
BRANCH   1   5
ATOM      5  C   UNL     1      31.747   8.569  48.377  1.00  0.00     0.003 C 
ATOM      6  C   UNL     1      31.650  10.089  48.496  1.00  0.00     0.004 C 
ENDBRANCH   1   5
TORSDOF 2
ENDMDL
