MODEL 1
REMARK VINA RESULT:    -5.650      0.000      0.000
REMARK INTER + INTRA:          -6.161
REMARK INTER:                  -7.632
REMARK INTRA:                   1.471
REMARK UNBOUND:                 1.471
REMARK SMILES O=c1c(-c2ccc(O)cc2)coc2c([C@@H]3O[C@@H](CO)[C@H](O)[C@@H](O)[C@@H]3O)c(O)ccc12
REMARK SMILES IDX 3 1 11 2 12 3 13 4 30 5 2 6 1 7 29 8 28 9 26 10 14 11 4 12
REMARK SMILES IDX 5 13 6 14 7 15 10 16 9 17 8 18 15 20 24 21 16 22 22 23 17 24
REMARK SMILES IDX 20 25 25 26 23 28 18 30 19 31 21 33 27 35
REMARK H PARENT 8 19 25 27 23 29 19 32 21 34 27 36
REMARK Flexibility Score: inf
ROOT
ATOM      1  C   UNL     1      42.453  20.664   8.626  1.00  0.00     0.065 A 
ATOM      2  C   UNL     1      43.104  20.176   9.769  1.00  0.00     0.208 A 
ATOM      3  O   UNL     1      42.323  19.633  10.748  1.00  0.00    -0.463 OA
ATOM      4  C   UNL     1      40.939  19.540  10.681  1.00  0.00     0.147 A 
ATOM      5  C   UNL     1      40.292  19.960   9.507  1.00  0.00     0.066 A 
ATOM      6  C   UNL     1      41.056  20.541   8.484  1.00  0.00     0.200 A 
ATOM      7  O   UNL     1      40.496  20.925   7.419  1.00  0.00    -0.288 OA
ATOM      8  C   UNL     1      38.913  19.752   9.368  1.00  0.00     0.020 A 
ATOM      9  C   UNL     1      38.228  19.008  10.324  1.00  0.00     0.047 A 
ATOM     10  C   UNL     1      38.886  18.528  11.460  1.00  0.00     0.125 A 
ATOM     11  C   UNL     1      40.202  18.989  11.763  1.00  0.00     0.069 A 
ENDROOT
BRANCH   1  12
ATOM     12  C   UNL     1      43.285  21.292   7.570  1.00  0.00    -0.011 A 
ATOM     13  C   UNL     1      43.889  22.545   7.780  1.00  0.00     0.013 A 
ATOM     14  C   UNL     1      44.683  23.124   6.784  1.00  0.00     0.047 A 
ATOM     15  C   UNL     1      44.893  22.457   5.575  1.00  0.00     0.115 A 
ATOM     16  C   UNL     1      43.511  20.622   6.354  1.00  0.00     0.013 A 
ATOM     17  C   UNL     1      44.306  21.203   5.362  1.00  0.00     0.047 A 
BRANCH  15  18
ATOM     18  O   UNL     1      45.687  23.046   4.593  1.00  0.00    -0.508 OA
ATOM     19  H   UNL     1      45.366  23.848   4.065  1.00  0.00     0.293 HD
ENDBRANCH  15  18
ENDBRANCH   1  12
BRANCH  11  20
ATOM     20  C   UNL     1      40.881  18.842  13.148  1.00  0.00     0.188 C 
ATOM     21  C   UNL     1      42.129  17.893  13.226  1.00  0.00     0.179 C 
ATOM     22  O   UNL     1      41.153  20.072  13.812  1.00  0.00    -0.362 OA
ATOM     23  C   UNL     1      43.404  18.584  12.738  1.00  0.00     0.177 C 
ATOM     24  C   UNL     1      42.315  20.749  13.335  1.00  0.00     0.176 C 
ATOM     25  C   UNL     1      43.584  19.892  13.512  1.00  0.00     0.177 C 
BRANCH  21  26
ATOM     26  O   UNL     1      41.947  16.704  12.504  1.00  0.00    -0.387 OA
ATOM     27  H   UNL     1      41.911  15.960  13.161  1.00  0.00     0.211 HD
ENDBRANCH  21  26
BRANCH  23  28
ATOM     28  O   UNL     1      44.507  17.742  12.962  1.00  0.00    -0.387 OA
ATOM     29  H   UNL     1      45.278  18.145  12.484  1.00  0.00     0.211 HD
ENDBRANCH  23  28
BRANCH  24  30
ATOM     30  C   UNL     1      42.431  22.077  14.102  1.00  0.00     0.191 C 
BRANCH  30  31
ATOM     31  O   UNL     1      41.595  22.071  15.226  1.00  0.00    -0.394 OA
ATOM     32  H   UNL     1      41.717  22.953  15.665  1.00  0.00     0.210 HD
ENDBRANCH  30  31
ENDBRANCH  24  30
BRANCH  25  33
ATOM     33  O   UNL     1      44.734  20.570  13.069  1.00  0.00    -0.388 OA
ATOM     34  H   UNL     1      44.894  20.313  12.123  1.00  0.00     0.211 HD
ENDBRANCH  25  33
ENDBRANCH  11  20
BRANCH  10  35
ATOM     35  O   UNL     1      38.233  17.534  12.189  1.00  0.00    -0.507 OA
ATOM     36  H   UNL     1      38.081  17.602  13.186  1.00  0.00     0.293 HD
ENDBRANCH  10  35
TORSDOF 9
ENDMDL
MODEL 2
REMARK VINA RESULT:    -3.900      1.324      2.302
REMARK INTER + INTRA:          -3.796
REMARK INTER:                  -4.879
REMARK INTRA:                   1.083
REMARK UNBOUND:                 1.471
REMARK SMILES O=c1c(-c2ccc(O)cc2)coc2c([C@@H]3O[C@@H](CO)[C@H](O)[C@@H](O)[C@@H]3O)c(O)ccc12
REMARK SMILES IDX 3 1 11 2 12 3 13 4 30 5 2 6 1 7 29 8 28 9 26 10 14 11 4 12
REMARK SMILES IDX 5 13 6 14 7 15 10 16 9 17 8 18 15 20 24 21 16 22 22 23 17 24
REMARK SMILES IDX 20 25 25 26 23 28 18 30 19 31 21 33 27 35
REMARK H PARENT 8 19 25 27 23 29 19 32 21 34 27 36
REMARK Flexibility Score: inf
ROOT
ATOM      1  C   UNL     1      42.774  20.892   8.443  1.00  0.00     0.065 A 
ATOM      2  C   UNL     1      43.511  20.361   9.513  1.00  0.00     0.208 A 
ATOM      3  O   UNL     1      42.811  19.950  10.610  1.00  0.00    -0.463 OA
ATOM      4  C   UNL     1      41.431  20.030  10.730  1.00  0.00     0.147 A 
ATOM      5  C   UNL     1      40.684  20.492   9.633  1.00  0.00     0.066 A 
ATOM      6  C   UNL     1      41.367  20.941   8.492  1.00  0.00     0.200 A 
ATOM      7  O   UNL     1      40.717  21.360   7.493  1.00  0.00    -0.288 OA
ATOM      8  C   UNL     1      39.284  20.455   9.687  1.00  0.00     0.020 A 
ATOM      9  C   UNL     1      38.651  19.832  10.758  1.00  0.00     0.047 A 
ATOM     10  C   UNL     1      39.396  19.309  11.819  1.00  0.00     0.125 A 
ATOM     11  C   UNL     1      40.786  19.610  11.925  1.00  0.00     0.069 A 
ENDROOT
BRANCH   1  12
ATOM     12  C   UNL     1      43.524  21.377   7.258  1.00  0.00    -0.011 A 
ATOM     13  C   UNL     1      44.058  22.679   7.229  1.00  0.00     0.013 A 
ATOM     14  C   UNL     1      44.775  23.124   6.113  1.00  0.00     0.047 A 
ATOM     15  C   UNL     1      44.978  22.276   5.021  1.00  0.00     0.115 A 
ATOM     16  C   UNL     1      43.741  20.526   6.160  1.00  0.00     0.013 A 
ATOM     17  C   UNL     1      44.460  20.974   5.048  1.00  0.00     0.047 A 
BRANCH  15  18
ATOM     18  O   UNL     1      45.694  22.734   3.918  1.00  0.00    -0.508 OA
ATOM     19  H   UNL     1      45.226  23.084   3.091  1.00  0.00     0.293 HD
ENDBRANCH  15  18
ENDBRANCH   1  12
BRANCH  11  20
ATOM     20  C   UNL     1      41.625  19.420  13.214  1.00  0.00     0.188 C 
ATOM     21  C   UNL     1      42.701  20.520  13.525  1.00  0.00     0.179 C 
ATOM     22  O   UNL     1      40.864  19.129  14.382  1.00  0.00    -0.362 OA
ATOM     23  C   UNL     1      42.082  21.758  14.178  1.00  0.00     0.177 C 
ATOM     24  C   UNL     1      40.244  20.268  14.975  1.00  0.00     0.176 C 
ATOM     25  C   UNL     1      41.285  21.320  15.409  1.00  0.00     0.177 C 
BRANCH  21  26
ATOM     26  O   UNL     1      43.415  20.913  12.383  1.00  0.00    -0.387 OA
ATOM     27  H   UNL     1      43.516  20.112  11.805  1.00  0.00     0.211 HD
ENDBRANCH  21  26
BRANCH  23  28
ATOM     28  O   UNL     1      43.103  22.644  14.562  1.00  0.00    -0.387 OA
ATOM     29  H   UNL     1      42.899  23.518  14.140  1.00  0.00     0.211 HD
ENDBRANCH  23  28
BRANCH  24  30
ATOM     30  C   UNL     1      39.416  19.780  16.175  1.00  0.00     0.191 C 
BRANCH  30  31
ATOM     31  O   UNL     1      38.648  20.826  16.702  1.00  0.00    -0.394 OA
ATOM     32  H   UNL     1      39.285  21.432  17.162  1.00  0.00     0.210 HD
ENDBRANCH  30  31
ENDBRANCH  24  30
BRANCH  25  33
ATOM     33  O   UNL     1      40.677  22.431  16.021  1.00  0.00    -0.388 OA
ATOM     34  H   UNL     1      40.593  22.235  16.992  1.00  0.00     0.211 HD
ENDBRANCH  25  33
ENDBRANCH  11  20
BRANCH  10  35
ATOM     35  O   UNL     1      38.734  18.427  12.674  1.00  0.00    -0.507 OA
ATOM     36  H   UNL     1      39.062  17.487  12.846  1.00  0.00     0.293 HD
ENDBRANCH  10  35
TORSDOF 9
ENDMDL
MODEL 3
REMARK VINA RESULT:    -3.757      1.718      3.692
REMARK INTER + INTRA:          -3.604
REMARK INTER:                  -5.798
REMARK INTRA:                   2.195
REMARK UNBOUND:                 1.471
REMARK SMILES O=c1c(-c2ccc(O)cc2)coc2c([C@@H]3O[C@@H](CO)[C@H](O)[C@@H](O)[C@@H]3O)c(O)ccc12
REMARK SMILES IDX 3 1 11 2 12 3 13 4 30 5 2 6 1 7 29 8 28 9 26 10 14 11 4 12
REMARK SMILES IDX 5 13 6 14 7 15 10 16 9 17 8 18 15 20 24 21 16 22 22 23 17 24
REMARK SMILES IDX 20 25 25 26 23 28 18 30 19 31 21 33 27 35
REMARK H PARENT 8 19 25 27 23 29 19 32 21 34 27 36
REMARK Flexibility Score: inf
ROOT
ATOM      1  C   UNL     1      43.133  21.106   8.872  1.00  0.00     0.065 A 
ATOM      2  C   UNL     1      42.350  20.016   9.283  1.00  0.00     0.208 A 
ATOM      3  O   UNL     1      42.006  19.957  10.603  1.00  0.00    -0.463 OA
ATOM      4  C   UNL     1      42.383  20.898  11.551  1.00  0.00     0.147 A 
ATOM      5  C   UNL     1      43.104  22.028  11.128  1.00  0.00     0.066 A 
ATOM      6  C   UNL     1      43.494  22.118   9.784  1.00  0.00     0.200 A 
ATOM      7  O   UNL     1      44.141  23.125   9.381  1.00  0.00    -0.288 OA
ATOM      8  C   UNL     1      43.379  23.053  12.045  1.00  0.00     0.020 A 
ATOM      9  C   UNL     1      42.816  23.010  13.316  1.00  0.00     0.047 A 
ATOM     10  C   UNL     1      42.040  21.918  13.716  1.00  0.00     0.125 A 
ATOM     11  C   UNL     1      42.008  20.741  12.912  1.00  0.00     0.069 A 
ENDROOT
BRANCH   1  12
ATOM     12  C   UNL     1      43.547  21.163   7.449  1.00  0.00    -0.011 A 
ATOM     13  C   UNL     1      44.355  22.214   6.976  1.00  0.00     0.013 A 
ATOM     14  C   UNL     1      44.751  22.255   5.635  1.00  0.00     0.047 A 
ATOM     15  C   UNL     1      44.357  21.244   4.754  1.00  0.00     0.115 A 
ATOM     16  C   UNL     1      43.163  20.145   6.557  1.00  0.00     0.013 A 
ATOM     17  C   UNL     1      43.562  20.188   5.218  1.00  0.00     0.047 A 
BRANCH  15  18
ATOM     18  O   UNL     1      44.760  21.298   3.422  1.00  0.00    -0.508 OA
ATOM     19  H   UNL     1      45.359  22.040   3.080  1.00  0.00     0.293 HD
ENDBRANCH  15  18
ENDBRANCH   1  12
BRANCH  11  20
ATOM     20  C   UNL     1      41.512  19.358  13.407  1.00  0.00     0.188 C 
ATOM     21  C   UNL     1      40.302  18.723  12.634  1.00  0.00     0.179 C 
ATOM     22  O   UNL     1      42.540  18.391  13.598  1.00  0.00    -0.362 OA
ATOM     23  C   UNL     1      40.746  18.036  11.341  1.00  0.00     0.177 C 
ATOM     24  C   UNL     1      42.995  17.775  12.394  1.00  0.00     0.176 C 
ATOM     25  C   UNL     1      41.854  17.033  11.670  1.00  0.00     0.177 C 
BRANCH  21  26
ATOM     26  O   UNL     1      39.302  19.660  12.336  1.00  0.00    -0.387 OA
ATOM     27  H   UNL     1      38.531  19.473  12.933  1.00  0.00     0.211 HD
ENDBRANCH  21  26
BRANCH  23  28
ATOM     28  O   UNL     1      39.652  17.367  10.767  1.00  0.00    -0.387 OA
ATOM     29  H   UNL     1      39.343  16.698  11.431  1.00  0.00     0.211 HD
ENDBRANCH  23  28
BRANCH  24  30
ATOM     30  C   UNL     1      44.137  16.814  12.762  1.00  0.00     0.191 C 
BRANCH  30  31
ATOM     31  O   UNL     1      44.286  16.736  14.153  1.00  0.00    -0.394 OA
ATOM     32  H   UNL     1      43.503  17.207  14.541  1.00  0.00     0.210 HD
ENDBRANCH  30  31
ENDBRANCH  24  30
BRANCH  25  33
ATOM     33  O   UNL     1      42.308  16.401  10.498  1.00  0.00    -0.388 OA
ATOM     34  H   UNL     1      42.051  15.442  10.550  1.00  0.00     0.211 HD
ENDBRANCH  25  33
ENDBRANCH  11  20
BRANCH  10  35
ATOM     35  O   UNL     1      41.253  22.093  14.855  1.00  0.00    -0.507 OA
ATOM     36  H   UNL     1      41.269  21.445  15.631  1.00  0.00     0.293 HD
ENDBRANCH  10  35
TORSDOF 9
ENDMDL
