MODEL 1
REMARK VINA RESULT:    -3.451      0.000      0.000
REMARK INTER + INTRA:          -6.062
REMARK INTER:                  -5.266
REMARK INTRA:                  -0.795
REMARK UNBOUND:                -0.795
REMARK SMILES O=C([O-])CCCCCCCCC(=O)[O-]
REMARK SMILES IDX 7 1 6 2 5 3 4 4 2 5 1 6 3 7 8 8 9 9 10 10 11 11 12 12 13 13
REMARK SMILES IDX 14 14
REMARK H PARENT
REMARK Flexibility Score: inf
ROOT
ATOM      1  C   UNL     1      -4.232  -9.152  40.034  1.00  0.00     0.000 C 
ENDROOT
BRANCH   1   2
ATOM      2  C   UNL     1      -3.361  -8.159  39.245  1.00  0.00     0.000 C 
BRANCH   2   3
ATOM      3  C   UNL     1      -1.904  -8.137  39.733  1.00  0.00     0.006 C 
BRANCH   3   4
ATOM      4  C   UNL     1      -0.924  -8.713  38.701  1.00  0.00     0.053 C 
BRANCH   4   5
ATOM      5  C   UNL     1      -0.812 -10.196  38.860  1.00  0.00     0.041 C 
ATOM      6  O   UNL     1      -0.040 -10.685  39.726  1.00  0.00    -0.550 OA
ATOM      7  O   UNL     1      -1.600 -11.039  38.085  1.00  0.00    -0.550 OA
ENDBRANCH   4   5
ENDBRANCH   3   4
ENDBRANCH   2   3
ENDBRANCH   1   2
BRANCH   1   8
ATOM      8  C   UNL     1      -3.563  -9.619  41.338  1.00  0.00     0.000 C 
BRANCH   8   9
ATOM      9  C   UNL     1      -4.505 -10.447  42.225  1.00  0.00     0.000 C 
BRANCH   9  10
ATOM     10  C   UNL     1      -3.950 -11.863  42.441  1.00  0.00     0.006 C 
BRANCH  10  11
ATOM     11  C   UNL     1      -2.654 -12.106  41.656  1.00  0.00     0.053 C 
BRANCH  11  12
ATOM     12  C   UNL     1      -1.606 -12.760  42.502  1.00  0.00     0.041 C 
ATOM     13  O   UNL     1      -0.580 -12.120  42.848  1.00  0.00    -0.550 OA
ATOM     14  O   UNL     1      -1.747 -14.090  42.880  1.00  0.00    -0.550 OA
ENDBRANCH  11  12
ENDBRANCH  10  11
ENDBRANCH   9  10
ENDBRANCH   8   9
ENDBRANCH   1   8
TORSDOF 9
ENDMDL
MODEL 2
REMARK VINA RESULT:    -3.450      4.185      7.258
REMARK INTER + INTRA:          -6.060
REMARK INTER:                  -5.651
REMARK INTRA:                  -0.409
REMARK UNBOUND:                -0.795
REMARK SMILES O=C([O-])CCCCCCCCC(=O)[O-]
REMARK SMILES IDX 7 1 6 2 5 3 4 4 2 5 1 6 3 7 8 8 9 9 10 10 11 11 12 12 13 13
REMARK SMILES IDX 14 14
REMARK H PARENT
REMARK Flexibility Score: inf
ROOT
ATOM      1  C   UNL     1      -3.534  -8.160  38.868  1.00  0.00     0.000 C 
ENDROOT
BRANCH   1   2
ATOM      2  C   UNL     1      -2.055  -7.737  38.888  1.00  0.00     0.000 C 
BRANCH   2   3
ATOM      3  C   UNL     1      -1.314  -8.246  40.135  1.00  0.00     0.006 C 
BRANCH   3   4
ATOM      4  C   UNL     1      -2.100  -9.324  40.893  1.00  0.00     0.053 C 
BRANCH   4   5
ATOM      5  C   UNL     1      -1.439 -10.657  40.738  1.00  0.00     0.041 C 
ATOM      6  O   UNL     1      -0.414 -10.777  40.016  1.00  0.00    -0.550 OA
ATOM      7  O   UNL     1      -1.924 -11.759  41.432  1.00  0.00    -0.550 OA
ENDBRANCH   4   5
ENDBRANCH   3   4
ENDBRANCH   2   3
ENDBRANCH   1   2
BRANCH   1   8
ATOM      8  C   UNL     1      -4.365  -7.359  37.851  1.00  0.00     0.000 C 
BRANCH   8   9
ATOM      9  C   UNL     1      -3.565  -6.224  37.193  1.00  0.00     0.000 C 
BRANCH   9  10
ATOM     10  C   UNL     1      -4.501  -5.226  36.496  1.00  0.00     0.006 C 
BRANCH  10  11
ATOM     11  C   UNL     1      -4.667  -5.533  35.001  1.00  0.00     0.053 C 
BRANCH  11  12
ATOM     12  C   UNL     1      -3.822  -4.634  34.152  1.00  0.00     0.041 C 
ATOM     13  O   UNL     1      -3.812  -3.393  34.357  1.00  0.00    -0.550 OA
ATOM     14  O   UNL     1      -3.070  -5.165  33.111  1.00  0.00    -0.550 OA
ENDBRANCH  11  12
ENDBRANCH  10  11
ENDBRANCH   9  10
ENDBRANCH   8   9
ENDBRANCH   1   8
TORSDOF 9
ENDMDL
MODEL 3
REMARK VINA RESULT:    -3.351      3.901      4.777
REMARK INTER + INTRA:          -5.910
REMARK INTER:                  -5.524
REMARK INTRA:                  -0.387
REMARK UNBOUND:                -0.795
REMARK SMILES O=C([O-])CCCCCCCCC(=O)[O-]
REMARK SMILES IDX 7 1 6 2 5 3 4 4 2 5 1 6 3 7 8 8 9 9 10 10 11 11 12 12 13 13
REMARK SMILES IDX 14 14
REMARK H PARENT
REMARK Flexibility Score: inf
ROOT
ATOM      1  C   UNL     1      -3.409  -8.267  38.499  1.00  0.00     0.000 C 
ENDROOT
BRANCH   1   2
ATOM      2  C   UNL     1      -4.276  -7.213  37.790  1.00  0.00     0.000 C 
BRANCH   2   3
ATOM      3  C   UNL     1      -3.438  -6.196  36.998  1.00  0.00     0.006 C 
BRANCH   3   4
ATOM      4  C   UNL     1      -3.953  -5.989  35.567  1.00  0.00     0.053 C 
BRANCH   4   5
ATOM      5  C   UNL     1      -4.546  -4.624  35.419  1.00  0.00     0.041 C 
ATOM      6  O   UNL     1      -5.591  -4.314  36.048  1.00  0.00    -0.550 OA
ATOM      7  O   UNL     1      -3.914  -3.675  34.623  1.00  0.00    -0.550 OA
ENDBRANCH   4   5
ENDBRANCH   3   4
ENDBRANCH   2   3
ENDBRANCH   1   2
BRANCH   1   8
ATOM      8  C   UNL     1      -2.017  -7.731  38.877  1.00  0.00     0.000 C 
BRANCH   8   9
ATOM      9  C   UNL     1      -1.494  -8.315  40.198  1.00  0.00     0.000 C 
BRANCH   9  10
ATOM     10  C   UNL     1      -2.134  -9.681  40.485  1.00  0.00     0.006 C 
BRANCH  10  11
ATOM     11  C   UNL     1      -1.100 -10.728  40.917  1.00  0.00     0.053 C 
BRANCH  11  12
ATOM     12  C   UNL     1      -1.527 -11.455  42.155  1.00  0.00     0.041 C 
ATOM     13  O   UNL     1      -2.719 -11.382  42.553  1.00  0.00    -0.550 OA
ATOM     14  O   UNL     1      -0.600 -12.187  42.887  1.00  0.00    -0.550 OA
ENDBRANCH  11  12
ENDBRANCH  10  11
ENDBRANCH   9  10
ENDBRANCH   8   9
ENDBRANCH   1   8
TORSDOF 9
ENDMDL
MODEL 4
REMARK VINA RESULT:    -3.344      1.514      5.280
REMARK INTER + INTRA:          -5.898
REMARK INTER:                  -5.257
REMARK INTRA:                  -0.641
REMARK UNBOUND:                -0.795
REMARK SMILES O=C([O-])CCCCCCCCC(=O)[O-]
REMARK SMILES IDX 7 1 6 2 5 3 4 4 2 5 1 6 3 7 8 8 9 9 10 10 11 11 12 12 13 13
REMARK SMILES IDX 14 14
REMARK H PARENT
REMARK Flexibility Score: inf
ROOT
ATOM      1  C   UNL     1      -3.058 -11.114  41.524  1.00  0.00     0.000 C 
ENDROOT
BRANCH   1   2
ATOM      2  C   UNL     1      -1.793 -11.377  42.359  1.00  0.00     0.000 C 
BRANCH   2   3
ATOM      3  C   UNL     1      -1.529 -12.876  42.572  1.00  0.00     0.006 C 
BRANCH   3   4
ATOM      4  C   UNL     1      -2.745 -13.747  42.229  1.00  0.00     0.053 C 
BRANCH   4   5
ATOM      5  C   UNL     1      -2.866 -14.879  43.200  1.00  0.00     0.041 C 
ATOM      6  O   UNL     1      -1.911 -15.684  43.357  1.00  0.00    -0.550 OA
ATOM      7  O   UNL     1      -4.015 -15.015  43.969  1.00  0.00    -0.550 OA
ENDBRANCH   4   5
ENDBRANCH   3   4
ENDBRANCH   2   3
ENDBRANCH   1   2
BRANCH   1   8
ATOM      8  C   UNL     1      -3.324  -9.614  41.310  1.00  0.00     0.000 C 
BRANCH   8   9
ATOM      9  C   UNL     1      -3.373  -9.226  39.824  1.00  0.00     0.000 C 
BRANCH   9  10
ATOM     10  C   UNL     1      -2.389  -8.085  39.523  1.00  0.00     0.006 C 
BRANCH  10  11
ATOM     11  C   UNL     1      -0.956  -8.425  39.956  1.00  0.00     0.053 C 
BRANCH  11  12
ATOM     12  C   UNL     1      -0.328  -9.440  39.050  1.00  0.00     0.041 C 
ATOM     13  O   UNL     1       0.028 -10.558  39.503  1.00  0.00    -0.550 OA
ATOM     14  O   UNL     1      -0.106  -9.136  37.713  1.00  0.00    -0.550 OA
ENDBRANCH  11  12
ENDBRANCH  10  11
ENDBRANCH   9  10
ENDBRANCH   8   9
ENDBRANCH   1   8
TORSDOF 9
ENDMDL
MODEL 5
REMARK VINA RESULT:    -3.317      3.933      7.038
REMARK INTER + INTRA:          -5.858
REMARK INTER:                  -5.465
REMARK INTRA:                  -0.393
REMARK UNBOUND:                -0.795
REMARK SMILES O=C([O-])CCCCCCCCC(=O)[O-]
REMARK SMILES IDX 7 1 6 2 5 3 4 4 2 5 1 6 3 7 8 8 9 9 10 10 11 11 12 12 13 13
REMARK SMILES IDX 14 14
REMARK H PARENT
REMARK Flexibility Score: inf
ROOT
ATOM      1  C   UNL     1      -2.022  -7.772  38.653  1.00  0.00     0.000 C 
ENDROOT
BRANCH   1   2
ATOM      2  C   UNL     1      -1.364  -8.221  39.969  1.00  0.00     0.000 C 
BRANCH   2   3
ATOM      3  C   UNL     1      -2.092  -9.410  40.616  1.00  0.00     0.006 C 
BRANCH   3   4
ATOM      4  C   UNL     1      -1.165 -10.607  40.868  1.00  0.00     0.053 C 
BRANCH   4   5
ATOM      5  C   UNL     1      -1.649 -11.404  42.038  1.00  0.00     0.041 C 
ATOM      6  O   UNL     1      -0.875 -12.206  42.623  1.00  0.00    -0.550 OA
ATOM      7  O   UNL     1      -2.941 -11.223  42.515  1.00  0.00    -0.550 OA
ENDBRANCH   4   5
ENDBRANCH   3   4
ENDBRANCH   2   3
ENDBRANCH   1   2
BRANCH   1   8
ATOM      8  C   UNL     1      -3.531  -8.069  38.615  1.00  0.00     0.000 C 
BRANCH   8   9
ATOM      9  C   UNL     1      -4.310  -7.072  37.743  1.00  0.00     0.000 C 
BRANCH   9  10
ATOM     10  C   UNL     1      -3.353  -6.224  36.892  1.00  0.00     0.006 C 
BRANCH  10  11
ATOM     11  C   UNL     1      -3.888  -5.992  35.473  1.00  0.00     0.053 C 
BRANCH  11  12
ATOM     12  C   UNL     1      -4.472  -4.621  35.315  1.00  0.00     0.041 C 
ATOM     13  O   UNL     1      -5.604  -4.355  35.795  1.00  0.00    -0.550 OA
ATOM     14  O   UNL     1      -3.777  -3.647  34.608  1.00  0.00    -0.550 OA
ENDBRANCH  11  12
ENDBRANCH  10  11
ENDBRANCH   9  10
ENDBRANCH   8   9
ENDBRANCH   1   8
TORSDOF 9
ENDMDL
MODEL 6
REMARK VINA RESULT:    -3.311      2.016      2.817
REMARK INTER + INTRA:          -5.849
REMARK INTER:                  -5.195
REMARK INTRA:                  -0.654
REMARK UNBOUND:                -0.795
REMARK SMILES O=C([O-])CCCCCCCCC(=O)[O-]
REMARK SMILES IDX 7 1 6 2 5 3 4 4 2 5 1 6 3 7 8 8 9 9 10 10 11 11 12 12 13 13
REMARK SMILES IDX 14 14
REMARK H PARENT
REMARK Flexibility Score: inf
ROOT
ATOM      1  C   UNL     1      -1.184 -10.694  40.431  1.00  0.00     0.000 C 
ENDROOT
BRANCH   1   2
ATOM      2  C   UNL     1      -0.532  -9.579  39.596  1.00  0.00     0.000 C 
BRANCH   2   3
ATOM      3  C   UNL     1      -1.305  -8.252  39.680  1.00  0.00     0.006 C 
BRANCH   3   4
ATOM      4  C   UNL     1      -1.880  -7.815  38.326  1.00  0.00     0.053 C 
BRANCH   4   5
ATOM      5  C   UNL     1      -3.364  -7.653  38.418  1.00  0.00     0.041 C 
ATOM      6  O   UNL     1      -3.970  -6.889  37.621  1.00  0.00    -0.550 OA
ATOM      7  O   UNL     1      -4.087  -8.387  39.351  1.00  0.00    -0.550 OA
ENDBRANCH   4   5
ENDBRANCH   3   4
ENDBRANCH   2   3
ENDBRANCH   1   2
BRANCH   1   8
ATOM      8  C   UNL     1      -2.067 -10.146  41.564  1.00  0.00     0.000 C 
BRANCH   8   9
ATOM      9  C   UNL     1      -3.319 -11.002  41.809  1.00  0.00     0.000 C 
BRANCH   9  10
ATOM     10  C   UNL     1      -3.137 -12.415  41.237  1.00  0.00     0.006 C 
BRANCH  10  11
ATOM     11  C   UNL     1      -3.351 -13.503  42.298  1.00  0.00     0.053 C 
BRANCH  11  12
ATOM     12  C   UNL     1      -2.051 -14.009  42.846  1.00  0.00     0.041 C 
ATOM     13  O   UNL     1      -1.948 -15.201  43.235  1.00  0.00    -0.550 OA
ATOM     14  O   UNL     1      -0.963 -13.152  42.958  1.00  0.00    -0.550 OA
ENDBRANCH  11  12
ENDBRANCH  10  11
ENDBRANCH   9  10
ENDBRANCH   8   9
ENDBRANCH   1   8
TORSDOF 9
ENDMDL
MODEL 7
REMARK VINA RESULT:    -3.248      2.029      3.036
REMARK INTER + INTRA:          -5.752
REMARK INTER:                  -4.937
REMARK INTRA:                  -0.815
REMARK UNBOUND:                -0.795
REMARK SMILES O=C([O-])CCCCCCCCC(=O)[O-]
REMARK SMILES IDX 7 1 6 2 5 3 4 4 2 5 1 6 3 7 8 8 9 9 10 10 11 11 12 12 13 13
REMARK SMILES IDX 14 14
REMARK H PARENT
REMARK Flexibility Score: inf
ROOT
ATOM      1  C   UNL     1      -3.488  -8.876  38.720  1.00  0.00     0.000 C 
ENDROOT
BRANCH   1   2
ATOM      2  C   UNL     1      -2.462  -7.776  39.042  1.00  0.00     0.000 C 
BRANCH   2   3
ATOM      3  C   UNL     1      -1.356  -8.263  39.993  1.00  0.00     0.006 C 
BRANCH   3   4
ATOM      4  C   UNL     1      -1.831  -9.380  40.932  1.00  0.00     0.053 C 
BRANCH   4   5
ATOM      5  C   UNL     1      -1.006 -10.612  40.736  1.00  0.00     0.041 C 
ATOM      6  O   UNL     1      -0.376 -10.788  39.660  1.00  0.00    -0.550 OA
ATOM      7  O   UNL     1      -0.892 -11.543  41.762  1.00  0.00    -0.550 OA
ENDBRANCH   4   5
ENDBRANCH   3   4
ENDBRANCH   2   3
ENDBRANCH   1   2
BRANCH   1   8
ATOM      8  C   UNL     1      -4.931  -8.346  38.685  1.00  0.00     0.000 C 
BRANCH   8   9
ATOM      9  C   UNL     1      -5.606  -8.367  40.065  1.00  0.00     0.000 C 
BRANCH   9  10
ATOM     10  C   UNL     1      -5.396  -9.722  40.757  1.00  0.00     0.006 C 
BRANCH  10  11
ATOM     11  C   UNL     1      -5.258  -9.582  42.279  1.00  0.00     0.053 C 
BRANCH  11  12
ATOM     12  C   UNL     1      -5.108 -10.914  42.948  1.00  0.00     0.041 C 
ATOM     13  O   UNL     1      -5.955 -11.296  43.796  1.00  0.00    -0.550 OA
ATOM     14  O   UNL     1      -4.012 -11.718  42.659  1.00  0.00    -0.550 OA
ENDBRANCH  11  12
ENDBRANCH  10  11
ENDBRANCH   9  10
ENDBRANCH   8   9
ENDBRANCH   1   8
TORSDOF 9
ENDMDL
MODEL 8
REMARK VINA RESULT:    -3.234      4.525      5.994
REMARK INTER + INTRA:          -5.731
REMARK INTER:                  -5.371
REMARK INTRA:                  -0.359
REMARK UNBOUND:                -0.795
REMARK SMILES O=C([O-])CCCCCCCCC(=O)[O-]
REMARK SMILES IDX 7 1 6 2 5 3 4 4 2 5 1 6 3 7 8 8 9 9 10 10 11 11 12 12 13 13
REMARK SMILES IDX 14 14
REMARK H PARENT
REMARK Flexibility Score: inf
ROOT
ATOM      1  C   UNL     1      -4.161  -6.644  36.616  1.00  0.00     0.000 C 
ENDROOT
BRANCH   1   2
ATOM      2  C   UNL     1      -4.362  -5.119  36.671  1.00  0.00     0.000 C 
BRANCH   2   3
ATOM      3  C   UNL     1      -4.991  -4.562  35.384  1.00  0.00     0.006 C 
BRANCH   3   4
ATOM      4  C   UNL     1      -3.945  -4.024  34.397  1.00  0.00     0.053 C 
BRANCH   4   5
ATOM      5  C   UNL     1      -3.612  -5.062  33.374  1.00  0.00     0.041 C 
ATOM      6  O   UNL     1      -2.426  -5.465  33.242  1.00  0.00    -0.550 OA
ATOM      7  O   UNL     1      -4.620  -5.623  32.599  1.00  0.00    -0.550 OA
ENDBRANCH   4   5
ENDBRANCH   3   4
ENDBRANCH   2   3
ENDBRANCH   1   2
BRANCH   1   8
ATOM      8  C   UNL     1      -3.252  -7.161  37.744  1.00  0.00     0.000 C 
BRANCH   8   9
ATOM      9  C   UNL     1      -1.796  -7.352  37.294  1.00  0.00     0.000 C 
BRANCH   9  10
ATOM     10  C   UNL     1      -1.062  -8.336  38.217  1.00  0.00     0.006 C 
BRANCH  10  11
ATOM     11  C   UNL     1      -1.389  -8.098  39.698  1.00  0.00     0.053 C 
BRANCH  11  12
ATOM     12  C   UNL     1      -1.465  -9.383  40.464  1.00  0.00     0.041 C 
ATOM     13  O   UNL     1      -2.158  -9.456  41.511  1.00  0.00    -0.550 OA
ATOM     14  O   UNL     1      -0.741 -10.490  40.039  1.00  0.00    -0.550 OA
ENDBRANCH  11  12
ENDBRANCH  10  11
ENDBRANCH   9  10
ENDBRANCH   8   9
ENDBRANCH   1   8
TORSDOF 9
ENDMDL
MODEL 9
REMARK VINA RESULT:    -3.197      4.864      8.040
REMARK INTER + INTRA:          -5.675
REMARK INTER:                  -5.269
REMARK INTRA:                  -0.406
REMARK UNBOUND:                -0.795
REMARK SMILES O=C([O-])CCCCCCCCC(=O)[O-]
REMARK SMILES IDX 7 1 6 2 5 3 4 4 2 5 1 6 3 7 8 8 9 9 10 10 11 11 12 12 13 13
REMARK SMILES IDX 14 14
REMARK H PARENT
REMARK Flexibility Score: inf
ROOT
ATOM      1  C   UNL     1      -2.878  -6.608  37.387  1.00  0.00     0.000 C 
ENDROOT
BRANCH   1   2
ATOM      2  C   UNL     1      -1.746  -7.631  37.191  1.00  0.00     0.000 C 
BRANCH   2   3
ATOM      3  C   UNL     1      -1.103  -8.061  38.520  1.00  0.00     0.006 C 
BRANCH   3   4
ATOM      4  C   UNL     1      -2.140  -8.395  39.600  1.00  0.00     0.053 C 
BRANCH   4   5
ATOM      5  C   UNL     1      -1.616  -9.457  40.514  1.00  0.00     0.041 C 
ATOM      6  O   UNL     1      -2.004  -9.511  41.711  1.00  0.00    -0.550 OA
ATOM      7  O   UNL     1      -0.737 -10.419  40.031  1.00  0.00    -0.550 OA
ENDBRANCH   4   5
ENDBRANCH   3   4
ENDBRANCH   2   3
ENDBRANCH   1   2
BRANCH   1   8
ATOM      8  C   UNL     1      -3.758  -6.451  36.136  1.00  0.00     0.000 C 
BRANCH   8   9
ATOM      9  C   UNL     1      -4.454  -5.084  36.066  1.00  0.00     0.000 C 
BRANCH   9  10
ATOM     10  C   UNL     1      -4.087  -4.347  34.770  1.00  0.00     0.006 C 
BRANCH  10  11
ATOM     11  C   UNL     1      -3.241  -5.215  33.828  1.00  0.00     0.053 C 
BRANCH  11  12
ATOM     12  C   UNL     1      -3.960  -5.511  32.548  1.00  0.00     0.041 C 
ATOM     13  O   UNL     1      -5.218  -5.528  32.517  1.00  0.00    -0.550 OA
ATOM     14  O   UNL     1      -3.239  -5.802  31.396  1.00  0.00    -0.550 OA
ENDBRANCH  11  12
ENDBRANCH  10  11
ENDBRANCH   9  10
ENDBRANCH   8   9
ENDBRANCH   1   8
TORSDOF 9
ENDMDL
