MODEL 1
REMARK VINA RESULT:    -4.875      0.000      0.000
REMARK INTER + INTRA:          -5.655
REMARK INTER:                  -5.445
REMARK INTRA:                  -0.210
REMARK UNBOUND:                -0.210
REMARK SMILES CC(C)c1ccc(C(=O)[O-])cc1
REMARK SMILES IDX 7 1 6 2 11 3 5 4 12 5 4 6 8 7 9 8 10 9 2 10 1 11 3 12
REMARK H PARENT
REMARK Flexibility Score: inf
ROOT
ATOM      1  C   UNL     1       0.893  -8.122   7.944  1.00  0.00    -0.003 A 
ATOM      2  C   UNL     1       0.321  -8.617   9.129  1.00  0.00     0.010 A 
ATOM      3  C   UNL     1       2.273  -7.865   7.913  1.00  0.00     0.010 A 
ATOM      4  C   UNL     1       1.112  -8.851  10.257  1.00  0.00     0.004 A 
ATOM      5  C   UNL     1       3.065  -8.098   9.040  1.00  0.00     0.004 A 
ATOM      6  C   UNL     1       2.493  -8.594  10.226  1.00  0.00    -0.045 A 
ENDROOT
BRANCH   1   7
ATOM      7  C   UNL     1       0.058  -7.875   6.749  1.00  0.00     0.071 C 
ATOM      8  O   UNL     1      -0.686  -6.861   6.685  1.00  0.00    -0.545 OA
ATOM      9  O   UNL     1       0.084  -8.760   5.677  1.00  0.00    -0.545 OA
ENDBRANCH   1   7
BRANCH   6  10
ATOM     10  C   UNL     1       3.341  -8.852  11.458  1.00  0.00     0.013 C 
ATOM     11  C   UNL     1       2.723  -8.201  12.701  1.00  0.00     0.012 C 
ATOM     12  C   UNL     1       4.783  -8.378  11.245  1.00  0.00     0.012 C 
ENDBRANCH   6  10
TORSDOF 2
ENDMDL
MODEL 2
REMARK VINA RESULT:    -4.823      2.459      3.699
REMARK INTER + INTRA:          -5.597
REMARK INTER:                  -5.384
REMARK INTRA:                  -0.214
REMARK UNBOUND:                -0.210
REMARK SMILES CC(C)c1ccc(C(=O)[O-])cc1
REMARK SMILES IDX 7 1 6 2 11 3 5 4 12 5 4 6 8 7 9 8 10 9 2 10 1 11 3 12
REMARK H PARENT
REMARK Flexibility Score: inf
ROOT
ATOM      1  C   UNL     1       1.569  -7.899   7.761  1.00  0.00    -0.003 A 
ATOM      2  C   UNL     1       2.643  -7.626   8.625  1.00  0.00     0.010 A 
ATOM      3  C   UNL     1       1.821  -8.575   6.557  1.00  0.00     0.010 A 
ATOM      4  C   UNL     1       3.941  -8.022   8.292  1.00  0.00     0.004 A 
ATOM      5  C   UNL     1       3.119  -8.971   6.223  1.00  0.00     0.004 A 
ATOM      6  C   UNL     1       4.194  -8.699   7.088  1.00  0.00    -0.045 A 
ENDROOT
BRANCH   1   7
ATOM      7  C   UNL     1       0.194  -7.480   8.111  1.00  0.00     0.071 C 
ATOM      8  O   UNL     1      -0.561  -6.966   7.244  1.00  0.00    -0.545 OA
ATOM      9  O   UNL     1      -0.285  -7.650   9.405  1.00  0.00    -0.545 OA
ENDBRANCH   1   7
BRANCH   6  10
ATOM     10  C   UNL     1       5.609  -9.125   6.738  1.00  0.00     0.013 C 
ATOM     11  C   UNL     1       6.602  -8.683   7.819  1.00  0.00     0.012 C 
ATOM     12  C   UNL     1       6.021  -8.594   5.360  1.00  0.00     0.012 C 
ENDBRANCH   6  10
TORSDOF 2
ENDMDL
MODEL 3
REMARK VINA RESULT:    -4.686     15.322     16.542
REMARK INTER + INTRA:          -5.444
REMARK INTER:                  -5.231
REMARK INTRA:                  -0.214
REMARK UNBOUND:                -0.210
REMARK SMILES CC(C)c1ccc(C(=O)[O-])cc1
REMARK SMILES IDX 7 1 6 2 11 3 5 4 12 5 4 6 8 7 9 8 10 9 2 10 1 11 3 12
REMARK H PARENT
REMARK Flexibility Score: inf
ROOT
ATOM      1  C   UNL     1      -4.546  -0.814  -4.769  1.00  0.00    -0.003 A 
ATOM      2  C   UNL     1      -3.247  -0.823  -5.308  1.00  0.00     0.010 A 
ATOM      3  C   UNL     1      -5.043  -1.985  -4.176  1.00  0.00     0.010 A 
ATOM      4  C   UNL     1      -2.464  -1.979  -5.254  1.00  0.00     0.004 A 
ATOM      5  C   UNL     1      -4.260  -3.142  -4.122  1.00  0.00     0.004 A 
ATOM      6  C   UNL     1      -2.960  -3.151  -4.661  1.00  0.00    -0.045 A 
ENDROOT
BRANCH   1   7
ATOM      7  C   UNL     1      -5.377   0.408  -4.824  1.00  0.00     0.071 C 
ATOM      8  O   UNL     1      -5.751   0.881  -5.930  1.00  0.00    -0.545 OA
ATOM      9  O   UNL     1      -5.759   1.053  -3.653  1.00  0.00    -0.545 OA
ENDBRANCH   1   7
BRANCH   6  10
ATOM     10  C   UNL     1      -2.099  -4.400  -4.609  1.00  0.00     0.013 C 
ATOM     11  C   UNL     1      -1.109  -4.437  -5.779  1.00  0.00     0.012 C 
ATOM     12  C   UNL     1      -2.962  -5.666  -4.576  1.00  0.00     0.012 C 
ENDBRANCH   6  10
TORSDOF 2
ENDMDL
MODEL 4
REMARK VINA RESULT:    -4.679     15.266     16.463
REMARK INTER + INTRA:          -5.437
REMARK INTER:                  -5.223
REMARK INTRA:                  -0.214
REMARK UNBOUND:                -0.210
REMARK SMILES CC(C)c1ccc(C(=O)[O-])cc1
REMARK SMILES IDX 7 1 6 2 11 3 5 4 12 5 4 6 8 7 9 8 10 9 2 10 1 11 3 12
REMARK H PARENT
REMARK Flexibility Score: inf
ROOT
ATOM      1  C   UNL     1      -4.549  -0.804  -4.769  1.00  0.00    -0.003 A 
ATOM      2  C   UNL     1      -5.079  -1.952  -4.154  1.00  0.00     0.010 A 
ATOM      3  C   UNL     1      -3.250  -0.855  -5.299  1.00  0.00     0.010 A 
ATOM      4  C   UNL     1      -4.325  -3.125  -4.072  1.00  0.00     0.004 A 
ATOM      5  C   UNL     1      -2.495  -2.029  -5.216  1.00  0.00     0.004 A 
ATOM      6  C   UNL     1      -3.025  -3.178  -4.601  1.00  0.00    -0.045 A 
ENDROOT
BRANCH   1   7
ATOM      7  C   UNL     1      -5.345   0.440  -4.858  1.00  0.00     0.071 C 
ATOM      8  O   UNL     1      -5.681   0.909  -5.977  1.00  0.00    -0.545 OA
ATOM      9  O   UNL     1      -5.733   1.110  -3.703  1.00  0.00    -0.545 OA
ENDBRANCH   1   7
BRANCH   6  10
ATOM     10  C   UNL     1      -2.217  -4.459  -4.506  1.00  0.00     0.013 C 
ATOM     11  C   UNL     1      -1.227  -4.576  -5.671  1.00  0.00     0.012 C 
ATOM     12  C   UNL     1      -3.132  -5.686  -4.434  1.00  0.00     0.012 C 
ENDBRANCH   6  10
TORSDOF 2
ENDMDL
MODEL 5
REMARK VINA RESULT:    -4.647     16.139     18.426
REMARK INTER + INTRA:          -5.400
REMARK INTER:                  -5.180
REMARK INTRA:                  -0.221
REMARK UNBOUND:                -0.210
REMARK SMILES CC(C)c1ccc(C(=O)[O-])cc1
REMARK SMILES IDX 7 1 6 2 11 3 5 4 12 5 4 6 8 7 9 8 10 9 2 10 1 11 3 12
REMARK H PARENT
REMARK Flexibility Score: inf
ROOT
ATOM      1  C   UNL     1      -4.001  -0.693  -4.977  1.00  0.00    -0.003 A 
ATOM      2  C   UNL     1      -5.114  -0.521  -4.135  1.00  0.00     0.010 A 
ATOM      3  C   UNL     1      -3.707   0.300  -5.925  1.00  0.00     0.010 A 
ATOM      4  C   UNL     1      -5.915   0.619  -4.240  1.00  0.00     0.004 A 
ATOM      5  C   UNL     1      -4.507   1.441  -6.031  1.00  0.00     0.004 A 
ATOM      6  C   UNL     1      -5.621   1.613  -5.188  1.00  0.00    -0.045 A 
ENDROOT
BRANCH   1   7
ATOM      7  C   UNL     1      -3.151  -1.899  -4.868  1.00  0.00     0.071 C 
ATOM      8  O   UNL     1      -2.330  -2.190  -5.778  1.00  0.00    -0.545 OA
ATOM      9  O   UNL     1      -3.248  -2.730  -3.758  1.00  0.00    -0.545 OA
ENDBRANCH   1   7
BRANCH   6  10
ATOM     10  C   UNL     1      -6.499   2.847  -5.292  1.00  0.00     0.013 C 
ATOM     11  C   UNL     1      -7.848   2.626  -4.598  1.00  0.00     0.012 C 
ATOM     12  C   UNL     1      -6.692   3.268  -6.752  1.00  0.00     0.012 C 
ENDBRANCH   6  10
TORSDOF 2
ENDMDL
MODEL 6
REMARK VINA RESULT:    -4.625     16.213     18.592
REMARK INTER + INTRA:          -5.376
REMARK INTER:                  -5.155
REMARK INTRA:                  -0.221
REMARK UNBOUND:                -0.210
REMARK SMILES CC(C)c1ccc(C(=O)[O-])cc1
REMARK SMILES IDX 7 1 6 2 11 3 5 4 12 5 4 6 8 7 9 8 10 9 2 10 1 11 3 12
REMARK H PARENT
REMARK Flexibility Score: inf
ROOT
ATOM      1  C   UNL     1      -4.399  -0.488  -4.798  1.00  0.00    -0.003 A 
ATOM      2  C   UNL     1      -4.053   0.500  -5.736  1.00  0.00     0.010 A 
ATOM      3  C   UNL     1      -5.520  -0.283  -3.978  1.00  0.00     0.010 A 
ATOM      4  C   UNL     1      -4.813   1.667  -5.852  1.00  0.00     0.004 A 
ATOM      5  C   UNL     1      -6.280   0.884  -4.093  1.00  0.00     0.004 A 
ATOM      6  C   UNL     1      -5.935   1.873  -5.032  1.00  0.00    -0.045 A 
ENDROOT
BRANCH   1   7
ATOM      7  C   UNL     1      -3.596  -1.724  -4.673  1.00  0.00     0.071 C 
ATOM      8  O   UNL     1      -3.892  -2.598  -3.815  1.00  0.00    -0.545 OA
ATOM      9  O   UNL     1      -2.503  -1.939  -5.504  1.00  0.00    -0.545 OA
ENDBRANCH   1   7
BRANCH   6  10
ATOM     10  C   UNL     1      -6.753   3.144  -5.168  1.00  0.00     0.013 C 
ATOM     11  C   UNL     1      -8.111   3.005  -4.469  1.00  0.00     0.012 C 
ATOM     12  C   UNL     1      -6.926   3.536  -6.639  1.00  0.00     0.012 C 
ENDBRANCH   6  10
TORSDOF 2
ENDMDL
MODEL 7
REMARK VINA RESULT:    -4.528      1.475      2.401
REMARK INTER + INTRA:          -5.268
REMARK INTER:                  -5.053
REMARK INTRA:                  -0.215
REMARK UNBOUND:                -0.210
REMARK SMILES CC(C)c1ccc(C(=O)[O-])cc1
REMARK SMILES IDX 7 1 6 2 11 3 5 4 12 5 4 6 8 7 9 8 10 9 2 10 1 11 3 12
REMARK H PARENT
REMARK Flexibility Score: inf
ROOT
ATOM      1  C   UNL     1       1.079  -7.981   8.698  1.00  0.00    -0.003 A 
ATOM      2  C   UNL     1       2.156  -7.629   7.866  1.00  0.00     0.010 A 
ATOM      3  C   UNL     1       1.336  -8.710   9.870  1.00  0.00     0.010 A 
ATOM      4  C   UNL     1       3.462  -7.998   8.200  1.00  0.00     0.004 A 
ATOM      5  C   UNL     1       2.641  -9.080  10.204  1.00  0.00     0.004 A 
ATOM      6  C   UNL     1       3.720  -8.727   9.372  1.00  0.00    -0.045 A 
ENDROOT
BRANCH   1   7
ATOM      7  C   UNL     1      -0.305  -7.591   8.347  1.00  0.00     0.071 C 
ATOM      8  O   UNL     1      -0.527  -6.553   7.669  1.00  0.00    -0.545 OA
ATOM      9  O   UNL     1      -1.380  -8.368   8.761  1.00  0.00    -0.545 OA
ENDBRANCH   1   7
BRANCH   6  10
ATOM     10  C   UNL     1       5.143  -9.122   9.724  1.00  0.00     0.013 C 
ATOM     11  C   UNL     1       5.582  -8.483  11.047  1.00  0.00     0.012 C 
ATOM     12  C   UNL     1       6.111  -8.766   8.591  1.00  0.00     0.012 C 
ENDBRANCH   6  10
TORSDOF 2
ENDMDL
MODEL 8
REMARK VINA RESULT:    -4.494     20.920     22.070
REMARK INTER + INTRA:          -5.230
REMARK INTER:                  -5.019
REMARK INTRA:                  -0.210
REMARK UNBOUND:                -0.210
REMARK SMILES CC(C)c1ccc(C(=O)[O-])cc1
REMARK SMILES IDX 7 1 6 2 11 3 5 4 12 5 4 6 8 7 9 8 10 9 2 10 1 11 3 12
REMARK H PARENT
REMARK Flexibility Score: inf
ROOT
ATOM      1  C   UNL     1       3.973   9.322  -2.672  1.00  0.00    -0.003 A 
ATOM      2  C   UNL     1       5.013  10.106  -2.143  1.00  0.00     0.010 A 
ATOM      3  C   UNL     1       4.229   8.526  -3.800  1.00  0.00     0.010 A 
ATOM      4  C   UNL     1       6.282  10.091  -2.728  1.00  0.00     0.004 A 
ATOM      5  C   UNL     1       5.497   8.512  -4.386  1.00  0.00     0.004 A 
ATOM      6  C   UNL     1       6.539   9.295  -3.856  1.00  0.00    -0.045 A 
ENDROOT
BRANCH   1   7
ATOM      7  C   UNL     1       2.629   9.335  -2.054  1.00  0.00     0.071 C 
ATOM      8  O   UNL     1       2.386  10.070  -1.060  1.00  0.00    -0.545 OA
ATOM      9  O   UNL     1       1.613   8.534  -2.563  1.00  0.00    -0.545 OA
ENDBRANCH   1   7
BRANCH   6  10
ATOM     10  C   UNL     1       7.921   9.288  -4.483  1.00  0.00     0.013 C 
ATOM     11  C   UNL     1       8.035  10.353  -5.581  1.00  0.00     0.012 C 
ATOM     12  C   UNL     1       8.277   7.899  -5.023  1.00  0.00     0.012 C 
ENDBRANCH   6  10
TORSDOF 2
ENDMDL
MODEL 9
REMARK VINA RESULT:    -4.459     14.933     16.798
REMARK INTER + INTRA:          -5.191
REMARK INTER:                  -4.979
REMARK INTRA:                  -0.212
REMARK UNBOUND:                -0.210
REMARK SMILES CC(C)c1ccc(C(=O)[O-])cc1
REMARK SMILES IDX 7 1 6 2 11 3 5 4 12 5 4 6 8 7 9 8 10 9 2 10 1 11 3 12
REMARK H PARENT
REMARK Flexibility Score: inf
ROOT
ATOM      1  C   UNL     1      -3.014  -3.201  -4.711  1.00  0.00    -0.003 A 
ATOM      2  C   UNL     1      -2.481  -2.075  -5.362  1.00  0.00     0.010 A 
ATOM      3  C   UNL     1      -4.288  -3.108  -4.129  1.00  0.00     0.010 A 
ATOM      4  C   UNL     1      -3.207  -0.883  -5.430  1.00  0.00     0.004 A 
ATOM      5  C   UNL     1      -5.015  -1.916  -4.195  1.00  0.00     0.004 A 
ATOM      6  C   UNL     1      -4.482  -0.789  -4.847  1.00  0.00    -0.045 A 
ENDROOT
BRANCH   1   7
ATOM      7  C   UNL     1      -2.248  -4.464  -4.638  1.00  0.00     0.071 C 
ATOM      8  O   UNL     1      -2.753  -5.491  -4.113  1.00  0.00    -0.545 OA
ATOM      9  O   UNL     1      -0.958  -4.534  -5.151  1.00  0.00    -0.545 OA
ENDBRANCH   1   7
BRANCH   6  10
ATOM     10  C   UNL     1      -5.261   0.511  -4.928  1.00  0.00     0.013 C 
ATOM     11  C   UNL     1      -6.302   0.602  -3.806  1.00  0.00     0.012 C 
ATOM     12  C   UNL     1      -5.915   0.680  -6.303  1.00  0.00     0.012 C 
ENDBRANCH   6  10
TORSDOF 2
ENDMDL
