MODEL 1
REMARK VINA RESULT:    -4.619      0.000      0.000
REMARK INTER + INTRA:          -4.913
REMARK INTER:                  -4.889
REMARK INTRA:                  -0.024
REMARK UNBOUND:                -0.024
REMARK SMILES O=C([O-])c1cccnc1
REMARK SMILES IDX 4 1 5 2 9 3 6 4 8 5 7 6 2 7 1 8 3 9
REMARK H PARENT
REMARK Flexibility Score: inf
ROOT
ATOM      1  C   UNL     1     -26.805  16.864 -13.315  1.00  0.00     0.016 A 
ATOM      2  C   UNL     1     -27.208  16.416 -14.585  1.00  0.00     0.013 A 
ATOM      3  C   UNL     1     -27.605  16.537 -12.207  1.00  0.00     0.120 A 
ATOM      4  C   UNL     1     -28.377  15.665 -14.725  1.00  0.00     0.021 A 
ATOM      5  N   UNL     1     -28.740  15.805 -12.371  1.00  0.00    -0.264 NA
ATOM      6  C   UNL     1     -29.138  15.367 -13.594  1.00  0.00     0.111 A 
ENDROOT
BRANCH   1   7
ATOM      7  C   UNL     1     -25.570  17.659 -13.145  1.00  0.00     0.073 C 
ATOM      8  O   UNL     1     -25.224  18.068 -12.004  1.00  0.00    -0.545 OA
ATOM      9  O   UNL     1     -24.775  17.968 -14.242  1.00  0.00    -0.545 OA
ENDBRANCH   1   7
TORSDOF 1
ENDMDL
MODEL 2
REMARK VINA RESULT:    -4.560      0.908      1.602
REMARK INTER + INTRA:          -4.850
REMARK INTER:                  -4.826
REMARK INTRA:                  -0.024
REMARK UNBOUND:                -0.024
REMARK SMILES O=C([O-])c1cccnc1
REMARK SMILES IDX 4 1 5 2 9 3 6 4 8 5 7 6 2 7 1 8 3 9
REMARK H PARENT
REMARK Flexibility Score: inf
ROOT
ATOM      1  C   UNL     1     -26.842  16.804 -13.315  1.00  0.00     0.016 A 
ATOM      2  C   UNL     1     -27.628  16.485 -12.195  1.00  0.00     0.013 A 
ATOM      3  C   UNL     1     -27.254  16.337 -14.575  1.00  0.00     0.120 A 
ATOM      4  C   UNL     1     -28.788  15.722 -12.347  1.00  0.00     0.021 A 
ATOM      5  N   UNL     1     -28.387  15.595 -14.696  1.00  0.00    -0.264 NA
ATOM      6  C   UNL     1     -29.155  15.280 -13.619  1.00  0.00     0.111 A 
ENDROOT
BRANCH   1   7
ATOM      7  C   UNL     1     -25.611  17.612 -13.176  1.00  0.00     0.073 C 
ATOM      8  O   UNL     1     -25.271  18.073 -12.054  1.00  0.00    -0.545 OA
ATOM      9  O   UNL     1     -24.812  17.874 -14.283  1.00  0.00    -0.545 OA
ENDBRANCH   1   7
TORSDOF 1
ENDMDL
MODEL 3
REMARK VINA RESULT:    -4.525      1.352      1.642
REMARK INTER + INTRA:          -4.814
REMARK INTER:                  -4.796
REMARK INTRA:                  -0.018
REMARK UNBOUND:                -0.024
REMARK SMILES O=C([O-])c1cccnc1
REMARK SMILES IDX 4 1 5 2 9 3 6 4 8 5 7 6 2 7 1 8 3 9
REMARK H PARENT
REMARK Flexibility Score: inf
ROOT
ATOM      1  C   UNL     1     -27.514  16.440 -13.151  1.00  0.00     0.016 A 
ATOM      2  C   UNL     1     -27.203  16.377 -14.520  1.00  0.00     0.013 A 
ATOM      3  C   UNL     1     -28.860  16.312 -12.766  1.00  0.00     0.120 A 
ATOM      4  C   UNL     1     -28.217  16.192 -15.462  1.00  0.00     0.021 A 
ATOM      5  N   UNL     1     -29.828  16.133 -13.704  1.00  0.00    -0.264 NA
ATOM      6  C   UNL     1     -29.538  16.071 -15.029  1.00  0.00     0.111 A 
ENDROOT
BRANCH   1   7
ATOM      7  C   UNL     1     -26.455  16.636 -12.138  1.00  0.00     0.073 C 
ATOM      8  O   UNL     1     -26.253  15.767 -11.247  1.00  0.00    -0.545 OA
ATOM      9  O   UNL     1     -25.669  17.782 -12.153  1.00  0.00    -0.545 OA
ENDBRANCH   1   7
TORSDOF 1
ENDMDL
MODEL 4
REMARK VINA RESULT:    -4.353      3.033      3.892
REMARK INTER + INTRA:          -4.631
REMARK INTER:                  -4.615
REMARK INTRA:                  -0.016
REMARK UNBOUND:                -0.024
REMARK SMILES O=C([O-])c1cccnc1
REMARK SMILES IDX 4 1 5 2 9 3 6 4 8 5 7 6 2 7 1 8 3 9
REMARK H PARENT
REMARK Flexibility Score: inf
ROOT
ATOM      1  C   UNL     1     -28.485  16.250 -14.298  1.00  0.00     0.016 A 
ATOM      2  C   UNL     1     -29.031  16.256 -13.003  1.00  0.00     0.013 A 
ATOM      3  C   UNL     1     -27.093  16.387 -14.437  1.00  0.00     0.120 A 
ATOM      4  C   UNL     1     -28.198  16.397 -11.892  1.00  0.00     0.021 A 
ATOM      5  N   UNL     1     -26.304  16.523 -13.337  1.00  0.00    -0.264 NA
ATOM      6  C   UNL     1     -26.822  16.531 -12.081  1.00  0.00     0.111 A 
ENDROOT
BRANCH   1   7
ATOM      7  C   UNL     1     -29.350  16.101 -15.488  1.00  0.00     0.073 C 
ATOM      8  O   UNL     1     -29.772  14.966 -15.836  1.00  0.00    -0.545 OA
ATOM      9  O   UNL     1     -29.708  17.213 -16.242  1.00  0.00    -0.545 OA
ENDBRANCH   1   7
TORSDOF 1
ENDMDL
MODEL 5
REMARK VINA RESULT:    -4.179      9.813     10.799
REMARK INTER + INTRA:          -4.447
REMARK INTER:                  -4.423
REMARK INTRA:                  -0.024
REMARK UNBOUND:                -0.024
REMARK SMILES O=C([O-])c1cccnc1
REMARK SMILES IDX 4 1 5 2 9 3 6 4 8 5 7 6 2 7 1 8 3 9
REMARK H PARENT
REMARK Flexibility Score: inf
ROOT
ATOM      1  C   UNL     1     -16.726  19.085 -15.793  1.00  0.00     0.016 A 
ATOM      2  C   UNL     1     -17.732  18.918 -16.760  1.00  0.00     0.013 A 
ATOM      3  C   UNL     1     -17.065  19.703 -14.577  1.00  0.00     0.120 A 
ATOM      4  C   UNL     1     -19.031  19.359 -16.503  1.00  0.00     0.021 A 
ATOM      5  N   UNL     1     -18.338  20.125 -14.353  1.00  0.00    -0.264 NA
ATOM      6  C   UNL     1     -19.318  19.968 -15.281  1.00  0.00     0.111 A 
ENDROOT
BRANCH   1   7
ATOM      7  C   UNL     1     -15.343  18.624 -16.045  1.00  0.00     0.073 C 
ATOM      8  O   UNL     1     -14.992  18.251 -17.196  1.00  0.00    -0.545 OA
ATOM      9  O   UNL     1     -14.412  18.595 -15.013  1.00  0.00    -0.545 OA
ENDBRANCH   1   7
TORSDOF 1
ENDMDL
MODEL 6
REMARK VINA RESULT:    -4.148      1.895      2.637
REMARK INTER + INTRA:          -4.414
REMARK INTER:                  -4.393
REMARK INTRA:                  -0.021
REMARK UNBOUND:                -0.024
REMARK SMILES O=C([O-])c1cccnc1
REMARK SMILES IDX 4 1 5 2 9 3 6 4 8 5 7 6 2 7 1 8 3 9
REMARK H PARENT
REMARK Flexibility Score: inf
ROOT
ATOM      1  C   UNL     1     -27.658  15.778 -13.133  1.00  0.00     0.016 A 
ATOM      2  C   UNL     1     -28.932  15.189 -13.070  1.00  0.00     0.013 A 
ATOM      3  C   UNL     1     -27.258  16.376 -14.341  1.00  0.00     0.120 A 
ATOM      4  C   UNL     1     -29.769  15.206 -14.189  1.00  0.00     0.021 A 
ATOM      5  N   UNL     1     -28.091  16.377 -15.415  1.00  0.00    -0.264 NA
ATOM      6  C   UNL     1     -29.325  15.811 -15.365  1.00  0.00     0.111 A 
ENDROOT
BRANCH   1   7
ATOM      7  C   UNL     1     -26.758  15.771 -11.960  1.00  0.00     0.073 C 
ATOM      8  O   UNL     1     -25.992  16.746 -11.736  1.00  0.00    -0.545 OA
ATOM      9  O   UNL     1     -26.743  14.688 -11.090  1.00  0.00    -0.545 OA
ENDBRANCH   1   7
TORSDOF 1
ENDMDL
MODEL 7
REMARK VINA RESULT:    -3.930      3.155      3.804
REMARK INTER + INTRA:          -4.184
REMARK INTER:                  -4.160
REMARK INTRA:                  -0.024
REMARK UNBOUND:                -0.024
REMARK SMILES O=C([O-])c1cccnc1
REMARK SMILES IDX 4 1 5 2 9 3 6 4 8 5 7 6 2 7 1 8 3 9
REMARK H PARENT
REMARK Flexibility Score: inf
ROOT
ATOM      1  C   UNL     1     -27.829  15.311 -12.613  1.00  0.00     0.016 A 
ATOM      2  C   UNL     1     -27.728  15.748 -13.945  1.00  0.00     0.013 A 
ATOM      3  C   UNL     1     -26.941  15.847 -11.665  1.00  0.00     0.120 A 
ATOM      4  C   UNL     1     -26.764  16.694 -14.301  1.00  0.00     0.021 A 
ATOM      5  N   UNL     1     -26.011  16.767 -12.038  1.00  0.00    -0.264 NA
ATOM      6  C   UNL     1     -25.905  17.196 -13.323  1.00  0.00     0.111 A 
ENDROOT
BRANCH   1   7
ATOM      7  C   UNL     1     -28.842  14.310 -12.215  1.00  0.00     0.073 C 
ATOM      8  O   UNL     1     -28.943  13.945 -11.013  1.00  0.00    -0.545 OA
ATOM      9  O   UNL     1     -29.698  13.759 -13.162  1.00  0.00    -0.545 OA
ENDBRANCH   1   7
TORSDOF 1
ENDMDL
MODEL 8
REMARK VINA RESULT:    -3.876      2.648      3.391
REMARK INTER + INTRA:          -4.126
REMARK INTER:                  -4.104
REMARK INTRA:                  -0.022
REMARK UNBOUND:                -0.024
REMARK SMILES O=C([O-])c1cccnc1
REMARK SMILES IDX 4 1 5 2 9 3 6 4 8 5 7 6 2 7 1 8 3 9
REMARK H PARENT
REMARK Flexibility Score: inf
ROOT
ATOM      1  C   UNL     1     -28.239  15.046 -12.817  1.00  0.00     0.016 A 
ATOM      2  C   UNL     1     -27.270  15.825 -13.472  1.00  0.00     0.013 A 
ATOM      3  C   UNL     1     -29.440  14.768 -13.491  1.00  0.00     0.120 A 
ATOM      4  C   UNL     1     -27.511  16.304 -14.761  1.00  0.00     0.021 A 
ATOM      5  N   UNL     1     -29.650  15.248 -14.746  1.00  0.00    -0.264 NA
ATOM      6  C   UNL     1     -28.720  16.002 -15.389  1.00  0.00     0.111 A 
ENDROOT
BRANCH   1   7
ATOM      7  C   UNL     1     -28.003  14.529 -11.451  1.00  0.00     0.073 C 
ATOM      8  O   UNL     1     -28.973  14.250 -10.696  1.00  0.00    -0.545 OA
ATOM      9  O   UNL     1     -26.708  14.344 -10.982  1.00  0.00    -0.545 OA
ENDBRANCH   1   7
TORSDOF 1
ENDMDL
MODEL 9
REMARK VINA RESULT:    -3.826     16.224     17.021
REMARK INTER + INTRA:          -4.073
REMARK INTER:                  -4.057
REMARK INTRA:                  -0.016
REMARK UNBOUND:                -0.024
REMARK SMILES O=C([O-])c1cccnc1
REMARK SMILES IDX 4 1 5 2 9 3 6 4 8 5 7 6 2 7 1 8 3 9
REMARK H PARENT
REMARK Flexibility Score: inf
ROOT
ATOM      1  C   UNL     1     -17.008  12.407 -25.765  1.00  0.00     0.016 A 
ATOM      2  C   UNL     1     -16.517  12.578 -24.459  1.00  0.00     0.013 A 
ATOM      3  C   UNL     1     -16.320  11.538 -26.629  1.00  0.00     0.120 A 
ATOM      4  C   UNL     1     -15.372  11.893 -24.046  1.00  0.00     0.021 A 
ATOM      5  N   UNL     1     -15.206  10.885 -26.202  1.00  0.00    -0.264 NA
ATOM      6  C   UNL     1     -14.723  11.042 -24.942  1.00  0.00     0.111 A 
ENDROOT
BRANCH   1   7
ATOM      7  C   UNL     1     -18.219  13.122 -26.222  1.00  0.00     0.073 C 
ATOM      8  O   UNL     1     -18.122  14.149 -26.944  1.00  0.00    -0.545 OA
ATOM      9  O   UNL     1     -19.483  12.669 -25.859  1.00  0.00    -0.545 OA
ENDBRANCH   1   7
TORSDOF 1
ENDMDL
