MODEL 1
REMARK VINA RESULT:    -3.516      0.000      0.000
REMARK INTER + INTRA:          -6.883
REMARK INTER:                  -5.571
REMARK INTRA:                  -1.312
REMARK UNBOUND:                -1.312
REMARK SMILES CCCCCCCCCCCC(=O)[O-]
REMARK SMILES IDX 7 1 8 2 9 3 10 4 11 5 12 6 13 7 14 8 6 9 5 10 4 11 3 12 2 13
REMARK SMILES IDX 1 14
REMARK H PARENT
REMARK Flexibility Score: inf
ROOT
ATOM      1  C   UNL     1      27.103  27.382 -20.073  1.00  0.00     0.000 C 
ENDROOT
BRANCH   1   2
ATOM      2  C   UNL     1      27.484  28.571 -19.179  1.00  0.00     0.000 C 
BRANCH   2   3
ATOM      3  C   UNL     1      27.466  29.915 -19.928  1.00  0.00     0.000 C 
BRANCH   3   4
ATOM      4  C   UNL     1      26.861  31.095 -19.140  1.00  0.00     0.006 C 
BRANCH   4   5
ATOM      5  C   UNL     1      27.516  31.350 -17.773  1.00  0.00     0.053 C 
BRANCH   5   6
ATOM      6  C   UNL     1      28.920  31.853 -17.908  1.00  0.00     0.041 C 
ATOM      7  O   UNL     1      29.890  31.117 -17.589  1.00  0.00    -0.550 OA
ATOM      8  O   UNL     1      29.158  33.124 -18.416  1.00  0.00    -0.550 OA
ENDBRANCH   5   6
ENDBRANCH   4   5
ENDBRANCH   3   4
ENDBRANCH   2   3
ENDBRANCH   1   2
BRANCH   1   9
ATOM      9  C   UNL     1      26.259  26.361 -19.295  1.00  0.00     0.000 C 
BRANCH   9  10
ATOM     10  C   UNL     1      24.752  26.660 -19.361  1.00  0.00    -0.000 C 
BRANCH  10  11
ATOM     11  C   UNL     1      24.126  27.123 -18.033  1.00  0.00    -0.000 C 
BRANCH  11  12
ATOM     12  C   UNL     1      24.139  28.655 -17.840  1.00  0.00    -0.000 C 
BRANCH  12  13
ATOM     13  C   UNL     1      24.799  29.071 -16.516  1.00  0.00    -0.003 C 
ATOM     14  C   UNL     1      25.155  27.852 -15.670  1.00  0.00     0.004 C 
ENDBRANCH  12  13
ENDBRANCH  11  12
ENDBRANCH  10  11
ENDBRANCH   9  10
ENDBRANCH   1   9
TORSDOF 10
ENDMDL
MODEL 2
REMARK VINA RESULT:    -3.482     12.351     14.499
REMARK INTER + INTRA:          -6.829
REMARK INTER:                  -5.816
REMARK INTRA:                  -1.014
REMARK UNBOUND:                -1.312
REMARK SMILES CCCCCCCCCCCC(=O)[O-]
REMARK SMILES IDX 7 1 8 2 9 3 10 4 11 5 12 6 13 7 14 8 6 9 5 10 4 11 3 12 2 13
REMARK SMILES IDX 1 14
REMARK H PARENT
REMARK Flexibility Score: inf
ROOT
ATOM      1  C   UNL     1      33.544  18.175 -18.604  1.00  0.00     0.000 C 
ENDROOT
BRANCH   1   2
ATOM      2  C   UNL     1      32.409  17.312 -19.176  1.00  0.00     0.000 C 
BRANCH   2   3
ATOM      3  C   UNL     1      31.026  17.691 -18.619  1.00  0.00     0.000 C 
BRANCH   3   4
ATOM      4  C   UNL     1      29.959  16.581 -18.709  1.00  0.00     0.006 C 
BRANCH   4   5
ATOM      5  C   UNL     1      29.038  16.482 -17.482  1.00  0.00     0.053 C 
BRANCH   5   6
ATOM      6  C   UNL     1      27.898  17.449 -17.556  1.00  0.00     0.041 C 
ATOM      7  O   UNL     1      26.762  17.061 -17.937  1.00  0.00    -0.550 OA
ATOM      8  O   UNL     1      28.080  18.772 -17.174  1.00  0.00    -0.550 OA
ENDBRANCH   5   6
ENDBRANCH   4   5
ENDBRANCH   3   4
ENDBRANCH   2   3
ENDBRANCH   1   2
BRANCH   1   9
ATOM      9  C   UNL     1      34.628  17.298 -17.961  1.00  0.00     0.000 C 
BRANCH   9  10
ATOM     10  C   UNL     1      34.255  15.805 -17.945  1.00  0.00    -0.000 C 
BRANCH  10  11
ATOM     11  C   UNL     1      34.655  15.052 -16.663  1.00  0.00    -0.000 C 
BRANCH  11  12
ATOM     12  C   UNL     1      33.649  13.960 -16.242  1.00  0.00    -0.000 C 
BRANCH  12  13
ATOM     13  C   UNL     1      32.228  14.248 -16.751  1.00  0.00    -0.003 C 
ATOM     14  C   UNL     1      31.205  14.131 -15.626  1.00  0.00     0.004 C 
ENDBRANCH  12  13
ENDBRANCH  11  12
ENDBRANCH  10  11
ENDBRANCH   9  10
ENDBRANCH   1   9
TORSDOF 10
ENDMDL
MODEL 3
REMARK VINA RESULT:    -3.480     12.323     14.620
REMARK INTER + INTRA:          -6.827
REMARK INTER:                  -6.011
REMARK INTRA:                  -0.815
REMARK UNBOUND:                -1.312
REMARK SMILES CCCCCCCCCCCC(=O)[O-]
REMARK SMILES IDX 7 1 8 2 9 3 10 4 11 5 12 6 13 7 14 8 6 9 5 10 4 11 3 12 2 13
REMARK SMILES IDX 1 14
REMARK H PARENT
REMARK Flexibility Score: inf
ROOT
ATOM      1  C   UNL     1      31.810  14.402 -16.685  1.00  0.00     0.000 C 
ENDROOT
BRANCH   1   2
ATOM      2  C   UNL     1      30.842  14.281 -15.499  1.00  0.00     0.000 C 
BRANCH   2   3
ATOM      3  C   UNL     1      29.569  15.128 -15.673  1.00  0.00     0.000 C 
BRANCH   3   4
ATOM      4  C   UNL     1      29.424  15.815 -17.046  1.00  0.00     0.006 C 
BRANCH   4   5
ATOM      5  C   UNL     1      28.092  16.555 -17.250  1.00  0.00     0.053 C 
BRANCH   5   6
ATOM      6  C   UNL     1      28.298  17.959 -17.727  1.00  0.00     0.041 C 
ATOM      7  O   UNL     1      27.964  18.931 -17.000  1.00  0.00    -0.550 OA
ATOM      8  O   UNL     1      28.889  18.196 -18.962  1.00  0.00    -0.550 OA
ENDBRANCH   5   6
ENDBRANCH   4   5
ENDBRANCH   3   4
ENDBRANCH   2   3
ENDBRANCH   1   2
BRANCH   1   9
ATOM      9  C   UNL     1      33.209  13.896 -16.304  1.00  0.00     0.000 C 
BRANCH   9  10
ATOM     10  C   UNL     1      34.324  14.887 -16.678  1.00  0.00    -0.000 C 
BRANCH  10  11
ATOM     11  C   UNL     1      34.042  15.734 -17.934  1.00  0.00    -0.000 C 
BRANCH  11  12
ATOM     12  C   UNL     1      34.631  17.159 -17.869  1.00  0.00    -0.000 C 
BRANCH  12  13
ATOM     13  C   UNL     1      33.697  18.206 -18.494  1.00  0.00    -0.003 C 
ATOM     14  C   UNL     1      32.316  17.619 -18.768  1.00  0.00     0.004 C 
ENDBRANCH  12  13
ENDBRANCH  11  12
ENDBRANCH  10  11
ENDBRANCH   9  10
ENDBRANCH   1   9
TORSDOF 10
ENDMDL
MODEL 4
REMARK VINA RESULT:    -3.447      2.268      4.536
REMARK INTER + INTRA:          -6.774
REMARK INTER:                  -5.592
REMARK INTRA:                  -1.182
REMARK UNBOUND:                -1.312
REMARK SMILES CCCCCCCCCCCC(=O)[O-]
REMARK SMILES IDX 7 1 8 2 9 3 10 4 11 5 12 6 13 7 14 8 6 9 5 10 4 11 3 12 2 13
REMARK SMILES IDX 1 14
REMARK H PARENT
REMARK Flexibility Score: inf
ROOT
ATOM      1  C   UNL     1      26.864  27.641 -17.687  1.00  0.00     0.000 C 
ENDROOT
BRANCH   1   2
ATOM      2  C   UNL     1      26.181  26.870 -18.825  1.00  0.00     0.000 C 
BRANCH   2   3
ATOM      3  C   UNL     1      24.695  27.236 -18.993  1.00  0.00     0.000 C 
BRANCH   3   4
ATOM      4  C   UNL     1      24.061  27.960 -17.788  1.00  0.00     0.006 C 
BRANCH   4   5
ATOM      5  C   UNL     1      23.789  29.455 -18.015  1.00  0.00     0.053 C 
BRANCH   5   6
ATOM      6  C   UNL     1      24.335  30.300 -16.904  1.00  0.00     0.041 C 
ATOM      7  O   UNL     1      24.851  29.758 -15.892  1.00  0.00    -0.550 OA
ATOM      8  O   UNL     1      24.303  31.685 -17.003  1.00  0.00    -0.550 OA
ENDBRANCH   5   6
ENDBRANCH   4   5
ENDBRANCH   3   4
ENDBRANCH   2   3
ENDBRANCH   1   2
BRANCH   1   9
ATOM      9  C   UNL     1      27.940  28.589 -18.237  1.00  0.00     0.000 C 
BRANCH   9  10
ATOM     10  C   UNL     1      27.465  29.379 -19.469  1.00  0.00    -0.000 C 
BRANCH  10  11
ATOM     11  C   UNL     1      27.294  30.893 -19.240  1.00  0.00    -0.000 C 
BRANCH  11  12
ATOM     12  C   UNL     1      27.738  31.364 -17.839  1.00  0.00    -0.000 C 
BRANCH  12  13
ATOM     13  C   UNL     1      28.884  32.386 -17.903  1.00  0.00    -0.003 C 
ATOM     14  C   UNL     1      30.137  31.853 -17.215  1.00  0.00     0.004 C 
ENDBRANCH  12  13
ENDBRANCH  11  12
ENDBRANCH  10  11
ENDBRANCH   9  10
ENDBRANCH   1   9
TORSDOF 10
ENDMDL
MODEL 5
REMARK VINA RESULT:    -3.423      3.076      3.759
REMARK INTER + INTRA:          -6.737
REMARK INTER:                  -5.130
REMARK INTRA:                  -1.608
REMARK UNBOUND:                -1.312
REMARK SMILES CCCCCCCCCCCC(=O)[O-]
REMARK SMILES IDX 7 1 8 2 9 3 10 4 11 5 12 6 13 7 14 8 6 9 5 10 4 11 3 12 2 13
REMARK SMILES IDX 1 14
REMARK H PARENT
REMARK Flexibility Score: inf
ROOT
ATOM      1  C   UNL     1      28.071  29.868 -18.438  1.00  0.00     0.000 C 
ENDROOT
BRANCH   1   2
ATOM      2  C   UNL     1      27.179  31.118 -18.385  1.00  0.00     0.000 C 
BRANCH   2   3
ATOM      3  C   UNL     1      26.075  31.114 -19.456  1.00  0.00     0.000 C 
BRANCH   3   4
ATOM      4  C   UNL     1      24.635  31.206 -18.912  1.00  0.00     0.006 C 
BRANCH   4   5
ATOM      5  C   UNL     1      24.541  31.430 -17.394  1.00  0.00     0.053 C 
BRANCH   5   6
ATOM      6  C   UNL     1      23.128  31.364 -16.903  1.00  0.00     0.041 C 
ATOM      7  O   UNL     1      22.855  31.676 -15.714  1.00  0.00    -0.550 OA
ATOM      8  O   UNL     1      22.107  30.989 -17.767  1.00  0.00    -0.550 OA
ENDBRANCH   5   6
ENDBRANCH   4   5
ENDBRANCH   3   4
ENDBRANCH   2   3
ENDBRANCH   1   2
BRANCH   1   9
ATOM      9  C   UNL     1      27.503  28.832 -19.419  1.00  0.00     0.000 C 
BRANCH   9  10
ATOM     10  C   UNL     1      26.937  27.589 -18.711  1.00  0.00    -0.000 C 
BRANCH  10  11
ATOM     11  C   UNL     1      25.411  27.417 -18.830  1.00  0.00    -0.000 C 
BRANCH  11  12
ATOM     12  C   UNL     1      24.649  27.695 -17.516  1.00  0.00    -0.000 C 
BRANCH  12  13
ATOM     13  C   UNL     1      25.593  27.841 -16.314  1.00  0.00    -0.003 C 
ATOM     14  C   UNL     1      24.888  28.508 -15.136  1.00  0.00     0.004 C 
ENDBRANCH  12  13
ENDBRANCH  11  12
ENDBRANCH  10  11
ENDBRANCH   9  10
ENDBRANCH   1   9
TORSDOF 10
ENDMDL
MODEL 6
REMARK VINA RESULT:    -3.415     12.412     14.339
REMARK INTER + INTRA:          -6.723
REMARK INTER:                  -5.906
REMARK INTRA:                  -0.817
REMARK UNBOUND:                -1.312
REMARK SMILES CCCCCCCCCCCC(=O)[O-]
REMARK SMILES IDX 7 1 8 2 9 3 10 4 11 5 12 6 13 7 14 8 6 9 5 10 4 11 3 12 2 13
REMARK SMILES IDX 1 14
REMARK H PARENT
REMARK Flexibility Score: inf
ROOT
ATOM      1  C   UNL     1      32.384  13.885 -16.714  1.00  0.00     0.000 C 
ENDROOT
BRANCH   1   2
ATOM      2  C   UNL     1      33.716  14.039 -15.965  1.00  0.00     0.000 C 
BRANCH   2   3
ATOM      3  C   UNL     1      34.718  14.946 -16.701  1.00  0.00     0.000 C 
BRANCH   3   4
ATOM      4  C   UNL     1      34.131  15.746 -17.882  1.00  0.00     0.006 C 
BRANCH   4   5
ATOM      5  C   UNL     1      34.581  17.214 -17.943  1.00  0.00     0.053 C 
BRANCH   5   6
ATOM      6  C   UNL     1      33.599  18.073 -18.679  1.00  0.00     0.041 C 
ATOM      7  O   UNL     1      33.047  17.647 -19.728  1.00  0.00    -0.550 OA
ATOM      8  O   UNL     1      33.268  19.330 -18.189  1.00  0.00    -0.550 OA
ENDBRANCH   5   6
ENDBRANCH   4   5
ENDBRANCH   3   4
ENDBRANCH   2   3
ENDBRANCH   1   2
BRANCH   1   9
ATOM      9  C   UNL     1      31.199  14.225 -15.798  1.00  0.00     0.000 C 
BRANCH   9  10
ATOM     10  C   UNL     1      30.067  14.959 -16.536  1.00  0.00    -0.000 C 
BRANCH  10  11
ATOM     11  C   UNL     1      30.508  15.724 -17.798  1.00  0.00    -0.000 C 
BRANCH  11  12
ATOM     12  C   UNL     1      29.348  16.425 -18.538  1.00  0.00    -0.000 C 
BRANCH  12  13
ATOM     13  C   UNL     1      29.416  17.955 -18.413  1.00  0.00    -0.003 C 
ATOM     14  C   UNL     1      28.287  18.486 -17.534  1.00  0.00     0.004 C 
ENDBRANCH  12  13
ENDBRANCH  11  12
ENDBRANCH  10  11
ENDBRANCH   9  10
ENDBRANCH   1   9
TORSDOF 10
ENDMDL
MODEL 7
REMARK VINA RESULT:    -3.414     13.384     15.560
REMARK INTER + INTRA:          -6.723
REMARK INTER:                  -5.851
REMARK INTRA:                  -0.872
REMARK UNBOUND:                -1.312
REMARK SMILES CCCCCCCCCCCC(=O)[O-]
REMARK SMILES IDX 7 1 8 2 9 3 10 4 11 5 12 6 13 7 14 8 6 9 5 10 4 11 3 12 2 13
REMARK SMILES IDX 1 14
REMARK H PARENT
REMARK Flexibility Score: inf
ROOT
ATOM      1  C   UNL     1      32.924  18.215 -18.600  1.00  0.00     0.000 C 
ENDROOT
BRANCH   1   2
ATOM      2  C   UNL     1      31.914  17.142 -19.031  1.00  0.00     0.000 C 
BRANCH   2   3
ATOM      3  C   UNL     1      30.452  17.599 -18.885  1.00  0.00     0.000 C 
BRANCH   3   4
ATOM      4  C   UNL     1      29.576  16.710 -17.979  1.00  0.00     0.006 C 
BRANCH   4   5
ATOM      5  C   UNL     1      30.303  15.491 -17.389  1.00  0.00     0.053 C 
BRANCH   5   6
ATOM      6  C   UNL     1      29.762  15.111 -16.045  1.00  0.00     0.041 C 
ATOM      7  O   UNL     1      28.810  15.761 -15.539  1.00  0.00    -0.550 OA
ATOM      8  O   UNL     1      30.286  14.017 -15.367  1.00  0.00    -0.550 OA
ENDBRANCH   5   6
ENDBRANCH   4   5
ENDBRANCH   3   4
ENDBRANCH   2   3
ENDBRANCH   1   2
BRANCH   1   9
ATOM      9  C   UNL     1      34.277  17.582 -18.244  1.00  0.00     0.000 C 
BRANCH   9  10
ATOM     10  C   UNL     1      34.227  16.045 -18.216  1.00  0.00    -0.000 C 
BRANCH  10  11
ATOM     11  C   UNL     1      34.692  15.406 -16.894  1.00  0.00    -0.000 C 
BRANCH  11  12
ATOM     12  C   UNL     1      33.717  14.347 -16.338  1.00  0.00    -0.000 C 
BRANCH  12  13
ATOM     13  C   UNL     1      34.441  13.072 -15.878  1.00  0.00    -0.003 C 
ATOM     14  C   UNL     1      35.808  12.943 -16.543  1.00  0.00     0.004 C 
ENDBRANCH  12  13
ENDBRANCH  11  12
ENDBRANCH  10  11
ENDBRANCH   9  10
ENDBRANCH   1   9
TORSDOF 10
ENDMDL
MODEL 8
REMARK VINA RESULT:    -3.411     13.385     15.653
REMARK INTER + INTRA:          -6.717
REMARK INTER:                  -5.776
REMARK INTRA:                  -0.940
REMARK UNBOUND:                -1.312
REMARK SMILES CCCCCCCCCCCC(=O)[O-]
REMARK SMILES IDX 7 1 8 2 9 3 10 4 11 5 12 6 13 7 14 8 6 9 5 10 4 11 3 12 2 13
REMARK SMILES IDX 1 14
REMARK H PARENT
REMARK Flexibility Score: inf
ROOT
ATOM      1  C   UNL     1      33.258  14.380 -16.029  1.00  0.00     0.000 C 
ENDROOT
BRANCH   1   2
ATOM      2  C   UNL     1      32.272  13.739 -17.016  1.00  0.00     0.000 C 
BRANCH   2   3
ATOM      3  C   UNL     1      30.908  14.451 -17.052  1.00  0.00     0.000 C 
BRANCH   3   4
ATOM      4  C   UNL     1      30.219  14.612 -15.681  1.00  0.00     0.006 C 
BRANCH   4   5
ATOM      5  C   UNL     1      28.932  15.453 -15.711  1.00  0.00     0.053 C 
BRANCH   5   6
ATOM      6  C   UNL     1      27.717  14.611 -15.951  1.00  0.00     0.041 C 
ATOM      7  O   UNL     1      27.687  13.415 -15.558  1.00  0.00    -0.550 OA
ATOM      8  O   UNL     1      26.605  15.157 -16.579  1.00  0.00    -0.550 OA
ENDBRANCH   5   6
ENDBRANCH   4   5
ENDBRANCH   3   4
ENDBRANCH   2   3
ENDBRANCH   1   2
BRANCH   1   9
ATOM      9  C   UNL     1      34.551  14.802 -16.744  1.00  0.00     0.000 C 
BRANCH   9  10
ATOM     10  C   UNL     1      34.290  15.675 -17.983  1.00  0.00    -0.000 C 
BRANCH  10  11
ATOM     11  C   UNL     1      34.693  17.154 -17.828  1.00  0.00    -0.000 C 
BRANCH  11  12
ATOM     12  C   UNL     1      33.673  18.143 -18.431  1.00  0.00    -0.000 C 
BRANCH  12  13
ATOM     13  C   UNL     1      32.624  17.440 -19.306  1.00  0.00    -0.003 C 
ATOM     14  C   UNL     1      31.210  17.718 -18.803  1.00  0.00     0.004 C 
ENDBRANCH  12  13
ENDBRANCH  11  12
ENDBRANCH  10  11
ENDBRANCH   9  10
ENDBRANCH   1   9
TORSDOF 10
ENDMDL
MODEL 9
REMARK VINA RESULT:    -3.396     12.963     15.204
REMARK INTER + INTRA:          -6.694
REMARK INTER:                  -5.652
REMARK INTRA:                  -1.042
REMARK UNBOUND:                -1.312
REMARK SMILES CCCCCCCCCCCC(=O)[O-]
REMARK SMILES IDX 7 1 8 2 9 3 10 4 11 5 12 6 13 7 14 8 6 9 5 10 4 11 3 12 2 13
REMARK SMILES IDX 1 14
REMARK H PARENT
REMARK Flexibility Score: inf
ROOT
ATOM      1  C   UNL     1      34.247  15.637 -17.976  1.00  0.00     0.000 C 
ENDROOT
BRANCH   1   2
ATOM      2  C   UNL     1      34.657  14.835 -16.732  1.00  0.00     0.000 C 
BRANCH   2   3
ATOM      3  C   UNL     1      33.484  14.069 -16.097  1.00  0.00     0.000 C 
BRANCH   3   4
ATOM      4  C   UNL     1      32.098  14.382 -16.696  1.00  0.00     0.006 C 
BRANCH   4   5
ATOM      5  C   UNL     1      30.937  14.302 -15.691  1.00  0.00     0.053 C 
BRANCH   5   6
ATOM      6  C   UNL     1      29.662  14.840 -16.262  1.00  0.00     0.041 C 
ATOM      7  O   UNL     1      28.986  15.685 -15.619  1.00  0.00    -0.550 OA
ATOM      8  O   UNL     1      29.236  14.433 -17.521  1.00  0.00    -0.550 OA
ENDBRANCH   5   6
ENDBRANCH   4   5
ENDBRANCH   3   4
ENDBRANCH   2   3
ENDBRANCH   1   2
BRANCH   1   9
ATOM      9  C   UNL     1      34.655  17.111 -17.836  1.00  0.00     0.000 C 
BRANCH   9  10
ATOM     10  C   UNL     1      33.705  18.065 -18.580  1.00  0.00    -0.000 C 
BRANCH  10  11
ATOM     11  C   UNL     1      33.202  17.546 -19.940  1.00  0.00    -0.000 C 
BRANCH  11  12
ATOM     12  C   UNL     1      31.681  17.284 -19.982  1.00  0.00    -0.000 C 
BRANCH  12  13
ATOM     13  C   UNL     1      31.012  17.507 -18.617  1.00  0.00    -0.003 C 
ATOM     14  C   UNL     1      29.507  17.706 -18.766  1.00  0.00     0.004 C 
ENDBRANCH  12  13
ENDBRANCH  11  12
ENDBRANCH  10  11
ENDBRANCH   9  10
ENDBRANCH   1   9
TORSDOF 10
ENDMDL
