MODEL 1
REMARK VINA RESULT:    -5.111      0.000      0.000
REMARK INTER + INTRA:         -12.850
REMARK INTER:                  -9.593
REMARK INTRA:                  -3.257
REMARK UNBOUND:                -3.257
REMARK SMILES CCCCCCCCC=CCCCCCCCC(=O)[O-]
REMARK SMILES IDX 10 1 9 2 11 3 12 4 13 5 14 6 15 7 16 8 17 9 18 10 19 11
REMARK SMILES IDX 20 12 8 13 7 14 6 15 5 16 4 17 3 18 2 19 1 20
REMARK H PARENT
REMARK Flexibility Score: inf
ROOT
ATOM      1  C   UNL     1       2.368  54.321  20.196  1.00  0.00    -0.031 C 
ATOM      2  C   UNL     1       1.329  54.855  20.864  1.00  0.00    -0.031 C 
ENDROOT
BRANCH   1   3
ATOM      3  C   UNL     1       2.321  53.040  19.395  1.00  0.00     0.027 C 
BRANCH   3   4
ATOM      4  C   UNL     1       2.654  53.295  17.919  1.00  0.00     0.004 C 
BRANCH   4   5
ATOM      5  C   UNL     1       1.436  53.075  17.007  1.00  0.00     0.000 C 
BRANCH   5   6
ATOM      6  C   UNL     1       0.230  52.482  17.755  1.00  0.00     0.000 C 
BRANCH   6   7
ATOM      7  C   UNL     1      -1.114  52.705  17.028  1.00  0.00     0.000 C 
BRANCH   7   8
ATOM      8  C   UNL     1      -2.316  52.556  17.975  1.00  0.00     0.006 C 
BRANCH   8   9
ATOM      9  C   UNL     1      -2.147  51.379  18.947  1.00  0.00     0.053 C 
BRANCH   9  10
ATOM     10  C   UNL     1      -2.373  50.065  18.266  1.00  0.00     0.041 C 
ATOM     11  O   UNL     1      -3.514  49.770  17.820  1.00  0.00    -0.550 OA
ATOM     12  O   UNL     1      -1.333  49.151  18.151  1.00  0.00    -0.550 OA
ENDBRANCH   9  10
ENDBRANCH   8   9
ENDBRANCH   7   8
ENDBRANCH   6   7
ENDBRANCH   5   6
ENDBRANCH   4   5
ENDBRANCH   3   4
ENDBRANCH   1   3
BRANCH   2  13
ATOM     13  C   UNL     1      -0.075  54.302  20.874  1.00  0.00     0.027 C 
BRANCH  13  14
ATOM     14  C   UNL     1      -1.043  55.122  20.001  1.00  0.00     0.004 C 
BRANCH  14  15
ATOM     15  C   UNL     1      -0.404  56.343  19.307  1.00  0.00     0.000 C 
BRANCH  15  16
ATOM     16  C   UNL     1      -0.233  56.209  17.782  1.00  0.00     0.000 C 
BRANCH  16  17
ATOM     17  C   UNL     1       1.116  56.711  17.232  1.00  0.00    -0.000 C 
BRANCH  17  18
ATOM     18  C   UNL     1       1.729  57.868  18.048  1.00  0.00    -0.000 C 
BRANCH  18  19
ATOM     19  C   UNL     1       3.140  57.543  18.562  1.00  0.00    -0.003 C 
ATOM     20  C   UNL     1       3.895  56.661  17.572  1.00  0.00     0.004 C 
ENDBRANCH  18  19
ENDBRANCH  17  18
ENDBRANCH  16  17
ENDBRANCH  15  16
ENDBRANCH  14  15
ENDBRANCH  13  14
ENDBRANCH   2  13
TORSDOF 15
ENDMDL
MODEL 2
REMARK VINA RESULT:    -5.073      2.829      3.790
REMARK INTER + INTRA:         -12.778
REMARK INTER:                  -9.841
REMARK INTRA:                  -2.937
REMARK UNBOUND:                -3.257
REMARK SMILES CCCCCCCCC=CCCCCCCCC(=O)[O-]
REMARK SMILES IDX 10 1 9 2 11 3 12 4 13 5 14 6 15 7 16 8 17 9 18 10 19 11
REMARK SMILES IDX 20 12 8 13 7 14 6 15 5 16 4 17 3 18 2 19 1 20
REMARK H PARENT
REMARK Flexibility Score: inf
ROOT
ATOM      1  C   UNL     1       3.146  52.734  18.710  1.00  0.00    -0.031 C 
ATOM      2  C   UNL     1       3.340  53.556  19.757  1.00  0.00    -0.031 C 
ENDROOT
BRANCH   1   3
ATOM      3  C   UNL     1       1.810  52.175  18.279  1.00  0.00     0.027 C 
BRANCH   3   4
ATOM      4  C   UNL     1       1.181  53.030  17.170  1.00  0.00     0.004 C 
BRANCH   4   5
ATOM      5  C   UNL     1      -0.352  53.071  17.275  1.00  0.00     0.000 C 
BRANCH   5   6
ATOM      6  C   UNL     1      -0.853  53.036  18.729  1.00  0.00     0.000 C 
BRANCH   6   7
ATOM      7  C   UNL     1      -2.209  53.745  18.930  1.00  0.00     0.000 C 
BRANCH   7   8
ATOM      8  C   UNL     1      -2.600  54.601  17.714  1.00  0.00     0.006 C 
BRANCH   8   9
ATOM      9  C   UNL     1      -2.281  56.088  17.923  1.00  0.00     0.053 C 
BRANCH   9  10
ATOM     10  C   UNL     1      -3.526  56.897  18.118  1.00  0.00     0.041 C 
ATOM     11  O   UNL     1      -4.352  56.584  19.015  1.00  0.00    -0.550 OA
ATOM     12  O   UNL     1      -3.791  57.980  17.287  1.00  0.00    -0.550 OA
ENDBRANCH   9  10
ENDBRANCH   8   9
ENDBRANCH   7   8
ENDBRANCH   6   7
ENDBRANCH   5   6
ENDBRANCH   4   5
ENDBRANCH   3   4
ENDBRANCH   1   3
BRANCH   2  13
ATOM     13  C   UNL     1       2.250  54.113  20.639  1.00  0.00     0.027 C 
BRANCH  13  14
ATOM     14  C   UNL     1       2.062  55.630  20.466  1.00  0.00     0.004 C 
BRANCH  14  15
ATOM     15  C   UNL     1       1.061  56.032  19.362  1.00  0.00     0.000 C 
BRANCH  15  16
ATOM     16  C   UNL     1       1.649  56.900  18.234  1.00  0.00     0.000 C 
BRANCH  16  17
ATOM     17  C   UNL     1       3.092  57.385  18.471  1.00  0.00    -0.000 C 
BRANCH  17  18
ATOM     18  C   UNL     1       4.149  56.616  17.650  1.00  0.00    -0.000 C 
BRANCH  18  19
ATOM     19  C   UNL     1       3.521  55.726  16.567  1.00  0.00    -0.003 C 
ATOM     20  C   UNL     1       4.593  54.980  15.778  1.00  0.00     0.004 C 
ENDBRANCH  18  19
ENDBRANCH  17  18
ENDBRANCH  16  17
ENDBRANCH  15  16
ENDBRANCH  14  15
ENDBRANCH  13  14
ENDBRANCH   2  13
TORSDOF 15
ENDMDL
MODEL 3
REMARK VINA RESULT:    -4.981      3.364      5.660
REMARK INTER + INTRA:         -12.605
REMARK INTER:                  -9.798
REMARK INTRA:                  -2.807
REMARK UNBOUND:                -3.257
REMARK SMILES CCCCCCCCC=CCCCCCCCC(=O)[O-]
REMARK SMILES IDX 10 1 9 2 11 3 12 4 13 5 14 6 15 7 16 8 17 9 18 10 19 11
REMARK SMILES IDX 20 12 8 13 7 14 6 15 5 16 4 17 3 18 2 19 1 20
REMARK H PARENT
REMARK Flexibility Score: inf
ROOT
ATOM      1  C   UNL     1       1.976  53.683  19.984  1.00  0.00    -0.031 C 
ATOM      2  C   UNL     1       1.747  52.587  19.238  1.00  0.00    -0.031 C 
ENDROOT
BRANCH   1   3
ATOM      3  C   UNL     1       0.909  54.522  20.649  1.00  0.00     0.027 C 
BRANCH   3   4
ATOM      4  C   UNL     1       0.628  55.801  19.848  1.00  0.00     0.004 C 
BRANCH   4   5
ATOM      5  C   UNL     1       1.847  56.240  19.019  1.00  0.00     0.000 C 
BRANCH   5   6
ATOM      6  C   UNL     1       1.456  56.888  17.680  1.00  0.00     0.000 C 
BRANCH   6   7
ATOM      7  C   UNL     1       1.155  55.863  16.566  1.00  0.00     0.000 C 
BRANCH   7   8
ATOM      8  C   UNL     1       2.254  54.794  16.450  1.00  0.00     0.006 C 
BRANCH   8   9
ATOM      9  C   UNL     1       3.511  55.327  15.749  1.00  0.00     0.053 C 
BRANCH   9  10
ATOM     10  C   UNL     1       4.656  55.471  16.703  1.00  0.00     0.041 C 
ATOM     11  O   UNL     1       4.761  54.695  17.690  1.00  0.00    -0.550 OA
ATOM     12  O   UNL     1       5.591  56.483  16.522  1.00  0.00    -0.550 OA
ENDBRANCH   9  10
ENDBRANCH   8   9
ENDBRANCH   7   8
ENDBRANCH   6   7
ENDBRANCH   5   6
ENDBRANCH   4   5
ENDBRANCH   3   4
ENDBRANCH   1   3
BRANCH   2  13
ATOM     13  C   UNL     1       0.392  51.971  18.993  1.00  0.00     0.027 C 
BRANCH  13  14
ATOM     14  C   UNL     1      -0.266  52.479  17.698  1.00  0.00     0.004 C 
BRANCH  14  15
ATOM     15  C   UNL     1      -1.809  52.495  17.726  1.00  0.00     0.000 C 
BRANCH  15  16
ATOM     16  C   UNL     1      -2.432  53.066  19.013  1.00  0.00     0.000 C 
BRANCH  16  17
ATOM     17  C   UNL     1      -2.616  54.595  19.025  1.00  0.00    -0.000 C 
BRANCH  17  18
ATOM     18  C   UNL     1      -2.705  55.221  17.617  1.00  0.00    -0.000 C 
BRANCH  18  19
ATOM     19  C   UNL     1      -2.431  56.733  17.626  1.00  0.00    -0.003 C 
ATOM     20  C   UNL     1      -3.733  57.528  17.640  1.00  0.00     0.004 C 
ENDBRANCH  18  19
ENDBRANCH  17  18
ENDBRANCH  16  17
ENDBRANCH  15  16
ENDBRANCH  14  15
ENDBRANCH  13  14
ENDBRANCH   2  13
TORSDOF 15
ENDMDL
MODEL 4
REMARK VINA RESULT:    -4.917      2.846      5.932
REMARK INTER + INTRA:         -12.485
REMARK INTER:                  -9.240
REMARK INTRA:                  -3.245
REMARK UNBOUND:                -3.257
REMARK SMILES CCCCCCCCC=CCCCCCCCC(=O)[O-]
REMARK SMILES IDX 10 1 9 2 11 3 12 4 13 5 14 6 15 7 16 8 17 9 18 10 19 11
REMARK SMILES IDX 20 12 8 13 7 14 6 15 5 16 4 17 3 18 2 19 1 20
REMARK H PARENT
REMARK Flexibility Score: inf
ROOT
ATOM      1  C   UNL     1       1.386  52.628  18.006  1.00  0.00    -0.031 C 
ATOM      2  C   UNL     1       0.306  52.800  17.222  1.00  0.00    -0.031 C 
ENDROOT
BRANCH   1   3
ATOM      3  C   UNL     1       1.420  52.846  19.501  1.00  0.00     0.027 C 
BRANCH   3   4
ATOM      4  C   UNL     1       2.548  53.808  19.897  1.00  0.00     0.004 C 
BRANCH   4   5
ATOM      5  C   UNL     1       2.007  55.166  20.373  1.00  0.00     0.000 C 
BRANCH   5   6
ATOM      6  C   UNL     1       0.476  55.269  20.268  1.00  0.00     0.000 C 
BRANCH   6   7
ATOM      7  C   UNL     1      -0.001  56.278  19.202  1.00  0.00     0.000 C 
BRANCH   7   8
ATOM      8  C   UNL     1       1.165  56.831  18.365  1.00  0.00     0.006 C 
BRANCH   8   9
ATOM      9  C   UNL     1       1.140  56.311  16.921  1.00  0.00     0.053 C 
BRANCH   9  10
ATOM     10  C   UNL     1       2.473  55.771  16.505  1.00  0.00     0.041 C 
ATOM     11  O   UNL     1       3.502  56.031  17.184  1.00  0.00    -0.550 OA
ATOM     12  O   UNL     1       2.587  55.008  15.349  1.00  0.00    -0.550 OA
ENDBRANCH   9  10
ENDBRANCH   8   9
ENDBRANCH   7   8
ENDBRANCH   6   7
ENDBRANCH   5   6
ENDBRANCH   4   5
ENDBRANCH   3   4
ENDBRANCH   1   3
BRANCH   2  13
ATOM     13  C   UNL     1      -1.071  53.177  17.711  1.00  0.00     0.027 C 
BRANCH  13  14
ATOM     14  C   UNL     1      -2.175  52.273  17.134  1.00  0.00     0.004 C 
BRANCH  14  15
ATOM     15  C   UNL     1      -2.645  51.149  18.080  1.00  0.00     0.000 C 
BRANCH  15  16
ATOM     16  C   UNL     1      -1.519  50.274  18.662  1.00  0.00     0.000 C 
BRANCH  16  17
ATOM     17  C   UNL     1      -1.310  50.406  20.182  1.00  0.00    -0.000 C 
BRANCH  17  18
ATOM     18  C   UNL     1      -2.407  51.229  20.891  1.00  0.00    -0.000 C 
BRANCH  18  19
ATOM     19  C   UNL     1      -1.910  52.613  21.336  1.00  0.00    -0.003 C 
ATOM     20  C   UNL     1      -2.861  53.714  20.874  1.00  0.00     0.004 C 
ENDBRANCH  18  19
ENDBRANCH  17  18
ENDBRANCH  16  17
ENDBRANCH  15  16
ENDBRANCH  14  15
ENDBRANCH  13  14
ENDBRANCH   2  13
TORSDOF 15
ENDMDL
MODEL 5
REMARK VINA RESULT:    -4.873      3.314      4.664
REMARK INTER + INTRA:         -12.404
REMARK INTER:                  -9.855
REMARK INTRA:                  -2.549
REMARK UNBOUND:                -3.257
REMARK SMILES CCCCCCCCC=CCCCCCCCC(=O)[O-]
REMARK SMILES IDX 10 1 9 2 11 3 12 4 13 5 14 6 15 7 16 8 17 9 18 10 19 11
REMARK SMILES IDX 20 12 8 13 7 14 6 15 5 16 4 17 3 18 2 19 1 20
REMARK H PARENT
REMARK Flexibility Score: inf
ROOT
ATOM      1  C   UNL     1       0.962  54.965  20.923  1.00  0.00    -0.031 C 
ATOM      2  C   UNL     1       2.249  54.666  20.668  1.00  0.00    -0.031 C 
ENDROOT
BRANCH   1   3
ATOM      3  C   UNL     1      -0.218  54.083  20.590  1.00  0.00     0.027 C 
BRANCH   3   4
ATOM      4  C   UNL     1      -1.286  54.856  19.805  1.00  0.00     0.004 C 
BRANCH   4   5
ATOM      5  C   UNL     1      -1.704  54.119  18.522  1.00  0.00     0.000 C 
BRANCH   5   6
ATOM      6  C   UNL     1      -2.800  54.859  17.737  1.00  0.00     0.000 C 
BRANCH   6   7
ATOM      7  C   UNL     1      -2.640  56.394  17.755  1.00  0.00     0.000 C 
BRANCH   7   8
ATOM      8  C   UNL     1      -3.924  57.105  18.214  1.00  0.00     0.006 C 
BRANCH   8   9
ATOM      9  C   UNL     1      -4.646  56.337  19.329  1.00  0.00     0.053 C 
BRANCH   9  10
ATOM     10  C   UNL     1      -5.972  56.953  19.654  1.00  0.00     0.041 C 
ATOM     11  O   UNL     1      -6.052  57.868  20.517  1.00  0.00    -0.550 OA
ATOM     12  O   UNL     1      -7.125  56.495  19.028  1.00  0.00    -0.550 OA
ENDBRANCH   9  10
ENDBRANCH   8   9
ENDBRANCH   7   8
ENDBRANCH   6   7
ENDBRANCH   5   6
ENDBRANCH   4   5
ENDBRANCH   3   4
ENDBRANCH   1   3
BRANCH   2  13
ATOM     13  C   UNL     1       2.737  53.371  20.066  1.00  0.00     0.027 C 
BRANCH  13  14
ATOM     14  C   UNL     1       3.202  53.532  18.607  1.00  0.00     0.004 C 
BRANCH  14  15
ATOM     15  C   UNL     1       2.059  53.612  17.574  1.00  0.00     0.000 C 
BRANCH  15  16
ATOM     16  C   UNL     1       2.415  54.338  16.264  1.00  0.00     0.000 C 
BRANCH  16  17
ATOM     17  C   UNL     1       1.825  55.754  16.124  1.00  0.00    -0.000 C 
BRANCH  17  18
ATOM     18  C   UNL     1       1.024  56.219  17.359  1.00  0.00    -0.000 C 
BRANCH  18  19
ATOM     19  C   UNL     1       1.589  57.508  17.975  1.00  0.00    -0.003 C 
ATOM     20  C   UNL     1       3.064  57.347  18.330  1.00  0.00     0.004 C 
ENDBRANCH  18  19
ENDBRANCH  17  18
ENDBRANCH  16  17
ENDBRANCH  15  16
ENDBRANCH  14  15
ENDBRANCH  13  14
ENDBRANCH   2  13
TORSDOF 15
ENDMDL
MODEL 6
REMARK VINA RESULT:    -4.811      1.251      2.789
REMARK INTER + INTRA:         -12.286
REMARK INTER:                  -9.055
REMARK INTRA:                  -3.231
REMARK UNBOUND:                -3.257
REMARK SMILES CCCCCCCCC=CCCCCCCCC(=O)[O-]
REMARK SMILES IDX 10 1 9 2 11 3 12 4 13 5 14 6 15 7 16 8 17 9 18 10 19 11
REMARK SMILES IDX 20 12 8 13 7 14 6 15 5 16 4 17 3 18 2 19 1 20
REMARK H PARENT
REMARK Flexibility Score: inf
ROOT
ATOM      1  C   UNL     1       1.947  54.688  20.641  1.00  0.00    -0.031 C 
ATOM      2  C   UNL     1       2.592  53.680  20.024  1.00  0.00    -0.031 C 
ENDROOT
BRANCH   1   3
ATOM      3  C   UNL     1       0.450  54.889  20.645  1.00  0.00     0.027 C 
BRANCH   3   4
ATOM      4  C   UNL     1       0.033  55.984  19.655  1.00  0.00     0.004 C 
BRANCH   4   5
ATOM      5  C   UNL     1      -1.303  55.659  18.966  1.00  0.00     0.000 C 
BRANCH   5   6
ATOM      6  C   UNL     1      -1.596  54.150  18.914  1.00  0.00     0.000 C 
BRANCH   6   7
ATOM      7  C   UNL     1      -2.309  53.707  17.619  1.00  0.00     0.000 C 
BRANCH   7   8
ATOM      8  C   UNL     1      -2.245  52.184  17.414  1.00  0.00     0.006 C 
BRANCH   8   9
ATOM      9  C   UNL     1      -1.631  51.462  18.622  1.00  0.00     0.053 C 
BRANCH   9  10
ATOM     10  C   UNL     1      -2.643  50.614  19.330  1.00  0.00     0.041 C 
ATOM     11  O   UNL     1      -3.094  49.574  18.782  1.00  0.00    -0.550 OA
ATOM     12  O   UNL     1      -3.112  50.990  20.583  1.00  0.00    -0.550 OA
ENDBRANCH   9  10
ENDBRANCH   8   9
ENDBRANCH   7   8
ENDBRANCH   6   7
ENDBRANCH   5   6
ENDBRANCH   4   5
ENDBRANCH   3   4
ENDBRANCH   1   3
BRANCH   2  13
ATOM     13  C   UNL     1       1.926  52.543  19.289  1.00  0.00     0.027 C 
BRANCH  13  14
ATOM     14  C   UNL     1       2.249  52.538  17.784  1.00  0.00     0.004 C 
BRANCH  14  15
ATOM     15  C   UNL     1       1.298  53.392  16.920  1.00  0.00     0.000 C 
BRANCH  15  16
ATOM     16  C   UNL     1       1.879  54.738  16.449  1.00  0.00     0.000 C 
BRANCH  16  17
ATOM     17  C   UNL     1       3.416  54.790  16.363  1.00  0.00    -0.000 C 
BRANCH  17  18
ATOM     18  C   UNL     1       4.048  55.916  17.208  1.00  0.00    -0.000 C 
BRANCH  18  19
ATOM     19  C   UNL     1       3.001  56.888  17.772  1.00  0.00    -0.003 C 
ATOM     20  C   UNL     1       3.519  57.588  19.025  1.00  0.00     0.004 C 
ENDBRANCH  18  19
ENDBRANCH  17  18
ENDBRANCH  16  17
ENDBRANCH  15  16
ENDBRANCH  14  15
ENDBRANCH  13  14
ENDBRANCH   2  13
TORSDOF 15
ENDMDL
MODEL 7
REMARK VINA RESULT:    -4.791      1.403      2.944
REMARK INTER + INTRA:         -12.250
REMARK INTER:                  -9.279
REMARK INTRA:                  -2.971
REMARK UNBOUND:                -3.257
REMARK SMILES CCCCCCCCC=CCCCCCCCC(=O)[O-]
REMARK SMILES IDX 10 1 9 2 11 3 12 4 13 5 14 6 15 7 16 8 17 9 18 10 19 11
REMARK SMILES IDX 20 12 8 13 7 14 6 15 5 16 4 17 3 18 2 19 1 20
REMARK H PARENT
REMARK Flexibility Score: inf
ROOT
ATOM      1  C   UNL     1       0.713  54.876  20.930  1.00  0.00    -0.031 C 
ATOM      2  C   UNL     1       1.938  54.474  20.545  1.00  0.00    -0.031 C 
ENDROOT
BRANCH   1   3
ATOM      3  C   UNL     1      -0.590  54.322  20.402  1.00  0.00     0.027 C 
BRANCH   3   4
ATOM      4  C   UNL     1      -1.389  55.398  19.654  1.00  0.00     0.004 C 
BRANCH   4   5
ATOM      5  C   UNL     1      -1.987  54.863  18.343  1.00  0.00     0.000 C 
BRANCH   5   6
ATOM      6  C   UNL     1      -1.317  53.563  17.867  1.00  0.00     0.000 C 
BRANCH   6   7
ATOM      7  C   UNL     1      -2.320  52.500  17.371  1.00  0.00     0.000 C 
BRANCH   7   8
ATOM      8  C   UNL     1      -1.957  51.088  17.861  1.00  0.00     0.006 C 
BRANCH   8   9
ATOM      9  C   UNL     1      -0.614  51.059  18.602  1.00  0.00     0.053 C 
BRANCH   9  10
ATOM     10  C   UNL     1      -0.722  50.340  19.912  1.00  0.00     0.041 C 
ATOM     11  O   UNL     1      -1.523  50.748  20.794  1.00  0.00    -0.550 OA
ATOM     12  O   UNL     1       0.084  49.238  20.170  1.00  0.00    -0.550 OA
ENDBRANCH   9  10
ENDBRANCH   8   9
ENDBRANCH   7   8
ENDBRANCH   6   7
ENDBRANCH   5   6
ENDBRANCH   4   5
ENDBRANCH   3   4
ENDBRANCH   1   3
BRANCH   2  13
ATOM     13  C   UNL     1       2.220  53.358  19.570  1.00  0.00     0.027 C 
BRANCH  13  14
ATOM     14  C   UNL     1       3.633  53.439  18.966  1.00  0.00     0.004 C 
BRANCH  14  15
ATOM     15  C   UNL     1       3.670  53.796  17.465  1.00  0.00     0.000 C 
BRANCH  15  16
ATOM     16  C   UNL     1       2.304  54.145  16.845  1.00  0.00     0.000 C 
BRANCH  16  17
ATOM     17  C   UNL     1       2.138  55.617  16.422  1.00  0.00    -0.000 C 
BRANCH  17  18
ATOM     18  C   UNL     1       1.133  56.403  17.290  1.00  0.00    -0.000 C 
BRANCH  18  19
ATOM     19  C   UNL     1       1.751  57.667  17.908  1.00  0.00    -0.003 C 
ATOM     20  C   UNL     1       3.090  57.356  18.571  1.00  0.00     0.004 C 
ENDBRANCH  18  19
ENDBRANCH  17  18
ENDBRANCH  16  17
ENDBRANCH  15  16
ENDBRANCH  14  15
ENDBRANCH  13  14
ENDBRANCH   2  13
TORSDOF 15
ENDMDL
MODEL 8
REMARK VINA RESULT:    -4.778      2.876      3.833
REMARK INTER + INTRA:         -12.224
REMARK INTER:                  -9.561
REMARK INTRA:                  -2.663
REMARK UNBOUND:                -3.257
REMARK SMILES CCCCCCCCC=CCCCCCCCC(=O)[O-]
REMARK SMILES IDX 10 1 9 2 11 3 12 4 13 5 14 6 15 7 16 8 17 9 18 10 19 11
REMARK SMILES IDX 20 12 8 13 7 14 6 15 5 16 4 17 3 18 2 19 1 20
REMARK H PARENT
REMARK Flexibility Score: inf
ROOT
ATOM      1  C   UNL     1       1.306  54.179  20.252  1.00  0.00    -0.031 C 
ATOM      2  C   UNL     1       1.357  55.513  20.081  1.00  0.00    -0.031 C 
ENDROOT
BRANCH   1   3
ATOM      3  C   UNL     1       2.147  53.173  19.501  1.00  0.00     0.027 C 
BRANCH   3   4
ATOM      4  C   UNL     1       1.269  52.146  18.773  1.00  0.00     0.004 C 
BRANCH   4   5
ATOM      5  C   UNL     1      -0.229  52.440  18.954  1.00  0.00     0.000 C 
BRANCH   5   6
ATOM      6  C   UNL     1      -0.953  52.694  17.621  1.00  0.00     0.000 C 
BRANCH   6   7
ATOM      7  C   UNL     1      -2.187  53.611  17.756  1.00  0.00     0.000 C 
BRANCH   7   8
ATOM      8  C   UNL     1      -1.813  55.015  18.261  1.00  0.00     0.006 C 
BRANCH   8   9
ATOM      9  C   UNL     1      -2.855  55.577  19.238  1.00  0.00     0.053 C 
BRANCH   9  10
ATOM     10  C   UNL     1      -3.810  56.505  18.553  1.00  0.00     0.041 C 
ATOM     11  O   UNL     1      -3.433  57.181  17.558  1.00  0.00    -0.550 OA
ATOM     12  O   UNL     1      -5.106  56.649  19.031  1.00  0.00    -0.550 OA
ENDBRANCH   9  10
ENDBRANCH   8   9
ENDBRANCH   7   8
ENDBRANCH   6   7
ENDBRANCH   5   6
ENDBRANCH   4   5
ENDBRANCH   3   4
ENDBRANCH   1   3
BRANCH   2  13
ATOM     13  C   UNL     1       2.308  56.235  19.160  1.00  0.00     0.027 C 
BRANCH  13  14
ATOM     14  C   UNL     1       1.584  57.151  18.156  1.00  0.00     0.004 C 
BRANCH  14  15
ATOM     15  C   UNL     1       1.058  56.432  16.896  1.00  0.00     0.000 C 
BRANCH  15  16
ATOM     16  C   UNL     1       1.761  55.103  16.563  1.00  0.00     0.000 C 
BRANCH  16  17
ATOM     17  C   UNL     1       3.084  55.243  15.787  1.00  0.00    -0.000 C 
BRANCH  17  18
ATOM     18  C   UNL     1       4.268  54.494  16.435  1.00  0.00    -0.000 C 
BRANCH  18  19
ATOM     19  C   UNL     1       5.054  55.375  17.418  1.00  0.00    -0.003 C 
ATOM     20  C   UNL     1       5.304  56.762  16.833  1.00  0.00     0.004 C 
ENDBRANCH  18  19
ENDBRANCH  17  18
ENDBRANCH  16  17
ENDBRANCH  15  16
ENDBRANCH  14  15
ENDBRANCH  13  14
ENDBRANCH   2  13
TORSDOF 15
ENDMDL
MODEL 9
REMARK VINA RESULT:    -4.754      2.969      4.199
REMARK INTER + INTRA:         -12.179
REMARK INTER:                  -9.524
REMARK INTRA:                  -2.656
REMARK UNBOUND:                -3.257
REMARK SMILES CCCCCCCCC=CCCCCCCCC(=O)[O-]
REMARK SMILES IDX 10 1 9 2 11 3 12 4 13 5 14 6 15 7 16 8 17 9 18 10 19 11
REMARK SMILES IDX 20 12 8 13 7 14 6 15 5 16 4 17 3 18 2 19 1 20
REMARK H PARENT
REMARK Flexibility Score: inf
ROOT
ATOM      1  C   UNL     1       1.021  54.200  20.002  1.00  0.00    -0.031 C 
ATOM      2  C   UNL     1       2.298  54.482  20.320  1.00  0.00    -0.031 C 
ENDROOT
BRANCH   1   3
ATOM      3  C   UNL     1       0.482  52.817  19.716  1.00  0.00     0.027 C 
BRANCH   3   4
ATOM      4  C   UNL     1       0.760  52.401  18.266  1.00  0.00     0.004 C 
BRANCH   4   5
ATOM      5  C   UNL     1      -0.162  53.127  17.272  1.00  0.00     0.000 C 
BRANCH   5   6
ATOM      6  C   UNL     1      -1.612  52.617  17.321  1.00  0.00     0.000 C 
BRANCH   6   7
ATOM      7  C   UNL     1      -2.662  53.748  17.303  1.00  0.00     0.000 C 
BRANCH   7   8
ATOM      8  C   UNL     1      -2.205  54.977  18.107  1.00  0.00     0.006 C 
BRANCH   8   9
ATOM      9  C   UNL     1      -3.386  55.841  18.569  1.00  0.00     0.053 C 
BRANCH   9  10
ATOM     10  C   UNL     1      -3.472  57.118  17.791  1.00  0.00     0.041 C 
ATOM     11  O   UNL     1      -4.437  57.907  17.971  1.00  0.00    -0.550 OA
ATOM     12  O   UNL     1      -2.503  57.424  16.842  1.00  0.00    -0.550 OA
ENDBRANCH   9  10
ENDBRANCH   8   9
ENDBRANCH   7   8
ENDBRANCH   6   7
ENDBRANCH   5   6
ENDBRANCH   4   5
ENDBRANCH   3   4
ENDBRANCH   1   3
BRANCH   2  13
ATOM     13  C   UNL     1       3.393  53.462  20.509  1.00  0.00     0.027 C 
BRANCH  13  14
ATOM     14  C   UNL     1       4.064  53.057  19.184  1.00  0.00     0.004 C 
BRANCH  14  15
ATOM     15  C   UNL     1       4.478  54.242  18.286  1.00  0.00     0.000 C 
BRANCH  15  16
ATOM     16  C   UNL     1       3.763  54.309  16.924  1.00  0.00     0.000 C 
BRANCH  16  17
ATOM     17  C   UNL     1       3.203  55.694  16.550  1.00  0.00    -0.000 C 
BRANCH  17  18
ATOM     18  C   UNL     1       3.336  56.743  17.674  1.00  0.00    -0.000 C 
BRANCH  18  19
ATOM     19  C   UNL     1       1.984  57.360  18.067  1.00  0.00    -0.003 C 
ATOM     20  C   UNL     1       0.849  56.769  17.236  1.00  0.00     0.004 C 
ENDBRANCH  18  19
ENDBRANCH  17  18
ENDBRANCH  16  17
ENDBRANCH  15  16
ENDBRANCH  14  15
ENDBRANCH  13  14
ENDBRANCH   2  13
TORSDOF 15
ENDMDL
