MODEL 1
REMARK VINA RESULT:    -5.216      0.000      0.000
REMARK INTER + INTRA:         -10.921
REMARK INTER:                  -9.485
REMARK INTRA:                  -1.436
REMARK UNBOUND:                -1.436
REMARK SMILES CCCCCCCCCCCCCC[C@@H](C)C(=O)[O-]
REMARK SMILES IDX 9 1 10 2 11 3 12 4 13 5 14 6 15 7 16 8 17 9 18 10 19 11 8 12
REMARK SMILES IDX 7 13 6 14 5 15 4 16 3 17 2 18 1 19
REMARK H PARENT
REMARK Flexibility Score: inf
ROOT
ATOM      1  C   UNL     1       7.327 -12.887  -3.814  1.00  0.00     0.000 C 
ENDROOT
BRANCH   1   2
ATOM      2  C   UNL     1       6.037 -13.326  -4.533  1.00  0.00     0.000 C 
BRANCH   2   3
ATOM      3  C   UNL     1       4.864 -12.336  -4.366  1.00  0.00     0.000 C 
BRANCH   3   4
ATOM      4  C   UNL     1       3.818 -12.469  -5.487  1.00  0.00     0.000 C 
BRANCH   4   5
ATOM      5  C   UNL     1       3.464 -11.119  -6.130  1.00  0.00     0.001 C 
BRANCH   5   6
ATOM      6  C   UNL     1       4.693 -10.404  -6.719  1.00  0.00     0.009 C 
BRANCH   6   7
ATOM      7  C   UNL     1       4.307  -9.401  -7.825  1.00  0.00     0.032 C 
ATOM      8  C   UNL     1       2.784  -9.311  -7.964  1.00  0.00     0.014 C 
BRANCH   7   9
ATOM      9  C   UNL     1       4.871  -8.033  -7.547  1.00  0.00     0.044 C 
ATOM     10  O   UNL     1       4.887  -7.583  -6.371  1.00  0.00    -0.550 OA
ATOM     11  O   UNL     1       5.383  -7.260  -8.582  1.00  0.00    -0.550 OA
ENDBRANCH   7   9
ENDBRANCH   6   7
ENDBRANCH   5   6
ENDBRANCH   4   5
ENDBRANCH   3   4
ENDBRANCH   2   3
ENDBRANCH   1   2
BRANCH   1  12
ATOM     12  C   UNL     1       7.681 -13.709  -2.561  1.00  0.00     0.000 C 
BRANCH  12  13
ATOM     13  C   UNL     1       7.404 -13.005  -1.216  1.00  0.00    -0.000 C 
BRANCH  13  14
ATOM     14  C   UNL     1       8.658 -12.619  -0.411  1.00  0.00    -0.000 C 
BRANCH  14  15
ATOM     15  C   UNL     1       8.775 -11.106  -0.171  1.00  0.00    -0.000 C 
BRANCH  15  16
ATOM     16  C   UNL     1       7.396 -10.434  -0.244  1.00  0.00    -0.000 C 
BRANCH  16  17
ATOM     17  C   UNL     1       7.203  -9.615  -1.529  1.00  0.00    -0.000 C 
BRANCH  17  18
ATOM     18  C   UNL     1       5.722  -9.366  -1.857  1.00  0.00    -0.003 C 
ATOM     19  C   UNL     1       4.834 -10.432  -1.223  1.00  0.00     0.004 C 
ENDBRANCH  17  18
ENDBRANCH  16  17
ENDBRANCH  15  16
ENDBRANCH  14  15
ENDBRANCH  13  14
ENDBRANCH  12  13
ENDBRANCH   1  12
TORSDOF 14
ENDMDL
MODEL 2
REMARK VINA RESULT:    -5.152      2.570      5.296
REMARK INTER + INTRA:         -10.804
REMARK INTER:                  -8.530
REMARK INTRA:                  -2.274
REMARK UNBOUND:                -1.436
REMARK SMILES CCCCCCCCCCCCCC[C@@H](C)C(=O)[O-]
REMARK SMILES IDX 9 1 10 2 11 3 12 4 13 5 14 6 15 7 16 8 17 9 18 10 19 11 8 12
REMARK SMILES IDX 7 13 6 14 5 15 4 16 3 17 2 18 1 19
REMARK H PARENT
REMARK Flexibility Score: inf
ROOT
ATOM      1  C   UNL     1       7.288 -12.867  -1.286  1.00  0.00     0.000 C 
ENDROOT
BRANCH   1   2
ATOM      2  C   UNL     1       8.501 -12.554  -0.389  1.00  0.00     0.000 C 
BRANCH   2   3
ATOM      3  C   UNL     1       8.648 -11.056  -0.043  1.00  0.00     0.000 C 
BRANCH   3   4
ATOM      4  C   UNL     1       7.962 -10.145  -1.076  1.00  0.00     0.000 C 
BRANCH   4   5
ATOM      5  C   UNL     1       7.119  -9.039  -0.421  1.00  0.00     0.001 C 
BRANCH   5   6
ATOM      6  C   UNL     1       5.975  -8.551  -1.330  1.00  0.00     0.009 C 
BRANCH   6   7
ATOM      7  C   UNL     1       5.177  -9.723  -1.937  1.00  0.00     0.032 C 
ATOM      8  C   UNL     1       4.289 -10.379  -0.875  1.00  0.00     0.014 C 
BRANCH   7   9
ATOM      9  C   UNL     1       4.329  -9.267  -3.094  1.00  0.00     0.044 C 
ATOM     10  O   UNL     1       3.335  -9.949  -3.457  1.00  0.00    -0.550 OA
ATOM     11  O   UNL     1       4.633  -8.088  -3.766  1.00  0.00    -0.550 OA
ENDBRANCH   7   9
ENDBRANCH   6   7
ENDBRANCH   5   6
ENDBRANCH   4   5
ENDBRANCH   3   4
ENDBRANCH   2   3
ENDBRANCH   1   2
BRANCH   1  12
ATOM     12  C   UNL     1       7.571 -13.855  -2.434  1.00  0.00     0.000 C 
BRANCH  12  13
ATOM     13  C   UNL     1       7.355 -13.288  -3.853  1.00  0.00    -0.000 C 
BRANCH  13  14
ATOM     14  C   UNL     1       6.068 -12.464  -4.038  1.00  0.00    -0.000 C 
BRANCH  14  15
ATOM     15  C   UNL     1       5.122 -13.059  -5.093  1.00  0.00    -0.000 C 
BRANCH  15  16
ATOM     16  C   UNL     1       3.746 -13.364  -4.484  1.00  0.00    -0.000 C 
BRANCH  16  17
ATOM     17  C   UNL     1       3.759 -13.340  -2.948  1.00  0.00    -0.000 C 
BRANCH  17  18
ATOM     18  C   UNL     1       3.545 -14.732  -2.332  1.00  0.00    -0.003 C 
ATOM     19  C   UNL     1       3.309 -14.636  -0.828  1.00  0.00     0.004 C 
ENDBRANCH  17  18
ENDBRANCH  16  17
ENDBRANCH  15  16
ENDBRANCH  14  15
ENDBRANCH  13  14
ENDBRANCH  12  13
ENDBRANCH   1  12
TORSDOF 14
ENDMDL
MODEL 3
REMARK VINA RESULT:    -5.129      4.166      5.874
REMARK INTER + INTRA:         -10.763
REMARK INTER:                  -8.624
REMARK INTRA:                  -2.138
REMARK UNBOUND:                -1.436
REMARK SMILES CCCCCCCCCCCCCC[C@@H](C)C(=O)[O-]
REMARK SMILES IDX 9 1 10 2 11 3 12 4 13 5 14 6 15 7 16 8 17 9 18 10 19 11 8 12
REMARK SMILES IDX 7 13 6 14 5 15 4 16 3 17 2 18 1 19
REMARK H PARENT
REMARK Flexibility Score: inf
ROOT
ATOM      1  C   UNL     1       6.072 -13.325  -4.641  1.00  0.00     0.000 C 
ENDROOT
BRANCH   1   2
ATOM      2  C   UNL     1       4.868 -12.364  -4.674  1.00  0.00     0.000 C 
BRANCH   2   3
ATOM      3  C   UNL     1       3.538 -13.019  -4.241  1.00  0.00     0.000 C 
BRANCH   3   4
ATOM      4  C   UNL     1       3.004 -12.445  -2.917  1.00  0.00     0.000 C 
BRANCH   4   5
ATOM      5  C   UNL     1       3.768 -12.976  -1.692  1.00  0.00     0.001 C 
BRANCH   5   6
ATOM      6  C   UNL     1       3.922 -14.508  -1.710  1.00  0.00     0.009 C 
BRANCH   6   7
ATOM      7  C   UNL     1       3.132 -15.184  -0.570  1.00  0.00     0.032 C 
ATOM      8  C   UNL     1       2.835 -14.181   0.549  1.00  0.00     0.014 C 
BRANCH   7   9
ATOM      9  C   UNL     1       1.844 -15.777  -1.074  1.00  0.00     0.044 C 
ATOM     10  O   UNL     1       0.826 -15.050  -1.215  1.00  0.00    -0.550 OA
ATOM     11  O   UNL     1       1.770 -17.128  -1.392  1.00  0.00    -0.550 OA
ENDBRANCH   7   9
ENDBRANCH   6   7
ENDBRANCH   5   6
ENDBRANCH   4   5
ENDBRANCH   3   4
ENDBRANCH   2   3
ENDBRANCH   1   2
BRANCH   1  12
ATOM     12  C   UNL     1       7.279 -12.820  -3.827  1.00  0.00     0.000 C 
BRANCH  12  13
ATOM     13  C   UNL     1       7.651 -13.685  -2.604  1.00  0.00    -0.000 C 
BRANCH  13  14
ATOM     14  C   UNL     1       7.320 -13.060  -1.237  1.00  0.00    -0.000 C 
BRANCH  14  15
ATOM     15  C   UNL     1       8.572 -12.644  -0.450  1.00  0.00    -0.000 C 
BRANCH  15  16
ATOM     16  C   UNL     1       8.722 -11.116  -0.427  1.00  0.00    -0.000 C 
BRANCH  16  17
ATOM     17  C   UNL     1       7.410 -10.397  -0.075  1.00  0.00    -0.000 C 
BRANCH  17  18
ATOM     18  C   UNL     1       7.034  -9.316  -1.099  1.00  0.00    -0.003 C 
ATOM     19  C   UNL     1       5.956  -9.816  -2.055  1.00  0.00     0.004 C 
ENDBRANCH  17  18
ENDBRANCH  16  17
ENDBRANCH  15  16
ENDBRANCH  14  15
ENDBRANCH  13  14
ENDBRANCH  12  13
ENDBRANCH   1  12
TORSDOF 14
ENDMDL
MODEL 4
REMARK VINA RESULT:    -5.116      4.122      5.285
REMARK INTER + INTRA:         -10.739
REMARK INTER:                  -8.592
REMARK INTRA:                  -2.146
REMARK UNBOUND:                -1.436
REMARK SMILES CCCCCCCCCCCCCC[C@@H](C)C(=O)[O-]
REMARK SMILES IDX 9 1 10 2 11 3 12 4 13 5 14 6 15 7 16 8 17 9 18 10 19 11 8 12
REMARK SMILES IDX 7 13 6 14 5 15 4 16 3 17 2 18 1 19
REMARK H PARENT
REMARK Flexibility Score: inf
ROOT
ATOM      1  C   UNL     1       7.263 -13.386  -3.737  1.00  0.00     0.000 C 
ENDROOT
BRANCH   1   2
ATOM      2  C   UNL     1       6.265 -12.216  -3.845  1.00  0.00     0.000 C 
BRANCH   2   3
ATOM      3  C   UNL     1       5.037 -12.527  -4.728  1.00  0.00     0.000 C 
BRANCH   3   4
ATOM      4  C   UNL     1       3.756 -11.846  -4.214  1.00  0.00     0.000 C 
BRANCH   4   5
ATOM      5  C   UNL     1       2.909 -12.773  -3.327  1.00  0.00     0.001 C 
BRANCH   5   6
ATOM      6  C   UNL     1       3.564 -14.150  -3.114  1.00  0.00     0.009 C 
BRANCH   6   7
ATOM      7  C   UNL     1       3.729 -14.491  -1.619  1.00  0.00     0.032 C 
ATOM      8  C   UNL     1       3.949 -13.217  -0.797  1.00  0.00     0.014 C 
BRANCH   7   9
ATOM      9  C   UNL     1       2.530 -15.232  -1.091  1.00  0.00     0.044 C 
ATOM     10  O   UNL     1       2.363 -16.448  -1.374  1.00  0.00    -0.550 OA
ATOM     11  O   UNL     1       1.603 -14.584  -0.282  1.00  0.00    -0.550 OA
ENDBRANCH   7   9
ENDBRANCH   6   7
ENDBRANCH   5   6
ENDBRANCH   4   5
ENDBRANCH   3   4
ENDBRANCH   2   3
ENDBRANCH   1   2
BRANCH   1  12
ATOM     12  C   UNL     1       7.648 -13.775  -2.297  1.00  0.00     0.000 C 
BRANCH  12  13
ATOM     13  C   UNL     1       7.500 -12.649  -1.252  1.00  0.00    -0.000 C 
BRANCH  13  14
ATOM     14  C   UNL     1       8.685 -12.500  -0.281  1.00  0.00    -0.000 C 
BRANCH  14  15
ATOM     15  C   UNL     1       8.832 -11.072   0.268  1.00  0.00    -0.000 C 
BRANCH  15  16
ATOM     16  C   UNL     1       8.016 -10.077  -0.569  1.00  0.00    -0.000 C 
BRANCH  16  17
ATOM     17  C   UNL     1       6.855  -9.451   0.220  1.00  0.00    -0.000 C 
BRANCH  17  18
ATOM     18  C   UNL     1       5.491  -9.684  -0.448  1.00  0.00    -0.003 C 
ATOM     19  C   UNL     1       5.513  -9.245  -1.908  1.00  0.00     0.004 C 
ENDBRANCH  17  18
ENDBRANCH  16  17
ENDBRANCH  15  16
ENDBRANCH  14  15
ENDBRANCH  13  14
ENDBRANCH  12  13
ENDBRANCH   1  12
TORSDOF 14
ENDMDL
MODEL 5
REMARK VINA RESULT:    -5.041      1.186      3.187
REMARK INTER + INTRA:         -10.603
REMARK INTER:                  -8.752
REMARK INTRA:                  -1.852
REMARK UNBOUND:                -1.436
REMARK SMILES CCCCCCCCCCCCCC[C@@H](C)C(=O)[O-]
REMARK SMILES IDX 9 1 10 2 11 3 12 4 13 5 14 6 15 7 16 8 17 9 18 10 19 11 8 12
REMARK SMILES IDX 7 13 6 14 5 15 4 16 3 17 2 18 1 19
REMARK H PARENT
REMARK Flexibility Score: inf
ROOT
ATOM      1  C   UNL     1       5.422  -9.288  -0.259  1.00  0.00     0.000 C 
ENDROOT
BRANCH   1   2
ATOM      2  C   UNL     1       4.720 -10.057  -1.396  1.00  0.00     0.000 C 
BRANCH   2   3
ATOM      3  C   UNL     1       5.330  -9.800  -2.790  1.00  0.00     0.000 C 
BRANCH   3   4
ATOM      4  C   UNL     1       4.283  -9.326  -3.812  1.00  0.00     0.000 C 
BRANCH   4   5
ATOM      5  C   UNL     1       3.871 -10.434  -4.795  1.00  0.00     0.001 C 
BRANCH   5   6
ATOM      6  C   UNL     1       4.757 -10.468  -6.054  1.00  0.00     0.009 C 
BRANCH   6   7
ATOM      7  C   UNL     1       4.055  -9.840  -7.275  1.00  0.00     0.032 C 
ATOM      8  C   UNL     1       2.549 -10.118  -7.233  1.00  0.00     0.014 C 
BRANCH   7   9
ATOM      9  C   UNL     1       4.294  -8.355  -7.341  1.00  0.00     0.044 C 
ATOM     10  O   UNL     1       3.349  -7.552  -7.128  1.00  0.00    -0.550 OA
ATOM     11  O   UNL     1       5.561  -7.860  -7.632  1.00  0.00    -0.550 OA
ENDBRANCH   7   9
ENDBRANCH   6   7
ENDBRANCH   5   6
ENDBRANCH   4   5
ENDBRANCH   3   4
ENDBRANCH   2   3
ENDBRANCH   1   2
BRANCH   1  12
ATOM     12  C   UNL     1       6.903  -8.958  -0.522  1.00  0.00     0.000 C 
BRANCH  12  13
ATOM     13  C   UNL     1       7.908 -10.025  -0.039  1.00  0.00    -0.000 C 
BRANCH  13  14
ATOM     14  C   UNL     1       8.277 -11.094  -1.084  1.00  0.00    -0.000 C 
BRANCH  14  15
ATOM     15  C   UNL     1       8.196 -12.525  -0.530  1.00  0.00    -0.000 C 
BRANCH  15  16
ATOM     16  C   UNL     1       7.735 -13.506  -1.617  1.00  0.00    -0.000 C 
BRANCH  16  17
ATOM     17  C   UNL     1       6.236 -13.380  -1.932  1.00  0.00    -0.000 C 
BRANCH  17  18
ATOM     18  C   UNL     1       5.960 -13.164  -3.428  1.00  0.00    -0.003 C 
ATOM     19  C   UNL     1       7.241 -13.291  -4.246  1.00  0.00     0.004 C 
ENDBRANCH  17  18
ENDBRANCH  16  17
ENDBRANCH  15  16
ENDBRANCH  14  15
ENDBRANCH  13  14
ENDBRANCH  12  13
ENDBRANCH   1  12
TORSDOF 14
ENDMDL
MODEL 6
REMARK VINA RESULT:    -5.032      2.647      4.932
REMARK INTER + INTRA:         -10.587
REMARK INTER:                  -8.972
REMARK INTRA:                  -1.615
REMARK UNBOUND:                -1.436
REMARK SMILES CCCCCCCCCCCCCC[C@@H](C)C(=O)[O-]
REMARK SMILES IDX 9 1 10 2 11 3 12 4 13 5 14 6 15 7 16 8 17 9 18 10 19 11 8 12
REMARK SMILES IDX 7 13 6 14 5 15 4 16 3 17 2 18 1 19
REMARK H PARENT
REMARK Flexibility Score: inf
ROOT
ATOM      1  C   UNL     1       4.648 -10.656  -6.684  1.00  0.00     0.000 C 
ENDROOT
BRANCH   1   2
ATOM      2  C   UNL     1       4.627  -9.215  -6.139  1.00  0.00     0.000 C 
BRANCH   2   3
ATOM      3  C   UNL     1       4.114  -8.173  -7.157  1.00  0.00     0.000 C 
BRANCH   3   4
ATOM      4  C   UNL     1       3.813  -8.793  -8.532  1.00  0.00     0.000 C 
BRANCH   4   5
ATOM      5  C   UNL     1       2.320  -8.735  -8.894  1.00  0.00     0.001 C 
BRANCH   5   6
ATOM      6  C   UNL     1       1.454  -8.190  -7.744  1.00  0.00     0.009 C 
BRANCH   6   7
ATOM      7  C   UNL     1       0.638  -9.303  -7.054  1.00  0.00     0.032 C 
ATOM      8  C   UNL     1       0.861  -9.275  -5.539  1.00  0.00     0.014 C 
BRANCH   7   9
ATOM      9  C   UNL     1      -0.832  -9.170  -7.352  1.00  0.00     0.044 C 
ATOM     10  O   UNL     1      -1.214  -8.639  -8.428  1.00  0.00    -0.550 OA
ATOM     11  O   UNL     1      -1.777  -9.637  -6.446  1.00  0.00    -0.550 OA
ENDBRANCH   7   9
ENDBRANCH   6   7
ENDBRANCH   5   6
ENDBRANCH   4   5
ENDBRANCH   3   4
ENDBRANCH   2   3
ENDBRANCH   1   2
BRANCH   1  12
ATOM     12  C   UNL     1       3.778 -11.656  -5.900  1.00  0.00     0.000 C 
BRANCH  12  13
ATOM     13  C   UNL     1       4.005 -11.667  -4.374  1.00  0.00    -0.000 C 
BRANCH  13  14
ATOM     14  C   UNL     1       4.759 -12.896  -3.834  1.00  0.00    -0.000 C 
BRANCH  14  15
ATOM     15  C   UNL     1       6.027 -13.221  -4.638  1.00  0.00    -0.000 C 
BRANCH  15  16
ATOM     16  C   UNL     1       7.289 -12.918  -3.817  1.00  0.00    -0.000 C 
BRANCH  16  17
ATOM     17  C   UNL     1       6.967 -12.421  -2.399  1.00  0.00    -0.000 C 
BRANCH  17  18
ATOM     18  C   UNL     1       7.578 -13.312  -1.306  1.00  0.00    -0.003 C 
ATOM     19  C   UNL     1       8.613 -12.546  -0.488  1.00  0.00     0.004 C 
ENDBRANCH  17  18
ENDBRANCH  16  17
ENDBRANCH  15  16
ENDBRANCH  14  15
ENDBRANCH  13  14
ENDBRANCH  12  13
ENDBRANCH   1  12
TORSDOF 14
ENDMDL
MODEL 7
REMARK VINA RESULT:    -4.985      1.973      4.544
REMARK INTER + INTRA:         -10.501
REMARK INTER:                  -9.207
REMARK INTRA:                  -1.294
REMARK UNBOUND:                -1.436
REMARK SMILES CCCCCCCCCCCCCC[C@@H](C)C(=O)[O-]
REMARK SMILES IDX 9 1 10 2 11 3 12 4 13 5 14 6 15 7 16 8 17 9 18 10 19 11 8 12
REMARK SMILES IDX 7 13 6 14 5 15 4 16 3 17 2 18 1 19
REMARK H PARENT
REMARK Flexibility Score: inf
ROOT
ATOM      1  C   UNL     1       4.443 -10.378  -6.893  1.00  0.00     0.000 C 
ENDROOT
BRANCH   1   2
ATOM      2  C   UNL     1       3.067  -9.884  -7.380  1.00  0.00     0.000 C 
BRANCH   2   3
ATOM      3  C   UNL     1       3.147  -8.854  -8.528  1.00  0.00     0.000 C 
BRANCH   3   4
ATOM      4  C   UNL     1       4.596  -8.461  -8.864  1.00  0.00     0.000 C 
BRANCH   4   5
ATOM      5  C   UNL     1       4.901  -6.990  -8.538  1.00  0.00     0.001 C 
BRANCH   5   6
ATOM      6  C   UNL     1       5.109  -6.749  -7.031  1.00  0.00     0.009 C 
BRANCH   6   7
ATOM      7  C   UNL     1       3.992  -5.876  -6.424  1.00  0.00     0.032 C 
ATOM      8  C   UNL     1       3.148  -6.689  -5.437  1.00  0.00     0.014 C 
BRANCH   7   9
ATOM      9  C   UNL     1       4.559  -4.667  -5.728  1.00  0.00     0.044 C 
ATOM     10  O   UNL     1       4.014  -4.226  -4.682  1.00  0.00    -0.550 OA
ATOM     11  O   UNL     1       5.690  -4.034  -6.230  1.00  0.00    -0.550 OA
ENDBRANCH   7   9
ENDBRANCH   6   7
ENDBRANCH   5   6
ENDBRANCH   4   5
ENDBRANCH   3   4
ENDBRANCH   2   3
ENDBRANCH   1   2
BRANCH   1  12
ATOM     12  C   UNL     1       4.459 -10.933  -5.456  1.00  0.00     0.000 C 
BRANCH  12  13
ATOM     13  C   UNL     1       4.273 -12.461  -5.342  1.00  0.00    -0.000 C 
BRANCH  13  14
ATOM     14  C   UNL     1       5.033 -13.126  -4.181  1.00  0.00    -0.000 C 
BRANCH  14  15
ATOM     15  C   UNL     1       6.552 -13.177  -4.411  1.00  0.00    -0.000 C 
BRANCH  15  16
ATOM     16  C   UNL     1       7.299 -12.429  -3.297  1.00  0.00    -0.000 C 
BRANCH  16  17
ATOM     17  C   UNL     1       6.913 -12.917  -1.893  1.00  0.00    -0.000 C 
BRANCH  17  18
ATOM     18  C   UNL     1       8.106 -12.939  -0.924  1.00  0.00    -0.003 C 
ATOM     19  C   UNL     1       8.412 -11.540  -0.398  1.00  0.00     0.004 C 
ENDBRANCH  17  18
ENDBRANCH  16  17
ENDBRANCH  15  16
ENDBRANCH  14  15
ENDBRANCH  13  14
ENDBRANCH  12  13
ENDBRANCH   1  12
TORSDOF 14
ENDMDL
MODEL 8
REMARK VINA RESULT:    -4.979      1.391      2.094
REMARK INTER + INTRA:         -10.490
REMARK INTER:                  -8.102
REMARK INTRA:                  -2.388
REMARK UNBOUND:                -1.436
REMARK SMILES CCCCCCCCCCCCCC[C@@H](C)C(=O)[O-]
REMARK SMILES IDX 9 1 10 2 11 3 12 4 13 5 14 6 15 7 16 8 17 9 18 10 19 11 8 12
REMARK SMILES IDX 7 13 6 14 5 15 4 16 3 17 2 18 1 19
REMARK H PARENT
REMARK Flexibility Score: inf
ROOT
ATOM      1  C   UNL     1       6.871 -13.084  -4.262  1.00  0.00     0.000 C 
ENDROOT
BRANCH   1   2
ATOM      2  C   UNL     1       5.362 -13.370  -4.386  1.00  0.00     0.000 C 
BRANCH   2   3
ATOM      3  C   UNL     1       4.677 -12.605  -5.539  1.00  0.00     0.000 C 
BRANCH   3   4
ATOM      4  C   UNL     1       3.837 -11.417  -5.038  1.00  0.00     0.000 C 
BRANCH   4   5
ATOM      5  C   UNL     1       4.375 -10.063  -5.530  1.00  0.00     0.001 C 
BRANCH   5   6
ATOM      6  C   UNL     1       4.735 -10.078  -7.027  1.00  0.00     0.009 C 
BRANCH   6   7
ATOM      7  C   UNL     1       3.870  -9.096  -7.842  1.00  0.00     0.032 C 
ATOM      8  C   UNL     1       2.399  -9.525  -7.819  1.00  0.00     0.014 C 
BRANCH   7   9
ATOM      9  C   UNL     1       3.996  -7.690  -7.319  1.00  0.00     0.044 C 
ATOM     10  O   UNL     1       2.984  -7.090  -6.870  1.00  0.00    -0.550 OA
ATOM     11  O   UNL     1       5.228  -7.047  -7.322  1.00  0.00    -0.550 OA
ENDBRANCH   7   9
ENDBRANCH   6   7
ENDBRANCH   5   6
ENDBRANCH   4   5
ENDBRANCH   3   4
ENDBRANCH   2   3
ENDBRANCH   1   2
BRANCH   1  12
ATOM     12  C   UNL     1       7.495 -13.476  -2.909  1.00  0.00     0.000 C 
BRANCH  12  13
ATOM     13  C   UNL     1       7.315 -12.439  -1.780  1.00  0.00    -0.000 C 
BRANCH  13  14
ATOM     14  C   UNL     1       7.273 -10.971  -2.243  1.00  0.00    -0.000 C 
BRANCH  14  15
ATOM     15  C   UNL     1       5.915 -10.301  -1.987  1.00  0.00    -0.000 C 
BRANCH  15  16
ATOM     16  C   UNL     1       5.128 -11.055  -0.905  1.00  0.00    -0.000 C 
BRANCH  16  17
ATOM     17  C   UNL     1       3.624 -11.133  -1.212  1.00  0.00    -0.000 C 
BRANCH  17  18
ATOM     18  C   UNL     1       3.173 -12.547  -1.607  1.00  0.00    -0.003 C 
ATOM     19  C   UNL     1       3.938 -13.607  -0.821  1.00  0.00     0.004 C 
ENDBRANCH  17  18
ENDBRANCH  16  17
ENDBRANCH  15  16
ENDBRANCH  14  15
ENDBRANCH  13  14
ENDBRANCH  12  13
ENDBRANCH   1  12
TORSDOF 14
ENDMDL
MODEL 9
REMARK VINA RESULT:    -4.966      2.711      7.070
REMARK INTER + INTRA:         -10.466
REMARK INTER:                  -8.612
REMARK INTRA:                  -1.853
REMARK UNBOUND:                -1.436
REMARK SMILES CCCCCCCCCCCCCC[C@@H](C)C(=O)[O-]
REMARK SMILES IDX 9 1 10 2 11 3 12 4 13 5 14 6 15 7 16 8 17 9 18 10 19 11 8 12
REMARK SMILES IDX 7 13 6 14 5 15 4 16 3 17 2 18 1 19
REMARK H PARENT
REMARK Flexibility Score: inf
ROOT
ATOM      1  C   UNL     1       3.310 -10.373  -5.357  1.00  0.00     0.000 C 
ENDROOT
BRANCH   1   2
ATOM      2  C   UNL     1       4.711 -10.918  -5.018  1.00  0.00     0.000 C 
BRANCH   2   3
ATOM      3  C   UNL     1       5.009 -12.297  -5.645  1.00  0.00     0.000 C 
BRANCH   3   4
ATOM      4  C   UNL     1       5.625 -13.281  -4.634  1.00  0.00     0.000 C 
BRANCH   4   5
ATOM      5  C   UNL     1       6.977 -12.797  -4.086  1.00  0.00     0.001 C 
BRANCH   5   6
ATOM      6  C   UNL     1       7.265 -13.327  -2.669  1.00  0.00     0.009 C 
BRANCH   6   7
ATOM      7  C   UNL     1       7.045 -12.247  -1.590  1.00  0.00     0.032 C 
ATOM      8  C   UNL     1       7.644 -10.909  -2.035  1.00  0.00     0.014 C 
BRANCH   7   9
ATOM      9  C   UNL     1       5.582 -12.070  -1.282  1.00  0.00     0.044 C 
ATOM     10  O   UNL     1       5.069 -10.920  -1.292  1.00  0.00    -0.550 OA
ATOM     11  O   UNL     1       4.787 -13.172  -0.991  1.00  0.00    -0.550 OA
ENDBRANCH   7   9
ENDBRANCH   6   7
ENDBRANCH   5   6
ENDBRANCH   4   5
ENDBRANCH   3   4
ENDBRANCH   2   3
ENDBRANCH   1   2
BRANCH   1  12
ATOM     12  C   UNL     1       2.908 -10.498  -6.839  1.00  0.00     0.000 C 
BRANCH  12  13
ATOM     13  C   UNL     1       1.893  -9.446  -7.333  1.00  0.00    -0.000 C 
BRANCH  13  14
ATOM     14  C   UNL     1       2.387  -8.550  -8.483  1.00  0.00    -0.000 C 
BRANCH  14  15
ATOM     15  C   UNL     1       3.774  -8.956  -9.004  1.00  0.00    -0.000 C 
BRANCH  15  16
ATOM     16  C   UNL     1       4.782  -7.812  -8.825  1.00  0.00    -0.000 C 
BRANCH  16  17
ATOM     17  C   UNL     1       5.300  -7.699  -7.383  1.00  0.00    -0.000 C 
BRANCH  17  18
ATOM     18  C   UNL     1       4.910  -6.371  -6.716  1.00  0.00    -0.003 C 
ATOM     19  C   UNL     1       3.843  -6.585  -5.647  1.00  0.00     0.004 C 
ENDBRANCH  17  18
ENDBRANCH  16  17
ENDBRANCH  15  16
ENDBRANCH  14  15
ENDBRANCH  13  14
ENDBRANCH  12  13
ENDBRANCH   1  12
TORSDOF 14
ENDMDL
