MODEL 1
REMARK VINA RESULT:    -3.936      0.000      0.000
REMARK INTER + INTRA:          -5.307
REMARK INTER:                  -5.547
REMARK INTRA:                   0.240
REMARK UNBOUND:                 0.240
REMARK SMILES CC1=CCC(=C(C)C)C(=O)CC(C)=CCC1
REMARK SMILES IDX 12 1 14 2 13 3 15 4 16 5 2 6 1 7 3 8 11 10 9 11 10 12 5 13
REMARK SMILES IDX 6 14 7 15 8 16 4 17
REMARK H PARENT
REMARK Flexibility Score: 60.00
ROOT
ATOM      1  C   UNL     1     -26.038  17.331 -30.579  1.00  0.00    -0.070 C 
ATOM      2  C   UNL     1     -27.215  17.474 -31.236  1.00  0.00    -0.027 C 
ATOM      3  C   UNL     1     -25.623  15.939 -30.172  1.00  0.00     0.039 C 
ENDROOT
BRANCH   2   4
ATOM      4  C   UNL     1     -27.801  18.789 -31.687  1.00  0.00     0.032 C 
BRANCH   4   5
ATOM      5  C   UNL     1     -27.494  19.052 -33.171  1.00  0.00     0.034 C 
BRANCH   5   6
ATOM      6  C   UNL     1     -27.290  20.519 -33.495  1.00  0.00    -0.077 C 
ATOM      7  C   UNL     1     -28.517  21.379 -33.660  1.00  0.00     0.039 C 
ATOM      8  C   UNL     1     -26.077  21.131 -33.489  1.00  0.00    -0.023 CG0
ATOM      9  G   UNL     1     -24.726  20.452 -33.440  1.00  0.00     0.000 G0
ENDBRANCH   5   6
ENDBRANCH   4   5
ENDBRANCH   2   4
BRANCH   1  10
ATOM     10  C   UNL     1     -25.118  18.498 -30.250  1.00  0.00     0.111 C 
BRANCH  10  11
ATOM     11  C   UNL     1     -24.234  18.857 -31.421  1.00  0.00     0.163 C 
ATOM     12  O   UNL     1     -23.510  17.935 -31.889  1.00  0.00    -0.294 OA
BRANCH  11  13
ATOM     13  C   UNL     1     -24.166  20.233 -32.033  1.00  0.00    -0.002 C 
ATOM     14  C   UNL     1     -23.623  21.288 -31.344  1.00  0.00    -0.069 C 
ATOM     15  C   UNL     1     -23.625  22.693 -31.914  1.00  0.00     0.039 C 
ATOM     16  C   UNL     1     -22.944  21.107 -30.005  1.00  0.00     0.039 C 
BRANCH  13  17
ATOM     17  C   UNL     1     -24.719  20.449 -33.440  1.00  0.00     0.066 CG0
ATOM     18  G   UNL     1     -26.069  21.130 -33.484  1.00  0.00     0.000 G0
ENDBRANCH  13  17
ENDBRANCH  11  13
ENDBRANCH  10  11
ENDBRANCH   1  10
TORSDOF 0
ENDMDL
MODEL 2
REMARK VINA RESULT:    -3.897     11.125     13.420
REMARK INTER + INTRA:          -5.252
REMARK INTER:                  -5.533
REMARK INTRA:                   0.281
REMARK UNBOUND:                 0.240
REMARK SMILES CC1=CCC(=C(C)C)C(=O)CC(C)=CCC1
REMARK SMILES IDX 12 1 14 2 13 3 15 4 16 5 2 6 1 7 3 8 11 10 9 11 10 12 5 13
REMARK SMILES IDX 6 14 7 15 8 16 4 17
REMARK H PARENT
REMARK Flexibility Score: 60.00
ROOT
ATOM      1  C   UNL     1     -12.920  15.028 -31.091  1.00  0.00    -0.070 C 
ATOM      2  C   UNL     1     -12.115  15.152 -30.007  1.00  0.00    -0.027 C 
ATOM      3  C   UNL     1     -12.881  16.122 -32.128  1.00  0.00     0.039 C 
ENDROOT
BRANCH   2   4
ATOM      4  C   UNL     1     -12.049  14.175 -28.861  1.00  0.00     0.032 C 
BRANCH   4   5
ATOM      5  C   UNL     1     -13.138  14.474 -27.815  1.00  0.00     0.034 C 
BRANCH   5   6
ATOM      6  C   UNL     1     -14.005  13.276 -27.486  1.00  0.00    -0.077 C 
ATOM      7  C   UNL     1     -13.406  12.190 -26.627  1.00  0.00     0.039 C 
ATOM      8  C   UNL     1     -15.327  13.197 -27.785  1.00  0.00    -0.023 CG0
ATOM      9  G   UNL     1     -16.098  14.115 -28.707  1.00  0.00     0.000 G0
ENDBRANCH   5   6
ENDBRANCH   4   5
ENDBRANCH   2   4
BRANCH   1  10
ATOM     10  C   UNL     1     -13.842  13.836 -31.314  1.00  0.00     0.111 C 
BRANCH  10  11
ATOM     11  C   UNL     1     -15.295  14.226 -31.180  1.00  0.00     0.163 C 
ATOM     12  O   UNL     1     -15.730  15.086 -31.994  1.00  0.00    -0.294 OA
BRANCH  11  13
ATOM     13  C   UNL     1     -16.224  13.659 -30.137  1.00  0.00    -0.002 C 
ATOM     14  C   UNL     1     -17.182  12.734 -30.468  1.00  0.00    -0.069 C 
ATOM     15  C   UNL     1     -18.177  12.221 -29.446  1.00  0.00     0.039 C 
ATOM     16  C   UNL     1     -17.271  12.134 -31.854  1.00  0.00     0.039 C 
BRANCH  13  17
ATOM     17  C   UNL     1     -16.095  14.133 -28.691  1.00  0.00     0.066 CG0
ATOM     18  G   UNL     1     -15.328  13.191 -27.790  1.00  0.00     0.000 G0
ENDBRANCH  13  17
ENDBRANCH  11  13
ENDBRANCH  10  11
ENDBRANCH   1  10
TORSDOF 0
ENDMDL
MODEL 3
REMARK VINA RESULT:    -3.887      1.478      3.783
REMARK INTER + INTRA:          -5.237
REMARK INTER:                  -5.968
REMARK INTRA:                   0.731
REMARK UNBOUND:                 0.240
REMARK SMILES CC1=CCC(=C(C)C)C(=O)CC(C)=CCC1
REMARK SMILES IDX 12 1 14 2 13 3 15 4 16 5 2 6 1 7 3 8 11 10 9 11 10 12 5 13
REMARK SMILES IDX 6 14 7 15 8 16 4 17
REMARK H PARENT
REMARK Flexibility Score: 60.00
ROOT
ATOM      1  C   UNL     1     -24.504  17.769 -30.862  1.00  0.00    -0.070 C 
ATOM      2  C   UNL     1     -23.318  18.424 -30.819  1.00  0.00    -0.027 C 
ATOM      3  C   UNL     1     -24.497  16.324 -31.291  1.00  0.00     0.039 C 
ENDROOT
BRANCH   2   4
ATOM      4  C   UNL     1     -23.143  19.875 -30.448  1.00  0.00     0.032 C 
BRANCH   4   5
ATOM      5  C   UNL     1     -22.883  20.739 -31.695  1.00  0.00     0.034 C 
BRANCH   5   6
ATOM      6  C   UNL     1     -24.037  21.656 -32.045  1.00  0.00    -0.077 C 
ATOM      7  C   UNL     1     -23.938  23.101 -31.626  1.00  0.00     0.039 C 
ATOM      8  C   UNL     1     -25.074  21.293 -32.844  1.00  0.00    -0.023 CG0
ATOM      9  G   UNL     1     -25.416  19.889 -33.292  1.00  0.00     0.000 G0
ENDBRANCH   5   6
ENDBRANCH   4   5
ENDBRANCH   2   4
BRANCH   1  10
ATOM     10  C   UNL     1     -25.830  18.417 -30.486  1.00  0.00     0.111 C 
BRANCH  10  11
ATOM     11  C   UNL     1     -26.807  18.394 -31.638  1.00  0.00     0.163 C 
ATOM     12  O   UNL     1     -27.677  17.480 -31.627  1.00  0.00    -0.294 OA
BRANCH  11  13
ATOM     13  C   UNL     1     -26.782  19.378 -32.781  1.00  0.00    -0.002 C 
ATOM     14  C   UNL     1     -27.945  19.810 -33.368  1.00  0.00    -0.069 C 
ATOM     15  C   UNL     1     -27.930  20.732 -34.571  1.00  0.00     0.039 C 
ATOM     16  C   UNL     1     -29.305  19.437 -32.822  1.00  0.00     0.039 C 
BRANCH  13  17
ATOM     17  C   UNL     1     -25.438  19.891 -33.291  1.00  0.00     0.066 CG0
ATOM     18  G   UNL     1     -25.086  21.289 -32.831  1.00  0.00     0.000 G0
ENDBRANCH  13  17
ENDBRANCH  11  13
ENDBRANCH  10  11
ENDBRANCH   1  10
TORSDOF 0
ENDMDL
MODEL 4
REMARK VINA RESULT:    -3.878     11.225     13.157
REMARK INTER + INTRA:          -5.226
REMARK INTER:                  -5.288
REMARK INTRA:                   0.063
REMARK UNBOUND:                 0.240
REMARK SMILES CC1=CCC(=C(C)C)C(=O)CC(C)=CCC1
REMARK SMILES IDX 12 1 14 2 13 3 15 4 16 5 2 6 1 7 3 8 11 10 9 11 10 12 5 13
REMARK SMILES IDX 6 14 7 15 8 16 4 17
REMARK H PARENT
REMARK Flexibility Score: 60.00
ROOT
ATOM      1  C   UNL     1     -14.395  14.705 -31.009  1.00  0.00    -0.070 C 
ATOM      2  C   UNL     1     -15.663  14.546 -31.459  1.00  0.00    -0.027 C 
ATOM      3  C   UNL     1     -13.616  15.899 -31.503  1.00  0.00     0.039 C 
ENDROOT
BRANCH   2   4
ATOM      4  C   UNL     1     -16.572  13.398 -31.100  1.00  0.00     0.032 C 
BRANCH   4   5
ATOM      5  C   UNL     1     -17.296  13.660 -29.767  1.00  0.00     0.034 C 
BRANCH   5   6
ATOM      6  C   UNL     1     -17.443  12.423 -28.905  1.00  0.00    -0.077 C 
ATOM      7  C   UNL     1     -18.337  11.318 -29.409  1.00  0.00     0.039 C 
ATOM      8  C   UNL     1     -16.700  12.187 -27.793  1.00  0.00    -0.023 CG0
ATOM      9  G   UNL     1     -15.824  13.183 -27.067  1.00  0.00     0.000 G0
ENDBRANCH   5   6
ENDBRANCH   4   5
ENDBRANCH   2   4
BRANCH   1  10
ATOM     10  C   UNL     1     -13.731  13.751 -30.026  1.00  0.00     0.111 C 
BRANCH  10  11
ATOM     11  C   UNL     1     -13.969  14.173 -28.595  1.00  0.00     0.163 C 
ATOM     12  O   UNL     1     -13.810  15.396 -28.330  1.00  0.00    -0.294 OA
BRANCH  11  13
ATOM     13  C   UNL     1     -14.363  13.223 -27.493  1.00  0.00    -0.002 C 
ATOM     14  C   UNL     1     -13.438  12.395 -26.907  1.00  0.00    -0.069 C 
ATOM     15  C   UNL     1     -13.837  11.377 -25.858  1.00  0.00     0.039 C 
ATOM     16  C   UNL     1     -11.963  12.485 -27.231  1.00  0.00     0.039 C 
BRANCH  13  17
ATOM     17  C   UNL     1     -15.818  13.182 -27.032  1.00  0.00     0.066 CG0
ATOM     18  G   UNL     1     -16.688  12.204 -27.791  1.00  0.00     0.000 G0
ENDBRANCH  13  17
ENDBRANCH  11  13
ENDBRANCH  10  11
ENDBRANCH   1  10
TORSDOF 0
ENDMDL
MODEL 5
REMARK VINA RESULT:    -3.786     11.563     13.896
REMARK INTER + INTRA:          -5.095
REMARK INTER:                  -5.253
REMARK INTRA:                   0.158
REMARK UNBOUND:                 0.240
REMARK SMILES CC1=CCC(=C(C)C)C(=O)CC(C)=CCC1
REMARK SMILES IDX 12 1 14 2 13 3 15 4 16 5 2 6 1 7 3 8 11 10 9 11 10 12 5 13
REMARK SMILES IDX 6 14 7 15 8 16 4 17
REMARK H PARENT
REMARK Flexibility Score: 60.00
ROOT
ATOM      1  C   UNL     1     -13.927  14.822 -29.938  1.00  0.00    -0.070 C 
ATOM      2  C   UNL     1     -13.250  15.121 -28.803  1.00  0.00    -0.027 C 
ATOM      3  C   UNL     1     -14.767  15.907 -30.565  1.00  0.00     0.039 C 
ENDROOT
BRANCH   2   4
ATOM      4  C   UNL     1     -12.392  14.155 -28.025  1.00  0.00     0.032 C 
BRANCH   4   5
ATOM      5  C   UNL     1     -13.005  13.856 -26.646  1.00  0.00     0.034 C 
BRANCH   5   6
ATOM      6  C   UNL     1     -13.598  12.466 -26.536  1.00  0.00    -0.077 C 
ATOM      7  C   UNL     1     -12.763  11.396 -25.878  1.00  0.00     0.039 C 
ATOM      8  C   UNL     1     -14.885  12.168 -26.850  1.00  0.00    -0.023 CG0
ATOM      9  G   UNL     1     -15.857  13.052 -27.601  1.00  0.00     0.000 G0
ENDBRANCH   5   6
ENDBRANCH   4   5
ENDBRANCH   2   4
BRANCH   1  10
ATOM     10  C   UNL     1     -13.866  13.458 -30.612  1.00  0.00     0.111 C 
BRANCH  10  11
ATOM     11  C   UNL     1     -14.689  12.433 -29.868  1.00  0.00     0.163 C 
ATOM     12  O   UNL     1     -14.283  11.239 -29.911  1.00  0.00    -0.294 OA
BRANCH  11  13
ATOM     13  C   UNL     1     -15.948  12.759 -29.106  1.00  0.00    -0.002 C 
ATOM     14  C   UNL     1     -17.165  12.811 -29.738  1.00  0.00    -0.069 C 
ATOM     15  C   UNL     1     -18.425  13.219 -29.001  1.00  0.00     0.039 C 
ATOM     16  C   UNL     1     -17.332  12.415 -31.188  1.00  0.00     0.039 C 
BRANCH  13  17
ATOM     17  C   UNL     1     -15.858  13.041 -27.607  1.00  0.00     0.066 CG0
ATOM     18  G   UNL     1     -14.899  12.143 -26.858  1.00  0.00     0.000 G0
ENDBRANCH  13  17
ENDBRANCH  11  13
ENDBRANCH  10  11
ENDBRANCH   1  10
TORSDOF 0
ENDMDL
MODEL 6
REMARK VINA RESULT:    -3.671     11.870     13.750
REMARK INTER + INTRA:          -4.933
REMARK INTER:                  -5.142
REMARK INTRA:                   0.208
REMARK UNBOUND:                 0.240
REMARK SMILES CC1=CCC(=C(C)C)C(=O)CC(C)=CCC1
REMARK SMILES IDX 12 1 14 2 13 3 15 4 16 5 2 6 1 7 3 8 11 10 9 11 10 12 5 13
REMARK SMILES IDX 6 14 7 15 8 16 4 17
REMARK H PARENT
REMARK Flexibility Score: 60.00
ROOT
ATOM      1  C   UNL     1     -12.598  13.684 -27.933  1.00  0.00    -0.070 C 
ATOM      2  C   UNL     1     -11.842  14.622 -28.554  1.00  0.00    -0.027 C 
ATOM      3  C   UNL     1     -13.166  14.021 -26.577  1.00  0.00     0.039 C 
ENDROOT
BRANCH   2   4
ATOM      4  C   UNL     1     -11.169  14.446 -29.892  1.00  0.00     0.032 C 
BRANCH   4   5
ATOM      5  C   UNL     1     -11.743  15.423 -30.933  1.00  0.00     0.034 C 
BRANCH   5   6
ATOM      6  C   UNL     1     -12.620  14.753 -31.972  1.00  0.00    -0.077 C 
ATOM      7  C   UNL     1     -11.981  14.354 -33.279  1.00  0.00     0.039 C 
ATOM      8  C   UNL     1     -13.896  14.353 -31.736  1.00  0.00    -0.023 CG0
ATOM      9  G   UNL     1     -14.752  14.728 -30.547  1.00  0.00     0.000 G0
ENDBRANCH   5   6
ENDBRANCH   4   5
ENDBRANCH   2   4
BRANCH   1  10
ATOM     10  C   UNL     1     -12.910  12.324 -28.543  1.00  0.00     0.111 C 
BRANCH  10  11
ATOM     11  C   UNL     1     -14.039  12.410 -29.544  1.00  0.00     0.163 C 
ATOM     12  O   UNL     1     -14.126  11.471 -30.382  1.00  0.00    -0.294 OA
BRANCH  11  13
ATOM     13  C   UNL     1     -15.033  13.542 -29.595  1.00  0.00    -0.002 C 
ATOM     14  C   UNL     1     -16.159  13.533 -28.810  1.00  0.00    -0.069 C 
ATOM     15  C   UNL     1     -17.207  14.622 -28.914  1.00  0.00     0.039 C 
ATOM     16  C   UNL     1     -16.396  12.468 -27.762  1.00  0.00     0.039 C 
BRANCH  13  17
ATOM     17  C   UNL     1     -14.778  14.712 -30.543  1.00  0.00     0.066 CG0
ATOM     18  G   UNL     1     -13.910  14.374 -31.735  1.00  0.00     0.000 G0
ENDBRANCH  13  17
ENDBRANCH  11  13
ENDBRANCH  10  11
ENDBRANCH   1  10
TORSDOF 0
ENDMDL
MODEL 7
REMARK VINA RESULT:    -3.562     11.666     13.792
REMARK INTER + INTRA:          -4.780
REMARK INTER:                  -5.126
REMARK INTRA:                   0.346
REMARK UNBOUND:                 0.240
REMARK SMILES CC1=CCC(=C(C)C)C(=O)CC(C)=CCC1
REMARK SMILES IDX 12 1 14 2 13 3 15 4 16 5 2 6 1 7 3 8 11 10 9 11 10 12 5 13
REMARK SMILES IDX 6 14 7 15 8 16 4 17
REMARK H PARENT
REMARK Flexibility Score: 60.00
ROOT
ATOM      1  C   UNL     1     -14.650  15.038 -31.798  1.00  0.00    -0.070 C 
ATOM      2  C   UNL     1     -13.396  14.970 -32.309  1.00  0.00    -0.027 C 
ATOM      3  C   UNL     1     -15.750  14.308 -32.528  1.00  0.00     0.039 C 
ENDROOT
BRANCH   2   4
ATOM      4  C   UNL     1     -12.188  15.663 -31.732  1.00  0.00     0.032 C 
BRANCH   4   5
ATOM      5  C   UNL     1     -11.713  14.969 -30.444  1.00  0.00     0.034 C 
BRANCH   5   6
ATOM      6  C   UNL     1     -11.923  13.468 -30.453  1.00  0.00    -0.077 C 
ATOM      7  C   UNL     1     -11.088  12.647 -31.403  1.00  0.00     0.039 C 
ATOM      8  C   UNL     1     -12.700  12.810 -29.554  1.00  0.00    -0.023 CG0
ATOM      9  G   UNL     1     -13.684  13.432 -28.589  1.00  0.00     0.000 G0
ENDBRANCH   5   6
ENDBRANCH   4   5
ENDBRANCH   2   4
BRANCH   1  10
ATOM     10  C   UNL     1     -14.993  15.799 -30.524  1.00  0.00     0.111 C 
BRANCH  10  11
ATOM     11  C   UNL     1     -15.654  14.904 -29.503  1.00  0.00     0.163 C 
ATOM     12  O   UNL     1     -16.702  15.344 -28.955  1.00  0.00    -0.294 OA
BRANCH  11  13
ATOM     13  C   UNL     1     -15.126  13.548 -29.106  1.00  0.00    -0.002 C 
ATOM     14  C   UNL     1     -15.911  12.427 -29.202  1.00  0.00    -0.069 C 
ATOM     15  C   UNL     1     -15.421  11.073 -28.728  1.00  0.00     0.039 C 
ATOM     16  C   UNL     1     -17.286  12.462 -29.832  1.00  0.00     0.039 C 
BRANCH  13  17
ATOM     17  C   UNL     1     -13.696  13.431 -28.584  1.00  0.00     0.066 CG0
ATOM     18  G   UNL     1     -12.717  12.830 -29.569  1.00  0.00     0.000 G0
ENDBRANCH  13  17
ENDBRANCH  11  13
ENDBRANCH  10  11
ENDBRANCH   1  10
TORSDOF 0
ENDMDL
MODEL 8
REMARK VINA RESULT:    -3.538     11.727     13.661
REMARK INTER + INTRA:          -4.746
REMARK INTER:                  -4.968
REMARK INTRA:                   0.222
REMARK UNBOUND:                 0.240
REMARK SMILES CC1=CCC(=C(C)C)C(=O)CC(C)=CCC1
REMARK SMILES IDX 12 1 14 2 13 3 15 4 16 5 2 6 1 7 3 8 11 10 9 11 10 12 5 13
REMARK SMILES IDX 6 14 7 15 8 16 4 17
REMARK H PARENT
REMARK Flexibility Score: 60.00
ROOT
ATOM      1  C   UNL     1     -16.636  12.939 -28.399  1.00  0.00    -0.070 C 
ATOM      2  C   UNL     1     -16.059  12.957 -27.172  1.00  0.00    -0.027 C 
ATOM      3  C   UNL     1     -17.749  13.919 -28.669  1.00  0.00     0.039 C 
ENDROOT
BRANCH   2   4
ATOM      4  C   UNL     1     -14.960  12.030 -26.718  1.00  0.00     0.032 C 
BRANCH   4   5
ATOM      5  C   UNL     1     -13.678  12.812 -26.381  1.00  0.00     0.034 C 
BRANCH   5   6
ATOM      6  C   UNL     1     -12.566  12.612 -27.390  1.00  0.00    -0.077 C 
ATOM      7  C   UNL     1     -11.510  11.582 -27.078  1.00  0.00     0.039 C 
ATOM      8  C   UNL     1     -12.550  13.190 -28.620  1.00  0.00    -0.023 CG0
ATOM      9  G   UNL     1     -13.445  14.311 -29.100  1.00  0.00     0.000 G0
ENDBRANCH   5   6
ENDBRANCH   4   5
ENDBRANCH   2   4
BRANCH   1  10
ATOM     10  C   UNL     1     -16.205  11.991 -29.511  1.00  0.00     0.111 C 
BRANCH  10  11
ATOM     11  C   UNL     1     -14.955  12.480 -30.204  1.00  0.00     0.163 C 
ATOM     12  O   UNL     1     -14.287  11.621 -30.842  1.00  0.00    -0.294 OA
BRANCH  11  13
ATOM     13  C   UNL     1     -14.472  13.907 -30.159  1.00  0.00    -0.002 C 
ATOM     14  C   UNL     1     -14.926  14.838 -31.059  1.00  0.00    -0.069 C 
ATOM     15  C   UNL     1     -14.386  16.254 -31.078  1.00  0.00     0.039 C 
ATOM     16  C   UNL     1     -16.026  14.525 -32.049  1.00  0.00     0.039 C 
BRANCH  13  17
ATOM     17  C   UNL     1     -13.455  14.315 -29.094  1.00  0.00     0.066 CG0
ATOM     18  G   UNL     1     -12.552  13.194 -28.630  1.00  0.00     0.000 G0
ENDBRANCH  13  17
ENDBRANCH  11  13
ENDBRANCH  10  11
ENDBRANCH   1  10
TORSDOF 0
ENDMDL
MODEL 9
REMARK VINA RESULT:    -3.460     11.198     13.010
REMARK INTER + INTRA:          -4.636
REMARK INTER:                  -5.109
REMARK INTRA:                   0.474
REMARK UNBOUND:                 0.240
REMARK SMILES CC1=CCC(=C(C)C)C(=O)CC(C)=CCC1
REMARK SMILES IDX 12 1 14 2 13 3 15 4 16 5 2 6 1 7 3 8 11 10 9 11 10 12 5 13
REMARK SMILES IDX 6 14 7 15 8 16 4 17
REMARK H PARENT
REMARK Flexibility Score: 60.00
ROOT
ATOM      1  C   UNL     1     -15.260  14.900 -30.885  1.00  0.00    -0.070 C 
ATOM      2  C   UNL     1     -16.385  14.173 -31.093  1.00  0.00    -0.027 C 
ATOM      3  C   UNL     1     -15.392  16.207 -30.144  1.00  0.00     0.039 C 
ENDROOT
BRANCH   2   4
ATOM      4  C   UNL     1     -16.445  12.866 -31.842  1.00  0.00     0.032 C 
BRANCH   4   5
ATOM      5  C   UNL     1     -17.016  11.745 -30.955  1.00  0.00     0.034 C 
BRANCH   5   6
ATOM      6  C   UNL     1     -17.105  12.120 -29.489  1.00  0.00    -0.077 C 
ATOM      7  C   UNL     1     -18.450  12.538 -28.951  1.00  0.00     0.039 C 
ATOM      8  C   UNL     1     -16.088  11.952 -28.605  1.00  0.00    -0.023 CG0
ATOM      9  G   UNL     1     -14.646  11.639 -28.940  1.00  0.00     0.000 G0
ENDBRANCH   5   6
ENDBRANCH   4   5
ENDBRANCH   2   4
BRANCH   1  10
ATOM     10  C   UNL     1     -13.880  14.456 -31.351  1.00  0.00     0.111 C 
BRANCH  10  11
ATOM     11  C   UNL     1     -13.444  13.184 -30.661  1.00  0.00     0.163 C 
ATOM     12  O   UNL     1     -12.783  12.361 -31.353  1.00  0.00    -0.294 OA
BRANCH  11  13
ATOM     13  C   UNL     1     -13.766  12.853 -29.226  1.00  0.00    -0.002 C 
ATOM     14  C   UNL     1     -13.283  13.620 -28.196  1.00  0.00    -0.069 C 
ATOM     15  C   UNL     1     -13.529  13.249 -26.748  1.00  0.00     0.039 C 
ATOM     16  C   UNL     1     -12.524  14.905 -28.443  1.00  0.00     0.039 C 
BRANCH  13  17
ATOM     17  C   UNL     1     -14.640  11.638 -28.922  1.00  0.00     0.066 CG0
ATOM     18  G   UNL     1     -16.083  11.967 -28.607  1.00  0.00     0.000 G0
ENDBRANCH  13  17
ENDBRANCH  11  13
ENDBRANCH  10  11
ENDBRANCH   1  10
TORSDOF 0
ENDMDL
