MODEL 1
REMARK VINA RESULT:    -7.609      0.000      0.000
REMARK INTER + INTRA:          -9.336
REMARK INTER:                  -9.165
REMARK INTRA:                  -0.171
REMARK UNBOUND:                -0.171
REMARK SMILES O=c1c(O)c(-c2ccc(O)c(O)c2)oc2cc(O)cc(O)c12
REMARK SMILES IDX 5 1 3 2 2 3 1 4 22 5 20 6 19 7 17 8 16 9 15 10 14 11 6 12
REMARK SMILES IDX 7 13 8 14 9 15 13 16 11 17 10 18 12 20 4 22 21 24 18 26
REMARK H PARENT 10 19 12 21 4 23 21 25 18 27
REMARK Flexibility Score: inf
ROOT
ATOM      1  C   UNL     1      35.460   1.351  -3.682  1.00  0.00     0.180 A 
ATOM      2  C   UNL     1      34.634   2.485  -3.561  1.00  0.00     0.208 A 
ATOM      3  C   UNL     1      35.202   3.695  -3.132  1.00  0.00     0.238 A 
ATOM      4  O   UNL     1      34.475   4.720  -3.030  1.00  0.00    -0.285 OA
ATOM      5  C   UNL     1      36.575   3.746  -2.814  1.00  0.00     0.111 A 
ATOM      6  C   UNL     1      37.223   4.924  -2.372  1.00  0.00     0.134 A 
ATOM      7  C   UNL     1      38.592   4.893  -2.066  1.00  0.00     0.093 A 
ATOM      8  C   UNL     1      39.323   3.706  -2.194  1.00  0.00     0.123 A 
ATOM      9  C   UNL     1      38.688   2.543  -2.630  1.00  0.00     0.094 A 
ATOM     10  C   UNL     1      37.326   2.554  -2.941  1.00  0.00     0.146 A 
ATOM     11  O   UNL     1      36.748   1.434  -3.359  1.00  0.00    -0.452 OA
ENDROOT
BRANCH   1  12
ATOM     12  C   UNL     1      34.939   0.044  -4.145  1.00  0.00     0.025 A 
ATOM     13  C   UNL     1      33.997  -0.675  -3.393  1.00  0.00     0.016 A 
ATOM     14  C   UNL     1      33.502  -1.892  -3.861  1.00  0.00     0.051 A 
ATOM     15  C   UNL     1      33.924  -2.411  -5.090  1.00  0.00     0.157 A 
ATOM     16  C   UNL     1      35.348  -0.462  -5.388  1.00  0.00     0.062 A 
ATOM     17  C   UNL     1      34.856  -1.683  -5.866  1.00  0.00     0.158 A 
BRANCH  15  18
ATOM     18  O   UNL     1      33.394  -3.636  -5.498  1.00  0.00    -0.504 OA
ATOM     19  H   UNL     1      32.888  -3.773  -6.361  1.00  0.00     0.293 HD
ENDBRANCH  15  18
BRANCH  17  20
ATOM     20  O   UNL     1      35.317  -2.132  -7.106  1.00  0.00    -0.504 OA
ATOM     21  H   UNL     1      34.736  -2.222  -7.927  1.00  0.00     0.293 HD
ENDBRANCH  17  20
ENDBRANCH   1  12
BRANCH   2  22
ATOM     22  O   UNL     1      33.267   2.395  -3.834  1.00  0.00    -0.502 OA
ATOM     23  H   UNL     1      32.731   1.555  -3.651  1.00  0.00     0.293 HD
ENDBRANCH   2  22
BRANCH   6  24
ATOM     24  O   UNL     1      36.521   6.123  -2.234  1.00  0.00    -0.507 OA
ATOM     25  H   UNL     1      35.909   6.294  -1.445  1.00  0.00     0.293 HD
ENDBRANCH   6  24
BRANCH   8  26
ATOM     26  O   UNL     1      40.682   3.674  -1.889  1.00  0.00    -0.508 OA
ATOM     27  H   UNL     1      41.010   3.652  -0.931  1.00  0.00     0.293 HD
ENDBRANCH   8  26
TORSDOF 6
ENDMDL
MODEL 2
REMARK VINA RESULT:    -7.517      3.208      8.108
REMARK INTER + INTRA:          -9.226
REMARK INTER:                  -8.914
REMARK INTRA:                  -0.313
REMARK UNBOUND:                -0.171
REMARK SMILES O=c1c(O)c(-c2ccc(O)c(O)c2)oc2cc(O)cc(O)c12
REMARK SMILES IDX 5 1 3 2 2 3 1 4 22 5 20 6 19 7 17 8 16 9 15 10 14 11 6 12
REMARK SMILES IDX 7 13 8 14 9 15 13 16 11 17 10 18 12 20 4 22 21 24 18 26
REMARK H PARENT 10 19 12 21 4 23 21 25 18 27
REMARK Flexibility Score: inf
ROOT
ATOM      1  C   UNL     1      38.893   4.182  -1.149  1.00  0.00     0.180 A 
ATOM      2  C   UNL     1      38.902   2.945  -1.825  1.00  0.00     0.208 A 
ATOM      3  C   UNL     1      37.768   2.565  -2.559  1.00  0.00     0.238 A 
ATOM      4  O   UNL     1      37.769   1.466  -3.177  1.00  0.00    -0.285 OA
ATOM      5  C   UNL     1      36.641   3.413  -2.590  1.00  0.00     0.111 A 
ATOM      6  C   UNL     1      35.458   3.102  -3.303  1.00  0.00     0.134 A 
ATOM      7  C   UNL     1      34.375   3.994  -3.277  1.00  0.00     0.093 A 
ATOM      8  C   UNL     1      34.453   5.188  -2.552  1.00  0.00     0.123 A 
ATOM      9  C   UNL     1      35.618   5.499  -1.849  1.00  0.00     0.094 A 
ATOM     10  C   UNL     1      36.708   4.624  -1.863  1.00  0.00     0.146 A 
ATOM     11  O   UNL     1      37.806   4.947  -1.189  1.00  0.00    -0.452 OA
ENDROOT
BRANCH   1  12
ATOM     12  C   UNL     1      40.056   4.660  -0.368  1.00  0.00     0.025 A 
ATOM     13  C   UNL     1      41.159   5.260  -0.995  1.00  0.00     0.016 A 
ATOM     14  C   UNL     1      42.234   5.727  -0.236  1.00  0.00     0.051 A 
ATOM     15  C   UNL     1      42.225   5.617   1.159  1.00  0.00     0.157 A 
ATOM     16  C   UNL     1      40.034   4.569   1.031  1.00  0.00     0.062 A 
ATOM     17  C   UNL     1      41.107   5.034   1.802  1.00  0.00     0.158 A 
BRANCH  15  18
ATOM     18  O   UNL     1      43.332   6.098   1.859  1.00  0.00    -0.504 OA
ATOM     19  H   UNL     1      43.900   5.534   2.474  1.00  0.00     0.293 HD
ENDBRANCH  15  18
BRANCH  17  20
ATOM     20  O   UNL     1      41.022   4.898   3.189  1.00  0.00    -0.504 OA
ATOM     21  H   UNL     1      41.702   4.408   3.752  1.00  0.00     0.293 HD
ENDBRANCH  17  20
ENDBRANCH   1  12
BRANCH   2  22
ATOM     22  O   UNL     1      40.012   2.102  -1.737  1.00  0.00    -0.502 OA
ATOM     23  H   UNL     1      40.340   1.727  -0.855  1.00  0.00     0.293 HD
ENDBRANCH   2  22
BRANCH   6  24
ATOM     24  O   UNL     1      35.351   1.918  -4.034  1.00  0.00    -0.507 OA
ATOM     25  H   UNL     1      35.784   1.057  -3.721  1.00  0.00     0.293 HD
ENDBRANCH   6  24
BRANCH   8  26
ATOM     26  O   UNL     1      33.378   6.073  -2.525  1.00  0.00    -0.508 OA
ATOM     27  H   UNL     1      33.425   6.949  -2.020  1.00  0.00     0.293 HD
ENDBRANCH   8  26
TORSDOF 6
ENDMDL
MODEL 3
REMARK VINA RESULT:    -7.359      1.384      1.749
REMARK INTER + INTRA:          -9.036
REMARK INTER:                  -9.559
REMARK INTRA:                   0.523
REMARK UNBOUND:                -0.171
REMARK SMILES O=c1c(O)c(-c2ccc(O)c(O)c2)oc2cc(O)cc(O)c12
REMARK SMILES IDX 5 1 3 2 2 3 1 4 22 5 20 6 19 7 17 8 16 9 15 10 14 11 6 12
REMARK SMILES IDX 7 13 8 14 9 15 13 16 11 17 10 18 12 20 4 22 21 24 18 26
REMARK H PARENT 10 19 12 21 4 23 21 25 18 27
REMARK Flexibility Score: inf
ROOT
ATOM      1  C   UNL     1      35.503   1.111  -3.744  1.00  0.00     0.180 A 
ATOM      2  C   UNL     1      34.293   1.832  -3.780  1.00  0.00     0.208 A 
ATOM      3  C   UNL     1      34.297   3.184  -3.405  1.00  0.00     0.238 A 
ATOM      4  O   UNL     1      33.223   3.843  -3.444  1.00  0.00    -0.285 OA
ATOM      5  C   UNL     1      35.501   3.787  -2.983  1.00  0.00     0.111 A 
ATOM      6  C   UNL     1      35.590   5.143  -2.586  1.00  0.00     0.134 A 
ATOM      7  C   UNL     1      36.823   5.666  -2.170  1.00  0.00     0.093 A 
ATOM      8  C   UNL     1      37.967   4.860  -2.143  1.00  0.00     0.123 A 
ATOM      9  C   UNL     1      37.884   3.523  -2.535  1.00  0.00     0.094 A 
ATOM     10  C   UNL     1      36.665   2.983  -2.954  1.00  0.00     0.146 A 
ATOM     11  O   UNL     1      36.615   1.709  -3.326  1.00  0.00    -0.452 OA
ENDROOT
BRANCH   1  12
ATOM     12  C   UNL     1      35.582  -0.313  -4.140  1.00  0.00     0.025 A 
ATOM     13  C   UNL     1      36.740  -1.072  -3.909  1.00  0.00     0.016 A 
ATOM     14  C   UNL     1      36.782  -2.420  -4.269  1.00  0.00     0.051 A 
ATOM     15  C   UNL     1      35.672  -3.040  -4.853  1.00  0.00     0.157 A 
ATOM     16  C   UNL     1      34.460  -0.937  -4.705  1.00  0.00     0.062 A 
ATOM     17  C   UNL     1      34.493  -2.288  -5.070  1.00  0.00     0.158 A 
BRANCH  15  18
ATOM     18  O   UNL     1      35.782  -4.389  -5.194  1.00  0.00    -0.504 OA
ATOM     19  H   UNL     1      36.531  -4.770  -5.753  1.00  0.00     0.293 HD
ENDBRANCH  15  18
BRANCH  17  20
ATOM     20  O   UNL     1      33.343  -2.840  -5.639  1.00  0.00    -0.504 OA
ATOM     21  H   UNL     1      33.283  -3.161  -6.594  1.00  0.00     0.293 HD
ENDBRANCH  17  20
ENDBRANCH   1  12
BRANCH   2  22
ATOM     22  O   UNL     1      33.105   1.198  -4.154  1.00  0.00    -0.502 OA
ATOM     23  H   UNL     1      32.451   1.614  -4.806  1.00  0.00     0.293 HD
ENDBRANCH   2  22
BRANCH   6  24
ATOM     24  O   UNL     1      34.467   5.971  -2.601  1.00  0.00    -0.507 OA
ATOM     25  H   UNL     1      34.387   6.749  -3.246  1.00  0.00     0.293 HD
ENDBRANCH   6  24
BRANCH   8  26
ATOM     26  O   UNL     1      39.191   5.379  -1.729  1.00  0.00    -0.508 OA
ATOM     27  H   UNL     1      39.968   4.776  -1.486  1.00  0.00     0.293 HD
ENDBRANCH   8  26
TORSDOF 6
ENDMDL
MODEL 4
REMARK VINA RESULT:    -7.138      1.928      3.506
REMARK INTER + INTRA:          -8.769
REMARK INTER:                  -8.575
REMARK INTRA:                  -0.193
REMARK UNBOUND:                -0.171
REMARK SMILES O=c1c(O)c(-c2ccc(O)c(O)c2)oc2cc(O)cc(O)c12
REMARK SMILES IDX 5 1 3 2 2 3 1 4 22 5 20 6 19 7 17 8 16 9 15 10 14 11 6 12
REMARK SMILES IDX 7 13 8 14 9 15 13 16 11 17 10 18 12 20 4 22 21 24 18 26
REMARK H PARENT 10 19 12 21 4 23 21 25 18 27
REMARK Flexibility Score: inf
ROOT
ATOM      1  C   UNL     1      36.229  -0.489  -3.784  1.00  0.00     0.180 A 
ATOM      2  C   UNL     1      37.473  -0.172  -3.203  1.00  0.00     0.208 A 
ATOM      3  C   UNL     1      37.798   1.176  -2.990  1.00  0.00     0.238 A 
ATOM      4  O   UNL     1      38.903   1.472  -2.460  1.00  0.00    -0.285 OA
ATOM      5  C   UNL     1      36.888   2.183  -3.378  1.00  0.00     0.111 A 
ATOM      6  C   UNL     1      37.141   3.564  -3.201  1.00  0.00     0.134 A 
ATOM      7  C   UNL     1      36.189   4.505  -3.621  1.00  0.00     0.093 A 
ATOM      8  C   UNL     1      34.992   4.091  -4.215  1.00  0.00     0.123 A 
ATOM      9  C   UNL     1      34.738   2.730  -4.390  1.00  0.00     0.094 A 
ATOM     10  C   UNL     1      35.673   1.777  -3.976  1.00  0.00     0.146 A 
ATOM     11  O   UNL     1      35.404   0.488  -4.150  1.00  0.00    -0.452 OA
ENDROOT
BRANCH   1  12
ATOM     12  C   UNL     1      35.807  -1.887  -4.025  1.00  0.00     0.025 A 
ATOM     13  C   UNL     1      35.588  -2.778  -2.962  1.00  0.00     0.016 A 
ATOM     14  C   UNL     1      35.166  -4.084  -3.212  1.00  0.00     0.051 A 
ATOM     15  C   UNL     1      34.941  -4.525  -4.521  1.00  0.00     0.157 A 
ATOM     16  C   UNL     1      35.561  -2.319  -5.337  1.00  0.00     0.062 A 
ATOM     17  C   UNL     1      35.137  -3.628  -5.598  1.00  0.00     0.158 A 
BRANCH  15  18
ATOM     18  O   UNL     1      34.525  -5.845  -4.703  1.00  0.00    -0.504 OA
ATOM     19  H   UNL     1      33.557  -6.132  -4.732  1.00  0.00     0.293 HD
ENDBRANCH  15  18
BRANCH  17  20
ATOM     20  O   UNL     1      34.925  -3.992  -6.929  1.00  0.00    -0.504 OA
ATOM     21  H   UNL     1      34.064  -3.827  -7.430  1.00  0.00     0.293 HD
ENDBRANCH  17  20
ENDBRANCH   1  12
BRANCH   2  22
ATOM     22  O   UNL     1      38.376  -1.185  -2.874  1.00  0.00    -0.502 OA
ATOM     23  H   UNL     1      38.705  -1.332  -1.927  1.00  0.00     0.293 HD
ENDBRANCH   2  22
BRANCH   6  24
ATOM     24  O   UNL     1      38.327   4.008  -2.613  1.00  0.00    -0.507 OA
ATOM     25  H   UNL     1      38.326   4.555  -1.760  1.00  0.00     0.293 HD
ENDBRANCH   6  24
BRANCH   8  26
ATOM     26  O   UNL     1      34.047   5.025  -4.633  1.00  0.00    -0.508 OA
ATOM     27  H   UNL     1      33.216   5.220  -4.088  1.00  0.00     0.293 HD
ENDBRANCH   8  26
TORSDOF 6
ENDMDL
MODEL 5
REMARK VINA RESULT:    -7.104      1.888      6.641
REMARK INTER + INTRA:          -8.728
REMARK INTER:                  -8.807
REMARK INTRA:                   0.078
REMARK UNBOUND:                -0.171
REMARK SMILES O=c1c(O)c(-c2ccc(O)c(O)c2)oc2cc(O)cc(O)c12
REMARK SMILES IDX 5 1 3 2 2 3 1 4 22 5 20 6 19 7 17 8 16 9 15 10 14 11 6 12
REMARK SMILES IDX 7 13 8 14 9 15 13 16 11 17 10 18 12 20 4 22 21 24 18 26
REMARK H PARENT 10 19 12 21 4 23 21 25 18 27
REMARK Flexibility Score: inf
ROOT
ATOM      1  C   UNL     1      35.843   1.120  -3.745  1.00  0.00     0.180 A 
ATOM      2  C   UNL     1      34.632   0.989  -4.454  1.00  0.00     0.208 A 
ATOM      3  C   UNL     1      34.227  -0.287  -4.873  1.00  0.00     0.238 A 
ATOM      4  O   UNL     1      33.140  -0.419  -5.498  1.00  0.00    -0.285 OA
ATOM      5  C   UNL     1      35.044  -1.404  -4.596  1.00  0.00     0.111 A 
ATOM      6  C   UNL     1      34.709  -2.723  -4.987  1.00  0.00     0.134 A 
ATOM      7  C   UNL     1      35.579  -3.781  -4.682  1.00  0.00     0.093 A 
ATOM      8  C   UNL     1      36.775  -3.544  -3.995  1.00  0.00     0.123 A 
ATOM      9  C   UNL     1      37.108  -2.245  -3.607  1.00  0.00     0.094 A 
ATOM     10  C   UNL     1      36.254  -1.179  -3.901  1.00  0.00     0.146 A 
ATOM     11  O   UNL     1      36.593   0.047  -3.515  1.00  0.00    -0.452 OA
ENDROOT
BRANCH   1  12
ATOM     12  C   UNL     1      36.329   2.430  -3.254  1.00  0.00     0.025 A 
ATOM     13  C   UNL     1      35.459   3.355  -2.656  1.00  0.00     0.016 A 
ATOM     14  C   UNL     1      35.945   4.573  -2.178  1.00  0.00     0.051 A 
ATOM     15  C   UNL     1      37.305   4.888  -2.275  1.00  0.00     0.157 A 
ATOM     16  C   UNL     1      37.696   2.733  -3.332  1.00  0.00     0.062 A 
ATOM     17  C   UNL     1      38.193   3.953  -2.856  1.00  0.00     0.158 A 
BRANCH  15  18
ATOM     18  O   UNL     1      37.725   6.124  -1.782  1.00  0.00    -0.504 OA
ATOM     19  H   UNL     1      37.468   6.488  -0.876  1.00  0.00     0.293 HD
ENDBRANCH  15  18
BRANCH  17  20
ATOM     20  O   UNL     1      39.564   4.192  -2.978  1.00  0.00    -0.504 OA
ATOM     21  H   UNL     1      40.251   3.471  -3.146  1.00  0.00     0.293 HD
ENDBRANCH  17  20
ENDBRANCH   1  12
BRANCH   2  22
ATOM     22  O   UNL     1      33.867   2.117  -4.758  1.00  0.00    -0.502 OA
ATOM     23  H   UNL     1      33.401   2.665  -4.045  1.00  0.00     0.293 HD
ENDBRANCH   2  22
BRANCH   6  24
ATOM     24  O   UNL     1      33.524  -2.990  -5.673  1.00  0.00    -0.507 OA
ATOM     25  H   UNL     1      32.625  -2.674  -5.328  1.00  0.00     0.293 HD
ENDBRANCH   6  24
BRANCH   8  26
ATOM     26  O   UNL     1      37.640  -4.594  -3.693  1.00  0.00    -0.508 OA
ATOM     27  H   UNL     1      37.457  -5.226  -2.924  1.00  0.00     0.293 HD
ENDBRANCH   8  26
TORSDOF 6
ENDMDL
MODEL 6
REMARK VINA RESULT:    -7.048      2.126      7.091
REMARK INTER + INTRA:          -8.660
REMARK INTER:                  -9.085
REMARK INTRA:                   0.424
REMARK UNBOUND:                -0.171
REMARK SMILES O=c1c(O)c(-c2ccc(O)c(O)c2)oc2cc(O)cc(O)c12
REMARK SMILES IDX 5 1 3 2 2 3 1 4 22 5 20 6 19 7 17 8 16 9 15 10 14 11 6 12
REMARK SMILES IDX 7 13 8 14 9 15 13 16 11 17 10 18 12 20 4 22 21 24 18 26
REMARK H PARENT 10 19 12 21 4 23 21 25 18 27
REMARK Flexibility Score: inf
ROOT
ATOM      1  C   UNL     1      36.064   0.493  -3.720  1.00  0.00     0.180 A 
ATOM      2  C   UNL     1      37.278  -0.097  -3.317  1.00  0.00     0.208 A 
ATOM      3  C   UNL     1      37.421  -1.490  -3.415  1.00  0.00     0.238 A 
ATOM      4  O   UNL     1      38.507  -2.028  -3.069  1.00  0.00    -0.285 OA
ATOM      5  C   UNL     1      36.346  -2.269  -3.892  1.00  0.00     0.111 A 
ATOM      6  C   UNL     1      36.407  -3.678  -4.018  1.00  0.00     0.134 A 
ATOM      7  C   UNL     1      35.291  -4.383  -4.493  1.00  0.00     0.093 A 
ATOM      8  C   UNL     1      34.117  -3.707  -4.842  1.00  0.00     0.123 A 
ATOM      9  C   UNL     1      34.052  -2.319  -4.721  1.00  0.00     0.094 A 
ATOM     10  C   UNL     1      35.154  -1.598  -4.251  1.00  0.00     0.146 A 
ATOM     11  O   UNL     1      35.067  -0.276  -4.150  1.00  0.00    -0.452 OA
ENDROOT
BRANCH   1  12
ATOM     12  C   UNL     1      35.843   1.956  -3.663  1.00  0.00     0.025 A 
ATOM     13  C   UNL     1      36.904   2.847  -3.436  1.00  0.00     0.016 A 
ATOM     14  C   UNL     1      36.675   4.223  -3.412  1.00  0.00     0.051 A 
ATOM     15  C   UNL     1      35.392   4.739  -3.625  1.00  0.00     0.157 A 
ATOM     16  C   UNL     1      34.559   2.470  -3.899  1.00  0.00     0.062 A 
ATOM     17  C   UNL     1      34.320   3.850  -3.876  1.00  0.00     0.158 A 
BRANCH  15  18
ATOM     18  O   UNL     1      35.230   6.125  -3.583  1.00  0.00    -0.504 OA
ATOM     19  H   UNL     1      35.627   6.718  -2.869  1.00  0.00     0.293 HD
ENDBRANCH  15  18
BRANCH  17  20
ATOM     20  O   UNL     1      33.015   4.290  -4.107  1.00  0.00    -0.504 OA
ATOM     21  H   UNL     1      32.333   3.779  -4.649  1.00  0.00     0.293 HD
ENDBRANCH  17  20
ENDBRANCH   1  12
BRANCH   2  22
ATOM     22  O   UNL     1      38.309   0.692  -2.802  1.00  0.00    -0.502 OA
ATOM     23  H   UNL     1      38.601   0.637  -1.833  1.00  0.00     0.293 HD
ENDBRANCH   2  22
BRANCH   6  24
ATOM     24  O   UNL     1      37.564  -4.380  -3.677  1.00  0.00    -0.507 OA
ATOM     25  H   UNL     1      37.797  -4.587  -2.712  1.00  0.00     0.293 HD
ENDBRANCH   6  24
BRANCH   8  26
ATOM     26  O   UNL     1      33.008  -4.407  -5.312  1.00  0.00    -0.508 OA
ATOM     27  H   UNL     1      33.058  -5.396  -5.528  1.00  0.00     0.293 HD
ENDBRANCH   8  26
TORSDOF 6
ENDMDL
MODEL 7
REMARK VINA RESULT:    -6.923      2.447      7.187
REMARK INTER + INTRA:          -8.510
REMARK INTER:                  -8.198
REMARK INTRA:                  -0.312
REMARK UNBOUND:                -0.171
REMARK SMILES O=c1c(O)c(-c2ccc(O)c(O)c2)oc2cc(O)cc(O)c12
REMARK SMILES IDX 5 1 3 2 2 3 1 4 22 5 20 6 19 7 17 8 16 9 15 10 14 11 6 12
REMARK SMILES IDX 7 13 8 14 9 15 13 16 11 17 10 18 12 20 4 22 21 24 18 26
REMARK H PARENT 10 19 12 21 4 23 21 25 18 27
REMARK Flexibility Score: inf
ROOT
ATOM      1  C   UNL     1      34.242   0.614  -4.067  1.00  0.00     0.180 A 
ATOM      2  C   UNL     1      34.595   0.198  -5.366  1.00  0.00     0.208 A 
ATOM      3  C   UNL     1      34.557  -1.170  -5.674  1.00  0.00     0.238 A 
ATOM      4  O   UNL     1      34.860  -1.553  -6.837  1.00  0.00    -0.285 OA
ATOM      5  C   UNL     1      34.189  -2.099  -4.678  1.00  0.00     0.111 A 
ATOM      6  C   UNL     1      34.129  -3.495  -4.906  1.00  0.00     0.134 A 
ATOM      7  C   UNL     1      33.761  -4.356  -3.861  1.00  0.00     0.093 A 
ATOM      8  C   UNL     1      33.454  -3.847  -2.594  1.00  0.00     0.123 A 
ATOM      9  C   UNL     1      33.510  -2.472  -2.366  1.00  0.00     0.094 A 
ATOM     10  C   UNL     1      33.873  -1.598  -3.394  1.00  0.00     0.146 A 
ATOM     11  O   UNL     1      33.914  -0.292  -3.150  1.00  0.00    -0.452 OA
ENDROOT
BRANCH   1  12
ATOM     12  C   UNL     1      34.240   2.040  -3.671  1.00  0.00     0.025 A 
ATOM     13  C   UNL     1      35.418   2.688  -3.266  1.00  0.00     0.016 A 
ATOM     14  C   UNL     1      35.396   4.040  -2.921  1.00  0.00     0.051 A 
ATOM     15  C   UNL     1      34.207   4.775  -2.984  1.00  0.00     0.157 A 
ATOM     16  C   UNL     1      33.051   2.780  -3.756  1.00  0.00     0.062 A 
ATOM     17  C   UNL     1      33.019   4.137  -3.411  1.00  0.00     0.158 A 
BRANCH  15  18
ATOM     18  O   UNL     1      34.253   6.122  -2.620  1.00  0.00    -0.504 OA
ATOM     19  H   UNL     1      33.458   6.743  -2.654  1.00  0.00     0.293 HD
ENDBRANCH  15  18
BRANCH  17  20
ATOM     20  O   UNL     1      31.797   4.807  -3.508  1.00  0.00    -0.504 OA
ATOM     21  H   UNL     1      31.635   5.740  -3.158  1.00  0.00     0.293 HD
ENDBRANCH  17  20
ENDBRANCH   1  12
BRANCH   2  22
ATOM     22  O   UNL     1      35.004   1.134  -6.319  1.00  0.00    -0.502 OA
ATOM     23  H   UNL     1      34.366   1.530  -6.999  1.00  0.00     0.293 HD
ENDBRANCH   2  22
BRANCH   6  24
ATOM     24  O   UNL     1      34.430  -4.032  -6.159  1.00  0.00    -0.507 OA
ATOM     25  H   UNL     1      34.822  -3.464  -6.902  1.00  0.00     0.293 HD
ENDBRANCH   6  24
BRANCH   8  26
ATOM     26  O   UNL     1      33.090  -4.701  -1.556  1.00  0.00    -0.508 OA
ATOM     27  H   UNL     1      33.634  -4.761  -0.703  1.00  0.00     0.293 HD
ENDBRANCH   8  26
TORSDOF 6
ENDMDL
MODEL 8
REMARK VINA RESULT:    -6.765      2.220      2.740
REMARK INTER + INTRA:          -8.320
REMARK INTER:                  -8.564
REMARK INTRA:                   0.244
REMARK UNBOUND:                -0.171
REMARK SMILES O=c1c(O)c(-c2ccc(O)c(O)c2)oc2cc(O)cc(O)c12
REMARK SMILES IDX 5 1 3 2 2 3 1 4 22 5 20 6 19 7 17 8 16 9 15 10 14 11 6 12
REMARK SMILES IDX 7 13 8 14 9 15 13 16 11 17 10 18 12 20 4 22 21 24 18 26
REMARK H PARENT 10 19 12 21 4 23 21 25 18 27
REMARK Flexibility Score: inf
ROOT
ATOM      1  C   UNL     1      34.552   0.817  -4.441  1.00  0.00     0.180 A 
ATOM      2  C   UNL     1      34.460   1.473  -5.685  1.00  0.00     0.208 A 
ATOM      3  C   UNL     1      34.677   2.858  -5.738  1.00  0.00     0.238 A 
ATOM      4  O   UNL     1      34.609   3.454  -6.847  1.00  0.00    -0.285 OA
ATOM      5  C   UNL     1      34.958   3.566  -4.551  1.00  0.00     0.111 A 
ATOM      6  C   UNL     1      35.185   4.963  -4.519  1.00  0.00     0.134 A 
ATOM      7  C   UNL     1      35.452   5.597  -3.295  1.00  0.00     0.093 A 
ATOM      8  C   UNL     1      35.494   4.860  -2.107  1.00  0.00     0.123 A 
ATOM      9  C   UNL     1      35.273   3.483  -2.134  1.00  0.00     0.094 A 
ATOM     10  C   UNL     1      35.007   2.833  -3.343  1.00  0.00     0.146 A 
ATOM     11  O   UNL     1      34.805   1.520  -3.341  1.00  0.00    -0.452 OA
ENDROOT
BRANCH   1  12
ATOM     12  C   UNL     1      34.355  -0.644  -4.306  1.00  0.00     0.025 A 
ATOM     13  C   UNL     1      33.704  -1.194  -3.190  1.00  0.00     0.016 A 
ATOM     14  C   UNL     1      33.507  -2.572  -3.097  1.00  0.00     0.051 A 
ATOM     15  C   UNL     1      33.942  -3.427  -4.115  1.00  0.00     0.157 A 
ATOM     16  C   UNL     1      34.772  -1.496  -5.339  1.00  0.00     0.062 A 
ATOM     17  C   UNL     1      34.580  -2.881  -5.254  1.00  0.00     0.158 A 
BRANCH  15  18
ATOM     18  O   UNL     1      33.720  -4.796  -3.958  1.00  0.00    -0.504 OA
ATOM     19  H   UNL     1      34.030  -5.330  -3.159  1.00  0.00     0.293 HD
ENDBRANCH  15  18
BRANCH  17  20
ATOM     20  O   UNL     1      35.032  -3.669  -6.314  1.00  0.00    -0.504 OA
ATOM     21  H   UNL     1      35.528  -3.308  -7.117  1.00  0.00     0.293 HD
ENDBRANCH  17  20
ENDBRANCH   1  12
BRANCH   2  22
ATOM     22  O   UNL     1      34.130   0.756  -6.837  1.00  0.00    -0.502 OA
ATOM     23  H   UNL     1      34.785   0.623  -7.600  1.00  0.00     0.293 HD
ENDBRANCH   2  22
BRANCH   6  24
ATOM     24  O   UNL     1      35.148   5.725  -5.688  1.00  0.00    -0.507 OA
ATOM     25  H   UNL     1      34.649   6.605  -5.735  1.00  0.00     0.293 HD
ENDBRANCH   6  24
BRANCH   8  26
ATOM     26  O   UNL     1      35.757   5.489  -0.891  1.00  0.00    -0.508 OA
ATOM     27  H   UNL     1      36.429   6.244  -0.820  1.00  0.00     0.293 HD
ENDBRANCH   8  26
TORSDOF 6
ENDMDL
MODEL 9
REMARK VINA RESULT:    -6.712      2.127      6.988
REMARK INTER + INTRA:          -8.256
REMARK INTER:                  -7.935
REMARK INTRA:                  -0.321
REMARK UNBOUND:                -0.171
REMARK SMILES O=c1c(O)c(-c2ccc(O)c(O)c2)oc2cc(O)cc(O)c12
REMARK SMILES IDX 5 1 3 2 2 3 1 4 22 5 20 6 19 7 17 8 16 9 15 10 14 11 6 12
REMARK SMILES IDX 7 13 8 14 9 15 13 16 11 17 10 18 12 20 4 22 21 24 18 26
REMARK H PARENT 10 19 12 21 4 23 21 25 18 27
REMARK Flexibility Score: inf
ROOT
ATOM      1  C   UNL     1      37.539   2.308  -2.639  1.00  0.00     0.180 A 
ATOM      2  C   UNL     1      36.334   2.745  -3.224  1.00  0.00     0.208 A 
ATOM      3  C   UNL     1      35.519   1.808  -3.877  1.00  0.00     0.238 A 
ATOM      4  O   UNL     1      34.432   2.185  -4.394  1.00  0.00    -0.285 OA
ATOM      5  C   UNL     1      35.928   0.460  -3.953  1.00  0.00     0.111 A 
ATOM      6  C   UNL     1      35.166  -0.545  -4.596  1.00  0.00     0.134 A 
ATOM      7  C   UNL     1      35.645  -1.863  -4.637  1.00  0.00     0.093 A 
ATOM      8  C   UNL     1      36.871  -2.193  -4.048  1.00  0.00     0.123 A 
ATOM      9  C   UNL     1      37.625  -1.206  -3.412  1.00  0.00     0.094 A 
ATOM     10  C   UNL     1      37.164   0.113  -3.360  1.00  0.00     0.146 A 
ATOM     11  O   UNL     1      37.899   1.031  -2.743  1.00  0.00    -0.452 OA
ENDROOT
BRANCH   1  12
ATOM     12  C   UNL     1      38.444   3.231  -1.917  1.00  0.00     0.025 A 
ATOM     13  C   UNL     1      39.497   3.885  -2.575  1.00  0.00     0.016 A 
ATOM     14  C   UNL     1      40.322   4.770  -1.880  1.00  0.00     0.051 A 
ATOM     15  C   UNL     1      40.106   5.032  -0.523  1.00  0.00     0.157 A 
ATOM     16  C   UNL     1      38.211   3.508  -0.562  1.00  0.00     0.062 A 
ATOM     17  C   UNL     1      39.033   4.395   0.144  1.00  0.00     0.158 A 
BRANCH  15  18
ATOM     18  O   UNL     1      40.970   5.924   0.115  1.00  0.00    -0.504 OA
ATOM     19  H   UNL     1      40.936   6.926  -0.004  1.00  0.00     0.293 HD
ENDBRANCH  15  18
BRANCH  17  20
ATOM     20  O   UNL     1      38.750   4.613   1.494  1.00  0.00    -0.504 OA
ATOM     21  H   UNL     1      39.326   4.279   2.254  1.00  0.00     0.293 HD
ENDBRANCH  17  20
ENDBRANCH   1  12
BRANCH   2  22
ATOM     22  O   UNL     1      35.977   4.094  -3.177  1.00  0.00    -0.502 OA
ATOM     23  H   UNL     1      36.593   4.806  -2.802  1.00  0.00     0.293 HD
ENDBRANCH   2  22
BRANCH   6  24
ATOM     24  O   UNL     1      33.940  -0.245  -5.193  1.00  0.00    -0.507 OA
ATOM     25  H   UNL     1      33.503   0.663  -5.087  1.00  0.00     0.293 HD
ENDBRANCH   6  24
BRANCH   8  26
ATOM     26  O   UNL     1      37.348  -3.501  -4.090  1.00  0.00    -0.508 OA
ATOM     27  H   UNL     1      36.922  -4.238  -3.542  1.00  0.00     0.293 HD
ENDBRANCH   8  26
TORSDOF 6
ENDMDL
