MODEL 1
REMARK VINA RESULT:    -4.676      0.000      0.000
REMARK INTER + INTRA:          -5.910
REMARK INTER:                  -5.632
REMARK INTRA:                  -0.278
REMARK UNBOUND:                -0.278
REMARK SMILES O=c1c(O)c(-c2ccc(O)c(O)c2)oc2cc(O)cc(O)c12
REMARK SMILES IDX 5 1 3 2 2 3 1 4 22 5 20 6 19 7 17 8 16 9 15 10 14 11 6 12
REMARK SMILES IDX 7 13 8 14 9 15 13 16 11 17 10 18 12 20 4 22 21 24 18 26
REMARK H PARENT 10 19 12 21 4 23 21 25 18 27
REMARK Flexibility Score: inf
ROOT
ATOM      1  C   UNL     1      33.296  72.533  -0.141  1.00  0.00     0.180 A 
ATOM      2  C   UNL     1      33.876  73.325  -1.147  1.00  0.00     0.208 A 
ATOM      3  C   UNL     1      35.178  73.817  -0.960  1.00  0.00     0.238 A 
ATOM      4  O   UNL     1      35.672  74.570  -1.840  1.00  0.00    -0.285 OA
ATOM      5  C   UNL     1      35.890  73.496   0.221  1.00  0.00     0.111 A 
ATOM      6  C   UNL     1      37.229  73.907   0.497  1.00  0.00     0.134 A 
ATOM      7  C   UNL     1      37.786  73.643   1.754  1.00  0.00     0.093 A 
ATOM      8  C   UNL     1      37.080  72.928   2.720  1.00  0.00     0.123 A 
ATOM      9  C   UNL     1      35.791  72.471   2.439  1.00  0.00     0.094 A 
ATOM     10  C   UNL     1      35.195  72.749   1.208  1.00  0.00     0.146 A 
ATOM     11  O   UNL     1      33.963  72.305   0.984  1.00  0.00    -0.452 OA
ENDROOT
BRANCH   1  12
ATOM     12  C   UNL     1      31.937  71.958  -0.276  1.00  0.00     0.025 A 
ATOM     13  C   UNL     1      30.819  72.769  -0.041  1.00  0.00     0.016 A 
ATOM     14  C   UNL     1      29.530  72.242  -0.143  1.00  0.00     0.051 A 
ATOM     15  C   UNL     1      29.333  70.895  -0.466  1.00  0.00     0.157 A 
ATOM     16  C   UNL     1      31.744  70.600  -0.578  1.00  0.00     0.062 A 
ATOM     17  C   UNL     1      30.455  70.061  -0.680  1.00  0.00     0.158 A 
BRANCH  15  18
ATOM     18  O   UNL     1      28.019  70.432  -0.560  1.00  0.00    -0.504 OA
ATOM     19  H   UNL     1      27.762  69.456  -0.540  1.00  0.00     0.293 HD
ENDBRANCH  15  18
BRANCH  17  20
ATOM     20  O   UNL     1      30.339  68.703  -0.985  1.00  0.00    -0.504 OA
ATOM     21  H   UNL     1      30.021  68.003  -0.330  1.00  0.00     0.293 HD
ENDBRANCH  17  20
ENDBRANCH   1  12
BRANCH   2  22
ATOM     22  O   UNL     1      33.148  73.646  -2.296  1.00  0.00    -0.502 OA
ATOM     23  H   UNL     1      33.561  74.133  -3.083  1.00  0.00     0.293 HD
ENDBRANCH   2  22
BRANCH   6  24
ATOM     24  O   UNL     1      38.056  74.547  -0.431  1.00  0.00    -0.507 OA
ATOM     25  H   UNL     1      38.274  75.532  -0.422  1.00  0.00     0.293 HD
ENDBRANCH   6  24
BRANCH   8  26
ATOM     26  O   UNL     1      37.672  72.670   3.955  1.00  0.00    -0.508 OA
ATOM     27  H   UNL     1      38.022  71.748   4.192  1.00  0.00     0.293 HD
ENDBRANCH   8  26
TORSDOF 6
ENDMDL
MODEL 2
REMARK VINA RESULT:    -4.634      5.391      8.549
REMARK INTER + INTRA:          -5.860
REMARK INTER:                  -5.546
REMARK INTRA:                  -0.314
REMARK UNBOUND:                -0.278
REMARK SMILES O=c1c(O)c(-c2ccc(O)c(O)c2)oc2cc(O)cc(O)c12
REMARK SMILES IDX 5 1 3 2 2 3 1 4 22 5 20 6 19 7 17 8 16 9 15 10 14 11 6 12
REMARK SMILES IDX 7 13 8 14 9 15 13 16 11 17 10 18 12 20 4 22 21 24 18 26
REMARK H PARENT 10 19 12 21 4 23 21 25 18 27
REMARK Flexibility Score: inf
ROOT
ATOM      1  C   UNL     1      30.448  65.365   0.350  1.00  0.00     0.180 A 
ATOM      2  C   UNL     1      29.441  65.616  -0.598  1.00  0.00     0.208 A 
ATOM      3  C   UNL     1      29.573  66.722  -1.453  1.00  0.00     0.238 A 
ATOM      4  O   UNL     1      28.642  66.974  -2.263  1.00  0.00    -0.285 OA
ATOM      5  C   UNL     1      30.717  67.551  -1.363  1.00  0.00     0.111 A 
ATOM      6  C   UNL     1      30.973  68.674  -2.207  1.00  0.00     0.134 A 
ATOM      7  C   UNL     1      32.072  69.500  -1.941  1.00  0.00     0.093 A 
ATOM      8  C   UNL     1      32.959  69.208  -0.906  1.00  0.00     0.123 A 
ATOM      9  C   UNL     1      32.751  68.080  -0.112  1.00  0.00     0.094 A 
ATOM     10  C   UNL     1      31.644  67.257  -0.329  1.00  0.00     0.146 A 
ATOM     11  O   UNL     1      31.476  66.198   0.455  1.00  0.00    -0.452 OA
ENDROOT
BRANCH   1  12
ATOM     12  C   UNL     1      30.392  64.205   1.270  1.00  0.00     0.025 A 
ATOM     13  C   UNL     1      31.015  63.003   0.904  1.00  0.00     0.016 A 
ATOM     14  C   UNL     1      30.957  61.893   1.748  1.00  0.00     0.051 A 
ATOM     15  C   UNL     1      30.265  61.954   2.962  1.00  0.00     0.157 A 
ATOM     16  C   UNL     1      29.677  64.263   2.478  1.00  0.00     0.062 A 
ATOM     17  C   UNL     1      29.611  63.153   3.330  1.00  0.00     0.158 A 
BRANCH  15  18
ATOM     18  O   UNL     1      30.251  60.810   3.764  1.00  0.00    -0.504 OA
ATOM     19  H   UNL     1      30.090  60.821   4.760  1.00  0.00     0.293 HD
ENDBRANCH  15  18
BRANCH  17  20
ATOM     20  O   UNL     1      28.884  63.284   4.515  1.00  0.00    -0.504 OA
ATOM     21  H   UNL     1      27.981  62.860   4.673  1.00  0.00     0.293 HD
ENDBRANCH  17  20
ENDBRANCH   1  12
BRANCH   2  22
ATOM     22  O   UNL     1      28.310  64.798  -0.656  1.00  0.00    -0.502 OA
ATOM     23  H   UNL     1      27.489  65.041  -1.198  1.00  0.00     0.293 HD
ENDBRANCH   2  22
BRANCH   6  24
ATOM     24  O   UNL     1      30.201  69.002  -3.325  1.00  0.00    -0.507 OA
ATOM     25  H   UNL     1      30.572  69.193  -4.243  1.00  0.00     0.293 HD
ENDBRANCH   6  24
BRANCH   8  26
ATOM     26  O   UNL     1      34.051  70.044  -0.681  1.00  0.00    -0.508 OA
ATOM     27  H   UNL     1      34.047  70.734   0.062  1.00  0.00     0.293 HD
ENDBRANCH   8  26
TORSDOF 6
ENDMDL
MODEL 3
REMARK VINA RESULT:    -4.524      2.220      3.882
REMARK INTER + INTRA:          -5.727
REMARK INTER:                  -5.669
REMARK INTRA:                  -0.058
REMARK UNBOUND:                -0.278
REMARK SMILES O=c1c(O)c(-c2ccc(O)c(O)c2)oc2cc(O)cc(O)c12
REMARK SMILES IDX 5 1 3 2 2 3 1 4 22 5 20 6 19 7 17 8 16 9 15 10 14 11 6 12
REMARK SMILES IDX 7 13 8 14 9 15 13 16 11 17 10 18 12 20 4 22 21 24 18 26
REMARK H PARENT 10 19 12 21 4 23 21 25 18 27
REMARK Flexibility Score: inf
ROOT
ATOM      1  C   UNL     1      34.520  71.690   1.416  1.00  0.00     0.180 A 
ATOM      2  C   UNL     1      34.625  70.366   1.875  1.00  0.00     0.208 A 
ATOM      3  C   UNL     1      35.697  70.018   2.712  1.00  0.00     0.238 A 
ATOM      4  O   UNL     1      35.817  68.819   3.076  1.00  0.00    -0.285 OA
ATOM      5  C   UNL     1      36.640  71.003   3.095  1.00  0.00     0.111 A 
ATOM      6  C   UNL     1      37.742  70.771   3.973  1.00  0.00     0.134 A 
ATOM      7  C   UNL     1      38.686  71.786   4.177  1.00  0.00     0.093 A 
ATOM      8  C   UNL     1      38.533  73.041   3.590  1.00  0.00     0.123 A 
ATOM      9  C   UNL     1      37.428  73.296   2.778  1.00  0.00     0.094 A 
ATOM     10  C   UNL     1      36.489  72.294   2.526  1.00  0.00     0.146 A 
ATOM     11  O   UNL     1      35.456  72.574   1.739  1.00  0.00    -0.452 OA
ENDROOT
BRANCH   1  12
ATOM     12  C   UNL     1      33.405  72.138   0.550  1.00  0.00     0.025 A 
ATOM     13  C   UNL     1      33.687  72.846  -0.627  1.00  0.00     0.016 A 
ATOM     14  C   UNL     1      32.649  73.293  -1.447  1.00  0.00     0.051 A 
ATOM     15  C   UNL     1      31.314  73.059  -1.102  1.00  0.00     0.157 A 
ATOM     16  C   UNL     1      32.065  71.920   0.912  1.00  0.00     0.062 A 
ATOM     17  C   UNL     1      31.017  72.369   0.097  1.00  0.00     0.158 A 
BRANCH  15  18
ATOM     18  O   UNL     1      30.324  73.528  -1.969  1.00  0.00    -0.504 OA
ATOM     19  H   UNL     1      29.352  73.259  -1.913  1.00  0.00     0.293 HD
ENDBRANCH  15  18
BRANCH  17  20
ATOM     20  O   UNL     1      29.710  72.116   0.518  1.00  0.00    -0.504 OA
ATOM     21  H   UNL     1      29.389  71.219   0.852  1.00  0.00     0.293 HD
ENDBRANCH  17  20
ENDBRANCH   1  12
BRANCH   2  22
ATOM     22  O   UNL     1      33.696  69.405   1.467  1.00  0.00    -0.502 OA
ATOM     23  H   UNL     1      33.759  68.433   1.747  1.00  0.00     0.293 HD
ENDBRANCH   2  22
BRANCH   6  24
ATOM     24  O   UNL     1      37.938  69.583   4.683  1.00  0.00    -0.507 OA
ATOM     25  H   UNL     1      38.329  68.739   4.292  1.00  0.00     0.293 HD
ENDBRANCH   6  24
BRANCH   8  26
ATOM     26  O   UNL     1      39.484  74.032   3.829  1.00  0.00    -0.508 OA
ATOM     27  H   UNL     1      39.908  74.149   4.743  1.00  0.00     0.293 HD
ENDBRANCH   8  26
TORSDOF 6
ENDMDL
MODEL 4
REMARK VINA RESULT:    -4.497      6.819     10.121
REMARK INTER + INTRA:          -5.695
REMARK INTER:                  -5.374
REMARK INTRA:                  -0.321
REMARK UNBOUND:                -0.278
REMARK SMILES O=c1c(O)c(-c2ccc(O)c(O)c2)oc2cc(O)cc(O)c12
REMARK SMILES IDX 5 1 3 2 2 3 1 4 22 5 20 6 19 7 17 8 16 9 15 10 14 11 6 12
REMARK SMILES IDX 7 13 8 14 9 15 13 16 11 17 10 18 12 20 4 22 21 24 18 26
REMARK H PARENT 10 19 12 21 4 23 21 25 18 27
REMARK Flexibility Score: inf
ROOT
ATOM      1  C   UNL     1      30.688  63.975   1.590  1.00  0.00     0.180 A 
ATOM      2  C   UNL     1      31.862  64.721   1.792  1.00  0.00     0.208 A 
ATOM      3  C   UNL     1      32.077  65.874   1.020  1.00  0.00     0.238 A 
ATOM      4  O   UNL     1      33.154  66.508   1.167  1.00  0.00    -0.285 OA
ATOM      5  C   UNL     1      31.107  66.277   0.070  1.00  0.00     0.111 A 
ATOM      6  C   UNL     1      31.203  67.450  -0.738  1.00  0.00     0.134 A 
ATOM      7  C   UNL     1      30.249  67.679  -1.737  1.00  0.00     0.093 A 
ATOM      8  C   UNL     1      29.170  66.814  -1.915  1.00  0.00     0.123 A 
ATOM      9  C   UNL     1      29.035  65.695  -1.092  1.00  0.00     0.094 A 
ATOM     10  C   UNL     1      29.989  65.421  -0.111  1.00  0.00     0.146 A 
ATOM     11  O   UNL     1      29.830  64.340   0.646  1.00  0.00    -0.452 OA
ENDROOT
BRANCH   1  12
ATOM     12  C   UNL     1      30.381  62.761   2.382  1.00  0.00     0.025 A 
ATOM     13  C   UNL     1      30.846  61.514   1.942  1.00  0.00     0.016 A 
ATOM     14  C   UNL     1      30.550  60.356   2.663  1.00  0.00     0.051 A 
ATOM     15  C   UNL     1      29.773  60.416   3.825  1.00  0.00     0.157 A 
ATOM     16  C   UNL     1      29.581  62.824   3.536  1.00  0.00     0.062 A 
ATOM     17  C   UNL     1      29.276  61.666   4.264  1.00  0.00     0.158 A 
BRANCH  15  18
ATOM     18  O   UNL     1      29.519  59.222   4.503  1.00  0.00    -0.504 OA
ATOM     19  H   UNL     1      28.597  58.911   4.773  1.00  0.00     0.293 HD
ENDBRANCH  15  18
BRANCH  17  20
ATOM     20  O   UNL     1      28.478  61.804   5.401  1.00  0.00    -0.504 OA
ATOM     21  H   UNL     1      28.592  61.253   6.240  1.00  0.00     0.293 HD
ENDBRANCH  17  20
ENDBRANCH   1  12
BRANCH   2  22
ATOM     22  O   UNL     1      32.816  64.294   2.720  1.00  0.00    -0.502 OA
ATOM     23  H   UNL     1      33.377  64.942   3.261  1.00  0.00     0.293 HD
ENDBRANCH   2  22
BRANCH   6  24
ATOM     24  O   UNL     1      32.190  68.427  -0.581  1.00  0.00    -0.507 OA
ATOM     25  H   UNL     1      33.111  68.258  -0.207  1.00  0.00     0.293 HD
ENDBRANCH   6  24
BRANCH   8  26
ATOM     26  O   UNL     1      28.231  67.082  -2.910  1.00  0.00    -0.508 OA
ATOM     27  H   UNL     1      27.591  67.866  -2.837  1.00  0.00     0.293 HD
ENDBRANCH   8  26
TORSDOF 6
ENDMDL
MODEL 5
REMARK VINA RESULT:    -4.484      8.917     11.075
REMARK INTER + INTRA:          -5.680
REMARK INTER:                  -5.361
REMARK INTRA:                  -0.318
REMARK UNBOUND:                -0.278
REMARK SMILES O=c1c(O)c(-c2ccc(O)c(O)c2)oc2cc(O)cc(O)c12
REMARK SMILES IDX 5 1 3 2 2 3 1 4 22 5 20 6 19 7 17 8 16 9 15 10 14 11 6 12
REMARK SMILES IDX 7 13 8 14 9 15 13 16 11 17 10 18 12 20 4 22 21 24 18 26
REMARK H PARENT 10 19 12 21 4 23 21 25 18 27
REMARK Flexibility Score: inf
ROOT
ATOM      1  C   UNL     1      30.597  63.379   1.304  1.00  0.00     0.180 A 
ATOM      2  C   UNL     1      31.247  62.460   0.462  1.00  0.00     0.208 A 
ATOM      3  C   UNL     1      31.192  62.653  -0.928  1.00  0.00     0.238 A 
ATOM      4  O   UNL     1      31.729  61.797  -1.679  1.00  0.00    -0.285 OA
ATOM      5  C   UNL     1      30.504  63.772  -1.457  1.00  0.00     0.111 A 
ATOM      6  C   UNL     1      30.418  64.087  -2.847  1.00  0.00     0.134 A 
ATOM      7  C   UNL     1      29.601  65.145  -3.265  1.00  0.00     0.093 A 
ATOM      8  C   UNL     1      28.920  65.937  -2.343  1.00  0.00     0.123 A 
ATOM      9  C   UNL     1      29.043  65.674  -0.978  1.00  0.00     0.094 A 
ATOM     10  C   UNL     1      29.821  64.604  -0.532  1.00  0.00     0.146 A 
ATOM     11  O   UNL     1      29.905  64.381   0.775  1.00  0.00    -0.452 OA
ENDROOT
BRANCH   1  12
ATOM     12  C   UNL     1      30.631  63.256   2.780  1.00  0.00     0.025 A 
ATOM     13  C   UNL     1      31.721  63.778   3.491  1.00  0.00     0.016 A 
ATOM     14  C   UNL     1      31.781  63.655   4.880  1.00  0.00     0.051 A 
ATOM     15  C   UNL     1      30.767  62.997   5.584  1.00  0.00     0.157 A 
ATOM     16  C   UNL     1      29.621  62.575   3.481  1.00  0.00     0.062 A 
ATOM     17  C   UNL     1      29.675  62.444   4.875  1.00  0.00     0.158 A 
BRANCH  15  18
ATOM     18  O   UNL     1      30.884  62.914   6.973  1.00  0.00    -0.504 OA
ATOM     19  H   UNL     1      30.803  62.054   7.496  1.00  0.00     0.293 HD
ENDBRANCH  15  18
BRANCH  17  20
ATOM     20  O   UNL     1      28.636  61.756   5.505  1.00  0.00    -0.504 OA
ATOM     21  H   UNL     1      27.688  62.098   5.563  1.00  0.00     0.293 HD
ENDBRANCH  17  20
ENDBRANCH   1  12
BRANCH   2  22
ATOM     22  O   UNL     1      31.902  61.351   1.005  1.00  0.00    -0.502 OA
ATOM     23  H   UNL     1      31.473  60.434   1.050  1.00  0.00     0.293 HD
ENDBRANCH   2  22
BRANCH   6  24
ATOM     24  O   UNL     1      31.132  63.417  -3.844  1.00  0.00    -0.507 OA
ATOM     25  H   UNL     1      32.107  63.569  -4.055  1.00  0.00     0.293 HD
ENDBRANCH   6  24
BRANCH   8  26
ATOM     26  O   UNL     1      28.129  66.992  -2.795  1.00  0.00    -0.508 OA
ATOM     27  H   UNL     1      27.527  66.893  -3.605  1.00  0.00     0.293 HD
ENDBRANCH   8  26
TORSDOF 6
ENDMDL
MODEL 6
REMARK VINA RESULT:    -4.412      1.193      2.825
REMARK INTER + INTRA:          -5.593
REMARK INTER:                  -5.415
REMARK INTRA:                  -0.177
REMARK UNBOUND:                -0.278
REMARK SMILES O=c1c(O)c(-c2ccc(O)c(O)c2)oc2cc(O)cc(O)c12
REMARK SMILES IDX 5 1 3 2 2 3 1 4 22 5 20 6 19 7 17 8 16 9 15 10 14 11 6 12
REMARK SMILES IDX 7 13 8 14 9 15 13 16 11 17 10 18 12 20 4 22 21 24 18 26
REMARK H PARENT 10 19 12 21 4 23 21 25 18 27
REMARK Flexibility Score: inf
ROOT
ATOM      1  C   UNL     1      33.163  72.152   0.384  1.00  0.00     0.180 A 
ATOM      2  C   UNL     1      33.804  71.622   1.517  1.00  0.00     0.208 A 
ATOM      3  C   UNL     1      35.109  72.045   1.820  1.00  0.00     0.238 A 
ATOM      4  O   UNL     1      35.699  71.527   2.804  1.00  0.00    -0.285 OA
ATOM      5  C   UNL     1      35.748  73.004   0.998  1.00  0.00     0.111 A 
ATOM      6  C   UNL     1      37.053  73.533   1.234  1.00  0.00     0.134 A 
ATOM      7  C   UNL     1      37.637  74.378   0.282  1.00  0.00     0.093 A 
ATOM      8  C   UNL     1      36.941  74.764  -0.862  1.00  0.00     0.123 A 
ATOM      9  C   UNL     1      35.643  74.299  -1.074  1.00  0.00     0.094 A 
ATOM     10  C   UNL     1      35.046  73.427  -0.161  1.00  0.00     0.146 A 
ATOM     11  O   UNL     1      33.813  72.999  -0.404  1.00  0.00    -0.452 OA
ENDROOT
BRANCH   1  12
ATOM     12  C   UNL     1      31.779  71.774   0.013  1.00  0.00     0.025 A 
ATOM     13  C   UNL     1      30.751  72.721   0.127  1.00  0.00     0.016 A 
ATOM     14  C   UNL     1      29.438  72.379  -0.199  1.00  0.00     0.051 A 
ATOM     15  C   UNL     1      29.121  71.085  -0.627  1.00  0.00     0.157 A 
ATOM     16  C   UNL     1      31.462  70.467  -0.394  1.00  0.00     0.062 A 
ATOM     17  C   UNL     1      30.146  70.114  -0.719  1.00  0.00     0.158 A 
BRANCH  15  18
ATOM     18  O   UNL     1      27.789  70.809  -0.943  1.00  0.00    -0.504 OA
ATOM     19  H   UNL     1      27.487  69.986  -1.444  1.00  0.00     0.293 HD
ENDBRANCH  15  18
BRANCH  17  20
ATOM     20  O   UNL     1      29.904  68.798  -1.118  1.00  0.00    -0.504 OA
ATOM     21  H   UNL     1      30.236  67.987  -0.616  1.00  0.00     0.293 HD
ENDBRANCH  17  20
ENDBRANCH   1  12
BRANCH   2  22
ATOM     22  O   UNL     1      33.163  70.661   2.303  1.00  0.00    -0.502 OA
ATOM     23  H   UNL     1      32.739  69.830   1.908  1.00  0.00     0.293 HD
ENDBRANCH   2  22
BRANCH   6  24
ATOM     24  O   UNL     1      37.798  73.284   2.390  1.00  0.00    -0.507 OA
ATOM     25  H   UNL     1      38.125  73.995   3.027  1.00  0.00     0.293 HD
ENDBRANCH   6  24
BRANCH   8  26
ATOM     26  O   UNL     1      37.549  75.620  -1.780  1.00  0.00    -0.508 OA
ATOM     27  H   UNL     1      38.253  76.290  -1.493  1.00  0.00     0.293 HD
ENDBRANCH   8  26
TORSDOF 6
ENDMDL
MODEL 7
REMARK VINA RESULT:    -4.356      1.590      7.156
REMARK INTER + INTRA:          -5.525
REMARK INTER:                  -5.434
REMARK INTRA:                  -0.091
REMARK UNBOUND:                -0.278
REMARK SMILES O=c1c(O)c(-c2ccc(O)c(O)c2)oc2cc(O)cc(O)c12
REMARK SMILES IDX 5 1 3 2 2 3 1 4 22 5 20 6 19 7 17 8 16 9 15 10 14 11 6 12
REMARK SMILES IDX 7 13 8 14 9 15 13 16 11 17 10 18 12 20 4 22 21 24 18 26
REMARK H PARENT 10 19 12 21 4 23 21 25 18 27
REMARK Flexibility Score: inf
ROOT
ATOM      1  C   UNL     1      33.525  71.754   0.593  1.00  0.00     0.180 A 
ATOM      2  C   UNL     1      33.293  70.368   0.549  1.00  0.00     0.208 A 
ATOM      3  C   UNL     1      32.057  69.899   0.075  1.00  0.00     0.238 A 
ATOM      4  O   UNL     1      31.835  68.660   0.089  1.00  0.00    -0.285 OA
ATOM      5  C   UNL     1      31.076  70.820  -0.365  1.00  0.00     0.111 A 
ATOM      6  C   UNL     1      29.804  70.454  -0.902  1.00  0.00     0.134 A 
ATOM      7  C   UNL     1      28.862  71.451  -1.182  1.00  0.00     0.093 A 
ATOM      8  C   UNL     1      29.166  72.800  -1.008  1.00  0.00     0.123 A 
ATOM      9  C   UNL     1      30.427  73.171  -0.540  1.00  0.00     0.094 A 
ATOM     10  C   UNL     1      31.376  72.199  -0.217  1.00  0.00     0.146 A 
ATOM     11  O   UNL     1      32.561  72.594   0.236  1.00  0.00    -0.452 OA
ENDROOT
BRANCH   1  12
ATOM     12  C   UNL     1      34.811  72.323   1.056  1.00  0.00     0.025 A 
ATOM     13  C   UNL     1      35.583  73.093   0.174  1.00  0.00     0.016 A 
ATOM     14  C   UNL     1      36.807  73.623   0.585  1.00  0.00     0.051 A 
ATOM     15  C   UNL     1      37.293  73.382   1.875  1.00  0.00     0.157 A 
ATOM     16  C   UNL     1      35.306  72.060   2.345  1.00  0.00     0.062 A 
ATOM     17  C   UNL     1      36.535  72.584   2.765  1.00  0.00     0.158 A 
BRANCH  15  18
ATOM     18  O   UNL     1      38.521  73.946   2.226  1.00  0.00    -0.504 OA
ATOM     19  H   UNL     1      38.898  73.939   3.163  1.00  0.00     0.293 HD
ENDBRANCH  15  18
BRANCH  17  20
ATOM     20  O   UNL     1      36.963  72.284   4.060  1.00  0.00    -0.504 OA
ATOM     21  H   UNL     1      37.450  71.435   4.310  1.00  0.00     0.293 HD
ENDBRANCH  17  20
ENDBRANCH   1  12
BRANCH   2  22
ATOM     22  O   UNL     1      34.267  69.478   1.008  1.00  0.00    -0.502 OA
ATOM     23  H   UNL     1      34.073  68.773   1.709  1.00  0.00     0.293 HD
ENDBRANCH   2  22
BRANCH   6  24
ATOM     24  O   UNL     1      29.432  69.140  -1.201  1.00  0.00    -0.507 OA
ATOM     25  H   UNL     1      28.537  68.732  -0.977  1.00  0.00     0.293 HD
ENDBRANCH   6  24
BRANCH   8  26
ATOM     26  O   UNL     1      28.208  73.765  -1.313  1.00  0.00    -0.508 OA
ATOM     27  H   UNL     1      27.223  73.534  -1.373  1.00  0.00     0.293 HD
ENDBRANCH   8  26
TORSDOF 6
ENDMDL
MODEL 8
REMARK VINA RESULT:    -4.311      5.379      7.958
REMARK INTER + INTRA:          -5.471
REMARK INTER:                  -5.162
REMARK INTRA:                  -0.310
REMARK UNBOUND:                -0.278
REMARK SMILES O=c1c(O)c(-c2ccc(O)c(O)c2)oc2cc(O)cc(O)c12
REMARK SMILES IDX 5 1 3 2 2 3 1 4 22 5 20 6 19 7 17 8 16 9 15 10 14 11 6 12
REMARK SMILES IDX 7 13 8 14 9 15 13 16 11 17 10 18 12 20 4 22 21 24 18 26
REMARK H PARENT 10 19 12 21 4 23 21 25 18 27
REMARK Flexibility Score: inf
ROOT
ATOM      1  C   UNL     1      28.994  67.945  -2.195  1.00  0.00     0.180 A 
ATOM      2  C   UNL     1      28.058  68.357  -3.160  1.00  0.00     0.208 A 
ATOM      3  C   UNL     1      27.708  69.715  -3.233  1.00  0.00     0.238 A 
ATOM      4  O   UNL     1      26.829  70.069  -4.061  1.00  0.00    -0.285 OA
ATOM      5  C   UNL     1      28.310  70.646  -2.353  1.00  0.00     0.111 A 
ATOM      6  C   UNL     1      28.060  72.052  -2.366  1.00  0.00     0.134 A 
ATOM      7  C   UNL     1      28.613  72.860  -1.364  1.00  0.00     0.093 A 
ATOM      8  C   UNL     1      29.456  72.326  -0.392  1.00  0.00     0.123 A 
ATOM      9  C   UNL     1      29.755  70.963  -0.405  1.00  0.00     0.094 A 
ATOM     10  C   UNL     1      29.191  70.125  -1.369  1.00  0.00     0.146 A 
ATOM     11  O   UNL     1      29.492  68.832  -1.341  1.00  0.00    -0.452 OA
ENDROOT
BRANCH   1  12
ATOM     12  C   UNL     1      29.432  66.535  -2.073  1.00  0.00     0.025 A 
ATOM     13  C   UNL     1      28.917  65.741  -1.039  1.00  0.00     0.016 A 
ATOM     14  C   UNL     1      29.331  64.415  -0.895  1.00  0.00     0.051 A 
ATOM     15  C   UNL     1      30.276  63.863  -1.765  1.00  0.00     0.157 A 
ATOM     16  C   UNL     1      30.398  65.992  -2.935  1.00  0.00     0.062 A 
ATOM     17  C   UNL     1      30.823  64.664  -2.796  1.00  0.00     0.158 A 
BRANCH  15  18
ATOM     18  O   UNL     1      30.643  62.530  -1.571  1.00  0.00    -0.504 OA
ATOM     19  H   UNL     1      31.565  62.164  -1.762  1.00  0.00     0.293 HD
ENDBRANCH  15  18
BRANCH  17  20
ATOM     20  O   UNL     1      31.785  64.190  -3.690  1.00  0.00    -0.504 OA
ATOM     21  H   UNL     1      32.768  64.113  -3.472  1.00  0.00     0.293 HD
ENDBRANCH  17  20
ENDBRANCH   1  12
BRANCH   2  22
ATOM     22  O   UNL     1      27.459  67.417  -4.003  1.00  0.00    -0.502 OA
ATOM     23  H   UNL     1      27.551  66.419  -3.858  1.00  0.00     0.293 HD
ENDBRANCH   2  22
BRANCH   6  24
ATOM     24  O   UNL     1      27.306  72.701  -3.347  1.00  0.00    -0.507 OA
ATOM     25  H   UNL     1      27.365  73.686  -3.559  1.00  0.00     0.293 HD
ENDBRANCH   6  24
BRANCH   8  26
ATOM     26  O   UNL     1      30.001  73.164   0.580  1.00  0.00    -0.508 OA
ATOM     27  H   UNL     1      29.905  72.960   1.569  1.00  0.00     0.293 HD
ENDBRANCH   8  26
TORSDOF 6
ENDMDL
MODEL 9
REMARK VINA RESULT:    -4.297      6.966      9.017
REMARK INTER + INTRA:          -5.454
REMARK INTER:                  -5.381
REMARK INTRA:                  -0.073
REMARK UNBOUND:                -0.278
REMARK SMILES O=c1c(O)c(-c2ccc(O)c(O)c2)oc2cc(O)cc(O)c12
REMARK SMILES IDX 5 1 3 2 2 3 1 4 22 5 20 6 19 7 17 8 16 9 15 10 14 11 6 12
REMARK SMILES IDX 7 13 8 14 9 15 13 16 11 17 10 18 12 20 4 22 21 24 18 26
REMARK H PARENT 10 19 12 21 4 23 21 25 18 27
REMARK Flexibility Score: inf
ROOT
ATOM      1  C   UNL     1      31.273  64.280   2.422  1.00  0.00     0.180 A 
ATOM      2  C   UNL     1      31.165  64.653   1.071  1.00  0.00     0.208 A 
ATOM      3  C   UNL     1      31.707  65.881   0.658  1.00  0.00     0.238 A 
ATOM      4  O   UNL     1      31.561  66.235  -0.541  1.00  0.00    -0.285 OA
ATOM      5  C   UNL     1      32.365  66.712   1.598  1.00  0.00     0.111 A 
ATOM      6  C   UNL     1      32.987  67.958   1.282  1.00  0.00     0.134 A 
ATOM      7  C   UNL     1      33.493  68.757   2.314  1.00  0.00     0.093 A 
ATOM      8  C   UNL     1      33.460  68.329   3.640  1.00  0.00     0.123 A 
ATOM      9  C   UNL     1      32.907  67.086   3.953  1.00  0.00     0.094 A 
ATOM     10  C   UNL     1      32.362  66.282   2.950  1.00  0.00     0.146 A 
ATOM     11  O   UNL     1      31.837  65.110   3.291  1.00  0.00    -0.452 OA
ENDROOT
BRANCH   1  12
ATOM     12  C   UNL     1      30.748  62.991   2.927  1.00  0.00     0.025 A 
ATOM     13  C   UNL     1      31.188  61.792   2.349  1.00  0.00     0.016 A 
ATOM     14  C   UNL     1      30.691  60.567   2.797  1.00  0.00     0.051 A 
ATOM     15  C   UNL     1      29.735  60.514   3.817  1.00  0.00     0.157 A 
ATOM     16  C   UNL     1      29.771  62.943   3.936  1.00  0.00     0.062 A 
ATOM     17  C   UNL     1      29.264  61.719   4.391  1.00  0.00     0.158 A 
BRANCH  15  18
ATOM     18  O   UNL     1      29.284  59.257   4.225  1.00  0.00    -0.504 OA
ATOM     19  H   UNL     1      29.627  58.771   5.041  1.00  0.00     0.293 HD
ENDBRANCH  15  18
BRANCH  17  20
ATOM     20  O   UNL     1      28.297  61.748   5.398  1.00  0.00    -0.504 OA
ATOM     21  H   UNL     1      28.475  61.491   6.358  1.00  0.00     0.293 HD
ENDBRANCH  17  20
ENDBRANCH   1  12
BRANCH   2  22
ATOM     22  O   UNL     1      30.493  63.828   0.165  1.00  0.00    -0.502 OA
ATOM     23  H   UNL     1      30.542  62.817   0.210  1.00  0.00     0.293 HD
ENDBRANCH   2  22
BRANCH   6  24
ATOM     24  O   UNL     1      33.155  68.438  -0.020  1.00  0.00    -0.507 OA
ATOM     25  H   UNL     1      33.785  68.041  -0.702  1.00  0.00     0.293 HD
ENDBRANCH   6  24
BRANCH   8  26
ATOM     26  O   UNL     1      33.988  69.144   4.639  1.00  0.00    -0.508 OA
ATOM     27  H   UNL     1      33.659  70.093   4.777  1.00  0.00     0.293 HD
ENDBRANCH   8  26
TORSDOF 6
ENDMDL
