MODEL 1
REMARK VINA RESULT:    59.068      0.000      0.000
REMARK INTER + INTRA:          66.305
REMARK INTER:                  64.248
REMARK INTRA:                   2.057
REMARK UNBOUND:                 2.057
REMARK SMILES C[C@H]1[C@H](C)CC[C@@]2(C(=O)[O-])CC[C@@]3(C)C(=CC[C@H]4[C@]5(C)CC[C@@H](O)C(C)(C)[C@H]5CC[C@]43C)[C@H]12
REMARK SMILES IDX 7 1 6 2 11 3 33 4 5 5 12 6 15 7 2 8 3 9 13 10 16 11 1 12
REMARK SMILES IDX 4 13 14 14 31 15 17 16 18 17 30 18 32 19 19 20 29 21 28 22
REMARK SMILES IDX 21 23 20 24 25 25 22 26 23 27 26 28 27 29 8 30 9 31 10 32
REMARK SMILES IDX 24 33
REMARK H PARENT 24 34
REMARK Flexibility Score: inf
ROOT
ATOM      1  C   UNL     1      12.142  22.709  -1.687  1.00  0.00     0.017 C 
ATOM      2  C   UNL     1      11.927  22.874  -3.252  1.00  0.00     0.014 C 
ATOM      3  C   UNL     1      11.902  21.211  -1.296  1.00  0.00     0.014 C 
ATOM      4  C   UNL     1      13.615  23.113  -1.299  1.00  0.00     0.030 C 
ATOM      5  C   UNL     1      13.217  23.230  -4.043  1.00  0.00     0.004 C 
ATOM      6  C   UNL     1      12.376  20.839   0.138  1.00  0.00     0.013 C 
ATOM      7  C   UNL     1      13.855  22.807   0.169  1.00  0.00    -0.063 C 
ATOM      8  C   UNL     1      13.937  24.524  -1.867  1.00  0.00    -0.003 C 
ATOM      9  C   UNL     1      13.996  24.437  -3.432  1.00  0.00    -0.011 C 
ATOM     10  C   UNL     1      13.811  21.308   0.528  1.00  0.00    -0.006 C 
ATOM     11  C   UNL     1      13.541  23.748   1.085  1.00  0.00    -0.027 C 
ATOM     12  C   UNL     1      15.270  25.088  -1.318  1.00  0.00     0.008 C 
ATOM     13  C   UNL     1      13.594  25.766  -4.125  1.00  0.00     0.008 C 
ATOM     14  C   UNL     1      14.812  20.482  -0.362  1.00  0.00     0.017 C 
ATOM     15  C   UNL     1      14.173  21.051   2.104  1.00  0.00    -0.020 C 
ATOM     16  C   UNL     1      12.903  23.345   2.371  1.00  0.00     0.032 C 
ATOM     17  C   UNL     1      13.676  22.218   3.086  1.00  0.00     0.006 C 
ATOM     18  C   UNL     1      13.572  19.666   2.557  1.00  0.00     0.008 C 
ATOM     19  C   UNL     1      15.740  20.967   2.250  1.00  0.00     0.012 C 
ATOM     20  C   UNL     1      13.008  21.736   4.455  1.00  0.00    -0.025 C 
ATOM     21  C   UNL     1      13.799  19.279   4.029  1.00  0.00     0.005 C 
ATOM     22  C   UNL     1      13.828  20.501   4.987  1.00  0.00     0.003 C 
ATOM     23  C   UNL     1      13.110  22.902   5.536  1.00  0.00     0.010 C 
ATOM     24  C   UNL     1      11.485  21.332   4.259  1.00  0.00     0.012 C 
ATOM     25  C   UNL     1      13.644  20.206   6.520  1.00  0.00    -0.006 C 
ATOM     26  C   UNL     1      14.285  22.770   6.516  1.00  0.00     0.033 C 
ATOM     27  C   UNL     1      14.335  21.409   7.285  1.00  0.00     0.120 C 
ATOM     28  C   UNL     1      14.357  18.884   6.936  1.00  0.00     0.014 C 
ATOM     29  C   UNL     1      12.147  20.067   6.953  1.00  0.00     0.014 C 
ENDROOT
BRANCH   1  30
ATOM     30  C   UNL     1      11.091  23.589  -0.936  1.00  0.00     0.048 C 
ATOM     31  O   UNL     1       9.853  23.339  -0.992  1.00  0.00    -0.550 OA
ATOM     32  O   UNL     1      11.528  24.464   0.055  1.00  0.00    -0.550 OA
ENDBRANCH   1  30
BRANCH  27  33
ATOM     33  O   UNL     1      13.780  21.563   8.566  1.00  0.00    -0.393 OA
ATOM     34  H   UNL     1      14.507  21.488   9.231  1.00  0.00     0.210 HD
ENDBRANCH  27  33
TORSDOF 2
ENDMDL
