MODEL 1
REMARK VINA RESULT:    -3.954      0.000      0.000
REMARK INTER + INTRA:          -9.371
REMARK INTER:                  -7.422
REMARK INTRA:                  -1.949
REMARK UNBOUND:                -1.949
REMARK SMILES CCCCCCCCC=CCCCCCCCC(=O)[O-]
REMARK SMILES IDX 10 1 9 2 11 3 12 4 13 5 14 6 15 7 16 8 17 9 18 10 19 11
REMARK SMILES IDX 20 12 8 13 7 14 6 15 5 16 4 17 3 18 2 19 1 20
REMARK H PARENT
REMARK Flexibility Score: inf
ROOT
ATOM      1  C   UNL     1     -20.337  17.801  -3.614  1.00  0.00    -0.031 C 
ATOM      2  C   UNL     1     -21.011  16.783  -4.185  1.00  0.00    -0.031 C 
ENDROOT
BRANCH   1   3
ATOM      3  C   UNL     1     -20.434  18.218  -2.166  1.00  0.00     0.027 C 
BRANCH   3   4
ATOM      4  C   UNL     1     -21.253  19.504  -1.998  1.00  0.00     0.004 C 
BRANCH   4   5
ATOM      5  C   UNL     1     -22.523  19.507  -2.865  1.00  0.00     0.000 C 
BRANCH   5   6
ATOM      6  C   UNL     1     -23.737  18.906  -2.137  1.00  0.00     0.000 C 
BRANCH   6   7
ATOM      7  C   UNL     1     -23.431  18.563  -0.669  1.00  0.00     0.000 C 
BRANCH   7   8
ATOM      8  C   UNL     1     -23.612  17.068  -0.361  1.00  0.00     0.006 C 
BRANCH   8   9
ATOM      9  C   UNL     1     -22.294  16.371  -0.001  1.00  0.00     0.053 C 
BRANCH   9  10
ATOM     10  C   UNL     1     -22.297  15.955   1.438  1.00  0.00     0.041 C 
ATOM     11  O   UNL     1     -21.213  15.860   2.073  1.00  0.00    -0.550 OA
ATOM     12  O   UNL     1     -23.501  15.707   2.087  1.00  0.00    -0.550 OA
ENDBRANCH   9  10
ENDBRANCH   8   9
ENDBRANCH   7   8
ENDBRANCH   6   7
ENDBRANCH   5   6
ENDBRANCH   4   5
ENDBRANCH   3   4
ENDBRANCH   1   3
BRANCH   2  13
ATOM     13  C   UNL     1     -22.032  15.908  -3.496  1.00  0.00     0.027 C 
BRANCH  13  14
ATOM     14  C   UNL     1     -23.450  16.174  -4.022  1.00  0.00     0.004 C 
BRANCH  14  15
ATOM     15  C   UNL     1     -23.444  16.889  -5.383  1.00  0.00     0.000 C 
BRANCH  15  16
ATOM     16  C   UNL     1     -24.070  16.043  -6.503  1.00  0.00     0.000 C 
BRANCH  16  17
ATOM     17  C   UNL     1     -23.074  15.725  -7.629  1.00  0.00    -0.000 C 
BRANCH  17  18
ATOM     18  C   UNL     1     -21.919  14.853  -7.113  1.00  0.00    -0.000 C 
BRANCH  18  19
ATOM     19  C   UNL     1     -20.742  14.791  -8.098  1.00  0.00    -0.003 C 
ATOM     20  C   UNL     1     -21.144  15.165  -9.525  1.00  0.00     0.004 C 
ENDBRANCH  18  19
ENDBRANCH  17  18
ENDBRANCH  16  17
ENDBRANCH  15  16
ENDBRANCH  14  15
ENDBRANCH  13  14
ENDBRANCH   2  13
TORSDOF 15
ENDMDL
MODEL 2
REMARK VINA RESULT:    -3.755      3.318      6.919
REMARK INTER + INTRA:          -8.997
REMARK INTER:                  -6.886
REMARK INTRA:                  -2.111
REMARK UNBOUND:                -1.949
REMARK SMILES CCCCCCCCC=CCCCCCCCC(=O)[O-]
REMARK SMILES IDX 10 1 9 2 11 3 12 4 13 5 14 6 15 7 16 8 17 9 18 10 19 11
REMARK SMILES IDX 20 12 8 13 7 14 6 15 5 16 4 17 3 18 2 19 1 20
REMARK H PARENT
REMARK Flexibility Score: inf
ROOT
ATOM      1  C   UNL     1     -20.157  17.963  -2.288  1.00  0.00    -0.031 C 
ATOM      2  C   UNL     1     -20.738  19.124  -1.927  1.00  0.00    -0.031 C 
ENDROOT
BRANCH   1   3
ATOM      3  C   UNL     1     -20.421  17.208  -3.569  1.00  0.00     0.027 C 
BRANCH   3   4
ATOM      4  C   UNL     1     -21.133  15.875  -3.307  1.00  0.00     0.004 C 
BRANCH   4   5
ATOM      5  C   UNL     1     -22.610  15.906  -3.735  1.00  0.00     0.000 C 
BRANCH   5   6
ATOM      6  C   UNL     1     -22.879  16.924  -4.855  1.00  0.00     0.000 C 
BRANCH   6   7
ATOM      7  C   UNL     1     -24.125  16.570  -5.685  1.00  0.00     0.000 C 
BRANCH   7   8
ATOM      8  C   UNL     1     -23.891  15.371  -6.619  1.00  0.00     0.006 C 
BRANCH   8   9
ATOM      9  C   UNL     1     -23.172  15.761  -7.917  1.00  0.00     0.053 C 
BRANCH   9  10
ATOM     10  C   UNL     1     -21.807  15.147  -7.963  1.00  0.00     0.041 C 
ATOM     11  O   UNL     1     -21.240  14.780  -6.899  1.00  0.00    -0.550 OA
ATOM     12  O   UNL     1     -21.175  14.945  -9.185  1.00  0.00    -0.550 OA
ENDBRANCH   9  10
ENDBRANCH   8   9
ENDBRANCH   7   8
ENDBRANCH   6   7
ENDBRANCH   5   6
ENDBRANCH   4   5
ENDBRANCH   3   4
ENDBRANCH   1   3
BRANCH   2  13
ATOM     13  C   UNL     1     -21.804  19.854  -2.710  1.00  0.00     0.027 C 
BRANCH  13  14
ATOM     14  C   UNL     1     -23.197  19.259  -2.460  1.00  0.00     0.004 C 
BRANCH  14  15
ATOM     15  C   UNL     1     -23.367  18.757  -1.017  1.00  0.00     0.000 C 
BRANCH  15  16
ATOM     16  C   UNL     1     -23.707  17.260  -0.944  1.00  0.00     0.000 C 
BRANCH  16  17
ATOM     17  C   UNL     1     -23.361  16.642   0.420  1.00  0.00    -0.000 C 
BRANCH  17  18
ATOM     18  C   UNL     1     -21.868  16.289   0.500  1.00  0.00    -0.000 C 
BRANCH  18  19
ATOM     19  C   UNL     1     -21.514  15.508   1.775  1.00  0.00    -0.003 C 
ATOM     20  C   UNL     1     -22.651  15.500   2.798  1.00  0.00     0.004 C 
ENDBRANCH  18  19
ENDBRANCH  17  18
ENDBRANCH  16  17
ENDBRANCH  15  16
ENDBRANCH  14  15
ENDBRANCH  13  14
ENDBRANCH   2  13
TORSDOF 15
ENDMDL
MODEL 3
REMARK VINA RESULT:    -3.471      3.229      7.571
REMARK INTER + INTRA:          -8.465
REMARK INTER:                  -7.074
REMARK INTRA:                  -1.391
REMARK UNBOUND:                -1.949
REMARK SMILES CCCCCCCCC=CCCCCCCCC(=O)[O-]
REMARK SMILES IDX 10 1 9 2 11 3 12 4 13 5 14 6 15 7 16 8 17 9 18 10 19 11
REMARK SMILES IDX 20 12 8 13 7 14 6 15 5 16 4 17 3 18 2 19 1 20
REMARK H PARENT
REMARK Flexibility Score: inf
ROOT
ATOM      1  C   UNL     1     -20.374  17.909  -2.047  1.00  0.00    -0.031 C 
ATOM      2  C   UNL     1     -20.734  17.039  -1.082  1.00  0.00    -0.031 C 
ENDROOT
BRANCH   1   3
ATOM      3  C   UNL     1     -21.238  18.343  -3.207  1.00  0.00     0.027 C 
BRANCH   3   4
ATOM      4  C   UNL     1     -22.276  19.388  -2.783  1.00  0.00     0.004 C 
BRANCH   4   5
ATOM      5  C   UNL     1     -23.693  18.799  -2.678  1.00  0.00     0.000 C 
BRANCH   5   6
ATOM      6  C   UNL     1     -24.116  18.049  -3.952  1.00  0.00     0.000 C 
BRANCH   6   7
ATOM      7  C   UNL     1     -24.125  16.522  -3.760  1.00  0.00     0.000 C 
BRANCH   7   8
ATOM      8  C   UNL     1     -24.125  15.758  -5.094  1.00  0.00     0.006 C 
BRANCH   8   9
ATOM      9  C   UNL     1     -23.130  16.335  -6.110  1.00  0.00     0.053 C 
BRANCH   9  10
ATOM     10  C   UNL     1     -21.885  15.505  -6.151  1.00  0.00     0.041 C 
ATOM     11  O   UNL     1     -21.609  14.826  -7.177  1.00  0.00    -0.550 OA
ATOM     12  O   UNL     1     -21.010  15.507  -5.071  1.00  0.00    -0.550 OA
ENDBRANCH   9  10
ENDBRANCH   8   9
ENDBRANCH   7   8
ENDBRANCH   6   7
ENDBRANCH   5   6
ENDBRANCH   4   5
ENDBRANCH   3   4
ENDBRANCH   1   3
BRANCH   2  13
ATOM     13  C   UNL     1     -22.047  16.294  -1.016  1.00  0.00     0.027 C 
BRANCH  13  14
ATOM     14  C   UNL     1     -22.690  16.405   0.374  1.00  0.00     0.004 C 
BRANCH  14  15
ATOM     15  C   UNL     1     -21.679  16.160   1.507  1.00  0.00     0.000 C 
BRANCH  15  16
ATOM     16  C   UNL     1     -22.173  15.125   2.531  1.00  0.00     0.000 C 
BRANCH  16  17
ATOM     17  C   UNL     1     -23.610  15.400   3.002  1.00  0.00    -0.000 C 
BRANCH  17  18
ATOM     18  C   UNL     1     -23.701  15.367   4.536  1.00  0.00    -0.000 C 
BRANCH  18  19
ATOM     19  C   UNL     1     -23.798  16.771   5.151  1.00  0.00    -0.003 C 
ATOM     20  C   UNL     1     -22.493  17.220   5.809  1.00  0.00     0.004 C 
ENDBRANCH  18  19
ENDBRANCH  17  18
ENDBRANCH  16  17
ENDBRANCH  15  16
ENDBRANCH  14  15
ENDBRANCH  13  14
ENDBRANCH   2  13
TORSDOF 15
ENDMDL
MODEL 4
REMARK VINA RESULT:    -3.455      2.705      7.374
REMARK INTER + INTRA:          -8.434
REMARK INTER:                  -7.323
REMARK INTRA:                  -1.110
REMARK UNBOUND:                -1.949
REMARK SMILES CCCCCCCCC=CCCCCCCCC(=O)[O-]
REMARK SMILES IDX 10 1 9 2 11 3 12 4 13 5 14 6 15 7 16 8 17 9 18 10 19 11
REMARK SMILES IDX 20 12 8 13 7 14 6 15 5 16 4 17 3 18 2 19 1 20
REMARK H PARENT
REMARK Flexibility Score: inf
ROOT
ATOM      1  C   UNL     1     -20.938  15.367  -2.755  1.00  0.00    -0.031 C 
ATOM      2  C   UNL     1     -21.210  15.484  -1.440  1.00  0.00    -0.031 C 
ENDROOT
BRANCH   1   3
ATOM      3  C   UNL     1     -21.186  16.427  -3.802  1.00  0.00     0.027 C 
BRANCH   3   4
ATOM      4  C   UNL     1     -22.108  15.919  -4.918  1.00  0.00     0.004 C 
BRANCH   4   5
ATOM      5  C   UNL     1     -23.452  16.666  -4.953  1.00  0.00     0.000 C 
BRANCH   5   6
ATOM      6  C   UNL     1     -23.883  17.171  -3.566  1.00  0.00     0.000 C 
BRANCH   6   7
ATOM      7  C   UNL     1     -24.124  18.691  -3.542  1.00  0.00     0.000 C 
BRANCH   7   8
ATOM      8  C   UNL     1     -23.072  19.442  -2.709  1.00  0.00     0.006 C 
BRANCH   8   9
ATOM      9  C   UNL     1     -21.682  19.432  -3.358  1.00  0.00     0.053 C 
BRANCH   9  10
ATOM     10  C   UNL     1     -20.643  19.875  -2.375  1.00  0.00     0.041 C 
ATOM     11  O   UNL     1     -20.413  21.102  -2.206  1.00  0.00    -0.550 OA
ATOM     12  O   UNL     1     -19.953  18.934  -1.620  1.00  0.00    -0.550 OA
ENDBRANCH   9  10
ENDBRANCH   8   9
ENDBRANCH   7   8
ENDBRANCH   6   7
ENDBRANCH   5   6
ENDBRANCH   4   5
ENDBRANCH   3   4
ENDBRANCH   1   3
BRANCH   2  13
ATOM     13  C   UNL     1     -21.867  16.674  -0.780  1.00  0.00     0.027 C 
BRANCH  13  14
ATOM     14  C   UNL     1     -22.546  16.284   0.540  1.00  0.00     0.004 C 
BRANCH  14  15
ATOM     15  C   UNL     1     -21.531  15.892   1.626  1.00  0.00     0.000 C 
BRANCH  15  16
ATOM     16  C   UNL     1     -22.169  15.104   2.781  1.00  0.00     0.000 C 
BRANCH  16  17
ATOM     17  C   UNL     1     -23.596  15.578   3.101  1.00  0.00    -0.000 C 
BRANCH  17  18
ATOM     18  C   UNL     1     -23.881  15.482   4.608  1.00  0.00    -0.000 C 
BRANCH  18  19
ATOM     19  C   UNL     1     -23.837  16.851   5.304  1.00  0.00    -0.003 C 
ATOM     20  C   UNL     1     -22.454  17.185   5.864  1.00  0.00     0.004 C 
ENDBRANCH  18  19
ENDBRANCH  17  18
ENDBRANCH  16  17
ENDBRANCH  15  16
ENDBRANCH  14  15
ENDBRANCH  13  14
ENDBRANCH   2  13
TORSDOF 15
ENDMDL
MODEL 5
REMARK VINA RESULT:    -3.316      2.421      4.897
REMARK INTER + INTRA:          -8.173
REMARK INTER:                  -6.769
REMARK INTRA:                  -1.404
REMARK UNBOUND:                -1.949
REMARK SMILES CCCCCCCCC=CCCCCCCCC(=O)[O-]
REMARK SMILES IDX 10 1 9 2 11 3 12 4 13 5 14 6 15 7 16 8 17 9 18 10 19 11
REMARK SMILES IDX 20 12 8 13 7 14 6 15 5 16 4 17 3 18 2 19 1 20
REMARK H PARENT
REMARK Flexibility Score: inf
ROOT
ATOM      1  C   UNL     1     -21.124  15.968  -3.341  1.00  0.00    -0.031 C 
ATOM      2  C   UNL     1     -21.754  16.215  -4.507  1.00  0.00    -0.031 C 
ENDROOT
BRANCH   1   3
ATOM      3  C   UNL     1     -21.788  15.520  -2.061  1.00  0.00     0.027 C 
BRANCH   3   4
ATOM      4  C   UNL     1     -21.277  16.309  -0.849  1.00  0.00     0.004 C 
BRANCH   4   5
ATOM      5  C   UNL     1     -22.221  16.202   0.360  1.00  0.00     0.000 C 
BRANCH   5   6
ATOM      6  C   UNL     1     -21.474  15.879   1.665  1.00  0.00     0.000 C 
BRANCH   6   7
ATOM      7  C   UNL     1     -22.351  15.115   2.672  1.00  0.00     0.000 C 
BRANCH   7   8
ATOM      8  C   UNL     1     -23.472  15.987   3.260  1.00  0.00     0.006 C 
BRANCH   8   9
ATOM      9  C   UNL     1     -23.677  15.757   4.763  1.00  0.00     0.053 C 
BRANCH   9  10
ATOM     10  C   UNL     1     -23.265  16.969   5.539  1.00  0.00     0.041 C 
ATOM     11  O   UNL     1     -24.125  17.824   5.882  1.00  0.00    -0.550 OA
ATOM     12  O   UNL     1     -21.937  17.137   5.914  1.00  0.00    -0.550 OA
ENDBRANCH   9  10
ENDBRANCH   8   9
ENDBRANCH   7   8
ENDBRANCH   6   7
ENDBRANCH   5   6
ENDBRANCH   4   5
ENDBRANCH   3   4
ENDBRANCH   1   3
BRANCH   2  13
ATOM     13  C   UNL     1     -23.246  16.147  -4.732  1.00  0.00     0.027 C 
BRANCH  13  14
ATOM     14  C   UNL     1     -23.940  17.456  -4.330  1.00  0.00     0.004 C 
BRANCH  14  15
ATOM     15  C   UNL     1     -24.023  17.628  -2.804  1.00  0.00     0.000 C 
BRANCH  15  16
ATOM     16  C   UNL     1     -23.346  18.918  -2.313  1.00  0.00     0.000 C 
BRANCH  16  17
ATOM     17  C   UNL     1     -22.506  19.597  -3.406  1.00  0.00    -0.000 C 
BRANCH  17  18
ATOM     18  C   UNL     1     -21.004  19.415  -3.138  1.00  0.00    -0.000 C 
BRANCH  18  19
ATOM     19  C   UNL     1     -20.592  19.905  -1.741  1.00  0.00    -0.003 C 
ATOM     20  C   UNL     1     -20.000  21.315  -1.760  1.00  0.00     0.004 C 
ENDBRANCH  18  19
ENDBRANCH  17  18
ENDBRANCH  16  17
ENDBRANCH  15  16
ENDBRANCH  14  15
ENDBRANCH  13  14
ENDBRANCH   2  13
TORSDOF 15
ENDMDL
MODEL 6
REMARK VINA RESULT:    -3.006      2.027      3.137
REMARK INTER + INTRA:          -7.592
REMARK INTER:                  -6.285
REMARK INTRA:                  -1.306
REMARK UNBOUND:                -1.949
REMARK SMILES CCCCCCCCC=CCCCCCCCC(=O)[O-]
REMARK SMILES IDX 10 1 9 2 11 3 12 4 13 5 14 6 15 7 16 8 17 9 18 10 19 11
REMARK SMILES IDX 20 12 8 13 7 14 6 15 5 16 4 17 3 18 2 19 1 20
REMARK H PARENT
REMARK Flexibility Score: inf
ROOT
ATOM      1  C   UNL     1     -20.887  16.160  -2.737  1.00  0.00    -0.031 C 
ATOM      2  C   UNL     1     -21.618  16.343  -3.854  1.00  0.00    -0.031 C 
ENDROOT
BRANCH   1   3
ATOM      3  C   UNL     1     -21.392  15.569  -1.442  1.00  0.00     0.027 C 
BRANCH   3   4
ATOM      4  C   UNL     1     -21.769  16.657  -0.429  1.00  0.00     0.004 C 
BRANCH   4   5
ATOM      5  C   UNL     1     -23.291  16.789  -0.250  1.00  0.00     0.000 C 
BRANCH   5   6
ATOM      6  C   UNL     1     -23.876  17.982  -1.025  1.00  0.00     0.000 C 
BRANCH   6   7
ATOM      7  C   UNL     1     -22.825  19.068  -1.314  1.00  0.00     0.000 C 
BRANCH   7   8
ATOM      8  C   UNL     1     -22.835  19.525  -2.781  1.00  0.00     0.006 C 
BRANCH   8   9
ATOM      9  C   UNL     1     -21.446  19.943  -3.283  1.00  0.00     0.053 C 
BRANCH   9  10
ATOM     10  C   UNL     1     -20.502  20.106  -2.133  1.00  0.00     0.041 C 
ATOM     11  O   UNL     1     -20.148  21.258  -1.762  1.00  0.00    -0.550 OA
ATOM     12  O   UNL     1     -20.040  18.989  -1.447  1.00  0.00    -0.550 OA
ENDBRANCH   9  10
ENDBRANCH   8   9
ENDBRANCH   7   8
ENDBRANCH   6   7
ENDBRANCH   5   6
ENDBRANCH   4   5
ENDBRANCH   3   4
ENDBRANCH   1   3
BRANCH   2  13
ATOM     13  C   UNL     1     -23.092  16.045  -3.999  1.00  0.00     0.027 C 
BRANCH  13  14
ATOM     14  C   UNL     1     -23.840  17.207  -4.670  1.00  0.00     0.004 C 
BRANCH  14  15
ATOM     15  C   UNL     1     -24.125  16.936  -6.157  1.00  0.00     0.000 C 
BRANCH  15  16
ATOM     16  C   UNL     1     -24.038  15.444  -6.517  1.00  0.00     0.000 C 
BRANCH  16  17
ATOM     17  C   UNL     1     -23.048  15.169  -7.659  1.00  0.00    -0.000 C 
BRANCH  17  18
ATOM     18  C   UNL     1     -21.615  15.028  -7.123  1.00  0.00    -0.000 C 
BRANCH  18  19
ATOM     19  C   UNL     1     -20.601  14.705  -8.230  1.00  0.00    -0.003 C 
ATOM     20  C   UNL     1     -21.092  15.113  -9.620  1.00  0.00     0.004 C 
ENDBRANCH  18  19
ENDBRANCH  17  18
ENDBRANCH  16  17
ENDBRANCH  15  16
ENDBRANCH  14  15
ENDBRANCH  13  14
ENDBRANCH   2  13
TORSDOF 15
ENDMDL
MODEL 7
REMARK VINA RESULT:    -2.983      3.593      7.382
REMARK INTER + INTRA:          -7.549
REMARK INTER:                  -6.044
REMARK INTRA:                  -1.505
REMARK UNBOUND:                -1.949
REMARK SMILES CCCCCCCCC=CCCCCCCCC(=O)[O-]
REMARK SMILES IDX 10 1 9 2 11 3 12 4 13 5 14 6 15 7 16 8 17 9 18 10 19 11
REMARK SMILES IDX 20 12 8 13 7 14 6 15 5 16 4 17 3 18 2 19 1 20
REMARK H PARENT
REMARK Flexibility Score: inf
ROOT
ATOM      1  C   UNL     1     -21.132  20.000  -2.367  1.00  0.00    -0.031 C 
ATOM      2  C   UNL     1     -20.372  19.102  -1.709  1.00  0.00    -0.031 C 
ENDROOT
BRANCH   1   3
ATOM      3  C   UNL     1     -22.119  19.680  -3.464  1.00  0.00     0.027 C 
BRANCH   3   4
ATOM      4  C   UNL     1     -23.471  19.228  -2.899  1.00  0.00     0.004 C 
BRANCH   4   5
ATOM      5  C   UNL     1     -24.068  18.046  -3.682  1.00  0.00     0.000 C 
BRANCH   5   6
ATOM      6  C   UNL     1     -23.102  17.491  -4.742  1.00  0.00     0.000 C 
BRANCH   6   7
ATOM      7  C   UNL     1     -22.275  16.304  -4.219  1.00  0.00     0.000 C 
BRANCH   7   8
ATOM      8  C   UNL     1     -21.586  15.521  -5.349  1.00  0.00     0.006 C 
BRANCH   8   9
ATOM      9  C   UNL     1     -22.515  15.257  -6.541  1.00  0.00     0.053 C 
BRANCH   9  10
ATOM     10  C   UNL     1     -21.718  15.087  -7.797  1.00  0.00     0.041 C 
ATOM     11  O   UNL     1     -22.186  15.474  -8.902  1.00  0.00    -0.550 OA
ATOM     12  O   UNL     1     -20.443  14.535  -7.743  1.00  0.00    -0.550 OA
ENDBRANCH   9  10
ENDBRANCH   8   9
ENDBRANCH   7   8
ENDBRANCH   6   7
ENDBRANCH   5   6
ENDBRANCH   4   5
ENDBRANCH   3   4
ENDBRANCH   1   3
BRANCH   2  13
ATOM     13  C   UNL     1     -20.323  17.618  -1.988  1.00  0.00     0.027 C 
BRANCH  13  14
ATOM     14  C   UNL     1     -20.833  16.801  -0.792  1.00  0.00     0.004 C 
BRANCH  14  15
ATOM     15  C   UNL     1     -22.353  16.936  -0.599  1.00  0.00     0.000 C 
BRANCH  15  16
ATOM     16  C   UNL     1     -22.852  16.256   0.686  1.00  0.00     0.000 C 
BRANCH  16  17
ATOM     17  C   UNL     1     -21.706  15.889   1.642  1.00  0.00    -0.000 C 
BRANCH  17  18
ATOM     18  C   UNL     1     -22.210  14.992   2.784  1.00  0.00    -0.000 C 
BRANCH  18  19
ATOM     19  C   UNL     1     -23.637  15.348   3.228  1.00  0.00    -0.003 C 
ATOM     20  C   UNL     1     -23.697  15.864   4.666  1.00  0.00     0.004 C 
ENDBRANCH  18  19
ENDBRANCH  17  18
ENDBRANCH  16  17
ENDBRANCH  15  16
ENDBRANCH  14  15
ENDBRANCH  13  14
ENDBRANCH   2  13
TORSDOF 15
ENDMDL
