MODEL 1
REMARK VINA RESULT:    -6.743      0.000      0.000
REMARK INTER + INTRA:          -7.444
REMARK INTER:                  -7.334
REMARK INTRA:                  -0.110
REMARK UNBOUND:                -0.110
REMARK SMILES CC(=O)[C@@H]1CC[C@@H]2[C@@H]3CC=C4C[C@@H](O)CC[C@]4(C)[C@H]3CC[C@@]21C
REMARK SMILES IDX 4 1 5 2 6 3 7 4 22 5 21 6 20 7 19 8 8 9 9 10 10 11 11 12
REMARK SMILES IDX 17 13 16 14 15 15 13 16 12 17 18 18 23 19 2 20 1 21 3 22
REMARK SMILES IDX 14 23
REMARK H PARENT 14 24
REMARK Flexibility Score: inf
ROOT
ATOM      1  C   UNL     1     -13.386  38.607   9.258  1.00  0.00     0.062 C 
ATOM      2  C   UNL     1     -14.379  38.417  10.415  1.00  0.00     0.012 C 
ATOM      3  C   UNL     1     -15.764  38.300   9.775  1.00  0.00     0.005 C 
ATOM      4  C   UNL     1     -15.563  38.425   8.254  1.00  0.00    -0.001 C 
ATOM      5  C   UNL     1     -14.094  38.019   8.011  1.00  0.00    -0.020 C 
ATOM      6  C   UNL     1     -13.951  36.468   7.972  1.00  0.00     0.008 C 
ATOM      7  C   UNL     1     -14.924  35.806   6.997  1.00  0.00     0.005 C 
ATOM      8  C   UNL     1     -16.398  36.135   7.348  1.00  0.00     0.003 C 
ATOM      9  C   UNL     1     -16.603  37.670   7.365  1.00  0.00     0.000 C 
ATOM     10  C   UNL     1     -18.039  38.019   7.790  1.00  0.00     0.031 C 
ATOM     11  C   UNL     1     -19.076  37.220   7.062  1.00  0.00    -0.027 C 
ATOM     12  C   UNL     1     -18.853  35.983   6.571  1.00  0.00    -0.065 C 
ATOM     13  C   UNL     1     -17.438  35.405   6.402  1.00  0.00    -0.008 C 
ATOM     14  C   UNL     1     -17.475  33.891   6.780  1.00  0.00     0.014 C 
ATOM     15  C   UNL     1     -18.621  33.112   6.114  1.00  0.00     0.033 C 
ATOM     16  C   UNL     1     -19.979  33.744   6.448  1.00  0.00     0.118 C 
ATOM     17  C   UNL     1     -20.030  35.212   6.004  1.00  0.00     0.063 C 
ATOM     18  C   UNL     1     -17.041  35.552   4.907  1.00  0.00     0.016 C 
ATOM     19  C   UNL     1     -13.545  38.660   6.712  1.00  0.00     0.012 C 
ENDROOT
BRANCH   1  20
ATOM     20  C   UNL     1     -11.977  38.080   9.496  1.00  0.00     0.133 C 
ATOM     21  C   UNL     1     -11.646  37.081  10.568  1.00  0.00     0.088 C 
ATOM     22  O   UNL     1     -11.069  38.505   8.796  1.00  0.00    -0.300 OA
ENDBRANCH   1  20
BRANCH  16  23
ATOM     23  O   UNL     1     -21.025  33.010   5.865  1.00  0.00    -0.393 OA
ATOM     24  H   UNL     1     -20.618  32.335   5.260  1.00  0.00     0.210 HD
ENDBRANCH  16  23
TORSDOF 2
ENDMDL
MODEL 2
REMARK VINA RESULT:    -6.541      1.785      6.945
REMARK INTER + INTRA:          -7.225
REMARK INTER:                  -7.134
REMARK INTRA:                  -0.091
REMARK UNBOUND:                -0.110
REMARK SMILES CC(=O)[C@@H]1CC[C@@H]2[C@@H]3CC=C4C[C@@H](O)CC[C@]4(C)[C@H]3CC[C@@]21C
REMARK SMILES IDX 4 1 5 2 6 3 7 4 22 5 21 6 20 7 19 8 8 9 9 10 10 11 11 12
REMARK SMILES IDX 17 13 16 14 15 15 13 16 12 17 18 18 23 19 2 20 1 21 3 22
REMARK SMILES IDX 14 23
REMARK H PARENT 14 24
REMARK Flexibility Score: inf
ROOT
ATOM      1  C   UNL     1     -19.497  34.857   6.622  1.00  0.00     0.062 C 
ATOM      2  C   UNL     1     -19.647  36.384   6.706  1.00  0.00     0.012 C 
ATOM      3  C   UNL     1     -18.302  36.919   7.203  1.00  0.00     0.005 C 
ATOM      4  C   UNL     1     -17.385  35.699   7.405  1.00  0.00    -0.001 C 
ATOM      5  C   UNL     1     -17.974  34.602   6.492  1.00  0.00    -0.020 C 
ATOM      6  C   UNL     1     -17.502  34.800   5.020  1.00  0.00     0.008 C 
ATOM      7  C   UNL     1     -15.985  34.932   4.896  1.00  0.00     0.005 C 
ATOM      8  C   UNL     1     -15.444  36.122   5.729  1.00  0.00     0.003 C 
ATOM      9  C   UNL     1     -15.857  35.956   7.212  1.00  0.00     0.000 C 
ATOM     10  C   UNL     1     -15.398  37.167   8.041  1.00  0.00     0.031 C 
ATOM     11  C   UNL     1     -13.970  37.544   7.788  1.00  0.00    -0.027 C 
ATOM     12  C   UNL     1     -13.333  37.307   6.623  1.00  0.00    -0.065 C 
ATOM     13  C   UNL     1     -13.882  36.335   5.564  1.00  0.00    -0.008 C 
ATOM     14  C   UNL     1     -13.609  36.939   4.151  1.00  0.00     0.014 C 
ATOM     15  C   UNL     1     -12.166  37.428   3.953  1.00  0.00     0.033 C 
ATOM     16  C   UNL     1     -11.788  38.464   5.020  1.00  0.00     0.118 C 
ATOM     17  C   UNL     1     -11.943  37.885   6.433  1.00  0.00     0.063 C 
ATOM     18  C   UNL     1     -13.112  34.993   5.708  1.00  0.00     0.016 C 
ATOM     19  C   UNL     1     -17.606  33.189   7.008  1.00  0.00     0.012 C 
ENDROOT
BRANCH   1  20
ATOM     20  C   UNL     1     -20.350  34.161   5.568  1.00  0.00     0.133 C 
ATOM     21  C   UNL     1     -20.834  34.847   4.322  1.00  0.00     0.088 C 
ATOM     22  O   UNL     1     -20.673  32.998   5.756  1.00  0.00    -0.300 OA
ENDBRANCH   1  20
BRANCH  16  23
ATOM     23  O   UNL     1     -10.479  38.933   4.816  1.00  0.00    -0.393 OA
ATOM     24  H   UNL     1     -10.248  38.773   3.863  1.00  0.00     0.210 HD
ENDBRANCH  16  23
TORSDOF 2
ENDMDL
MODEL 3
REMARK VINA RESULT:    -6.443     10.802     13.783
REMARK INTER + INTRA:          -7.118
REMARK INTER:                  -7.075
REMARK INTRA:                  -0.043
REMARK UNBOUND:                -0.110
REMARK SMILES CC(=O)[C@@H]1CC[C@@H]2[C@@H]3CC=C4C[C@@H](O)CC[C@]4(C)[C@H]3CC[C@@]21C
REMARK SMILES IDX 4 1 5 2 6 3 7 4 22 5 21 6 20 7 19 8 8 9 9 10 10 11 11 12
REMARK SMILES IDX 17 13 16 14 15 15 13 16 12 17 18 18 23 19 2 20 1 21 3 22
REMARK SMILES IDX 14 23
REMARK H PARENT 14 24
REMARK Flexibility Score: inf
ROOT
ATOM      1  C   UNL     1     -12.248  37.810  -4.342  1.00  0.00     0.062 C 
ATOM      2  C   UNL     1     -11.238  37.130  -5.279  1.00  0.00     0.012 C 
ATOM      3  C   UNL     1      -9.856  37.624  -4.849  1.00  0.00     0.005 C 
ATOM      4  C   UNL     1     -10.075  38.587  -3.668  1.00  0.00    -0.001 C 
ATOM      5  C   UNL     1     -11.441  38.184  -3.073  1.00  0.00    -0.020 C 
ATOM      6  C   UNL     1     -11.289  36.953  -2.130  1.00  0.00     0.008 C 
ATOM      7  C   UNL     1     -10.208  37.148  -1.068  1.00  0.00     0.005 C 
ATOM      8  C   UNL     1      -8.823  37.429  -1.706  1.00  0.00     0.003 C 
ATOM      9  C   UNL     1      -8.911  38.669  -2.629  1.00  0.00     0.000 C 
ATOM     10  C   UNL     1      -7.567  38.916  -3.334  1.00  0.00     0.031 C 
ATOM     11  C   UNL     1      -6.397  38.867  -2.400  1.00  0.00    -0.027 C 
ATOM     12  C   UNL     1      -6.382  38.139  -1.264  1.00  0.00    -0.065 C 
ATOM     13  C   UNL     1      -7.663  37.563  -0.636  1.00  0.00    -0.008 C 
ATOM     14  C   UNL     1      -7.340  36.144  -0.072  1.00  0.00     0.014 C 
ATOM     15  C   UNL     1      -6.067  36.092   0.789  1.00  0.00     0.033 C 
ATOM     16  C   UNL     1      -4.854  36.605   0.002  1.00  0.00     0.118 C 
ATOM     17  C   UNL     1      -5.080  38.040  -0.491  1.00  0.00     0.063 C 
ATOM     18  C   UNL     1      -8.080  38.498   0.533  1.00  0.00     0.016 C 
ATOM     19  C   UNL     1     -12.101  39.373  -2.331  1.00  0.00     0.012 C 
ENDROOT
BRANCH   1  20
ATOM     20  C   UNL     1     -13.532  37.036  -4.073  1.00  0.00     0.133 C 
ATOM     21  C   UNL     1     -14.814  37.696  -3.652  1.00  0.00     0.088 C 
ATOM     22  O   UNL     1     -13.513  35.819  -4.184  1.00  0.00    -0.300 OA
ENDBRANCH   1  20
BRANCH  16  23
ATOM     23  O   UNL     1      -3.688  36.524   0.781  1.00  0.00    -0.393 OA
ATOM     24  H   UNL     1      -2.956  36.194   0.195  1.00  0.00     0.210 HD
ENDBRANCH  16  23
TORSDOF 2
ENDMDL
MODEL 4
REMARK VINA RESULT:    -6.232      9.914     11.819
REMARK INTER + INTRA:          -6.888
REMARK INTER:                  -6.840
REMARK INTRA:                  -0.048
REMARK UNBOUND:                -0.110
REMARK SMILES CC(=O)[C@@H]1CC[C@@H]2[C@@H]3CC=C4C[C@@H](O)CC[C@]4(C)[C@H]3CC[C@@]21C
REMARK SMILES IDX 4 1 5 2 6 3 7 4 22 5 21 6 20 7 19 8 8 9 9 10 10 11 11 12
REMARK SMILES IDX 17 13 16 14 15 15 13 16 12 17 18 18 23 19 2 20 1 21 3 22
REMARK SMILES IDX 14 23
REMARK H PARENT 14 24
REMARK Flexibility Score: inf
ROOT
ATOM      1  C   UNL     1      -8.042  36.286   1.027  1.00  0.00     0.062 C 
ATOM      2  C   UNL     1      -7.200  37.414   0.411  1.00  0.00     0.012 C 
ATOM      3  C   UNL     1      -7.583  37.476  -1.068  1.00  0.00     0.005 C 
ATOM      4  C   UNL     1      -8.643  36.384  -1.300  1.00  0.00    -0.001 C 
ATOM      5  C   UNL     1      -9.267  36.134   0.090  1.00  0.00    -0.020 C 
ATOM      6  C   UNL     1     -10.347  37.210   0.410  1.00  0.00     0.008 C 
ATOM      7  C   UNL     1     -11.390  37.353  -0.698  1.00  0.00     0.005 C 
ATOM      8  C   UNL     1     -10.737  37.728  -2.054  1.00  0.00     0.003 C 
ATOM      9  C   UNL     1      -9.676  36.666  -2.437  1.00  0.00     0.000 C 
ATOM     10  C   UNL     1      -8.960  37.062  -3.739  1.00  0.00     0.031 C 
ATOM     11  C   UNL     1      -9.905  37.477  -4.825  1.00  0.00    -0.027 C 
ATOM     12  C   UNL     1     -11.117  38.020  -4.589  1.00  0.00    -0.065 C 
ATOM     13  C   UNL     1     -11.796  37.957  -3.209  1.00  0.00    -0.008 C 
ATOM     14  C   UNL     1     -12.523  39.315  -2.955  1.00  0.00     0.014 C 
ATOM     15  C   UNL     1     -13.395  39.783  -4.131  1.00  0.00     0.033 C 
ATOM     16  C   UNL     1     -12.566  39.893  -5.417  1.00  0.00     0.118 C 
ATOM     17  C   UNL     1     -11.909  38.552  -5.769  1.00  0.00     0.063 C 
ATOM     18  C   UNL     1     -12.845  36.812  -3.248  1.00  0.00     0.016 C 
ATOM     19  C   UNL     1      -9.861  34.706   0.186  1.00  0.00     0.012 C 
ENDROOT
BRANCH   1  20
ATOM     20  C   UNL     1      -8.387  36.441   2.502  1.00  0.00     0.133 C 
ATOM     21  C   UNL     1      -8.774  35.284   3.380  1.00  0.00     0.088 C 
ATOM     22  O   UNL     1      -8.368  37.561   2.991  1.00  0.00    -0.300 OA
ENDBRANCH   1  20
BRANCH  16  23
ATOM     23  O   UNL     1     -13.360  40.352  -6.482  1.00  0.00    -0.393 OA
ATOM     24  H   UNL     1     -14.229  40.650  -6.103  1.00  0.00     0.210 HD
ENDBRANCH  16  23
TORSDOF 2
ENDMDL
MODEL 5
REMARK VINA RESULT:    -6.214     10.665     13.975
REMARK INTER + INTRA:          -6.868
REMARK INTER:                  -6.757
REMARK INTRA:                  -0.111
REMARK UNBOUND:                -0.110
REMARK SMILES CC(=O)[C@@H]1CC[C@@H]2[C@@H]3CC=C4C[C@@H](O)CC[C@]4(C)[C@H]3CC[C@@]21C
REMARK SMILES IDX 4 1 5 2 6 3 7 4 22 5 21 6 20 7 19 8 8 9 9 10 10 11 11 12
REMARK SMILES IDX 17 13 16 14 15 15 13 16 12 17 18 18 23 19 2 20 1 21 3 22
REMARK SMILES IDX 14 23
REMARK H PARENT 14 24
REMARK Flexibility Score: inf
ROOT
ATOM      1  C   UNL     1     -11.904  37.558  -2.729  1.00  0.00     0.062 C 
ATOM      2  C   UNL     1     -12.011  37.617  -1.197  1.00  0.00     0.012 C 
ATOM      3  C   UNL     1     -10.743  36.955  -0.654  1.00  0.00     0.005 C 
ATOM      4  C   UNL     1      -9.912  36.517  -1.874  1.00  0.00    -0.001 C 
ATOM      5  C   UNL     1     -10.390  37.425  -3.028  1.00  0.00    -0.020 C 
ATOM      6  C   UNL     1      -9.687  38.814  -2.962  1.00  0.00     0.008 C 
ATOM      7  C   UNL     1      -8.165  38.706  -2.875  1.00  0.00     0.005 C 
ATOM      8  C   UNL     1      -7.719  37.892  -1.633  1.00  0.00     0.003 C 
ATOM      9  C   UNL     1      -8.364  36.484  -1.669  1.00  0.00     0.000 C 
ATOM     10  C   UNL     1      -7.998  35.689  -0.405  1.00  0.00     0.031 C 
ATOM     11  C   UNL     1      -6.536  35.740  -0.083  1.00  0.00    -0.027 C 
ATOM     12  C   UNL     1      -5.733  36.768  -0.428  1.00  0.00    -0.065 C 
ATOM     13  C   UNL     1      -6.144  37.823  -1.471  1.00  0.00    -0.008 C 
ATOM     14  C   UNL     1      -5.632  39.217  -0.990  1.00  0.00     0.014 C 
ATOM     15  C   UNL     1      -4.160  39.220  -0.552  1.00  0.00     0.033 C 
ATOM     16  C   UNL     1      -3.917  38.190   0.559  1.00  0.00     0.118 C 
ATOM     17  C   UNL     1      -4.311  36.779   0.100  1.00  0.00     0.063 C 
ATOM     18  C   UNL     1      -5.454  37.456  -2.814  1.00  0.00     0.016 C 
ATOM     19  C   UNL     1     -10.157  36.750  -4.402  1.00  0.00     0.012 C 
ENDROOT
BRANCH   1  20
ATOM     20  C   UNL     1     -12.606  38.677  -3.488  1.00  0.00     0.133 C 
ATOM     21  C   UNL     1     -13.009  39.975  -2.848  1.00  0.00     0.088 C 
ATOM     22  O   UNL     1     -12.873  38.502  -4.668  1.00  0.00    -0.300 OA
ENDBRANCH   1  20
BRANCH  16  23
ATOM     23  O   UNL     1      -2.577  38.219   0.979  1.00  0.00    -0.393 OA
ATOM     24  H   UNL     1      -2.564  38.527   1.924  1.00  0.00     0.210 HD
ENDBRANCH  16  23
TORSDOF 2
ENDMDL
MODEL 6
REMARK VINA RESULT:    -6.207     10.202     12.239
REMARK INTER + INTRA:          -6.861
REMARK INTER:                  -6.753
REMARK INTRA:                  -0.107
REMARK UNBOUND:                -0.110
REMARK SMILES CC(=O)[C@@H]1CC[C@@H]2[C@@H]3CC=C4C[C@@H](O)CC[C@]4(C)[C@H]3CC[C@@]21C
REMARK SMILES IDX 4 1 5 2 6 3 7 4 22 5 21 6 20 7 19 8 8 9 9 10 10 11 11 12
REMARK SMILES IDX 17 13 16 14 15 15 13 16 12 17 18 18 23 19 2 20 1 21 3 22
REMARK SMILES IDX 14 23
REMARK H PARENT 14 24
REMARK Flexibility Score: inf
ROOT
ATOM      1  C   UNL     1      -5.159  37.127  -1.447  1.00  0.00     0.062 C 
ATOM      2  C   UNL     1      -5.262  38.082  -2.646  1.00  0.00     0.012 C 
ATOM      3  C   UNL     1      -6.671  37.904  -3.215  1.00  0.00     0.005 C 
ATOM      4  C   UNL     1      -7.372  36.846  -2.343  1.00  0.00    -0.001 C 
ATOM      5  C   UNL     1      -6.620  36.878  -0.996  1.00  0.00    -0.020 C 
ATOM      6  C   UNL     1      -7.133  38.050  -0.107  1.00  0.00     0.008 C 
ATOM      7  C   UNL     1      -8.652  38.051   0.056  1.00  0.00     0.005 C 
ATOM      8  C   UNL     1      -9.374  38.147  -1.313  1.00  0.00     0.003 C 
ATOM      9  C   UNL     1      -8.924  36.979  -2.226  1.00  0.00     0.000 C 
ATOM     10  C   UNL     1      -9.568  37.101  -3.617  1.00  0.00     0.031 C 
ATOM     11  C   UNL     1     -11.041  37.369  -3.560  1.00  0.00    -0.027 C 
ATOM     12  C   UNL     1     -11.642  38.008  -2.535  1.00  0.00    -0.065 C 
ATOM     13  C   UNL     1     -10.951  38.226  -1.178  1.00  0.00    -0.008 C 
ATOM     14  C   UNL     1     -11.334  39.644  -0.650  1.00  0.00     0.014 C 
ATOM     15  C   UNL     1     -12.840  39.943  -0.711  1.00  0.00     0.033 C 
ATOM     16  C   UNL     1     -13.373  39.781  -2.141  1.00  0.00     0.118 C 
ATOM     17  C   UNL     1     -13.110  38.366  -2.672  1.00  0.00     0.063 C 
ATOM     18  C   UNL     1     -11.487  37.149  -0.195  1.00  0.00     0.016 C 
ATOM     19  C   UNL     1      -6.744  35.523  -0.255  1.00  0.00     0.012 C 
ENDROOT
BRANCH   1  20
ATOM     20  C   UNL     1      -4.214  37.557  -0.333  1.00  0.00     0.133 C 
ATOM     21  C   UNL     1      -3.785  38.982  -0.126  1.00  0.00     0.088 C 
ATOM     22  O   UNL     1      -3.766  36.700   0.415  1.00  0.00    -0.300 OA
ENDBRANCH   1  20
BRANCH  16  23
ATOM     23  O   UNL     1     -14.743  40.088  -2.198  1.00  0.00    -0.393 OA
ATOM     24  H   UNL     1     -15.000  40.482  -1.322  1.00  0.00     0.210 HD
ENDBRANCH  16  23
TORSDOF 2
ENDMDL
MODEL 7
REMARK VINA RESULT:    -6.153      6.854      9.402
REMARK INTER + INTRA:          -6.802
REMARK INTER:                  -6.778
REMARK INTRA:                  -0.024
REMARK UNBOUND:                -0.110
REMARK SMILES CC(=O)[C@@H]1CC[C@@H]2[C@@H]3CC=C4C[C@@H](O)CC[C@]4(C)[C@H]3CC[C@@]21C
REMARK SMILES IDX 4 1 5 2 6 3 7 4 22 5 21 6 20 7 19 8 8 9 9 10 10 11 11 12
REMARK SMILES IDX 17 13 16 14 15 15 13 16 12 17 18 18 23 19 2 20 1 21 3 22
REMARK SMILES IDX 14 23
REMARK H PARENT 14 24
REMARK Flexibility Score: inf
ROOT
ATOM      1  C   UNL     1      -9.222  36.292  -1.251  1.00  0.00     0.062 C 
ATOM      2  C   UNL     1      -9.589  34.842  -0.900  1.00  0.00     0.012 C 
ATOM      3  C   UNL     1      -9.513  34.738   0.625  1.00  0.00     0.005 C 
ATOM      4  C   UNL     1      -9.100  36.127   1.145  1.00  0.00    -0.001 C 
ATOM      5  C   UNL     1      -9.518  37.110   0.031  1.00  0.00    -0.020 C 
ATOM      6  C   UNL     1     -11.036  37.446   0.135  1.00  0.00     0.008 C 
ATOM      7  C   UNL     1     -11.447  37.913   1.531  1.00  0.00     0.005 C 
ATOM      8  C   UNL     1     -11.124  36.846   2.609  1.00  0.00     0.003 C 
ATOM      9  C   UNL     1      -9.615  36.501   2.571  1.00  0.00     0.000 C 
ATOM     10  C   UNL     1      -9.289  35.387   3.579  1.00  0.00     0.031 C 
ATOM     11  C   UNL     1      -9.880  35.630   4.934  1.00  0.00    -0.027 C 
ATOM     12  C   UNL     1     -11.004  36.347   5.138  1.00  0.00    -0.065 C 
ATOM     13  C   UNL     1     -11.604  37.266   4.060  1.00  0.00    -0.008 C 
ATOM     14  C   UNL     1     -13.159  37.149   4.122  1.00  0.00     0.014 C 
ATOM     15  C   UNL     1     -13.736  37.284   5.540  1.00  0.00     0.033 C 
ATOM     16  C   UNL     1     -13.119  36.243   6.483  1.00  0.00     0.118 C 
ATOM     17  C   UNL     1     -11.592  36.380   6.536  1.00  0.00     0.063 C 
ATOM     18  C   UNL     1     -11.184  38.724   4.393  1.00  0.00     0.016 C 
ATOM     19  C   UNL     1      -8.660  38.399   0.072  1.00  0.00     0.012 C 
ENDROOT
BRANCH   1  20
ATOM     20  C   UNL     1      -9.851  36.850  -2.521  1.00  0.00     0.133 C 
ATOM     21  C   UNL     1      -9.195  37.904  -3.367  1.00  0.00     0.088 C 
ATOM     22  O   UNL     1     -10.952  36.437  -2.856  1.00  0.00    -0.300 OA
ENDBRANCH   1  20
BRANCH  16  23
ATOM     23  O   UNL     1     -13.674  36.348   7.769  1.00  0.00    -0.393 OA
ATOM     24  H   UNL     1     -14.581  36.743   7.675  1.00  0.00     0.210 HD
ENDBRANCH  16  23
TORSDOF 2
ENDMDL
MODEL 8
REMARK VINA RESULT:    -5.904      9.522     12.295
REMARK INTER + INTRA:          -6.531
REMARK INTER:                  -6.464
REMARK INTRA:                  -0.068
REMARK UNBOUND:                -0.110
REMARK SMILES CC(=O)[C@@H]1CC[C@@H]2[C@@H]3CC=C4C[C@@H](O)CC[C@]4(C)[C@H]3CC[C@@]21C
REMARK SMILES IDX 4 1 5 2 6 3 7 4 22 5 21 6 20 7 19 8 8 9 9 10 10 11 11 12
REMARK SMILES IDX 17 13 16 14 15 15 13 16 12 17 18 18 23 19 2 20 1 21 3 22
REMARK SMILES IDX 14 23
REMARK H PARENT 14 24
REMARK Flexibility Score: inf
ROOT
ATOM      1  C   UNL     1     -13.075  39.301  -3.521  1.00  0.00     0.062 C 
ATOM      2  C   UNL     1     -12.507  40.435  -2.654  1.00  0.00     0.012 C 
ATOM      3  C   UNL     1     -12.058  39.787  -1.343  1.00  0.00     0.005 C 
ATOM      4  C   UNL     1     -12.371  38.284  -1.459  1.00  0.00    -0.001 C 
ATOM      5  C   UNL     1     -12.425  38.005  -2.976  1.00  0.00    -0.020 C 
ATOM      6  C   UNL     1     -10.989  37.820  -3.553  1.00  0.00     0.008 C 
ATOM      7  C   UNL     1     -10.167  36.787  -2.782  1.00  0.00     0.005 C 
ATOM      8  C   UNL     1     -10.030  37.167  -1.285  1.00  0.00     0.003 C 
ATOM      9  C   UNL     1     -11.434  37.328  -0.654  1.00  0.00     0.000 C 
ATOM     10  C   UNL     1     -11.320  37.783   0.811  1.00  0.00     0.031 C 
ATOM     11  C   UNL     1     -10.327  36.983   1.598  1.00  0.00    -0.027 C 
ATOM     12  C   UNL     1      -9.255  36.379   1.046  1.00  0.00    -0.065 C 
ATOM     13  C   UNL     1      -9.121  36.157  -0.471  1.00  0.00    -0.008 C 
ATOM     14  C   UNL     1      -7.632  36.391  -0.874  1.00  0.00     0.014 C 
ATOM     15  C   UNL     1      -6.622  35.655   0.021  1.00  0.00     0.033 C 
ATOM     16  C   UNL     1      -6.809  36.046   1.493  1.00  0.00     0.118 C 
ATOM     17  C   UNL     1      -8.234  35.741   1.970  1.00  0.00     0.063 C 
ATOM     18  C   UNL     1      -9.510  34.682  -0.770  1.00  0.00     0.016 C 
ATOM     19  C   UNL     1     -13.309  36.772  -3.286  1.00  0.00     0.012 C 
ENDROOT
BRANCH   1  20
ATOM     20  C   UNL     1     -12.952  39.489  -5.028  1.00  0.00     0.133 C 
ATOM     21  C   UNL     1     -11.831  40.258  -5.669  1.00  0.00     0.088 C 
ATOM     22  O   UNL     1     -13.816  39.011  -5.747  1.00  0.00    -0.300 OA
ENDBRANCH   1  20
BRANCH  16  23
ATOM     23  O   UNL     1      -5.863  35.396   2.303  1.00  0.00    -0.393 OA
ATOM     24  H   UNL     1      -5.029  35.296   1.772  1.00  0.00     0.210 HD
ENDBRANCH  16  23
TORSDOF 2
ENDMDL
MODEL 9
REMARK VINA RESULT:    -5.864     11.115     12.858
REMARK INTER + INTRA:          -6.489
REMARK INTER:                  -6.436
REMARK INTRA:                  -0.053
REMARK UNBOUND:                -0.110
REMARK SMILES CC(=O)[C@@H]1CC[C@@H]2[C@@H]3CC=C4C[C@@H](O)CC[C@]4(C)[C@H]3CC[C@@]21C
REMARK SMILES IDX 4 1 5 2 6 3 7 4 22 5 21 6 20 7 19 8 8 9 9 10 10 11 11 12
REMARK SMILES IDX 17 13 16 14 15 15 13 16 12 17 18 18 23 19 2 20 1 21 3 22
REMARK SMILES IDX 14 23
REMARK H PARENT 14 24
REMARK Flexibility Score: inf
ROOT
ATOM      1  C   UNL     1      -6.573  36.710  -1.626  1.00  0.00     0.062 C 
ATOM      2  C   UNL     1      -6.116  37.512  -2.855  1.00  0.00     0.012 C 
ATOM      3  C   UNL     1      -7.312  37.553  -3.808  1.00  0.00     0.005 C 
ATOM      4  C   UNL     1      -8.451  36.774  -3.126  1.00  0.00    -0.001 C 
ATOM      5  C   UNL     1      -8.119  36.819  -1.619  1.00  0.00    -0.020 C 
ATOM      6  C   UNL     1      -8.576  38.172  -0.995  1.00  0.00     0.008 C 
ATOM      7  C   UNL     1     -10.039  38.500  -1.296  1.00  0.00     0.005 C 
ATOM      8  C   UNL     1     -10.307  38.569  -2.821  1.00  0.00     0.003 C 
ATOM      9  C   UNL     1      -9.901  37.231  -3.487  1.00  0.00     0.000 C 
ATOM     10  C   UNL     1     -10.085  37.308  -5.012  1.00  0.00     0.031 C 
ATOM     11  C   UNL     1     -11.413  37.872  -5.415  1.00  0.00    -0.027 C 
ATOM     12  C   UNL     1     -12.112  38.742  -4.657  1.00  0.00    -0.065 C 
ATOM     13  C   UNL     1     -11.797  38.981  -3.170  1.00  0.00    -0.008 C 
ATOM     14  C   UNL     1     -11.976  40.501  -2.866  1.00  0.00     0.014 C 
ATOM     15  C   UNL     1     -13.295  41.089  -3.393  1.00  0.00     0.033 C 
ATOM     16  C   UNL     1     -13.430  40.862  -4.904  1.00  0.00     0.118 C 
ATOM     17  C   UNL     1     -13.361  39.369  -5.248  1.00  0.00     0.063 C 
ATOM     18  C   UNL     1     -12.818  38.164  -2.331  1.00  0.00     0.016 C 
ATOM     19  C   UNL     1      -8.752  35.620  -0.871  1.00  0.00     0.012 C 
ENDROOT
BRANCH   1  20
ATOM     20  C   UNL     1      -5.905  37.075  -0.307  1.00  0.00     0.133 C 
ATOM     21  C   UNL     1      -5.897  36.164   0.888  1.00  0.00     0.088 C 
ATOM     22  O   UNL     1      -5.369  38.169  -0.208  1.00  0.00    -0.300 OA
ENDBRANCH   1  20
BRANCH  16  23
ATOM     23  O   UNL     1     -14.621  41.430  -5.387  1.00  0.00    -0.393 OA
ATOM     24  H   UNL     1     -14.510  42.417  -5.377  1.00  0.00     0.210 HD
ENDBRANCH  16  23
TORSDOF 2
ENDMDL
