MODEL 1
REMARK VINA RESULT:    -2.878      0.000      0.000
REMARK INTER + INTRA:          -3.855
REMARK INTER:                  -3.635
REMARK INTRA:                  -0.220
REMARK UNBOUND:                -0.220
REMARK SMILES CCCCC[C@@H](C)O
REMARK SMILES IDX 4 1 3 2 2 3 1 4 5 5 6 6 7 7 8 8
REMARK H PARENT 8 9
REMARK Flexibility Score: inf
ROOT
ATOM      1  C   UNL     1     142.389 133.952 144.826  1.00  0.00     0.003 C 
ENDROOT
BRANCH   1   2
ATOM      2  C   UNL     1     143.321 132.888 145.425  1.00  0.00    -0.000 C 
BRANCH   2   3
ATOM      3  C   UNL     1     143.995 132.021 144.352  1.00  0.00    -0.003 C 
ATOM      4  C   UNL     1     145.242 131.336 144.903  1.00  0.00     0.004 C 
ENDBRANCH   2   3
ENDBRANCH   1   2
BRANCH   1   5
ATOM      5  C   UNL     1     142.951 134.572 143.534  1.00  0.00     0.031 C 
BRANCH   5   6
ATOM      6  C   UNL     1     143.413 136.032 143.728  1.00  0.00     0.111 C 
ATOM      7  C   UNL     1     144.941 136.173 143.718  1.00  0.00     0.038 C 
BRANCH   6   8
ATOM      8  O   UNL     1     142.848 136.853 142.735  1.00  0.00    -0.393 OA
ATOM      9  H   UNL     1     142.303 137.546 143.193  1.00  0.00     0.210 HD
ENDBRANCH   6   8
ENDBRANCH   5   6
ENDBRANCH   1   5
TORSDOF 5
ENDMDL
MODEL 2
REMARK VINA RESULT:    -2.865     12.693     14.903
REMARK INTER + INTRA:          -3.838
REMARK INTER:                  -3.605
REMARK INTRA:                  -0.234
REMARK UNBOUND:                -0.220
REMARK SMILES CCCCC[C@@H](C)O
REMARK SMILES IDX 4 1 3 2 2 3 1 4 5 5 6 6 7 7 8 8
REMARK H PARENT 8 9
REMARK Flexibility Score: inf
ROOT
ATOM      1  C   UNL     1     139.239 147.586 144.850  1.00  0.00     0.003 C 
ENDROOT
BRANCH   1   2
ATOM      2  C   UNL     1     138.323 148.680 145.421  1.00  0.00    -0.000 C 
BRANCH   2   3
ATOM      3  C   UNL     1     137.665 149.531 144.325  1.00  0.00    -0.003 C 
ATOM      4  C   UNL     1     136.407 150.220 144.845  1.00  0.00     0.004 C 
ENDBRANCH   2   3
ENDBRANCH   1   2
BRANCH   1   5
ATOM      5  C   UNL     1     138.714 147.006 143.525  1.00  0.00     0.031 C 
BRANCH   5   6
ATOM      6  C   UNL     1     138.196 145.560 143.673  1.00  0.00     0.111 C 
ATOM      7  C   UNL     1     136.663 145.481 143.675  1.00  0.00     0.038 C 
BRANCH   6   8
ATOM      8  O   UNL     1     138.717 144.753 142.646  1.00  0.00    -0.393 OA
ATOM      9  H   UNL     1     139.707 144.770 142.725  1.00  0.00     0.210 HD
ENDBRANCH   6   8
ENDBRANCH   5   6
ENDBRANCH   1   5
TORSDOF 5
ENDMDL
MODEL 3
REMARK VINA RESULT:    -2.844      9.302     10.593
REMARK INTER + INTRA:          -3.813
REMARK INTER:                  -3.587
REMARK INTRA:                  -0.225
REMARK UNBOUND:                -0.220
REMARK SMILES CCCCC[C@@H](C)O
REMARK SMILES IDX 4 1 3 2 2 3 1 4 5 5 6 6 7 7 8 8
REMARK H PARENT 8 9
REMARK Flexibility Score: inf
ROOT
ATOM      1  C   UNL     1     147.664 142.420 144.849  1.00  0.00     0.003 C 
ENDROOT
BRANCH   1   2
ATOM      2  C   UNL     1     148.680 143.406 145.447  1.00  0.00    -0.000 C 
BRANCH   2   3
ATOM      3  C   UNL     1     149.535 144.096 144.374  1.00  0.00    -0.003 C 
ATOM      4  C   UNL     1     150.367 145.225 144.977  1.00  0.00     0.004 C 
ENDBRANCH   2   3
ENDBRANCH   1   2
BRANCH   1   5
ATOM      5  C   UNL     1     147.040 142.934 143.539  1.00  0.00     0.031 C 
BRANCH   5   6
ATOM      6  C   UNL     1     145.584 143.411 143.722  1.00  0.00     0.111 C 
ATOM      7  C   UNL     1     145.465 144.941 143.752  1.00  0.00     0.038 C 
BRANCH   6   8
ATOM      8  O   UNL     1     144.772 142.886 142.701  1.00  0.00    -0.393 OA
ATOM      9  H   UNL     1     145.043 143.320 141.850  1.00  0.00     0.210 HD
ENDBRANCH   6   8
ENDBRANCH   5   6
ENDBRANCH   1   5
TORSDOF 5
ENDMDL
MODEL 4
REMARK VINA RESULT:    -2.839      9.186     10.259
REMARK INTER + INTRA:          -3.806
REMARK INTER:                  -3.506
REMARK INTRA:                  -0.300
REMARK UNBOUND:                -0.220
REMARK SMILES CCCCC[C@@H](C)O
REMARK SMILES IDX 4 1 3 2 2 3 1 4 5 5 6 6 7 7 8 8
REMARK H PARENT 8 9
REMARK Flexibility Score: inf
ROOT
ATOM      1  C   UNL     1     145.966 142.821 144.829  1.00  0.00     0.003 C 
ENDROOT
BRANCH   1   2
ATOM      2  C   UNL     1     147.299 142.066 144.710  1.00  0.00    -0.000 C 
BRANCH   2   3
ATOM      3  C   UNL     1     148.486 142.873 145.255  1.00  0.00    -0.003 C 
ATOM      4  C   UNL     1     149.321 143.457 144.119  1.00  0.00     0.004 C 
ENDBRANCH   2   3
ENDBRANCH   1   2
BRANCH   1   5
ATOM      5  C   UNL     1     145.553 143.504 143.513  1.00  0.00     0.031 C 
BRANCH   5   6
ATOM      6  C   UNL     1     145.263 145.010 143.690  1.00  0.00     0.111 C 
ATOM      7  C   UNL     1     146.289 145.704 144.596  1.00  0.00     0.038 C 
BRANCH   6   8
ATOM      8  O   UNL     1     145.221 145.645 142.436  1.00  0.00    -0.393 OA
ATOM      9  H   UNL     1     145.973 145.288 141.895  1.00  0.00     0.210 HD
ENDBRANCH   6   8
ENDBRANCH   5   6
ENDBRANCH   1   5
TORSDOF 5
ENDMDL
MODEL 5
REMARK VINA RESULT:    -2.838      9.272     10.583
REMARK INTER + INTRA:          -3.804
REMARK INTER:                  -3.544
REMARK INTRA:                  -0.260
REMARK UNBOUND:                -0.220
REMARK SMILES CCCCC[C@@H](C)O
REMARK SMILES IDX 4 1 3 2 2 3 1 4 5 5 6 6 7 7 8 8
REMARK H PARENT 8 9
REMARK Flexibility Score: inf
ROOT
ATOM      1  C   UNL     1     134.060 138.827 145.319  1.00  0.00     0.003 C 
ENDROOT
BRANCH   1   2
ATOM      2  C   UNL     1     132.800 138.029 145.689  1.00  0.00    -0.000 C 
BRANCH   2   3
ATOM      3  C   UNL     1     132.069 137.474 144.458  1.00  0.00    -0.003 C 
ATOM      4  C   UNL     1     131.209 136.269 144.827  1.00  0.00     0.004 C 
ENDBRANCH   2   3
ENDBRANCH   1   2
BRANCH   1   5
ATOM      5  C   UNL     1     134.500 138.596 143.862  1.00  0.00     0.031 C 
BRANCH   5   6
ATOM      6  C   UNL     1     135.911 137.979 143.757  1.00  0.00     0.111 C 
ATOM      7  C   UNL     1     135.895 136.450 143.884  1.00  0.00     0.038 C 
BRANCH   6   8
ATOM      8  O   UNL     1     136.513 138.354 142.544  1.00  0.00    -0.393 OA
ATOM      9  H   UNL     1     137.494 138.235 142.647  1.00  0.00     0.210 HD
ENDBRANCH   6   8
ENDBRANCH   5   6
ENDBRANCH   1   5
TORSDOF 5
ENDMDL
MODEL 6
REMARK VINA RESULT:    -2.785      8.639     10.103
REMARK INTER + INTRA:          -3.738
REMARK INTER:                  -3.357
REMARK INTRA:                  -0.381
REMARK UNBOUND:                -0.220
REMARK SMILES CCCCC[C@@H](C)O
REMARK SMILES IDX 4 1 3 2 2 3 1 4 5 5 6 6 7 7 8 8
REMARK H PARENT 8 9
REMARK Flexibility Score: inf
ROOT
ATOM      1  C   UNL     1     135.728 138.974 144.646  1.00  0.00     0.003 C 
ENDROOT
BRANCH   1   2
ATOM      2  C   UNL     1     134.295 139.531 144.655  1.00  0.00    -0.000 C 
BRANCH   2   3
ATOM      3  C   UNL     1     133.272 138.522 145.197  1.00  0.00    -0.003 C 
ATOM      4  C   UNL     1     132.264 138.130 144.120  1.00  0.00     0.004 C 
ENDBRANCH   2   3
ENDBRANCH   1   2
BRANCH   1   5
ATOM      5  C   UNL     1     136.039 138.160 143.377  1.00  0.00     0.031 C 
BRANCH   5   6
ATOM      6  C   UNL     1     136.225 136.655 143.667  1.00  0.00     0.111 C 
ATOM      7  C   UNL     1     136.475 136.369 145.154  1.00  0.00     0.038 C 
BRANCH   6   8
ATOM      8  O   UNL     1     135.103 135.935 143.221  1.00  0.00    -0.393 OA
ATOM      9  H   UNL     1     134.989 135.154 143.824  1.00  0.00     0.210 HD
ENDBRANCH   6   8
ENDBRANCH   5   6
ENDBRANCH   1   5
TORSDOF 5
ENDMDL
MODEL 7
REMARK VINA RESULT:    -2.761     12.969     14.242
REMARK INTER + INTRA:          -3.707
REMARK INTER:                  -3.342
REMARK INTRA:                  -0.365
REMARK UNBOUND:                -0.220
REMARK SMILES CCCCC[C@@H](C)O
REMARK SMILES IDX 4 1 3 2 2 3 1 4 5 5 6 6 7 7 8 8
REMARK H PARENT 8 9
REMARK Flexibility Score: inf
ROOT
ATOM      1  C   UNL     1     138.886 145.868 144.726  1.00  0.00     0.003 C 
ENDROOT
BRANCH   1   2
ATOM      2  C   UNL     1     139.493 147.279 144.716  1.00  0.00    -0.000 C 
BRANCH   2   3
ATOM      3  C   UNL     1     138.519 148.346 145.237  1.00  0.00    -0.003 C 
ATOM      4  C   UNL     1     138.102 149.300 144.121  1.00  0.00     0.004 C 
ENDBRANCH   2   3
ENDBRANCH   1   2
BRANCH   1   5
ATOM      5  C   UNL     1     138.131 145.539 143.426  1.00  0.00     0.031 C 
BRANCH   5   6
ATOM      6  C   UNL     1     136.618 145.335 143.652  1.00  0.00     0.111 C 
ATOM      7  C   UNL     1     136.260 145.189 145.137  1.00  0.00     0.038 C 
BRANCH   6   8
ATOM      8  O   UNL     1     135.896 146.401 143.087  1.00  0.00    -0.393 OA
ATOM      9  H   UNL     1     136.354 146.659 142.244  1.00  0.00     0.210 HD
ENDBRANCH   6   8
ENDBRANCH   5   6
ENDBRANCH   1   5
TORSDOF 5
ENDMDL
MODEL 8
REMARK VINA RESULT:    -2.736      1.569      2.098
REMARK INTER + INTRA:          -3.676
REMARK INTER:                  -3.324
REMARK INTRA:                  -0.352
REMARK UNBOUND:                -0.220
REMARK SMILES CCCCC[C@@H](C)O
REMARK SMILES IDX 4 1 3 2 2 3 1 4 5 5 6 6 7 7 8 8
REMARK H PARENT 8 9
REMARK Flexibility Score: inf
ROOT
ATOM      1  C   UNL     1     142.760 135.745 144.749  1.00  0.00     0.003 C 
ENDROOT
BRANCH   1   2
ATOM      2  C   UNL     1     142.088 134.365 144.680  1.00  0.00    -0.000 C 
BRANCH   2   3
ATOM      3  C   UNL     1     142.990 133.241 145.208  1.00  0.00    -0.003 C 
ATOM      4  C   UNL     1     143.433 132.314 144.079  1.00  0.00     0.004 C 
ENDBRANCH   2   3
ENDBRANCH   1   2
BRANCH   1   5
ATOM      5  C   UNL     1     143.542 136.088 143.468  1.00  0.00     0.031 C 
BRANCH   5   6
ATOM      6  C   UNL     1     145.054 136.263 143.725  1.00  0.00     0.111 C 
ATOM      7  C   UNL     1     145.383 136.431 145.215  1.00  0.00     0.038 C 
BRANCH   6   8
ATOM      8  O   UNL     1     145.764 135.170 143.197  1.00  0.00    -0.393 OA
ATOM      9  H   UNL     1     145.102 134.554 142.785  1.00  0.00     0.210 HD
ENDBRANCH   6   8
ENDBRANCH   5   6
ENDBRANCH   1   5
TORSDOF 5
ENDMDL
MODEL 9
REMARK VINA RESULT:    -2.716     12.645     13.271
REMARK INTER + INTRA:          -3.650
REMARK INTER:                  -3.459
REMARK INTRA:                  -0.191
REMARK UNBOUND:                -0.220
REMARK SMILES CCCCC[C@@H](C)O
REMARK SMILES IDX 4 1 3 2 2 3 1 4 5 5 6 6 7 7 8 8
REMARK H PARENT 8 9
REMARK Flexibility Score: inf
ROOT
ATOM      1  C   UNL     1     139.539 147.475 144.813  1.00  0.00     0.003 C 
ENDROOT
BRANCH   1   2
ATOM      2  C   UNL     1     140.304 146.239 145.310  1.00  0.00    -0.000 C 
BRANCH   2   3
ATOM      3  C   UNL     1     141.686 146.589 145.880  1.00  0.00    -0.003 C 
ATOM      4  C   UNL     1     142.464 147.486 144.921  1.00  0.00     0.004 C 
ENDBRANCH   2   3
ENDBRANCH   1   2
BRANCH   1   5
ATOM      5  C   UNL     1     138.502 147.132 143.728  1.00  0.00     0.031 C 
BRANCH   5   6
ATOM      6  C   UNL     1     138.071 145.650 143.765  1.00  0.00     0.111 C 
ATOM      7  C   UNL     1     136.580 145.478 144.085  1.00  0.00     0.038 C 
BRANCH   6   8
ATOM      8  O   UNL     1     138.374 145.028 142.541  1.00  0.00    -0.393 OA
ATOM      9  H   UNL     1     138.532 145.745 141.871  1.00  0.00     0.210 HD
ENDBRANCH   6   8
ENDBRANCH   5   6
ENDBRANCH   1   5
TORSDOF 5
ENDMDL
