MODEL 1
REMARK VINA RESULT:    -4.545      0.000      0.000
REMARK INTER + INTRA:          -8.379
REMARK INTER:                  -7.733
REMARK INTRA:                  -0.646
REMARK UNBOUND:                -0.646
REMARK SMILES CCCCCCCCCCCCCC(=O)[O-]
REMARK SMILES IDX 8 1 9 2 10 3 11 4 12 5 13 6 14 7 15 8 16 9 7 10 6 11 5 12
REMARK SMILES IDX 4 13 3 14 2 15 1 16
REMARK H PARENT
REMARK Flexibility Score: inf
ROOT
ATOM      1  C   UNL     1      45.146  65.816  50.587  1.00  0.00     0.000 C 
ENDROOT
BRANCH   1   2
ATOM      2  C   UNL     1      44.380  66.921  49.836  1.00  0.00     0.000 C 
BRANCH   2   3
ATOM      3  C   UNL     1      44.046  66.593  48.369  1.00  0.00     0.000 C 
BRANCH   3   4
ATOM      4  C   UNL     1      42.919  67.468  47.779  1.00  0.00     0.000 C 
BRANCH   4   5
ATOM      5  C   UNL     1      41.523  66.861  48.005  1.00  0.00     0.006 C 
BRANCH   5   6
ATOM      6  C   UNL     1      40.937  66.258  46.722  1.00  0.00     0.053 C 
BRANCH   6   7
ATOM      7  C   UNL     1      41.267  64.803  46.590  1.00  0.00     0.041 C 
ATOM      8  O   UNL     1      40.485  63.930  47.052  1.00  0.00    -0.550 OA
ATOM      9  O   UNL     1      42.455  64.412  45.985  1.00  0.00    -0.550 OA
ENDBRANCH   6   7
ENDBRANCH   5   6
ENDBRANCH   4   5
ENDBRANCH   3   4
ENDBRANCH   2   3
ENDBRANCH   1   2
BRANCH   1  10
ATOM     10  C   UNL     1      44.857  65.728  52.101  1.00  0.00     0.000 C 
BRANCH  10  11
ATOM     11  C   UNL     1      43.667  66.569  52.595  1.00  0.00    -0.000 C 
BRANCH  11  12
ATOM     12  C   UNL     1      42.871  65.881  53.717  1.00  0.00    -0.000 C 
BRANCH  12  13
ATOM     13  C   UNL     1      43.454  64.511  54.114  1.00  0.00    -0.000 C 
BRANCH  13  14
ATOM     14  C   UNL     1      43.444  64.206  55.623  1.00  0.00    -0.000 C 
BRANCH  14  15
ATOM     15  C   UNL     1      44.373  63.045  56.006  1.00  0.00    -0.003 C 
ATOM     16  C   UNL     1      44.878  63.194  57.439  1.00  0.00     0.004 C 
ENDBRANCH  14  15
ENDBRANCH  13  14
ENDBRANCH  12  13
ENDBRANCH  11  12
ENDBRANCH  10  11
ENDBRANCH   1  10
TORSDOF 12
ENDMDL
MODEL 2
REMARK VINA RESULT:    -4.326      1.823      3.655
REMARK INTER + INTRA:          -8.006
REMARK INTER:                  -6.825
REMARK INTRA:                  -1.181
REMARK UNBOUND:                -0.646
REMARK SMILES CCCCCCCCCCCCCC(=O)[O-]
REMARK SMILES IDX 8 1 9 2 10 3 11 4 12 5 13 6 14 7 15 8 16 9 7 10 6 11 5 12
REMARK SMILES IDX 4 13 3 14 2 15 1 16
REMARK H PARENT
REMARK Flexibility Score: inf
ROOT
ATOM      1  C   UNL     1      41.401  67.694  49.577  1.00  0.00     0.000 C 
ENDROOT
BRANCH   1   2
ATOM      2  C   UNL     1      40.159  67.973  48.711  1.00  0.00     0.000 C 
BRANCH   2   3
ATOM      3  C   UNL     1      40.069  67.135  47.422  1.00  0.00     0.000 C 
BRANCH   3   4
ATOM      4  C   UNL     1      39.913  65.620  47.677  1.00  0.00     0.000 C 
BRANCH   4   5
ATOM      5  C   UNL     1      40.977  64.788  46.940  1.00  0.00     0.006 C 
BRANCH   5   6
ATOM      6  C   UNL     1      41.538  65.518  45.713  1.00  0.00     0.053 C 
BRANCH   6   7
ATOM      7  C   UNL     1      43.027  65.391  45.622  1.00  0.00     0.041 C 
ATOM      8  O   UNL     1      43.562  64.257  45.508  1.00  0.00    -0.550 OA
ATOM      9  O   UNL     1      43.826  66.525  45.695  1.00  0.00    -0.550 OA
ENDBRANCH   6   7
ENDBRANCH   5   6
ENDBRANCH   4   5
ENDBRANCH   3   4
ENDBRANCH   2   3
ENDBRANCH   1   2
BRANCH   1  10
ATOM     10  C   UNL     1      42.756  67.928  48.876  1.00  0.00     0.000 C 
BRANCH  10  11
ATOM     11  C   UNL     1      43.863  66.917  49.223  1.00  0.00    -0.000 C 
BRANCH  11  12
ATOM     12  C   UNL     1      44.653  67.300  50.486  1.00  0.00    -0.000 C 
BRANCH  12  13
ATOM     13  C   UNL     1      45.537  66.155  51.013  1.00  0.00    -0.000 C 
BRANCH  13  14
ATOM     14  C   UNL     1      44.828  65.154  51.944  1.00  0.00    -0.000 C 
BRANCH  14  15
ATOM     15  C   UNL     1      43.790  65.819  52.860  1.00  0.00    -0.003 C 
ATOM     16  C   UNL     1      43.325  64.859  53.952  1.00  0.00     0.004 C 
ENDBRANCH  14  15
ENDBRANCH  13  14
ENDBRANCH  12  13
ENDBRANCH  11  12
ENDBRANCH  10  11
ENDBRANCH   1  10
TORSDOF 12
ENDMDL
MODEL 3
REMARK VINA RESULT:    -4.323      0.671      1.421
REMARK INTER + INTRA:          -8.001
REMARK INTER:                  -7.341
REMARK INTRA:                  -0.660
REMARK UNBOUND:                -0.646
REMARK SMILES CCCCCCCCCCCCCC(=O)[O-]
REMARK SMILES IDX 8 1 9 2 10 3 11 4 12 5 13 6 14 7 15 8 16 9 7 10 6 11 5 12
REMARK SMILES IDX 4 13 3 14 2 15 1 16
REMARK H PARENT
REMARK Flexibility Score: inf
ROOT
ATOM      1  C   UNL     1      44.766  66.244  49.658  1.00  0.00     0.000 C 
ENDROOT
BRANCH   1   2
ATOM      2  C   UNL     1      44.033  67.580  49.436  1.00  0.00     0.000 C 
BRANCH   2   3
ATOM      3  C   UNL     1      43.094  67.606  48.214  1.00  0.00     0.000 C 
BRANCH   3   4
ATOM      4  C   UNL     1      41.736  66.914  48.460  1.00  0.00     0.000 C 
BRANCH   4   5
ATOM      5  C   UNL     1      40.838  66.920  47.212  1.00  0.00     0.006 C 
BRANCH   5   6
ATOM      6  C   UNL     1      41.533  66.299  45.993  1.00  0.00     0.053 C 
BRANCH   6   7
ATOM      7  C   UNL     1      41.743  64.827  46.163  1.00  0.00     0.041 C 
ATOM      8  O   UNL     1      42.826  64.294  45.804  1.00  0.00    -0.550 OA
ATOM      9  O   UNL     1      40.729  64.036  46.689  1.00  0.00    -0.550 OA
ENDBRANCH   6   7
ENDBRANCH   5   6
ENDBRANCH   4   5
ENDBRANCH   3   4
ENDBRANCH   2   3
ENDBRANCH   1   2
BRANCH   1  10
ATOM     10  C   UNL     1      45.451  66.093  51.033  1.00  0.00     0.000 C 
BRANCH  10  11
ATOM     11  C   UNL     1      44.597  65.426  52.126  1.00  0.00    -0.000 C 
BRANCH  11  12
ATOM     12  C   UNL     1      43.655  66.412  52.837  1.00  0.00    -0.000 C 
BRANCH  12  13
ATOM     13  C   UNL     1      42.818  65.749  53.947  1.00  0.00    -0.000 C 
BRANCH  13  14
ATOM     14  C   UNL     1      43.302  64.357  54.392  1.00  0.00    -0.000 C 
BRANCH  14  15
ATOM     15  C   UNL     1      43.485  64.242  55.912  1.00  0.00    -0.003 C 
ATOM     16  C   UNL     1      44.361  63.045  56.272  1.00  0.00     0.004 C 
ENDBRANCH  14  15
ENDBRANCH  13  14
ENDBRANCH  12  13
ENDBRANCH  11  12
ENDBRANCH  10  11
ENDBRANCH   1  10
TORSDOF 12
ENDMDL
MODEL 4
REMARK VINA RESULT:    -4.207      1.779      2.599
REMARK INTER + INTRA:          -7.804
REMARK INTER:                  -7.193
REMARK INTRA:                  -0.611
REMARK UNBOUND:                -0.646
REMARK SMILES CCCCCCCCCCCCCC(=O)[O-]
REMARK SMILES IDX 8 1 9 2 10 3 11 4 12 5 13 6 14 7 15 8 16 9 7 10 6 11 5 12
REMARK SMILES IDX 4 13 3 14 2 15 1 16
REMARK H PARENT
REMARK Flexibility Score: inf
ROOT
ATOM      1  C   UNL     1      44.256  67.153  50.132  1.00  0.00     0.000 C 
ENDROOT
BRANCH   1   2
ATOM      2  C   UNL     1      43.735  67.445  48.713  1.00  0.00     0.000 C 
BRANCH   2   3
ATOM      3  C   UNL     1      43.715  66.226  47.770  1.00  0.00     0.000 C 
BRANCH   3   4
ATOM      4  C   UNL     1      42.334  65.956  47.134  1.00  0.00     0.000 C 
BRANCH   4   5
ATOM      5  C   UNL     1      42.355  64.759  46.169  1.00  0.00     0.006 C 
BRANCH   5   6
ATOM      6  C   UNL     1      43.742  64.536  45.551  1.00  0.00     0.053 C 
BRANCH   6   7
ATOM      7  C   UNL     1      43.944  65.367  44.322  1.00  0.00     0.041 C 
ATOM      8  O   UNL     1      44.851  66.239  44.287  1.00  0.00    -0.550 OA
ATOM      9  O   UNL     1      43.107  65.200  43.224  1.00  0.00    -0.550 OA
ENDBRANCH   6   7
ENDBRANCH   5   6
ENDBRANCH   4   5
ENDBRANCH   3   4
ENDBRANCH   2   3
ENDBRANCH   1   2
BRANCH   1  10
ATOM     10  C   UNL     1      45.225  65.957  50.244  1.00  0.00     0.000 C 
BRANCH  10  11
ATOM     11  C   UNL     1      45.154  65.170  51.564  1.00  0.00    -0.000 C 
BRANCH  11  12
ATOM     12  C   UNL     1      44.203  65.808  52.592  1.00  0.00    -0.000 C 
BRANCH  12  13
ATOM     13  C   UNL     1      43.669  64.797  53.624  1.00  0.00    -0.000 C 
BRANCH  13  14
ATOM     14  C   UNL     1      42.507  65.303  54.498  1.00  0.00    -0.000 C 
BRANCH  14  15
ATOM     15  C   UNL     1      42.727  65.048  55.996  1.00  0.00    -0.003 C 
ATOM     16  C   UNL     1      43.759  63.945  56.219  1.00  0.00     0.004 C 
ENDBRANCH  14  15
ENDBRANCH  13  14
ENDBRANCH  12  13
ENDBRANCH  11  12
ENDBRANCH  10  11
ENDBRANCH   1  10
TORSDOF 12
ENDMDL
MODEL 5
REMARK VINA RESULT:    -4.204      9.059     11.449
REMARK INTER + INTRA:          -7.799
REMARK INTER:                  -6.585
REMARK INTRA:                  -1.214
REMARK UNBOUND:                -0.646
REMARK SMILES CCCCCCCCCCCCCC(=O)[O-]
REMARK SMILES IDX 8 1 9 2 10 3 11 4 12 5 13 6 14 7 15 8 16 9 7 10 6 11 5 12
REMARK SMILES IDX 4 13 3 14 2 15 1 16
REMARK H PARENT
REMARK Flexibility Score: inf
ROOT
ATOM      1  C   UNL     1      34.238  67.294  56.673  1.00  0.00     0.000 C 
ENDROOT
BRANCH   1   2
ATOM      2  C   UNL     1      34.726  66.209  57.650  1.00  0.00     0.000 C 
BRANCH   2   3
ATOM      3  C   UNL     1      35.573  65.094  57.007  1.00  0.00     0.000 C 
BRANCH   3   4
ATOM      4  C   UNL     1      35.719  65.231  55.476  1.00  0.00     0.000 C 
BRANCH   4   5
ATOM      5  C   UNL     1      36.528  64.078  54.857  1.00  0.00     0.006 C 
BRANCH   5   6
ATOM      6  C   UNL     1      36.254  62.738  55.552  1.00  0.00     0.053 C 
BRANCH   6   7
ATOM      7  C   UNL     1      37.523  62.031  55.916  1.00  0.00     0.041 C 
ATOM      8  O   UNL     1      38.499  62.677  56.381  1.00  0.00    -0.550 OA
ATOM      9  O   UNL     1      37.638  60.661  55.711  1.00  0.00    -0.550 OA
ENDBRANCH   6   7
ENDBRANCH   5   6
ENDBRANCH   4   5
ENDBRANCH   3   4
ENDBRANCH   2   3
ENDBRANCH   1   2
BRANCH   1  10
ATOM     10  C   UNL     1      32.739  67.229  56.313  1.00  0.00     0.000 C 
BRANCH  10  11
ATOM     11  C   UNL     1      32.367  66.216  55.215  1.00  0.00    -0.000 C 
BRANCH  11  12
ATOM     12  C   UNL     1      31.476  66.822  54.117  1.00  0.00    -0.000 C 
BRANCH  12  13
ATOM     13  C   UNL     1      32.190  67.915  53.300  1.00  0.00    -0.000 C 
BRANCH  13  14
ATOM     14  C   UNL     1      32.718  67.466  51.925  1.00  0.00    -0.000 C 
BRANCH  14  15
ATOM     15  C   UNL     1      34.248  67.530  51.820  1.00  0.00    -0.003 C 
ATOM     16  C   UNL     1      34.863  68.103  53.095  1.00  0.00     0.004 C 
ENDBRANCH  14  15
ENDBRANCH  13  14
ENDBRANCH  12  13
ENDBRANCH  11  12
ENDBRANCH  10  11
ENDBRANCH   1  10
TORSDOF 12
ENDMDL
MODEL 6
REMARK VINA RESULT:    -4.199      8.939     11.615
REMARK INTER + INTRA:          -7.791
REMARK INTER:                  -6.648
REMARK INTRA:                  -1.144
REMARK UNBOUND:                -0.646
REMARK SMILES CCCCCCCCCCCCCC(=O)[O-]
REMARK SMILES IDX 8 1 9 2 10 3 11 4 12 5 13 6 14 7 15 8 16 9 7 10 6 11 5 12
REMARK SMILES IDX 4 13 3 14 2 15 1 16
REMARK H PARENT
REMARK Flexibility Score: inf
ROOT
ATOM      1  C   UNL     1      35.107  66.139  55.114  1.00  0.00     0.000 C 
ENDROOT
BRANCH   1   2
ATOM      2  C   UNL     1      35.595  64.799  55.696  1.00  0.00     0.000 C 
BRANCH   2   3
ATOM      3  C   UNL     1      35.755  64.781  57.228  1.00  0.00     0.000 C 
BRANCH   3   4
ATOM      4  C   UNL     1      37.020  64.038  57.711  1.00  0.00     0.000 C 
BRANCH   4   5
ATOM      5  C   UNL     1      36.853  62.510  57.680  1.00  0.00     0.006 C 
BRANCH   5   6
ATOM      6  C   UNL     1      37.757  61.848  56.632  1.00  0.00     0.053 C 
BRANCH   6   7
ATOM      7  C   UNL     1      36.984  60.951  55.715  1.00  0.00     0.041 C 
ATOM      8  O   UNL     1      35.843  61.293  55.307  1.00  0.00    -0.550 OA
ATOM      9  O   UNL     1      37.511  59.723  55.337  1.00  0.00    -0.550 OA
ENDBRANCH   6   7
ENDBRANCH   5   6
ENDBRANCH   4   5
ENDBRANCH   3   4
ENDBRANCH   2   3
ENDBRANCH   1   2
BRANCH   1  10
ATOM     10  C   UNL     1      34.394  67.070  56.118  1.00  0.00     0.000 C 
BRANCH  10  11
ATOM     11  C   UNL     1      32.857  66.995  56.111  1.00  0.00    -0.000 C 
BRANCH  11  12
ATOM     12  C   UNL     1      32.297  66.271  54.874  1.00  0.00    -0.000 C 
BRANCH  12  13
ATOM     13  C   UNL     1      31.280  67.121  54.090  1.00  0.00    -0.000 C 
BRANCH  13  14
ATOM     14  C   UNL     1      31.688  67.468  52.647  1.00  0.00    -0.000 C 
BRANCH  14  15
ATOM     15  C   UNL     1      33.119  68.016  52.544  1.00  0.00    -0.003 C 
ATOM     16  C   UNL     1      33.951  67.199  51.558  1.00  0.00     0.004 C 
ENDBRANCH  14  15
ENDBRANCH  13  14
ENDBRANCH  12  13
ENDBRANCH  11  12
ENDBRANCH  10  11
ENDBRANCH   1  10
TORSDOF 12
ENDMDL
MODEL 7
REMARK VINA RESULT:    -4.196      3.817      7.692
REMARK INTER + INTRA:          -7.786
REMARK INTER:                  -6.891
REMARK INTRA:                  -0.895
REMARK UNBOUND:                -0.646
REMARK SMILES CCCCCCCCCCCCCC(=O)[O-]
REMARK SMILES IDX 8 1 9 2 10 3 11 4 12 5 13 6 14 7 15 8 16 9 7 10 6 11 5 12
REMARK SMILES IDX 4 13 3 14 2 15 1 16
REMARK H PARENT
REMARK Flexibility Score: inf
ROOT
ATOM      1  C   UNL     1      45.381  65.087  51.322  1.00  0.00     0.000 C 
ENDROOT
BRANCH   1   2
ATOM      2  C   UNL     1      44.479  65.137  52.568  1.00  0.00     0.000 C 
BRANCH   2   3
ATOM      3  C   UNL     1      43.658  66.431  52.719  1.00  0.00     0.000 C 
BRANCH   3   4
ATOM      4  C   UNL     1      42.437  66.286  53.654  1.00  0.00     0.000 C 
BRANCH   4   5
ATOM      5  C   UNL     1      42.401  64.925  54.368  1.00  0.00     0.006 C 
BRANCH   5   6
ATOM      6  C   UNL     1      42.502  65.066  55.893  1.00  0.00     0.053 C 
BRANCH   6   7
ATOM      7  C   UNL     1      43.625  64.250  56.454  1.00  0.00     0.041 C 
ATOM      8  O   UNL     1      44.102  63.289  55.796  1.00  0.00    -0.550 OA
ATOM      9  O   UNL     1      44.123  64.533  57.721  1.00  0.00    -0.550 OA
ENDBRANCH   6   7
ENDBRANCH   5   6
ENDBRANCH   4   5
ENDBRANCH   3   4
ENDBRANCH   2   3
ENDBRANCH   1   2
BRANCH   1  10
ATOM     10  C   UNL     1      45.379  66.366  50.458  1.00  0.00     0.000 C 
BRANCH  10  11
ATOM     11  C   UNL     1      44.722  66.227  49.073  1.00  0.00    -0.000 C 
BRANCH  11  12
ATOM     12  C   UNL     1      43.396  66.998  48.958  1.00  0.00    -0.000 C 
BRANCH  12  13
ATOM     13  C   UNL     1      42.657  66.729  47.634  1.00  0.00    -0.000 C 
BRANCH  13  14
ATOM     14  C   UNL     1      43.482  65.996  46.560  1.00  0.00    -0.000 C 
BRANCH  14  15
ATOM     15  C   UNL     1      42.818  64.700  46.074  1.00  0.00    -0.003 C 
ATOM     16  C   UNL     1      41.343  64.658  46.465  1.00  0.00     0.004 C 
ENDBRANCH  14  15
ENDBRANCH  13  14
ENDBRANCH  12  13
ENDBRANCH  11  12
ENDBRANCH  10  11
ENDBRANCH   1  10
TORSDOF 12
ENDMDL
MODEL 8
REMARK VINA RESULT:    -4.193      3.099      6.950
REMARK INTER + INTRA:          -7.780
REMARK INTER:                  -6.590
REMARK INTRA:                  -1.189
REMARK UNBOUND:                -0.646
REMARK SMILES CCCCCCCCCCCCCC(=O)[O-]
REMARK SMILES IDX 8 1 9 2 10 3 11 4 12 5 13 6 14 7 15 8 16 9 7 10 6 11 5 12
REMARK SMILES IDX 4 13 3 14 2 15 1 16
REMARK H PARENT
REMARK Flexibility Score: inf
ROOT
ATOM      1  C   UNL     1      43.842  67.280  48.970  1.00  0.00     0.000 C 
ENDROOT
BRANCH   1   2
ATOM      2  C   UNL     1      44.714  66.160  49.567  1.00  0.00     0.000 C 
BRANCH   2   3
ATOM      3  C   UNL     1      45.249  66.444  50.983  1.00  0.00     0.000 C 
BRANCH   3   4
ATOM      4  C   UNL     1      44.789  65.415  52.038  1.00  0.00     0.000 C 
BRANCH   4   5
ATOM      5  C   UNL     1      43.690  65.970  52.960  1.00  0.00     0.006 C 
BRANCH   5   6
ATOM      6  C   UNL     1      43.141  64.903  53.916  1.00  0.00     0.053 C 
BRANCH   6   7
ATOM      7  C   UNL     1      41.761  65.238  54.392  1.00  0.00     0.041 C 
ATOM      8  O   UNL     1      40.760  64.656  53.899  1.00  0.00    -0.550 OA
ATOM      9  O   UNL     1      41.580  66.218  55.361  1.00  0.00    -0.550 OA
ENDBRANCH   6   7
ENDBRANCH   5   6
ENDBRANCH   4   5
ENDBRANCH   3   4
ENDBRANCH   2   3
ENDBRANCH   1   2
BRANCH   1  10
ATOM     10  C   UNL     1      42.927  68.008  49.979  1.00  0.00     0.000 C 
BRANCH  10  11
ATOM     11  C   UNL     1      41.417  67.788  49.778  1.00  0.00    -0.000 C 
BRANCH  11  12
ATOM     12  C   UNL     1      41.011  67.728  48.296  1.00  0.00    -0.000 C 
BRANCH  12  13
ATOM     13  C   UNL     1      39.977  66.626  48.001  1.00  0.00    -0.000 C 
BRANCH  13  14
ATOM     14  C   UNL     1      40.548  65.338  47.380  1.00  0.00    -0.000 C 
BRANCH  14  15
ATOM     15  C   UNL     1      41.398  65.602  46.128  1.00  0.00    -0.003 C 
ATOM     16  C   UNL     1      42.730  64.860  46.201  1.00  0.00     0.004 C 
ENDBRANCH  14  15
ENDBRANCH  13  14
ENDBRANCH  12  13
ENDBRANCH  11  12
ENDBRANCH  10  11
ENDBRANCH   1  10
TORSDOF 12
ENDMDL
MODEL 9
REMARK VINA RESULT:    -4.138      3.186      7.324
REMARK INTER + INTRA:          -7.687
REMARK INTER:                  -6.528
REMARK INTRA:                  -1.159
REMARK UNBOUND:                -0.646
REMARK SMILES CCCCCCCCCCCCCC(=O)[O-]
REMARK SMILES IDX 8 1 9 2 10 3 11 4 12 5 13 6 14 7 15 8 16 9 7 10 6 11 5 12
REMARK SMILES IDX 4 13 3 14 2 15 1 16
REMARK H PARENT
REMARK Flexibility Score: inf
ROOT
ATOM      1  C   UNL     1      41.668  67.719  49.853  1.00  0.00     0.000 C 
ENDROOT
BRANCH   1   2
ATOM      2  C   UNL     1      43.159  67.984  49.573  1.00  0.00     0.000 C 
BRANCH   2   3
ATOM      3  C   UNL     1      43.904  66.823  48.889  1.00  0.00     0.000 C 
BRANCH   3   4
ATOM      4  C   UNL     1      45.035  66.218  49.750  1.00  0.00     0.000 C 
BRANCH   4   5
ATOM      5  C   UNL     1      44.846  66.498  51.250  1.00  0.00     0.006 C 
BRANCH   5   6
ATOM      6  C   UNL     1      44.797  65.208  52.080  1.00  0.00     0.053 C 
BRANCH   6   7
ATOM      7  C   UNL     1      43.789  65.295  53.184  1.00  0.00     0.041 C 
ATOM      8  O   UNL     1      42.986  66.263  53.236  1.00  0.00    -0.550 OA
ATOM      9  O   UNL     1      43.759  64.322  54.176  1.00  0.00    -0.550 OA
ENDBRANCH   6   7
ENDBRANCH   5   6
ENDBRANCH   4   5
ENDBRANCH   3   4
ENDBRANCH   2   3
ENDBRANCH   1   2
BRANCH   1  10
ATOM     10  C   UNL     1      40.730  67.905  48.641  1.00  0.00     0.000 C 
BRANCH  10  11
ATOM     11  C   UNL     1      40.275  66.605  47.954  1.00  0.00    -0.000 C 
BRANCH  11  12
ATOM     12  C   UNL     1      40.932  66.390  46.580  1.00  0.00    -0.000 C 
BRANCH  12  13
ATOM     13  C   UNL     1      41.319  64.922  46.322  1.00  0.00    -0.000 C 
BRANCH  13  14
ATOM     14  C   UNL     1      42.817  64.673  46.067  1.00  0.00    -0.000 C 
BRANCH  14  15
ATOM     15  C   UNL     1      43.489  65.810  45.284  1.00  0.00    -0.003 C 
ATOM     16  C   UNL     1      43.743  65.404  43.834  1.00  0.00     0.004 C 
ENDBRANCH  14  15
ENDBRANCH  13  14
ENDBRANCH  12  13
ENDBRANCH  11  12
ENDBRANCH  10  11
ENDBRANCH   1  10
TORSDOF 12
ENDMDL
