MODEL 1
REMARK VINA RESULT:    -5.705      0.000      0.000
REMARK INTER + INTRA:         -10.013
REMARK INTER:                  -8.374
REMARK INTRA:                  -1.639
REMARK UNBOUND:                -1.639
REMARK SMILES Cc1cc2c(C(C)C)c(O)c(O)c(C=O)c2c(O)c1-c1c(C)cc2c(C(C)C)c(O)c(O)c(C=O)c2c1O
REMARK SMILES IDX 1 1 2 2 3 3 4 4 16 5 13 6 11 7 9 8 5 9 17 10 19 11 20 12
REMARK SMILES IDX 37 13 21 14 36 15 23 16 22 17 24 18 33 19 25 20 31 21 29 22
REMARK SMILES IDX 38 23 34 25 35 26 26 27 27 28 28 29 32 30 30 32 18 34 6 36
REMARK SMILES IDX 7 37 8 38 14 39 15 40 10 41 12 43
REMARK H PARENT 38 24 32 31 30 33 18 35 10 42 12 44
REMARK Flexibility Score: inf
ROOT
ATOM      1  C   UNL     1      -3.326 -42.635 -16.192  1.00  0.00     0.045 C 
ATOM      2  C   UNL     1      -4.447 -42.940 -17.154  1.00  0.00    -0.039 A 
ATOM      3  C   UNL     1      -4.158 -43.113 -18.508  1.00  0.00     0.013 A 
ATOM      4  C   UNL     1      -5.150 -43.448 -19.450  1.00  0.00    -0.006 A 
ATOM      5  C   UNL     1      -6.512 -43.508 -19.017  1.00  0.00     0.039 A 
ATOM      6  C   UNL     1      -7.526 -43.806 -19.973  1.00  0.00     0.072 A 
ATOM      7  C   UNL     1      -7.204 -43.850 -21.339  1.00  0.00     0.169 A 
ATOM      8  C   UNL     1      -5.876 -43.737 -21.765  1.00  0.00     0.162 A 
ATOM      9  C   UNL     1      -4.821 -43.691 -20.821  1.00  0.00     0.008 A 
ATOM     10  C   UNL     1      -6.817 -43.220 -17.653  1.00  0.00     0.132 A 
ATOM     11  C   UNL     1      -5.782 -42.993 -16.721  1.00  0.00     0.031 A 
ENDROOT
BRANCH  11  12
ATOM     12  C   UNL     1      -6.099 -42.776 -15.285  1.00  0.00     0.031 A 
ATOM     13  C   UNL     1      -5.986 -43.838 -14.363  1.00  0.00     0.132 A 
ATOM     14  C   UNL     1      -6.483 -41.501 -14.842  1.00  0.00    -0.039 A 
ATOM     15  C   UNL     1      -6.370 -43.654 -13.000  1.00  0.00     0.039 A 
ATOM     16  C   UNL     1      -6.745 -41.293 -13.487  1.00  0.00     0.013 A 
ATOM     17  C   UNL     1      -6.561 -40.335 -15.797  1.00  0.00     0.045 C 
ATOM     18  C   UNL     1      -6.746 -42.349 -12.554  1.00  0.00    -0.006 A 
ATOM     19  C   UNL     1      -6.350 -44.725 -12.060  1.00  0.00     0.072 A 
ATOM     20  C   UNL     1      -7.086 -42.127 -11.180  1.00  0.00     0.008 A 
ATOM     21  C   UNL     1      -6.512 -44.452 -10.691  1.00  0.00     0.169 A 
ATOM     22  C   UNL     1      -6.815 -43.161 -10.250  1.00  0.00     0.162 A 
BRANCH  13  23
ATOM     23  O   UNL     1      -5.447 -45.057 -14.787  1.00  0.00    -0.507 OA
ATOM     24  H   UNL     1      -4.479 -45.324 -14.654  1.00  0.00     0.293 HD
ENDBRANCH  13  23
BRANCH  19  25
ATOM     25  C   UNL     1      -6.246 -46.145 -12.479  1.00  0.00     0.264 C 
ATOM     26  O   UNL     1      -5.163 -46.780 -12.371  1.00  0.00    -0.298 OA
ENDBRANCH  19  25
BRANCH  20  27
ATOM     27  C   UNL     1      -7.797 -40.859 -10.670  1.00  0.00     0.017 C 
ATOM     28  C   UNL     1      -6.938 -39.971  -9.746  1.00  0.00     0.012 C 
ATOM     29  C   UNL     1      -9.184 -41.163 -10.085  1.00  0.00     0.012 C 
ENDBRANCH  20  27
BRANCH  21  30
ATOM     30  O   UNL     1      -6.392 -45.491  -9.762  1.00  0.00    -0.504 OA
ATOM     31  H   UNL     1      -5.771 -46.278  -9.897  1.00  0.00     0.293 HD
ENDBRANCH  21  30
BRANCH  22  32
ATOM     32  O   UNL     1      -6.848 -42.942  -8.867  1.00  0.00    -0.504 OA
ATOM     33  H   UNL     1      -7.440 -43.456  -8.228  1.00  0.00     0.293 HD
ENDBRANCH  22  32
ENDBRANCH  11  12
BRANCH  10  34
ATOM     34  O   UNL     1      -8.148 -43.111 -17.232  1.00  0.00    -0.507 OA
ATOM     35  H   UNL     1      -8.622 -43.806 -16.671  1.00  0.00     0.293 HD
ENDBRANCH  10  34
BRANCH   9  36
ATOM     36  C   UNL     1      -3.391 -43.984 -21.320  1.00  0.00     0.017 C 
ATOM     37  C   UNL     1      -2.824 -42.933 -22.294  1.00  0.00     0.012 C 
ATOM     38  C   UNL     1      -3.224 -45.421 -21.830  1.00  0.00     0.012 C 
ENDBRANCH   9  36
BRANCH   6  39
ATOM     39  C   UNL     1      -8.915 -44.146 -19.575  1.00  0.00     0.264 C 
ATOM     40  O   UNL     1      -9.861 -43.331 -19.747  1.00  0.00    -0.298 OA
ENDBRANCH   6  39
BRANCH   8  41
ATOM     41  O   UNL     1      -5.641 -43.678 -23.144  1.00  0.00    -0.504 OA
ATOM     42  H   UNL     1      -4.890 -44.166 -23.610  1.00  0.00     0.293 HD
ENDBRANCH   8  41
BRANCH   7  43
ATOM     43  O   UNL     1      -8.220 -44.035 -22.283  1.00  0.00    -0.504 OA
ATOM     44  H   UNL     1      -8.137 -43.737 -23.246  1.00  0.00     0.293 HD
ENDBRANCH   7  43
TORSDOF 11
ENDMDL
MODEL 2
REMARK VINA RESULT:    -5.679      0.325      9.202
REMARK INTER + INTRA:          -9.973
REMARK INTER:                  -8.237
REMARK INTRA:                  -1.737
REMARK UNBOUND:                -1.639
REMARK SMILES Cc1cc2c(C(C)C)c(O)c(O)c(C=O)c2c(O)c1-c1c(C)cc2c(C(C)C)c(O)c(O)c(C=O)c2c1O
REMARK SMILES IDX 1 1 2 2 3 3 4 4 16 5 13 6 11 7 9 8 5 9 17 10 19 11 20 12
REMARK SMILES IDX 37 13 21 14 36 15 23 16 22 17 24 18 33 19 25 20 31 21 29 22
REMARK SMILES IDX 38 23 34 25 35 26 26 27 27 28 28 29 32 30 30 32 18 34 6 36
REMARK SMILES IDX 7 37 8 38 14 39 15 40 10 41 12 43
REMARK H PARENT 38 24 32 31 30 33 18 35 10 42 12 44
REMARK Flexibility Score: inf
ROOT
ATOM      1  C   UNL     1      -6.540 -40.378 -15.872  1.00  0.00     0.045 C 
ATOM      2  C   UNL     1      -6.489 -41.535 -14.905  1.00  0.00    -0.039 A 
ATOM      3  C   UNL     1      -6.770 -41.313 -13.557  1.00  0.00     0.013 A 
ATOM      4  C   UNL     1      -6.788 -42.357 -12.612  1.00  0.00    -0.006 A 
ATOM      5  C   UNL     1      -6.401 -43.668 -13.035  1.00  0.00     0.039 A 
ATOM      6  C   UNL     1      -6.378 -44.722 -12.076  1.00  0.00     0.072 A 
ATOM      7  C   UNL     1      -6.547 -44.427 -10.714  1.00  0.00     0.169 A 
ATOM      8  C   UNL     1      -6.873 -43.132 -10.297  1.00  0.00     0.162 A 
ATOM      9  C   UNL     1      -7.149 -42.120 -11.248  1.00  0.00     0.008 A 
ATOM     10  C   UNL     1      -6.006 -43.868 -14.392  1.00  0.00     0.132 A 
ATOM     11  C   UNL     1      -6.104 -42.818 -15.328  1.00  0.00     0.031 A 
ENDROOT
BRANCH  11  12
ATOM     12  C   UNL     1      -5.771 -43.052 -16.758  1.00  0.00     0.031 A 
ATOM     13  C   UNL     1      -6.792 -43.329 -17.691  1.00  0.00     0.132 A 
ATOM     14  C   UNL     1      -4.437 -42.968 -17.184  1.00  0.00    -0.039 A 
ATOM     15  C   UNL     1      -6.467 -43.638 -19.047  1.00  0.00     0.039 A 
ATOM     16  C   UNL     1      -4.132 -43.153 -18.533  1.00  0.00     0.013 A 
ATOM     17  C   UNL     1      -3.330 -42.621 -16.218  1.00  0.00     0.045 C 
ATOM     18  C   UNL     1      -5.108 -43.535 -19.476  1.00  0.00    -0.006 A 
ATOM     19  C   UNL     1      -7.464 -44.005 -19.997  1.00  0.00     0.072 A 
ATOM     20  C   UNL     1      -4.763 -43.789 -20.842  1.00  0.00     0.008 A 
ATOM     21  C   UNL     1      -7.135 -44.074 -21.360  1.00  0.00     0.169 A 
ATOM     22  C   UNL     1      -5.814 -43.909 -21.786  1.00  0.00     0.162 A 
BRANCH  13  23
ATOM     23  O   UNL     1      -8.129 -43.250 -17.285  1.00  0.00    -0.507 OA
ATOM     24  H   UNL     1      -8.460 -43.537 -16.372  1.00  0.00     0.293 HD
ENDBRANCH  13  23
BRANCH  19  25
ATOM     25  C   UNL     1      -8.836 -44.402 -19.591  1.00  0.00     0.264 C 
ATOM     26  O   UNL     1      -9.823 -43.647 -19.797  1.00  0.00    -0.298 OA
ENDBRANCH  19  25
BRANCH  20  27
ATOM     27  C   UNL     1      -3.319 -44.014 -21.332  1.00  0.00     0.017 C 
ATOM     28  C   UNL     1      -2.821 -42.974 -22.356  1.00  0.00     0.012 C 
ATOM     29  C   UNL     1      -3.074 -45.461 -21.784  1.00  0.00     0.012 C 
ENDBRANCH  20  27
BRANCH  21  30
ATOM     30  O   UNL     1      -8.137 -44.337 -22.300  1.00  0.00    -0.504 OA
ATOM     31  H   UNL     1      -8.920 -44.949 -22.110  1.00  0.00     0.293 HD
ENDBRANCH  21  30
BRANCH  22  32
ATOM     32  O   UNL     1      -5.579 -43.876 -23.166  1.00  0.00    -0.504 OA
ATOM     33  H   UNL     1      -4.714 -43.558 -23.584  1.00  0.00     0.293 HD
ENDBRANCH  22  32
ENDBRANCH  11  12
BRANCH  10  34
ATOM     34  O   UNL     1      -5.470 -45.096 -14.799  1.00  0.00    -0.507 OA
ATOM     35  H   UNL     1      -4.902 -45.689 -14.209  1.00  0.00     0.293 HD
ENDBRANCH  10  34
BRANCH   9  36
ATOM     36  C   UNL     1      -7.892 -40.858 -10.767  1.00  0.00     0.017 C 
ATOM     37  C   UNL     1      -9.233 -40.592 -11.478  1.00  0.00     0.012 C 
ATOM     38  C   UNL     1      -6.988 -39.619 -10.718  1.00  0.00     0.012 C 
ENDBRANCH   9  36
BRANCH   6  39
ATOM     39  C   UNL     1      -6.248 -46.148 -12.468  1.00  0.00     0.264 C 
ATOM     40  O   UNL     1      -5.155 -46.763 -12.343  1.00  0.00    -0.298 OA
ENDBRANCH   6  39
BRANCH   8  41
ATOM     41  O   UNL     1      -6.917 -42.887  -8.919  1.00  0.00    -0.504 OA
ATOM     42  H   UNL     1      -7.732 -42.541  -8.434  1.00  0.00     0.293 HD
ENDBRANCH   8  41
BRANCH   7  43
ATOM     43  O   UNL     1      -6.415 -45.447  -9.765  1.00  0.00    -0.504 OA
ATOM     44  H   UNL     1      -5.747 -46.201  -9.857  1.00  0.00     0.293 HD
ENDBRANCH   7  43
TORSDOF 11
ENDMDL
MODEL 3
REMARK VINA RESULT:    -5.617      3.727      6.126
REMARK INTER + INTRA:          -9.883
REMARK INTER:                  -8.334
REMARK INTRA:                  -1.549
REMARK UNBOUND:                -1.639
REMARK SMILES Cc1cc2c(C(C)C)c(O)c(O)c(C=O)c2c(O)c1-c1c(C)cc2c(C(C)C)c(O)c(O)c(C=O)c2c1O
REMARK SMILES IDX 1 1 2 2 3 3 4 4 16 5 13 6 11 7 9 8 5 9 17 10 19 11 20 12
REMARK SMILES IDX 37 13 21 14 36 15 23 16 22 17 24 18 33 19 25 20 31 21 29 22
REMARK SMILES IDX 38 23 34 25 35 26 26 27 27 28 28 29 32 30 30 32 18 34 6 36
REMARK SMILES IDX 7 37 8 38 14 39 15 40 10 41 12 43
REMARK H PARENT 38 24 32 31 30 33 18 35 10 42 12 44
REMARK Flexibility Score: inf
ROOT
ATOM      1  C   UNL     1      -7.426 -43.525 -21.449  1.00  0.00     0.045 C 
ATOM      2  C   UNL     1      -6.370 -42.769 -22.215  1.00  0.00    -0.039 A 
ATOM      3  C   UNL     1      -5.935 -43.260 -23.447  1.00  0.00     0.013 A 
ATOM      4  C   UNL     1      -4.988 -42.577 -24.235  1.00  0.00    -0.006 A 
ATOM      5  C   UNL     1      -4.380 -41.397 -23.702  1.00  0.00     0.039 A 
ATOM      6  C   UNL     1      -3.391 -40.723 -24.477  1.00  0.00     0.072 A 
ATOM      7  C   UNL     1      -2.899 -41.320 -25.649  1.00  0.00     0.169 A 
ATOM      8  C   UNL     1      -3.460 -42.503 -26.139  1.00  0.00     0.162 A 
ATOM      9  C   UNL     1      -4.609 -43.061 -25.527  1.00  0.00     0.008 A 
ATOM     10  C   UNL     1      -4.746 -40.960 -22.394  1.00  0.00     0.132 A 
ATOM     11  C   UNL     1      -5.774 -41.613 -21.684  1.00  0.00     0.031 A 
ENDROOT
BRANCH  11  12
ATOM     12  C   UNL     1      -6.211 -41.105 -20.356  1.00  0.00     0.031 A 
ATOM     13  C   UNL     1      -5.664 -41.644 -19.173  1.00  0.00     0.132 A 
ATOM     14  C   UNL     1      -7.149 -40.064 -20.284  1.00  0.00    -0.039 A 
ATOM     15  C   UNL     1      -6.143 -41.217 -17.897  1.00  0.00     0.039 A 
ATOM     16  C   UNL     1      -7.529 -39.566 -19.038  1.00  0.00     0.013 A 
ATOM     17  C   UNL     1      -7.710 -39.433 -21.535  1.00  0.00     0.045 C 
ATOM     18  C   UNL     1      -7.087 -40.147 -17.832  1.00  0.00    -0.006 A 
ATOM     19  C   UNL     1      -5.675 -41.799 -16.682  1.00  0.00     0.072 A 
ATOM     20  C   UNL     1      -7.545 -39.665 -16.563  1.00  0.00     0.008 A 
ATOM     21  C   UNL     1      -5.996 -41.197 -15.454  1.00  0.00     0.169 A 
ATOM     22  C   UNL     1      -6.870 -40.108 -15.398  1.00  0.00     0.162 A 
BRANCH  13  23
ATOM     23  O   UNL     1      -4.613 -42.564 -19.262  1.00  0.00    -0.507 OA
ATOM     24  H   UNL     1      -4.732 -43.532 -19.536  1.00  0.00     0.293 HD
ENDBRANCH  13  23
BRANCH  19  25
ATOM     25  C   UNL     1      -4.920 -43.077 -16.656  1.00  0.00     0.264 C 
ATOM     26  O   UNL     1      -3.692 -43.104 -16.378  1.00  0.00    -0.298 OA
ENDBRANCH  19  25
BRANCH  20  27
ATOM     27  C   UNL     1      -8.774 -38.752 -16.388  1.00  0.00     0.017 C 
ATOM     28  C   UNL     1     -10.125 -39.434 -16.685  1.00  0.00     0.012 C 
ATOM     29  C   UNL     1      -8.612 -37.408 -17.112  1.00  0.00     0.012 C 
ENDBRANCH  20  27
BRANCH  21  30
ATOM     30  O   UNL     1      -5.454 -41.712 -14.272  1.00  0.00    -0.504 OA
ATOM     31  H   UNL     1      -5.595 -42.669 -13.976  1.00  0.00     0.293 HD
ENDBRANCH  21  30
BRANCH  22  32
ATOM     32  O   UNL     1      -7.054 -39.490 -14.155  1.00  0.00    -0.504 OA
ATOM     33  H   UNL     1      -6.681 -39.849 -13.285  1.00  0.00     0.293 HD
ENDBRANCH  22  32
ENDBRANCH  11  12
BRANCH  10  34
ATOM     34  O   UNL     1      -4.056 -39.907 -21.780  1.00  0.00    -0.507 OA
ATOM     35  H   UNL     1      -3.256 -39.442 -22.187  1.00  0.00     0.293 HD
ENDBRANCH  10  34
BRANCH   9  36
ATOM     36  C   UNL     1      -5.423 -44.099 -26.325  1.00  0.00     0.017 C 
ATOM     37  C   UNL     1      -6.796 -43.600 -26.814  1.00  0.00     0.012 C 
ATOM     38  C   UNL     1      -5.500 -45.461 -25.622  1.00  0.00     0.012 C 
ENDBRANCH   9  36
BRANCH   6  39
ATOM     39  C   UNL     1      -2.902 -39.365 -24.130  1.00  0.00     0.264 C 
ATOM     40  O   UNL     1      -3.573 -38.337 -24.413  1.00  0.00    -0.298 OA
ENDBRANCH   6  39
BRANCH   8  41
ATOM     41  O   UNL     1      -2.848 -43.099 -27.248  1.00  0.00    -0.504 OA
ATOM     42  H   UNL     1      -3.010 -44.053 -27.538  1.00  0.00     0.293 HD
ENDBRANCH   8  41
BRANCH   7  43
ATOM     43  O   UNL     1      -1.852 -40.709 -26.348  1.00  0.00    -0.504 OA
ATOM     44  H   UNL     1      -1.426 -41.118 -27.169  1.00  0.00     0.293 HD
ENDBRANCH   7  43
TORSDOF 11
ENDMDL
MODEL 4
REMARK VINA RESULT:    -5.521      3.803      6.980
REMARK INTER + INTRA:          -9.742
REMARK INTER:                  -8.219
REMARK INTRA:                  -1.522
REMARK UNBOUND:                -1.639
REMARK SMILES Cc1cc2c(C(C)C)c(O)c(O)c(C=O)c2c(O)c1-c1c(C)cc2c(C(C)C)c(O)c(O)c(C=O)c2c1O
REMARK SMILES IDX 1 1 2 2 3 3 4 4 16 5 13 6 11 7 9 8 5 9 17 10 19 11 20 12
REMARK SMILES IDX 37 13 21 14 36 15 23 16 22 17 24 18 33 19 25 20 31 21 29 22
REMARK SMILES IDX 38 23 34 25 35 26 26 27 27 28 28 29 32 30 30 32 18 34 6 36
REMARK SMILES IDX 7 37 8 38 14 39 15 40 10 41 12 43
REMARK H PARENT 38 24 32 31 30 33 18 35 10 42 12 44
REMARK Flexibility Score: inf
ROOT
ATOM      1  C   UNL     1      -8.066 -42.789 -21.840  1.00  0.00     0.045 C 
ATOM      2  C   UNL     1      -6.964 -42.041 -22.549  1.00  0.00    -0.039 A 
ATOM      3  C   UNL     1      -6.899 -42.076 -23.942  1.00  0.00     0.013 A 
ATOM      4  C   UNL     1      -5.927 -41.360 -24.666  1.00  0.00    -0.006 A 
ATOM      5  C   UNL     1      -4.912 -40.661 -23.940  1.00  0.00     0.039 A 
ATOM      6  C   UNL     1      -3.900 -39.967 -24.666  1.00  0.00     0.072 A 
ATOM      7  C   UNL     1      -3.804 -40.133 -26.057  1.00  0.00     0.169 A 
ATOM      8  C   UNL     1      -4.769 -40.863 -26.759  1.00  0.00     0.162 A 
ATOM      9  C   UNL     1      -5.921 -41.353 -26.097  1.00  0.00     0.008 A 
ATOM     10  C   UNL     1      -4.917 -40.719 -22.514  1.00  0.00     0.132 A 
ATOM     11  C   UNL     1      -5.969 -41.360 -21.828  1.00  0.00     0.031 A 
ENDROOT
BRANCH  11  12
ATOM     12  C   UNL     1      -6.015 -41.348 -20.342  1.00  0.00     0.031 A 
ATOM     13  C   UNL     1      -6.691 -40.314 -19.659  1.00  0.00     0.132 A 
ATOM     14  C   UNL     1      -5.409 -42.386 -19.619  1.00  0.00    -0.039 A 
ATOM     15  C   UNL     1      -6.665 -40.254 -18.233  1.00  0.00     0.039 A 
ATOM     16  C   UNL     1      -5.485 -42.389 -18.225  1.00  0.00     0.013 A 
ATOM     17  C   UNL     1      -4.725 -43.531 -20.324  1.00  0.00     0.045 C 
ATOM     18  C   UNL     1      -6.058 -41.322 -17.504  1.00  0.00    -0.006 A 
ATOM     19  C   UNL     1      -7.263 -39.180 -17.512  1.00  0.00     0.072 A 
ATOM     20  C   UNL     1      -6.063 -41.312 -16.071  1.00  0.00     0.008 A 
ATOM     21  C   UNL     1      -7.415 -39.276 -16.119  1.00  0.00     0.169 A 
ATOM     22  C   UNL     1      -6.877 -40.356 -15.414  1.00  0.00     0.162 A 
BRANCH  13  23
ATOM     23  O   UNL     1      -7.428 -39.378 -20.393  1.00  0.00    -0.507 OA
ATOM     24  H   UNL     1      -8.314 -39.581 -20.839  1.00  0.00     0.293 HD
ENDBRANCH  13  23
BRANCH  19  25
ATOM     25  C   UNL     1      -7.665 -37.911 -18.170  1.00  0.00     0.264 C 
ATOM     26  O   UNL     1      -8.878 -37.626 -18.355  1.00  0.00    -0.298 OA
ENDBRANCH  19  25
BRANCH  20  27
ATOM     27  C   UNL     1      -5.178 -42.230 -15.206  1.00  0.00     0.017 C 
ATOM     28  C   UNL     1      -3.765 -42.477 -15.773  1.00  0.00     0.012 C 
ATOM     29  C   UNL     1      -5.896 -43.528 -14.809  1.00  0.00     0.012 C 
ENDBRANCH  20  27
BRANCH  21  30
ATOM     30  O   UNL     1      -8.092 -38.265 -15.428  1.00  0.00    -0.504 OA
ATOM     31  H   UNL     1      -7.673 -37.746 -14.668  1.00  0.00     0.293 HD
ENDBRANCH  21  30
BRANCH  22  32
ATOM     32  O   UNL     1      -7.166 -40.443 -14.047  1.00  0.00    -0.504 OA
ATOM     33  H   UNL     1      -7.872 -39.887 -13.582  1.00  0.00     0.293 HD
ENDBRANCH  22  32
ENDBRANCH  11  12
BRANCH  10  34
ATOM     34  O   UNL     1      -3.851 -40.184 -21.780  1.00  0.00    -0.507 OA
ATOM     35  H   UNL     1      -2.908 -40.548 -21.803  1.00  0.00     0.293 HD
ENDBRANCH  10  34
BRANCH   9  36
ATOM     36  C   UNL     1      -7.128 -41.773 -26.960  1.00  0.00     0.017 C 
ATOM     37  C   UNL     1      -8.440 -41.034 -26.633  1.00  0.00     0.012 C 
ATOM     38  C   UNL     1      -7.303 -43.296 -27.031  1.00  0.00     0.012 C 
ENDBRANCH   9  36
BRANCH   6  39
ATOM     39  C   UNL     1      -2.973 -39.009 -24.014  1.00  0.00     0.264 C 
ATOM     40  O   UNL     1      -2.853 -37.827 -24.434  1.00  0.00    -0.298 OA
ENDBRANCH   6  39
BRANCH   8  41
ATOM     41  O   UNL     1      -4.550 -41.080 -28.124  1.00  0.00    -0.504 OA
ATOM     42  H   UNL     1      -4.781 -41.938 -28.604  1.00  0.00     0.293 HD
ENDBRANCH   8  41
BRANCH   7  43
ATOM     43  O   UNL     1      -2.745 -39.538 -26.752  1.00  0.00    -0.504 OA
ATOM     44  H   UNL     1      -2.657 -39.578 -27.759  1.00  0.00     0.293 HD
ENDBRANCH   7  43
TORSDOF 11
ENDMDL
MODEL 5
REMARK VINA RESULT:    -5.500      3.803     10.625
REMARK INTER + INTRA:          -9.712
REMARK INTER:                  -8.214
REMARK INTRA:                  -1.498
REMARK UNBOUND:                -1.639
REMARK SMILES Cc1cc2c(C(C)C)c(O)c(O)c(C=O)c2c(O)c1-c1c(C)cc2c(C(C)C)c(O)c(O)c(C=O)c2c1O
REMARK SMILES IDX 1 1 2 2 3 3 4 4 16 5 13 6 11 7 9 8 5 9 17 10 19 11 20 12
REMARK SMILES IDX 37 13 21 14 36 15 23 16 22 17 24 18 33 19 25 20 31 21 29 22
REMARK SMILES IDX 38 23 34 25 35 26 26 27 27 28 28 29 32 30 30 32 18 34 6 36
REMARK SMILES IDX 7 37 8 38 14 39 15 40 10 41 12 43
REMARK H PARENT 38 24 32 31 30 33 18 35 10 42 12 44
REMARK Flexibility Score: inf
ROOT
ATOM      1  C   UNL     1      -4.771 -43.535 -20.302  1.00  0.00     0.045 C 
ATOM      2  C   UNL     1      -5.428 -42.379 -19.588  1.00  0.00    -0.039 A 
ATOM      3  C   UNL     1      -5.495 -42.385 -18.194  1.00  0.00     0.013 A 
ATOM      4  C   UNL     1      -6.050 -41.316 -17.465  1.00  0.00    -0.006 A 
ATOM      5  C   UNL     1      -6.658 -40.240 -18.186  1.00  0.00     0.039 A 
ATOM      6  C   UNL     1      -7.258 -39.174 -17.455  1.00  0.00     0.072 A 
ATOM      7  C   UNL     1      -7.410 -39.283 -16.063  1.00  0.00     0.169 A 
ATOM      8  C   UNL     1      -6.861 -40.365 -15.366  1.00  0.00     0.162 A 
ATOM      9  C   UNL     1      -6.044 -41.310 -16.034  1.00  0.00     0.008 A 
ATOM     10  C   UNL     1      -6.687 -40.292 -19.612  1.00  0.00     0.132 A 
ATOM     11  C   UNL     1      -6.027 -41.329 -20.303  1.00  0.00     0.031 A 
ENDROOT
BRANCH  11  12
ATOM     12  C   UNL     1      -5.987 -41.335 -21.790  1.00  0.00     0.031 A 
ATOM     13  C   UNL     1      -4.929 -40.703 -22.476  1.00  0.00     0.132 A 
ATOM     14  C   UNL     1      -6.992 -41.999 -22.509  1.00  0.00    -0.039 A 
ATOM     15  C   UNL     1      -4.933 -40.635 -23.902  1.00  0.00     0.039 A 
ATOM     16  C   UNL     1      -6.933 -42.032 -23.903  1.00  0.00     0.013 A 
ATOM     17  C   UNL     1      -8.107 -42.727 -21.799  1.00  0.00     0.045 C 
ATOM     18  C   UNL     1      -5.952 -41.325 -24.628  1.00  0.00    -0.006 A 
ATOM     19  C   UNL     1      -3.927 -39.932 -24.627  1.00  0.00     0.072 A 
ATOM     20  C   UNL     1      -5.950 -41.316 -26.060  1.00  0.00     0.008 A 
ATOM     21  C   UNL     1      -3.839 -40.083 -26.021  1.00  0.00     0.169 A 
ATOM     22  C   UNL     1      -4.802 -40.814 -26.723  1.00  0.00     0.162 A 
BRANCH  13  23
ATOM     23  O   UNL     1      -3.852 -40.189 -21.747  1.00  0.00    -0.507 OA
ATOM     24  H   UNL     1      -3.521 -39.235 -21.825  1.00  0.00     0.293 HD
ENDBRANCH  13  23
BRANCH  19  25
ATOM     25  C   UNL     1      -3.004 -38.972 -23.972  1.00  0.00     0.264 C 
ATOM     26  O   UNL     1      -2.829 -37.814 -24.435  1.00  0.00    -0.298 OA
ENDBRANCH  19  25
BRANCH  20  27
ATOM     27  C   UNL     1      -7.153 -41.749 -26.920  1.00  0.00     0.017 C 
ATOM     28  C   UNL     1      -8.463 -40.992 -26.616  1.00  0.00     0.012 C 
ATOM     29  C   UNL     1      -7.336 -43.273 -26.943  1.00  0.00     0.012 C 
ENDBRANCH  20  27
BRANCH  21  30
ATOM     30  O   UNL     1      -2.790 -39.473 -26.716  1.00  0.00    -0.504 OA
ATOM     31  H   UNL     1      -1.882 -39.306 -26.303  1.00  0.00     0.293 HD
ENDBRANCH  21  30
BRANCH  22  32
ATOM     32  O   UNL     1      -4.587 -41.018 -28.091  1.00  0.00    -0.504 OA
ATOM     33  H   UNL     1      -4.248 -40.303 -28.722  1.00  0.00     0.293 HD
ENDBRANCH  22  32
ENDBRANCH  11  12
BRANCH  10  34
ATOM     34  O   UNL     1      -7.412 -39.342 -20.341  1.00  0.00    -0.507 OA
ATOM     35  H   UNL     1      -8.103 -38.724 -19.935  1.00  0.00     0.293 HD
ENDBRANCH  10  34
BRANCH   9  36
ATOM     36  C   UNL     1      -5.141 -42.220 -15.178  1.00  0.00     0.017 C 
ATOM     37  C   UNL     1      -3.735 -42.460 -15.760  1.00  0.00     0.012 C 
ATOM     38  C   UNL     1      -5.840 -43.518 -14.752  1.00  0.00     0.012 C 
ENDBRANCH   9  36
BRANCH   6  39
ATOM     39  C   UNL     1      -7.673 -37.904 -18.102  1.00  0.00     0.264 C 
ATOM     40  O   UNL     1      -8.890 -37.631 -18.284  1.00  0.00    -0.298 OA
ENDBRANCH   6  39
BRANCH   8  41
ATOM     41  O   UNL     1      -7.146 -40.466 -13.999  1.00  0.00    -0.504 OA
ATOM     42  H   UNL     1      -7.508 -39.707 -13.440  1.00  0.00     0.293 HD
ENDBRANCH   8  41
BRANCH   7  43
ATOM     43  O   UNL     1      -8.097 -38.285 -15.363  1.00  0.00    -0.504 OA
ATOM     44  H   UNL     1      -8.812 -38.488 -14.676  1.00  0.00     0.293 HD
ENDBRANCH   7  43
TORSDOF 11
ENDMDL
MODEL 6
REMARK VINA RESULT:    -5.431      3.086      8.741
REMARK INTER + INTRA:          -9.610
REMARK INTER:                  -7.840
REMARK INTRA:                  -1.769
REMARK UNBOUND:                -1.639
REMARK SMILES Cc1cc2c(C(C)C)c(O)c(O)c(C=O)c2c(O)c1-c1c(C)cc2c(C(C)C)c(O)c(O)c(C=O)c2c1O
REMARK SMILES IDX 1 1 2 2 3 3 4 4 16 5 13 6 11 7 9 8 5 9 17 10 19 11 20 12
REMARK SMILES IDX 37 13 21 14 36 15 23 16 22 17 24 18 33 19 25 20 31 21 29 22
REMARK SMILES IDX 38 23 34 25 35 26 26 27 27 28 28 29 32 30 30 32 18 34 6 36
REMARK SMILES IDX 7 37 8 38 14 39 15 40 10 41 12 43
REMARK H PARENT 38 24 32 31 30 33 18 35 10 42 12 44
REMARK Flexibility Score: inf
ROOT
ATOM      1  C   UNL     1      -3.943 -42.749 -15.774  1.00  0.00     0.045 C 
ATOM      2  C   UNL     1      -5.154 -43.444 -15.201  1.00  0.00    -0.039 A 
ATOM      3  C   UNL     1      -5.746 -42.942 -14.041  1.00  0.00     0.013 A 
ATOM      4  C   UNL     1      -6.905 -43.514 -13.484  1.00  0.00    -0.006 A 
ATOM      5  C   UNL     1      -7.428 -44.709 -14.070  1.00  0.00     0.039 A 
ATOM      6  C   UNL     1      -8.579 -45.316 -13.486  1.00  0.00     0.072 A 
ATOM      7  C   UNL     1      -9.062 -44.849 -12.254  1.00  0.00     0.169 A 
ATOM      8  C   UNL     1      -8.514 -43.710 -11.655  1.00  0.00     0.162 A 
ATOM      9  C   UNL     1      -7.537 -42.941 -12.334  1.00  0.00     0.008 A 
ATOM     10  C   UNL     1      -6.754 -45.282 -15.190  1.00  0.00     0.132 A 
ATOM     11  C   UNL     1      -5.659 -44.620 -15.781  1.00  0.00     0.031 A 
ENDROOT
BRANCH  11  12
ATOM     12  C   UNL     1      -5.011 -45.177 -16.998  1.00  0.00     0.031 A 
ATOM     13  C   UNL     1      -3.994 -46.148 -16.882  1.00  0.00     0.132 A 
ATOM     14  C   UNL     1      -5.435 -44.754 -18.266  1.00  0.00    -0.039 A 
ATOM     15  C   UNL     1      -3.313 -46.622 -18.044  1.00  0.00     0.039 A 
ATOM     16  C   UNL     1      -4.849 -45.305 -19.407  1.00  0.00     0.013 A 
ATOM     17  C   UNL     1      -6.556 -43.756 -18.421  1.00  0.00     0.045 C 
ATOM     18  C   UNL     1      -3.761 -46.198 -19.333  1.00  0.00    -0.006 A 
ATOM     19  C   UNL     1      -2.225 -47.539 -17.959  1.00  0.00     0.072 A 
ATOM     20  C   UNL     1      -3.128 -46.698 -20.516  1.00  0.00     0.008 A 
ATOM     21  C   UNL     1      -1.739 -48.151 -19.126  1.00  0.00     0.169 A 
ATOM     22  C   UNL     1      -2.225 -47.782 -20.383  1.00  0.00     0.162 A 
BRANCH  13  23
ATOM     23  O   UNL     1      -3.696 -46.678 -15.622  1.00  0.00    -0.507 OA
ATOM     24  H   UNL     1      -2.759 -46.738 -15.242  1.00  0.00     0.293 HD
ENDBRANCH  13  23
BRANCH  19  25
ATOM     25  C   UNL     1      -1.521 -47.816 -16.682  1.00  0.00     0.264 C 
ATOM     26  O   UNL     1      -1.646 -48.923 -16.094  1.00  0.00    -0.298 OA
ENDBRANCH  19  25
BRANCH  20  27
ATOM     27  C   UNL     1      -3.316 -46.077 -21.914  1.00  0.00     0.017 C 
ATOM     28  C   UNL     1      -2.990 -44.572 -21.994  1.00  0.00     0.012 C 
ATOM     29  C   UNL     1      -4.678 -46.426 -22.530  1.00  0.00     0.012 C 
ENDBRANCH  20  27
BRANCH  21  30
ATOM     30  O   UNL     1      -0.739 -49.125 -19.028  1.00  0.00    -0.504 OA
ATOM     31  H   UNL     1       0.170 -48.938 -18.624  1.00  0.00     0.293 HD
ENDBRANCH  21  30
BRANCH  22  32
ATOM     32  O   UNL     1      -1.777 -48.514 -21.489  1.00  0.00    -0.504 OA
ATOM     33  H   UNL     1      -1.942 -49.505 -21.615  1.00  0.00     0.293 HD
ENDBRANCH  22  32
ENDBRANCH  11  12
BRANCH  10  34
ATOM     34  O   UNL     1      -7.142 -46.533 -15.685  1.00  0.00    -0.507 OA
ATOM     35  H   UNL     1      -7.963 -46.685 -16.256  1.00  0.00     0.293 HD
ENDBRANCH  10  34
BRANCH   9  36
ATOM     36  C   UNL     1      -7.273 -41.505 -11.839  1.00  0.00     0.017 C 
ATOM     37  C   UNL     1      -6.645 -41.416 -10.434  1.00  0.00     0.012 C 
ATOM     38  C   UNL     1      -8.491 -40.587 -12.006  1.00  0.00     0.012 C 
ENDBRANCH   9  36
BRANCH   6  39
ATOM     39  C   UNL     1      -9.339 -46.392 -14.169  1.00  0.00     0.264 C 
ATOM     40  O   UNL     1      -9.148 -47.606 -13.889  1.00  0.00    -0.298 OA
ENDBRANCH   6  39
BRANCH   8  41
ATOM     41  O   UNL     1      -8.970 -43.367 -10.377  1.00  0.00    -0.504 OA
ATOM     42  H   UNL     1      -8.377 -43.003  -9.645  1.00  0.00     0.293 HD
ENDBRANCH   8  41
BRANCH   7  43
ATOM     43  O   UNL     1     -10.123 -45.515 -11.631  1.00  0.00    -0.504 OA
ATOM     44  H   UNL     1     -10.391 -45.345 -10.670  1.00  0.00     0.293 HD
ENDBRANCH   7  43
TORSDOF 11
ENDMDL
MODEL 7
REMARK VINA RESULT:    -5.346      3.637      5.786
REMARK INTER + INTRA:          -9.486
REMARK INTER:                  -8.271
REMARK INTRA:                  -1.215
REMARK UNBOUND:                -1.639
REMARK SMILES Cc1cc2c(C(C)C)c(O)c(O)c(C=O)c2c(O)c1-c1c(C)cc2c(C(C)C)c(O)c(O)c(C=O)c2c1O
REMARK SMILES IDX 1 1 2 2 3 3 4 4 16 5 13 6 11 7 9 8 5 9 17 10 19 11 20 12
REMARK SMILES IDX 37 13 21 14 36 15 23 16 22 17 24 18 33 19 25 20 31 21 29 22
REMARK SMILES IDX 38 23 34 25 35 26 26 27 27 28 28 29 32 30 30 32 18 34 6 36
REMARK SMILES IDX 7 37 8 38 14 39 15 40 10 41 12 43
REMARK H PARENT 38 24 32 31 30 33 18 35 10 42 12 44
REMARK Flexibility Score: inf
ROOT
ATOM      1  C   UNL     1      -3.612 -42.553 -15.990  1.00  0.00     0.045 C 
ATOM      2  C   UNL     1      -4.106 -43.614 -16.942  1.00  0.00    -0.039 A 
ATOM      3  C   UNL     1      -3.408 -44.818 -17.045  1.00  0.00     0.013 A 
ATOM      4  C   UNL     1      -3.843 -45.868 -17.877  1.00  0.00    -0.006 A 
ATOM      5  C   UNL     1      -4.978 -45.648 -18.719  1.00  0.00     0.039 A 
ATOM      6  C   UNL     1      -5.400 -46.692 -19.593  1.00  0.00     0.072 A 
ATOM      7  C   UNL     1      -4.597 -47.833 -19.752  1.00  0.00     0.169 A 
ATOM      8  C   UNL     1      -3.457 -48.021 -18.965  1.00  0.00     0.162 A 
ATOM      9  C   UNL     1      -3.152 -47.121 -17.915  1.00  0.00     0.008 A 
ATOM     10  C   UNL     1      -5.622 -44.375 -18.692  1.00  0.00     0.132 A 
ATOM     11  C   UNL     1      -5.219 -43.388 -17.768  1.00  0.00     0.031 A 
ENDROOT
BRANCH  11  12
ATOM     12  C   UNL     1      -5.946 -42.094 -17.685  1.00  0.00     0.031 A 
ATOM     13  C   UNL     1      -6.877 -41.866 -16.651  1.00  0.00     0.132 A 
ATOM     14  C   UNL     1      -5.680 -41.085 -18.624  1.00  0.00    -0.039 A 
ATOM     15  C   UNL     1      -7.638 -40.657 -16.618  1.00  0.00     0.039 A 
ATOM     16  C   UNL     1      -6.338 -39.859 -18.522  1.00  0.00     0.013 A 
ATOM     17  C   UNL     1      -4.650 -41.283 -19.709  1.00  0.00     0.045 C 
ATOM     18  C   UNL     1      -7.351 -39.630 -17.569  1.00  0.00    -0.006 A 
ATOM     19  C   UNL     1      -8.648 -40.428 -15.639  1.00  0.00     0.072 A 
ATOM     20  C   UNL     1      -8.063 -38.388 -17.525  1.00  0.00     0.008 A 
ATOM     21  C   UNL     1      -9.205 -39.146 -15.501  1.00  0.00     0.169 A 
ATOM     22  C   UNL     1      -8.874 -38.123 -16.394  1.00  0.00     0.162 A 
BRANCH  13  23
ATOM     23  O   UNL     1      -7.012 -42.814 -15.631  1.00  0.00    -0.507 OA
ATOM     24  H   UNL     1      -7.834 -42.902 -15.046  1.00  0.00     0.293 HD
ENDBRANCH  13  23
BRANCH  19  25
ATOM     25  C   UNL     1      -9.200 -41.521 -14.800  1.00  0.00     0.264 C 
ATOM     26  O   UNL     1      -8.841 -41.671 -13.602  1.00  0.00    -0.298 OA
ENDBRANCH  19  25
BRANCH  20  27
ATOM     27  C   UNL     1      -8.059 -37.359 -18.672  1.00  0.00     0.017 C 
ATOM     28  C   UNL     1      -7.323 -36.043 -18.348  1.00  0.00     0.012 C 
ATOM     29  C   UNL     1      -9.460 -37.130 -19.257  1.00  0.00     0.012 C 
ENDBRANCH  20  27
BRANCH  21  30
ATOM     30  O   UNL     1     -10.123 -38.900 -14.474  1.00  0.00    -0.504 OA
ATOM     31  H   UNL     1     -10.565 -39.640 -13.945  1.00  0.00     0.293 HD
ENDBRANCH  21  30
BRANCH  22  32
ATOM     32  O   UNL     1      -9.379 -36.844 -16.127  1.00  0.00    -0.504 OA
ATOM     33  H   UNL     1      -8.841 -35.993 -16.222  1.00  0.00     0.293 HD
ENDBRANCH  22  32
ENDBRANCH  11  12
BRANCH  10  34
ATOM     34  O   UNL     1      -6.631 -44.072 -19.615  1.00  0.00    -0.507 OA
ATOM     35  H   UNL     1      -7.112 -44.763 -20.174  1.00  0.00     0.293 HD
ENDBRANCH  10  34
BRANCH   9  36
ATOM     36  C   UNL     1      -2.153 -47.581 -16.834  1.00  0.00     0.017 C 
ATOM     37  C   UNL     1      -0.883 -48.260 -17.382  1.00  0.00     0.012 C 
ATOM     38  C   UNL     1      -2.822 -48.386 -15.712  1.00  0.00     0.012 C 
ENDBRANCH   9  36
BRANCH   6  39
ATOM     39  C   UNL     1      -6.704 -46.654 -20.300  1.00  0.00     0.264 C 
ATOM     40  O   UNL     1      -6.770 -46.425 -21.538  1.00  0.00    -0.298 OA
ENDBRANCH   6  39
BRANCH   8  41
ATOM     41  O   UNL     1      -2.645 -49.124 -19.254  1.00  0.00    -0.504 OA
ATOM     42  H   UNL     1      -1.904 -49.454 -18.652  1.00  0.00     0.293 HD
ENDBRANCH   8  41
BRANCH   7  43
ATOM     43  O   UNL     1      -4.958 -48.805 -20.692  1.00  0.00    -0.504 OA
ATOM     44  H   UNL     1      -4.284 -49.405 -21.149  1.00  0.00     0.293 HD
ENDBRANCH   7  43
TORSDOF 11
ENDMDL
MODEL 8
REMARK VINA RESULT:    -5.202      3.592      7.697
REMARK INTER + INTRA:          -9.274
REMARK INTER:                  -8.231
REMARK INTRA:                  -1.043
REMARK UNBOUND:                -1.639
REMARK SMILES Cc1cc2c(C(C)C)c(O)c(O)c(C=O)c2c(O)c1-c1c(C)cc2c(C(C)C)c(O)c(O)c(C=O)c2c1O
REMARK SMILES IDX 1 1 2 2 3 3 4 4 16 5 13 6 11 7 9 8 5 9 17 10 19 11 20 12
REMARK SMILES IDX 37 13 21 14 36 15 23 16 22 17 24 18 33 19 25 20 31 21 29 22
REMARK SMILES IDX 38 23 34 25 35 26 26 27 27 28 28 29 32 30 30 32 18 34 6 36
REMARK SMILES IDX 7 37 8 38 14 39 15 40 10 41 12 43
REMARK H PARENT 38 24 32 31 30 33 18 35 10 42 12 44
REMARK Flexibility Score: inf
ROOT
ATOM      1  C   UNL     1      -4.946 -41.332 -19.366  1.00  0.00     0.045 C 
ATOM      2  C   UNL     1      -5.920 -41.213 -18.220  1.00  0.00    -0.039 A 
ATOM      3  C   UNL     1      -6.620 -40.019 -18.039  1.00  0.00     0.013 A 
ATOM      4  C   UNL     1      -7.579 -39.859 -17.020  1.00  0.00    -0.006 A 
ATOM      5  C   UNL     1      -7.760 -40.921 -16.079  1.00  0.00     0.039 A 
ATOM      6  C   UNL     1      -8.699 -40.750 -15.021  1.00  0.00     0.072 A 
ATOM      7  C   UNL     1      -9.287 -39.493 -14.807  1.00  0.00     0.169 A 
ATOM      8  C   UNL     1      -9.065 -38.439 -15.700  1.00  0.00     0.162 A 
ATOM      9  C   UNL     1      -8.337 -38.652 -16.896  1.00  0.00     0.008 A 
ATOM     10  C   UNL     1      -6.960 -42.097 -16.201  1.00  0.00     0.132 A 
ATOM     11  C   UNL     1      -6.088 -42.258 -17.297  1.00  0.00     0.031 A 
ENDROOT
BRANCH  11  12
ATOM     12  C   UNL     1      -5.319 -43.520 -17.467  1.00  0.00     0.031 A 
ATOM     13  C   UNL     1      -5.754 -44.501 -18.382  1.00  0.00     0.132 A 
ATOM     14  C   UNL     1      -4.140 -43.718 -16.733  1.00  0.00    -0.039 A 
ATOM     15  C   UNL     1      -5.065 -45.748 -18.485  1.00  0.00     0.039 A 
ATOM     16  C   UNL     1      -3.402 -44.888 -16.921  1.00  0.00     0.013 A 
ATOM     17  C   UNL     1      -3.623 -42.663 -15.786  1.00  0.00     0.045 C 
ATOM     18  C   UNL     1      -3.857 -45.936 -17.745  1.00  0.00    -0.006 A 
ATOM     19  C   UNL     1      -5.524 -46.795 -19.336  1.00  0.00     0.072 A 
ATOM     20  C   UNL     1      -3.119 -47.158 -17.870  1.00  0.00     0.008 A 
ATOM     21  C   UNL     1      -4.698 -47.905 -19.580  1.00  0.00     0.169 A 
ATOM     22  C   UNL     1      -3.484 -48.056 -18.904  1.00  0.00     0.162 A 
BRANCH  13  23
ATOM     23  O   UNL     1      -6.837 -44.220 -19.222  1.00  0.00    -0.507 OA
ATOM     24  H   UNL     1      -6.796 -44.271 -20.233  1.00  0.00     0.293 HD
ENDBRANCH  13  23
BRANCH  19  25
ATOM     25  C   UNL     1      -6.889 -46.801 -19.918  1.00  0.00     0.264 C 
ATOM     26  O   UNL     1      -7.095 -46.433 -21.105  1.00  0.00    -0.298 OA
ENDBRANCH  19  25
BRANCH  20  27
ATOM     27  C   UNL     1      -2.001 -47.585 -16.899  1.00  0.00     0.017 C 
ATOM     28  C   UNL     1      -0.828 -48.335 -17.563  1.00  0.00     0.012 C 
ATOM     29  C   UNL     1      -2.548 -48.309 -15.661  1.00  0.00     0.012 C 
ENDBRANCH  20  27
BRANCH  21  30
ATOM     30  O   UNL     1      -5.109 -48.882 -20.493  1.00  0.00    -0.504 OA
ATOM     31  H   UNL     1      -5.656 -49.689 -20.223  1.00  0.00     0.293 HD
ENDBRANCH  21  30
BRANCH  22  32
ATOM     32  O   UNL     1      -2.663 -49.125 -19.282  1.00  0.00    -0.504 OA
ATOM     33  H   UNL     1      -2.849 -49.729 -20.072  1.00  0.00     0.293 HD
ENDBRANCH  22  32
ENDBRANCH  11  12
BRANCH  10  34
ATOM     34  O   UNL     1      -6.996 -43.084 -15.208  1.00  0.00    -0.507 OA
ATOM     35  H   UNL     1      -7.427 -43.991 -15.327  1.00  0.00     0.293 HD
ENDBRANCH  10  34
BRANCH   9  36
ATOM     36  C   UNL     1      -8.471 -37.606 -18.021  1.00  0.00     0.017 C 
ATOM     37  C   UNL     1      -9.349 -38.048 -19.208  1.00  0.00     0.012 C 
ATOM     38  C   UNL     1      -7.118 -37.032 -18.462  1.00  0.00     0.012 C 
ENDBRANCH   9  36
BRANCH   6  39
ATOM     39  C   UNL     1      -9.142 -41.879 -14.164  1.00  0.00     0.264 C 
ATOM     40  O   UNL     1      -8.878 -41.907 -12.932  1.00  0.00    -0.298 OA
ENDBRANCH   6  39
BRANCH   8  41
ATOM     41  O   UNL     1      -9.592 -37.186 -15.366  1.00  0.00    -0.504 OA
ATOM     42  H   UNL     1      -9.904 -36.934 -14.439  1.00  0.00     0.293 HD
ENDBRANCH   8  41
BRANCH   7  43
ATOM     43  O   UNL     1     -10.124 -39.300 -13.703  1.00  0.00    -0.504 OA
ATOM     44  H   UNL     1      -9.832 -39.487 -12.752  1.00  0.00     0.293 HD
ENDBRANCH   7  43
TORSDOF 11
ENDMDL
MODEL 9
REMARK VINA RESULT:    -5.126      2.726      3.876
REMARK INTER + INTRA:          -9.163
REMARK INTER:                  -8.078
REMARK INTRA:                  -1.084
REMARK UNBOUND:                -1.639
REMARK SMILES Cc1cc2c(C(C)C)c(O)c(O)c(C=O)c2c(O)c1-c1c(C)cc2c(C(C)C)c(O)c(O)c(C=O)c2c1O
REMARK SMILES IDX 1 1 2 2 3 3 4 4 16 5 13 6 11 7 9 8 5 9 17 10 19 11 20 12
REMARK SMILES IDX 37 13 21 14 36 15 23 16 22 17 24 18 33 19 25 20 31 21 29 22
REMARK SMILES IDX 38 23 34 25 35 26 26 27 27 28 28 29 32 30 30 32 18 34 6 36
REMARK SMILES IDX 7 37 8 38 14 39 15 40 10 41 12 43
REMARK H PARENT 38 24 32 31 30 33 18 35 10 42 12 44
REMARK Flexibility Score: inf
ROOT
ATOM      1  C   UNL     1      -4.384 -42.796 -15.662  1.00  0.00     0.045 C 
ATOM      2  C   UNL     1      -5.427 -42.087 -16.490  1.00  0.00    -0.039 A 
ATOM      3  C   UNL     1      -5.138 -41.749 -17.812  1.00  0.00     0.013 A 
ATOM      4  C   UNL     1      -6.083 -41.131 -18.653  1.00  0.00    -0.006 A 
ATOM      5  C   UNL     1      -7.343 -40.744 -18.097  1.00  0.00     0.039 A 
ATOM      6  C   UNL     1      -8.290 -40.082 -18.931  1.00  0.00     0.072 A 
ATOM      7  C   UNL     1      -7.909 -39.655 -20.213  1.00  0.00     0.169 A 
ATOM      8  C   UNL     1      -6.655 -39.988 -20.735  1.00  0.00     0.162 A 
ATOM      9  C   UNL     1      -5.790 -40.858 -20.027  1.00  0.00     0.008 A 
ATOM     10  C   UNL     1      -7.593 -40.992 -16.714  1.00  0.00     0.132 A 
ATOM     11  C   UNL     1      -6.660 -41.707 -15.935  1.00  0.00     0.031 A 
ENDROOT
BRANCH  11  12
ATOM     12  C   UNL     1      -6.960 -42.035 -14.516  1.00  0.00     0.031 A 
ATOM     13  C   UNL     1      -6.930 -41.026 -13.530  1.00  0.00     0.132 A 
ATOM     14  C   UNL     1      -7.304 -43.349 -14.164  1.00  0.00    -0.039 A 
ATOM     15  C   UNL     1      -7.134 -41.355 -12.155  1.00  0.00     0.039 A 
ATOM     16  C   UNL     1      -7.619 -43.646 -12.837  1.00  0.00     0.013 A 
ATOM     17  C   UNL     1      -7.396 -44.437 -15.206  1.00  0.00     0.045 C 
ATOM     18  C   UNL     1      -7.498 -42.692 -11.807  1.00  0.00    -0.006 A 
ATOM     19  C   UNL     1      -7.026 -40.378 -11.123  1.00  0.00     0.072 A 
ATOM     20  C   UNL     1      -7.759 -43.035 -10.441  1.00  0.00     0.008 A 
ATOM     21  C   UNL     1      -7.458 -40.689  -9.823  1.00  0.00     0.169 A 
ATOM     22  C   UNL     1      -7.876 -41.983  -9.499  1.00  0.00     0.162 A 
BRANCH  13  23
ATOM     23  O   UNL     1      -6.746 -39.695 -13.920  1.00  0.00    -0.507 OA
ATOM     24  H   UNL     1      -5.846 -39.295 -14.155  1.00  0.00     0.293 HD
ENDBRANCH  13  23
BRANCH  19  25
ATOM     25  C   UNL     1      -6.394 -39.054 -11.348  1.00  0.00     0.264 C 
ATOM     26  O   UNL     1      -6.934 -37.993 -10.935  1.00  0.00    -0.298 OA
ENDBRANCH  19  25
BRANCH  20  27
ATOM     27  C   UNL     1      -7.845 -44.484  -9.925  1.00  0.00     0.017 C 
ATOM     28  C   UNL     1      -6.562 -45.315 -10.135  1.00  0.00     0.012 C 
ATOM     29  C   UNL     1      -9.109 -45.205 -10.415  1.00  0.00     0.012 C 
ENDBRANCH  20  27
BRANCH  21  30
ATOM     30  O   UNL     1      -7.444 -39.698  -8.836  1.00  0.00    -0.504 OA
ATOM     31  H   UNL     1      -7.744 -38.747  -9.009  1.00  0.00     0.293 HD
ENDBRANCH  21  30
BRANCH  22  32
ATOM     32  O   UNL     1      -8.400 -42.190  -8.217  1.00  0.00    -0.504 OA
ATOM     33  H   UNL     1      -9.280 -41.807  -7.897  1.00  0.00     0.293 HD
ENDBRANCH  22  32
ENDBRANCH  11  12
BRANCH  10  34
ATOM     34  O   UNL     1      -8.745 -40.484 -16.101  1.00  0.00    -0.507 OA
ATOM     35  H   UNL     1      -9.351 -39.792 -16.520  1.00  0.00     0.293 HD
ENDBRANCH  10  34
BRANCH   9  36
ATOM     36  C   UNL     1      -4.632 -41.516 -20.803  1.00  0.00     0.017 C 
ATOM     37  C   UNL     1      -3.754 -40.534 -21.602  1.00  0.00     0.012 C 
ATOM     38  C   UNL     1      -5.087 -42.722 -21.636  1.00  0.00     0.012 C 
ENDBRANCH   9  36
BRANCH   6  39
ATOM     39  C   UNL     1      -9.703 -39.882 -18.522  1.00  0.00     0.264 C 
ATOM     40  O   UNL     1     -10.125 -38.752 -18.161  1.00  0.00    -0.298 OA
ENDBRANCH   6  39
BRANCH   8  41
ATOM     41  O   UNL     1      -6.301 -39.435 -21.972  1.00  0.00    -0.504 OA
ATOM     42  H   UNL     1      -5.762 -39.922 -22.674  1.00  0.00     0.293 HD
ENDBRANCH   8  41
BRANCH   7  43
ATOM     43  O   UNL     1      -8.805 -38.909 -20.987  1.00  0.00    -0.504 OA
ATOM     44  H   UNL     1      -8.728 -37.907 -21.106  1.00  0.00     0.293 HD
ENDBRANCH   7  43
TORSDOF 11
ENDMDL
