MODEL 1
REMARK VINA RESULT:    -2.930      0.000      0.000
REMARK INTER + INTRA:          -3.523
REMARK INTER:                  -3.443
REMARK INTRA:                  -0.079
REMARK UNBOUND:                -0.079
REMARK SMILES CCCCC(=O)[O-]
REMARK SMILES IDX 4 1 5 2 6 3 7 4 3 5 2 6 1 7
REMARK H PARENT
REMARK Flexibility Score: inf
ROOT
ATOM      1  C   UNL     1      17.593 127.727  62.673  1.00  0.00     0.053 C 
ENDROOT
BRANCH   1   2
ATOM      2  C   UNL     1      18.584 128.767  62.246  1.00  0.00     0.041 C 
ATOM      3  O   UNL     1      19.699 128.424  61.773  1.00  0.00    -0.550 OA
ATOM      4  O   UNL     1      18.262 130.115  62.341  1.00  0.00    -0.550 OA
ENDBRANCH   1   2
BRANCH   1   5
ATOM      5  C   UNL     1      18.266 126.584  63.444  1.00  0.00     0.006 C 
BRANCH   5   6
ATOM      6  C   UNL     1      18.113 125.233  62.730  1.00  0.00    -0.003 C 
ATOM      7  C   UNL     1      19.469 124.566  62.520  1.00  0.00     0.004 C 
ENDBRANCH   5   6
ENDBRANCH   1   5
TORSDOF 3
ENDMDL
MODEL 2
REMARK VINA RESULT:    -2.835      1.972      2.169
REMARK INTER + INTRA:          -3.412
REMARK INTER:                  -3.396
REMARK INTRA:                  -0.016
REMARK UNBOUND:                -0.079
REMARK SMILES CCCCC(=O)[O-]
REMARK SMILES IDX 4 1 5 2 6 3 7 4 3 5 2 6 1 7
REMARK H PARENT
REMARK Flexibility Score: inf
ROOT
ATOM      1  C   UNL     1      17.531 127.353  64.017  1.00  0.00     0.053 C 
ENDROOT
BRANCH   1   2
ATOM      2  C   UNL     1      18.176 128.506  64.725  1.00  0.00     0.041 C 
ATOM      3  O   UNL     1      18.630 129.479  64.068  1.00  0.00    -0.550 OA
ATOM      4  O   UNL     1      18.245 128.519  66.112  1.00  0.00    -0.550 OA
ENDBRANCH   1   2
BRANCH   1   5
ATOM      5  C   UNL     1      18.467 126.733  62.971  1.00  0.00     0.006 C 
BRANCH   5   6
ATOM      6  C   UNL     1      18.240 125.223  62.812  1.00  0.00    -0.003 C 
ATOM      7  C   UNL     1      19.545 124.502  62.489  1.00  0.00     0.004 C 
ENDBRANCH   5   6
ENDBRANCH   1   5
TORSDOF 3
ENDMDL
MODEL 3
REMARK VINA RESULT:    -2.822      8.904      9.408
REMARK INTER + INTRA:          -3.396
REMARK INTER:                  -3.314
REMARK INTRA:                  -0.083
REMARK UNBOUND:                -0.079
REMARK SMILES CCCCC(=O)[O-]
REMARK SMILES IDX 4 1 5 2 6 3 7 4 3 5 2 6 1 7
REMARK H PARENT
REMARK Flexibility Score: inf
ROOT
ATOM      1  C   UNL     1      16.266 127.656  53.000  1.00  0.00     0.053 C 
ENDROOT
BRANCH   1   2
ATOM      2  C   UNL     1      17.210 128.601  52.321  1.00  0.00     0.041 C 
ATOM      3  O   UNL     1      17.952 129.356  53.003  1.00  0.00    -0.550 OA
ATOM      4  O   UNL     1      17.294 128.624  50.934  1.00  0.00    -0.550 OA
ENDBRANCH   1   2
BRANCH   1   5
ATOM      5  C   UNL     1      15.738 128.231  54.320  1.00  0.00     0.006 C 
BRANCH   5   6
ATOM      6  C   UNL     1      16.286 127.480  55.542  1.00  0.00    -0.003 C 
ATOM      7  C   UNL     1      16.801 128.452  56.599  1.00  0.00     0.004 C 
ENDBRANCH   5   6
ENDBRANCH   1   5
TORSDOF 3
ENDMDL
MODEL 4
REMARK VINA RESULT:    -2.785      2.818      4.031
REMARK INTER + INTRA:          -3.353
REMARK INTER:                  -3.333
REMARK INTRA:                  -0.020
REMARK UNBOUND:                -0.079
REMARK SMILES CCCCC(=O)[O-]
REMARK SMILES IDX 4 1 5 2 6 3 7 4 3 5 2 6 1 7
REMARK H PARENT
REMARK Flexibility Score: inf
ROOT
ATOM      1  C   UNL     1      18.453 127.166  62.952  1.00  0.00     0.053 C 
ENDROOT
BRANCH   1   2
ATOM      2  C   UNL     1      18.234 125.684  62.904  1.00  0.00     0.041 C 
ATOM      3  O   UNL     1      17.066 125.218  62.845  1.00  0.00    -0.550 OA
ATOM      4  O   UNL     1      19.322 124.821  62.890  1.00  0.00    -0.550 OA
ENDBRANCH   1   2
BRANCH   1   5
ATOM      5  C   UNL     1      17.554 127.839  63.996  1.00  0.00     0.006 C 
BRANCH   5   6
ATOM      6  C   UNL     1      18.353 128.712  64.975  1.00  0.00    -0.003 C 
ATOM      7  C   UNL     1      17.703 128.727  66.355  1.00  0.00     0.004 C 
ENDBRANCH   5   6
ENDBRANCH   1   5
TORSDOF 3
ENDMDL
MODEL 5
REMARK VINA RESULT:    -2.718      2.582      3.767
REMARK INTER + INTRA:          -3.274
REMARK INTER:                  -3.217
REMARK INTRA:                  -0.057
REMARK UNBOUND:                -0.079
REMARK SMILES CCCCC(=O)[O-]
REMARK SMILES IDX 4 1 5 2 6 3 7 4 3 5 2 6 1 7
REMARK H PARENT
REMARK Flexibility Score: inf
ROOT
ATOM      1  C   UNL     1      18.210 126.808  63.399  1.00  0.00     0.053 C 
ENDROOT
BRANCH   1   2
ATOM      2  C   UNL     1      18.118 125.416  62.853  1.00  0.00     0.041 C 
ATOM      3  O   UNL     1      16.993 124.901  62.616  1.00  0.00    -0.550 OA
ATOM      4  O   UNL     1      19.275 124.699  62.577  1.00  0.00    -0.550 OA
ENDBRANCH   1   2
BRANCH   1   5
ATOM      5  C   UNL     1      17.352 127.792  62.592  1.00  0.00     0.006 C 
BRANCH   5   6
ATOM      6  C   UNL     1      18.152 129.021  62.136  1.00  0.00    -0.003 C 
ATOM      7  C   UNL     1      19.565 128.631  61.713  1.00  0.00     0.004 C 
ENDBRANCH   5   6
ENDBRANCH   1   5
TORSDOF 3
ENDMDL
MODEL 6
REMARK VINA RESULT:    -2.582      1.660      2.227
REMARK INTER + INTRA:          -3.114
REMARK INTER:                  -3.090
REMARK INTRA:                  -0.024
REMARK UNBOUND:                -0.079
REMARK SMILES CCCCC(=O)[O-]
REMARK SMILES IDX 4 1 5 2 6 3 7 4 3 5 2 6 1 7
REMARK H PARENT
REMARK Flexibility Score: inf
ROOT
ATOM      1  C   UNL     1      18.277 129.249  61.372  1.00  0.00     0.053 C 
ENDROOT
BRANCH   1   2
ATOM      2  C   UNL     1      19.289 129.805  60.417  1.00  0.00     0.041 C 
ATOM      3  O   UNL     1      20.436 129.292  60.340  1.00  0.00    -0.550 OA
ATOM      4  O   UNL     1      18.953 130.868  59.589  1.00  0.00    -0.550 OA
ENDBRANCH   1   2
BRANCH   1   5
ATOM      5  C   UNL     1      18.940 128.441  62.495  1.00  0.00     0.006 C 
BRANCH   5   6
ATOM      6  C   UNL     1      17.963 127.459  63.158  1.00  0.00    -0.003 C 
ATOM      7  C   UNL     1      18.427 126.016  62.977  1.00  0.00     0.004 C 
ENDBRANCH   5   6
ENDBRANCH   1   5
TORSDOF 3
ENDMDL
MODEL 7
REMARK VINA RESULT:    -2.562      7.216      7.756
REMARK INTER + INTRA:          -3.091
REMARK INTER:                  -2.985
REMARK INTRA:                  -0.106
REMARK UNBOUND:                -0.079
REMARK SMILES CCCCC(=O)[O-]
REMARK SMILES IDX 4 1 5 2 6 3 7 4 3 5 2 6 1 7
REMARK H PARENT
REMARK Flexibility Score: inf
ROOT
ATOM      1  C   UNL     1      17.176 128.853  56.326  1.00  0.00     0.053 C 
ENDROOT
BRANCH   1   2
ATOM      2  C   UNL     1      18.586 129.198  55.953  1.00  0.00     0.041 C 
ATOM      3  O   UNL     1      19.159 128.591  55.010  1.00  0.00    -0.550 OA
ATOM      4  O   UNL     1      19.255 130.212  56.626  1.00  0.00    -0.550 OA
ENDBRANCH   1   2
BRANCH   1   5
ATOM      5  C   UNL     1      16.655 127.651  55.527  1.00  0.00     0.006 C 
BRANCH   5   6
ATOM      6  C   UNL     1      15.708 128.073  54.394  1.00  0.00    -0.003 C 
ATOM      7  C   UNL     1      16.303 127.740  53.029  1.00  0.00     0.004 C 
ENDBRANCH   5   6
ENDBRANCH   1   5
TORSDOF 3
ENDMDL
MODEL 8
REMARK VINA RESULT:    -2.546      1.857      3.175
REMARK INTER + INTRA:          -3.072
REMARK INTER:                  -2.999
REMARK INTRA:                  -0.073
REMARK UNBOUND:                -0.079
REMARK SMILES CCCCC(=O)[O-]
REMARK SMILES IDX 4 1 5 2 6 3 7 4 3 5 2 6 1 7
REMARK H PARENT
REMARK Flexibility Score: inf
ROOT
ATOM      1  C   UNL     1      18.411 127.390  63.017  1.00  0.00     0.053 C 
ENDROOT
BRANCH   1   2
ATOM      2  C   UNL     1      18.882 128.576  62.232  1.00  0.00     0.041 C 
ATOM      3  O   UNL     1      18.229 129.653  62.256  1.00  0.00    -0.550 OA
ATOM      4  O   UNL     1      20.061 128.502  61.500  1.00  0.00    -0.550 OA
ENDBRANCH   1   2
BRANCH   1   5
ATOM      5  C   UNL     1      17.396 127.790  64.096  1.00  0.00     0.006 C 
BRANCH   5   6
ATOM      6  C   UNL     1      18.078 128.236  65.397  1.00  0.00    -0.003 C 
ATOM      7  C   UNL     1      17.373 129.447  66.000  1.00  0.00     0.004 C 
ENDBRANCH   5   6
ENDBRANCH   1   5
TORSDOF 3
ENDMDL
MODEL 9
REMARK VINA RESULT:    -2.510      8.564      9.055
REMARK INTER + INTRA:          -3.029
REMARK INTER:                  -2.944
REMARK INTRA:                  -0.085
REMARK UNBOUND:                -0.079
REMARK SMILES CCCCC(=O)[O-]
REMARK SMILES IDX 4 1 5 2 6 3 7 4 3 5 2 6 1 7
REMARK H PARENT
REMARK Flexibility Score: inf
ROOT
ATOM      1  C   UNL     1      16.523 127.571  53.966  1.00  0.00     0.053 C 
ENDROOT
BRANCH   1   2
ATOM      2  C   UNL     1      16.430 128.469  52.770  1.00  0.00     0.041 C 
ATOM      3  O   UNL     1      17.030 128.169  51.704  1.00  0.00    -0.550 OA
ATOM      4  O   UNL     1      15.653 129.619  52.822  1.00  0.00    -0.550 OA
ENDBRANCH   1   2
BRANCH   1   5
ATOM      5  C   UNL     1      17.416 128.173  55.059  1.00  0.00     0.006 C 
BRANCH   5   6
ATOM      6  C   UNL     1      16.712 128.222  56.423  1.00  0.00    -0.003 C 
ATOM      7  C   UNL     1      15.205 128.392  56.257  1.00  0.00     0.004 C 
ENDBRANCH   5   6
ENDBRANCH   1   5
TORSDOF 3
ENDMDL
