MODEL 1
REMARK VINA RESULT:    -6.515      0.000      0.000
REMARK INTER + INTRA:         -10.567
REMARK INTER:                  -9.181
REMARK INTRA:                  -1.386
REMARK UNBOUND:                -1.386
REMARK SMILES C=C(CC[C@@H](C(=O)[O-])[C@@H]1[C@H](O)C[C@]2(C)C3=C(CC[C@@]12C)[C@]1(C)CC[C@H](O)C(C)(C)[C@H]1CC3)C(C)C
REMARK SMILES IDX 4 1 5 2 6 3 7 4 8 5 9 6 10 7 19 8 12 9 13 10 18 11 20 12
REMARK SMILES IDX 14 13 15 14 17 15 16 16 32 17 21 18 31 19 30 20 23 21 22 22
REMARK SMILES IDX 27 23 24 24 25 25 28 26 29 27 11 28 26 30 3 32 2 33 1 34
REMARK SMILES IDX 33 35 34 36 35 37
REMARK H PARENT 11 29 26 31
REMARK Flexibility Score: inf
ROOT
ATOM      1  C   UNL     1     161.139 172.249 179.527  1.00  0.00     0.014 C 
ENDROOT
BRANCH   1   2
ATOM      2  C   UNL     1     161.004 173.788 179.350  1.00  0.00     0.042 C 
BRANCH   2   3
ATOM      3  C   UNL     1     159.556 174.183 179.121  1.00  0.00     0.045 C 
ATOM      4  O   UNL     1     159.193 174.727 178.044  1.00  0.00    -0.550 OA
ATOM      5  O   UNL     1     158.616 174.013 180.128  1.00  0.00    -0.550 OA
ENDBRANCH   2   3
BRANCH   2   6
ATOM      6  C   UNL     1     161.823 174.603 180.427  1.00  0.00     0.033 C 
ATOM      7  C   UNL     1     161.464 176.098 180.716  1.00  0.00     0.119 C 
ATOM      8  C   UNL     1     163.370 174.607 180.296  1.00  0.00    -0.017 C 
ATOM      9  C   UNL     1     162.792 176.797 181.103  1.00  0.00     0.043 C 
ATOM     10  C   UNL     1     163.793 175.658 181.366  1.00  0.00    -0.003 C 
ATOM     11  C   UNL     1     164.078 173.281 180.630  1.00  0.00     0.012 C 
ATOM     12  C   UNL     1     163.769 175.029 178.842  1.00  0.00     0.013 C 
ATOM     13  C   UNL     1     163.614 175.218 182.857  1.00  0.00     0.017 C 
ATOM     14  C   UNL     1     165.277 175.954 181.208  1.00  0.00    -0.064 C 
ATOM     15  C   UNL     1     165.614 173.473 180.775  1.00  0.00     0.032 C 
ATOM     16  C   UNL     1     166.141 174.912 181.004  1.00  0.00    -0.064 C 
ATOM     17  C   UNL     1     165.763 177.392 181.234  1.00  0.00     0.032 C 
ATOM     18  C   UNL     1     167.655 175.197 180.888  1.00  0.00    -0.008 C 
ATOM     19  C   UNL     1     167.195 177.597 181.765  1.00  0.00     0.009 C 
ATOM     20  C   UNL     1     168.005 176.290 181.967  1.00  0.00     0.007 C 
ATOM     21  C   UNL     1     168.477 173.907 181.191  1.00  0.00     0.014 C 
ATOM     22  C   UNL     1     167.912 175.644 179.420  1.00  0.00     0.016 C 
ATOM     23  C   UNL     1     169.542 176.527 182.267  1.00  0.00    -0.006 C 
ATOM     24  C   UNL     1     169.979 174.158 181.379  1.00  0.00     0.033 C 
ATOM     25  C   UNL     1     170.244 175.154 182.517  1.00  0.00     0.120 C 
ATOM     26  C   UNL     1     170.288 177.295 181.144  1.00  0.00     0.014 C 
ATOM     27  C   UNL     1     169.695 177.383 183.554  1.00  0.00     0.014 C 
BRANCH   7  28
ATOM     28  O   UNL     1     160.904 176.750 179.609  1.00  0.00    -0.393 OA
ATOM     29  H   UNL     1     160.263 177.420 179.964  1.00  0.00     0.210 HD
ENDBRANCH   7  28
BRANCH  25  30
ATOM     30  O   UNL     1     169.810 174.599 183.737  1.00  0.00    -0.393 OA
ATOM     31  H   UNL     1     170.428 173.850 183.952  1.00  0.00     0.210 HD
ENDBRANCH  25  30
ENDBRANCH   2   6
ENDBRANCH   1   2
BRANCH   1  32
ATOM     32  C   UNL     1     160.310 171.657 180.684  1.00  0.00     0.031 C 
BRANCH  32  33
ATOM     33  C   UNL     1     161.198 171.269 181.852  1.00  0.00    -0.075 C 
ATOM     34  C   UNL     1     162.117 170.304 181.667  1.00  0.00     0.008 C 
BRANCH  33  35
ATOM     35  C   UNL     1     161.032 171.868 183.247  1.00  0.00     0.008 C 
ATOM     36  C   UNL     1     162.360 172.248 183.920  1.00  0.00     0.012 C 
ATOM     37  C   UNL     1     160.087 173.076 183.201  1.00  0.00     0.012 C 
ENDBRANCH  33  35
ENDBRANCH  32  33
ENDBRANCH   1  32
TORSDOF 8
ENDMDL
MODEL 2
REMARK VINA RESULT:    -6.437      8.206     11.278
REMARK INTER + INTRA:         -10.458
REMARK INTER:                  -9.608
REMARK INTRA:                  -0.850
REMARK UNBOUND:                -1.386
REMARK SMILES C=C(CC[C@@H](C(=O)[O-])[C@@H]1[C@H](O)C[C@]2(C)C3=C(CC[C@@]12C)[C@]1(C)CC[C@H](O)C(C)(C)[C@H]1CC3)C(C)C
REMARK SMILES IDX 4 1 5 2 6 3 7 4 8 5 9 6 10 7 19 8 12 9 13 10 18 11 20 12
REMARK SMILES IDX 14 13 15 14 17 15 16 16 32 17 21 18 31 19 30 20 23 21 22 22
REMARK SMILES IDX 27 23 24 24 25 25 28 26 29 27 11 28 26 30 3 32 2 33 1 34
REMARK SMILES IDX 33 35 34 36 35 37
REMARK H PARENT 11 29 26 31
REMARK Flexibility Score: inf
ROOT
ATOM      1  C   UNL     1     172.397 176.666 172.729  1.00  0.00     0.014 C 
ENDROOT
BRANCH   1   2
ATOM      2  C   UNL     1     170.991 176.919 173.342  1.00  0.00     0.042 C 
BRANCH   2   3
ATOM      3  C   UNL     1     169.897 176.636 172.327  1.00  0.00     0.045 C 
ATOM      4  O   UNL     1     170.164 176.114 171.212  1.00  0.00    -0.550 OA
ATOM      5  O   UNL     1     168.588 177.016 172.586  1.00  0.00    -0.550 OA
ENDBRANCH   2   3
BRANCH   2   6
ATOM      6  C   UNL     1     170.829 176.296 174.784  1.00  0.00     0.033 C 
ATOM      7  C   UNL     1     169.581 176.655 175.657  1.00  0.00     0.119 C 
ATOM      8  C   UNL     1     172.026 176.441 175.764  1.00  0.00    -0.017 C 
ATOM      9  C   UNL     1     170.056 176.617 177.131  1.00  0.00     0.043 C 
ATOM     10  C   UNL     1     171.426 175.916 177.103  1.00  0.00    -0.003 C 
ATOM     11  C   UNL     1     173.269 175.593 175.438  1.00  0.00     0.012 C 
ATOM     12  C   UNL     1     172.457 177.944 175.841  1.00  0.00     0.013 C 
ATOM     13  C   UNL     1     171.161 174.376 177.171  1.00  0.00     0.017 C 
ATOM     14  C   UNL     1     172.405 176.208 178.231  1.00  0.00    -0.064 C 
ATOM     15  C   UNL     1     174.271 175.566 176.628  1.00  0.00     0.032 C 
ATOM     16  C   UNL     1     173.738 175.969 178.026  1.00  0.00    -0.064 C 
ATOM     17  C   UNL     1     171.897 176.794 179.535  1.00  0.00     0.032 C 
ATOM     18  C   UNL     1     174.736 176.219 179.179  1.00  0.00    -0.008 C 
ATOM     19  C   UNL     1     172.709 176.421 180.790  1.00  0.00     0.009 C 
ATOM     20  C   UNL     1     174.053 175.703 180.502  1.00  0.00     0.007 C 
ATOM     21  C   UNL     1     176.052 175.416 178.944  1.00  0.00     0.014 C 
ATOM     22  C   UNL     1     175.050 177.743 179.175  1.00  0.00     0.016 C 
ATOM     23  C   UNL     1     174.987 175.553 181.773  1.00  0.00    -0.006 C 
ATOM     24  C   UNL     1     176.980 175.374 180.165  1.00  0.00     0.033 C 
ATOM     25  C   UNL     1     176.277 174.763 181.385  1.00  0.00     0.120 C 
ATOM     26  C   UNL     1     175.383 176.907 182.421  1.00  0.00     0.014 C 
ATOM     27  C   UNL     1     174.244 174.746 182.872  1.00  0.00     0.014 C 
BRANCH   7  28
ATOM     28  O   UNL     1     169.060 177.924 175.371  1.00  0.00    -0.393 OA
ATOM     29  H   UNL     1     168.249 178.035 175.932  1.00  0.00     0.210 HD
ENDBRANCH   7  28
BRANCH  25  30
ATOM     30  O   UNL     1     175.962 173.416 181.118  1.00  0.00    -0.393 OA
ATOM     31  H   UNL     1     175.545 173.045 181.941  1.00  0.00     0.210 HD
ENDBRANCH  25  30
ENDBRANCH   2   6
ENDBRANCH   1   2
BRANCH   1  32
ATOM     32  C   UNL     1     173.139 177.937 172.272  1.00  0.00     0.031 C 
BRANCH  32  33
ATOM     33  C   UNL     1     174.467 177.593 171.621  1.00  0.00    -0.075 C 
ATOM     34  C   UNL     1     174.744 178.114 170.413  1.00  0.00     0.008 C 
BRANCH  33  35
ATOM     35  C   UNL     1     175.460 176.615 172.246  1.00  0.00     0.008 C 
ATOM     36  C   UNL     1     175.884 175.479 171.304  1.00  0.00     0.012 C 
ATOM     37  C   UNL     1     176.689 177.365 172.774  1.00  0.00     0.012 C 
ENDBRANCH  33  35
ENDBRANCH  32  33
ENDBRANCH   1  32
TORSDOF 8
ENDMDL
MODEL 3
REMARK VINA RESULT:    -6.088      4.589      7.957
REMARK INTER + INTRA:          -9.966
REMARK INTER:                  -8.191
REMARK INTRA:                  -1.775
REMARK UNBOUND:                -1.386
REMARK SMILES C=C(CC[C@@H](C(=O)[O-])[C@@H]1[C@H](O)C[C@]2(C)C3=C(CC[C@@]12C)[C@]1(C)CC[C@H](O)C(C)(C)[C@H]1CC3)C(C)C
REMARK SMILES IDX 4 1 5 2 6 3 7 4 8 5 9 6 10 7 19 8 12 9 13 10 18 11 20 12
REMARK SMILES IDX 14 13 15 14 17 15 16 16 32 17 21 18 31 19 30 20 23 21 22 22
REMARK SMILES IDX 27 23 24 24 25 25 28 26 29 27 11 28 26 30 3 32 2 33 1 34
REMARK SMILES IDX 33 35 34 36 35 37
REMARK H PARENT 11 29 26 31
REMARK Flexibility Score: inf
ROOT
ATOM      1  C   UNL     1     168.059 174.671 177.616  1.00  0.00     0.014 C 
ENDROOT
BRANCH   1   2
ATOM      2  C   UNL     1     167.553 175.701 178.664  1.00  0.00     0.042 C 
BRANCH   2   3
ATOM      3  C   UNL     1     166.047 175.608 178.834  1.00  0.00     0.045 C 
ATOM      4  O   UNL     1     165.438 174.521 178.648  1.00  0.00    -0.550 OA
ATOM      5  O   UNL     1     165.305 176.743 179.130  1.00  0.00    -0.550 OA
ENDBRANCH   2   3
BRANCH   2   6
ATOM      6  C   UNL     1     168.437 175.730 179.973  1.00  0.00     0.033 C 
ATOM      7  C   UNL     1     168.156 176.794 181.084  1.00  0.00     0.119 C 
ATOM      8  C   UNL     1     169.979 175.774 179.793  1.00  0.00    -0.017 C 
ATOM      9  C   UNL     1     169.524 177.113 181.738  1.00  0.00     0.043 C 
ATOM     10  C   UNL     1     170.478 176.008 181.251  1.00  0.00    -0.003 C 
ATOM     11  C   UNL     1     170.633 174.482 179.271  1.00  0.00     0.012 C 
ATOM     12  C   UNL     1     170.358 176.947 178.828  1.00  0.00     0.013 C 
ATOM     13  C   UNL     1     170.319 174.795 182.226  1.00  0.00     0.017 C 
ATOM     14  C   UNL     1     171.969 176.308 181.220  1.00  0.00    -0.064 C 
ATOM     15  C   UNL     1     172.180 174.521 179.426  1.00  0.00     0.032 C 
ATOM     16  C   UNL     1     172.779 175.554 180.414  1.00  0.00    -0.064 C 
ATOM     17  C   UNL     1     172.521 177.457 182.044  1.00  0.00     0.032 C 
ATOM     18  C   UNL     1     174.300 175.820 180.409  1.00  0.00    -0.008 C 
ATOM     19  C   UNL     1     173.974 177.288 182.526  1.00  0.00     0.009 C 
ATOM     20  C   UNL     1     174.728 176.085 181.902  1.00  0.00     0.007 C 
ATOM     21  C   UNL     1     175.070 174.573 179.877  1.00  0.00     0.014 C 
ATOM     22  C   UNL     1     174.539 177.024 179.453  1.00  0.00     0.016 C 
ATOM     23  C   UNL     1     176.283 176.071 182.209  1.00  0.00    -0.006 C 
ATOM     24  C   UNL     1     176.586 174.636 180.103  1.00  0.00     0.033 C 
ATOM     25  C   UNL     1     176.927 174.790 181.592  1.00  0.00     0.120 C 
ATOM     26  C   UNL     1     177.033 177.329 181.696  1.00  0.00     0.014 C 
ATOM     27  C   UNL     1     176.509 176.027 183.746  1.00  0.00     0.014 C 
BRANCH   7  28
ATOM     28  O   UNL     1     167.596 177.977 180.581  1.00  0.00    -0.393 OA
ATOM     29  H   UNL     1     167.158 178.435 181.344  1.00  0.00     0.210 HD
ENDBRANCH   7  28
BRANCH  25  30
ATOM     30  O   UNL     1     176.501 173.643 182.291  1.00  0.00    -0.393 OA
ATOM     31  H   UNL     1     175.636 173.870 182.724  1.00  0.00     0.210 HD
ENDBRANCH  25  30
ENDBRANCH   2   6
ENDBRANCH   1   2
BRANCH   1  32
ATOM     32  C   UNL     1     168.422 175.272 176.244  1.00  0.00     0.031 C 
BRANCH  32  33
ATOM     33  C   UNL     1     169.740 174.718 175.733  1.00  0.00    -0.075 C 
ATOM     34  C   UNL     1     169.985 173.404 175.882  1.00  0.00     0.008 C 
BRANCH  33  35
ATOM     35  C   UNL     1     170.830 175.607 175.137  1.00  0.00     0.008 C 
ATOM     36  C   UNL     1     170.455 177.096 175.086  1.00  0.00     0.012 C 
ATOM     37  C   UNL     1     172.151 175.411 175.891  1.00  0.00     0.012 C 
ENDBRANCH  33  35
ENDBRANCH  32  33
ENDBRANCH   1  32
TORSDOF 8
ENDMDL
MODEL 4
REMARK VINA RESULT:    -6.085      1.326      2.640
REMARK INTER + INTRA:          -9.962
REMARK INTER:                  -8.273
REMARK INTRA:                  -1.688
REMARK UNBOUND:                -1.386
REMARK SMILES C=C(CC[C@@H](C(=O)[O-])[C@@H]1[C@H](O)C[C@]2(C)C3=C(CC[C@@]12C)[C@]1(C)CC[C@H](O)C(C)(C)[C@H]1CC3)C(C)C
REMARK SMILES IDX 4 1 5 2 6 3 7 4 8 5 9 6 10 7 19 8 12 9 13 10 18 11 20 12
REMARK SMILES IDX 14 13 15 14 17 15 16 16 32 17 21 18 31 19 30 20 23 21 22 22
REMARK SMILES IDX 27 23 24 24 25 25 28 26 29 27 11 28 26 30 3 32 2 33 1 34
REMARK SMILES IDX 33 35 34 36 35 37
REMARK H PARENT 11 29 26 31
REMARK Flexibility Score: inf
ROOT
ATOM      1  C   UNL     1     161.173 172.278 179.482  1.00  0.00     0.014 C 
ENDROOT
BRANCH   1   2
ATOM      2  C   UNL     1     160.991 173.818 179.369  1.00  0.00     0.042 C 
BRANCH   2   3
ATOM      3  C   UNL     1     159.527 174.180 179.193  1.00  0.00     0.045 C 
ATOM      4  O   UNL     1     159.121 174.753 178.147  1.00  0.00    -0.550 OA
ATOM      5  O   UNL     1     158.621 173.948 180.218  1.00  0.00    -0.550 OA
ENDBRANCH   2   3
BRANCH   2   6
ATOM      6  C   UNL     1     161.816 174.614 180.455  1.00  0.00     0.033 C 
ATOM      7  C   UNL     1     161.457 176.103 180.775  1.00  0.00     0.119 C 
ATOM      8  C   UNL     1     163.363 174.624 180.313  1.00  0.00    -0.017 C 
ATOM      9  C   UNL     1     162.786 176.797 181.166  1.00  0.00     0.043 C 
ATOM     10  C   UNL     1     163.791 175.655 181.400  1.00  0.00    -0.003 C 
ATOM     11  C   UNL     1     164.075 173.293 180.616  1.00  0.00     0.012 C 
ATOM     12  C   UNL     1     163.750 175.075 178.864  1.00  0.00     0.013 C 
ATOM     13  C   UNL     1     163.624 175.186 182.883  1.00  0.00     0.017 C 
ATOM     14  C   UNL     1     165.273 175.958 181.237  1.00  0.00    -0.064 C 
ATOM     15  C   UNL     1     165.613 173.485 180.754  1.00  0.00     0.032 C 
ATOM     16  C   UNL     1     166.138 174.921 181.007  1.00  0.00    -0.064 C 
ATOM     17  C   UNL     1     165.757 177.395 181.287  1.00  0.00     0.032 C 
ATOM     18  C   UNL     1     167.651 175.211 180.885  1.00  0.00    -0.008 C 
ATOM     19  C   UNL     1     167.192 177.593 181.811  1.00  0.00     0.009 C 
ATOM     20  C   UNL     1     168.006 176.284 181.982  1.00  0.00     0.007 C 
ATOM     21  C   UNL     1     168.478 173.918 181.157  1.00  0.00     0.014 C 
ATOM     22  C   UNL     1     167.896 175.687 179.424  1.00  0.00     0.016 C 
ATOM     23  C   UNL     1     169.545 176.518 182.276  1.00  0.00    -0.006 C 
ATOM     24  C   UNL     1     169.980 174.168 181.339  1.00  0.00     0.033 C 
ATOM     25  C   UNL     1     170.252 175.143 182.494  1.00  0.00     0.120 C 
ATOM     26  C   UNL     1     170.282 177.310 181.162  1.00  0.00     0.014 C 
ATOM     27  C   UNL     1     169.705 177.350 183.578  1.00  0.00     0.014 C 
BRANCH   7  28
ATOM     28  O   UNL     1     160.887 176.775 179.685  1.00  0.00    -0.393 OA
ATOM     29  H   UNL     1     160.595 177.663 180.017  1.00  0.00     0.210 HD
ENDBRANCH   7  28
BRANCH  25  30
ATOM     30  O   UNL     1     169.828 174.563 183.706  1.00  0.00    -0.393 OA
ATOM     31  H   UNL     1     169.958 175.245 184.417  1.00  0.00     0.210 HD
ENDBRANCH  25  30
ENDBRANCH   2   6
ENDBRANCH   1   2
BRANCH   1  32
ATOM     32  C   UNL     1     160.883 171.498 178.184  1.00  0.00     0.031 C 
BRANCH  32  33
ATOM     33  C   UNL     1     161.818 171.925 177.067  1.00  0.00    -0.075 C 
ATOM     34  C   UNL     1     163.141 171.750 177.235  1.00  0.00     0.008 C 
BRANCH  33  35
ATOM     35  C   UNL     1     161.323 172.621 175.800  1.00  0.00     0.008 C 
ATOM     36  C   UNL     1     159.816 172.456 175.553  1.00  0.00     0.012 C 
ATOM     37  C   UNL     1     161.705 174.106 175.822  1.00  0.00     0.012 C 
ENDBRANCH  33  35
ENDBRANCH  32  33
ENDBRANCH   1  32
TORSDOF 8
ENDMDL
MODEL 5
REMARK VINA RESULT:    -6.084      3.618     10.632
REMARK INTER + INTRA:          -9.959
REMARK INTER:                  -8.798
REMARK INTRA:                  -1.162
REMARK UNBOUND:                -1.386
REMARK SMILES C=C(CC[C@@H](C(=O)[O-])[C@@H]1[C@H](O)C[C@]2(C)C3=C(CC[C@@]12C)[C@]1(C)CC[C@H](O)C(C)(C)[C@H]1CC3)C(C)C
REMARK SMILES IDX 4 1 5 2 6 3 7 4 8 5 9 6 10 7 19 8 12 9 13 10 18 11 20 12
REMARK SMILES IDX 14 13 15 14 17 15 16 16 32 17 21 18 31 19 30 20 23 21 22 22
REMARK SMILES IDX 27 23 24 24 25 25 28 26 29 27 11 28 26 30 3 32 2 33 1 34
REMARK SMILES IDX 33 35 34 36 35 37
REMARK H PARENT 11 29 26 31
REMARK Flexibility Score: inf
ROOT
ATOM      1  C   UNL     1     174.339 176.802 181.886  1.00  0.00     0.014 C 
ENDROOT
BRANCH   1   2
ATOM      2  C   UNL     1     174.255 175.257 182.034  1.00  0.00     0.042 C 
BRANCH   2   3
ATOM      3  C   UNL     1     175.531 174.699 182.638  1.00  0.00     0.045 C 
ATOM      4  O   UNL     1     176.144 175.317 183.549  1.00  0.00    -0.550 OA
ATOM      5  O   UNL     1     176.086 173.527 182.142  1.00  0.00    -0.550 OA
ENDBRANCH   2   3
BRANCH   2   6
ATOM      6  C   UNL     1     172.883 174.773 182.648  1.00  0.00     0.033 C 
ATOM      7  C   UNL     1     172.618 173.247 182.867  1.00  0.00     0.119 C 
ATOM      8  C   UNL     1     171.579 175.288 181.980  1.00  0.00    -0.017 C 
ATOM      9  C   UNL     1     171.094 173.038 182.675  1.00  0.00     0.043 C 
ATOM     10  C   UNL     1     170.481 174.449 182.700  1.00  0.00    -0.003 C 
ATOM     11  C   UNL     1     171.254 176.777 182.194  1.00  0.00     0.012 C 
ATOM     12  C   UNL     1     171.639 175.011 180.439  1.00  0.00     0.013 C 
ATOM     13  C   UNL     1     170.220 174.816 184.198  1.00  0.00     0.017 C 
ATOM     14  C   UNL     1     169.150 174.666 181.994  1.00  0.00    -0.064 C 
ATOM     15  C   UNL     1     169.797 177.113 181.764  1.00  0.00     0.032 C 
ATOM     16  C   UNL     1     168.799 175.936 181.622  1.00  0.00    -0.064 C 
ATOM     17  C   UNL     1     168.264 173.475 181.678  1.00  0.00     0.032 C 
ATOM     18  C   UNL     1     167.431 176.174 180.945  1.00  0.00    -0.008 C 
ATOM     19  C   UNL     1     166.752 173.767 181.640  1.00  0.00     0.009 C 
ATOM     20  C   UNL     1     166.381 175.272 181.695  1.00  0.00     0.007 C 
ATOM     21  C   UNL     1     167.006 177.668 181.086  1.00  0.00     0.014 C 
ATOM     22  C   UNL     1     167.612 175.827 179.439  1.00  0.00     0.016 C 
ATOM     23  C   UNL     1     164.852 175.567 181.402  1.00  0.00    -0.006 C 
ATOM     24  C   UNL     1     165.546 177.937 180.702  1.00  0.00     0.033 C 
ATOM     25  C   UNL     1     164.577 177.098 181.547  1.00  0.00     0.120 C 
ATOM     26  C   UNL     1     164.376 175.084 180.006  1.00  0.00     0.014 C 
ATOM     27  C   UNL     1     163.970 174.823 182.443  1.00  0.00     0.014 C 
BRANCH   7  28
ATOM     28  O   UNL     1     173.314 172.435 181.962  1.00  0.00    -0.393 OA
ATOM     29  H   UNL     1     174.139 172.133 182.423  1.00  0.00     0.210 HD
ENDBRANCH   7  28
BRANCH  25  30
ATOM     30  O   UNL     1     164.677 177.486 182.897  1.00  0.00    -0.393 OA
ATOM     31  H   UNL     1     163.830 177.215 183.342  1.00  0.00     0.210 HD
ENDBRANCH  25  30
ENDBRANCH   2   6
ENDBRANCH   1   2
BRANCH   1  32
ATOM     32  C   UNL     1     174.491 177.303 180.436  1.00  0.00     0.031 C 
BRANCH  32  33
ATOM     33  C   UNL     1     175.817 176.865 179.840  1.00  0.00    -0.075 C 
ATOM     34  C   UNL     1     176.939 177.481 180.250  1.00  0.00     0.008 C 
BRANCH  33  35
ATOM     35  C   UNL     1     175.916 175.816 178.735  1.00  0.00     0.008 C 
ATOM     36  C   UNL     1     174.553 175.360 178.191  1.00  0.00     0.012 C 
ATOM     37  C   UNL     1     176.808 176.322 177.595  1.00  0.00     0.012 C 
ENDBRANCH  33  35
ENDBRANCH  32  33
ENDBRANCH   1  32
TORSDOF 8
ENDMDL
MODEL 6
REMARK VINA RESULT:    -6.067      3.486      9.979
REMARK INTER + INTRA:          -9.936
REMARK INTER:                  -8.848
REMARK INTRA:                  -1.088
REMARK UNBOUND:                -1.386
REMARK SMILES C=C(CC[C@@H](C(=O)[O-])[C@@H]1[C@H](O)C[C@]2(C)C3=C(CC[C@@]12C)[C@]1(C)CC[C@H](O)C(C)(C)[C@H]1CC3)C(C)C
REMARK SMILES IDX 4 1 5 2 6 3 7 4 8 5 9 6 10 7 19 8 12 9 13 10 18 11 20 12
REMARK SMILES IDX 14 13 15 14 17 15 16 16 32 17 21 18 31 19 30 20 23 21 22 22
REMARK SMILES IDX 27 23 24 24 25 25 28 26 29 27 11 28 26 30 3 32 2 33 1 34
REMARK SMILES IDX 33 35 34 36 35 37
REMARK H PARENT 11 29 26 31
REMARK Flexibility Score: inf
ROOT
ATOM      1  C   UNL     1     173.818 177.155 182.123  1.00  0.00     0.014 C 
ENDROOT
BRANCH   1   2
ATOM      2  C   UNL     1     172.960 176.995 180.838  1.00  0.00     0.042 C 
BRANCH   2   3
ATOM      3  C   UNL     1     173.832 177.019 179.595  1.00  0.00     0.045 C 
ATOM      4  O   UNL     1     174.936 176.412 179.564  1.00  0.00    -0.550 OA
ATOM      5  O   UNL     1     173.457 177.772 178.492  1.00  0.00    -0.550 OA
ENDBRANCH   2   3
BRANCH   2   6
ATOM      6  C   UNL     1     171.887 175.842 180.956  1.00  0.00     0.033 C 
ATOM      7  C   UNL     1     171.961 174.602 180.004  1.00  0.00     0.119 C 
ATOM      8  C   UNL     1     170.389 176.251 180.922  1.00  0.00    -0.017 C 
ATOM      9  C   UNL     1     170.499 174.140 179.777  1.00  0.00     0.043 C 
ATOM     10  C   UNL     1     169.667 174.872 180.845  1.00  0.00    -0.003 C 
ATOM     11  C   UNL     1     169.865 176.991 182.166  1.00  0.00     0.012 C 
ATOM     12  C   UNL     1     170.122 177.146 179.665  1.00  0.00     0.013 C 
ATOM     13  C   UNL     1     169.717 174.007 182.147  1.00  0.00     0.017 C 
ATOM     14  C   UNL     1     168.189 175.103 180.570  1.00  0.00    -0.064 C 
ATOM     15  C   UNL     1     168.312 177.074 182.171  1.00  0.00     0.032 C 
ATOM     16  C   UNL     1     167.537 176.095 181.254  1.00  0.00    -0.064 C 
ATOM     17  C   UNL     1     167.480 174.268 179.519  1.00  0.00     0.032 C 
ATOM     18  C   UNL     1     166.025 176.308 181.016  1.00  0.00    -0.008 C 
ATOM     19  C   UNL     1     165.977 174.034 179.763  1.00  0.00     0.009 C 
ATOM     20  C   UNL     1     165.367 174.881 180.910  1.00  0.00     0.007 C 
ATOM     21  C   UNL     1     165.387 177.071 182.217  1.00  0.00     0.014 C 
ATOM     22  C   UNL     1     165.894 177.169 179.726  1.00  0.00     0.016 C 
ATOM     23  C   UNL     1     163.786 174.820 180.983  1.00  0.00    -0.006 C 
ATOM     24  C   UNL     1     163.853 177.076 182.204  1.00  0.00     0.033 C 
ATOM     25  C   UNL     1     163.285 175.650 182.207  1.00  0.00     0.120 C 
ATOM     26  C   UNL     1     163.080 175.318 179.693  1.00  0.00     0.014 C 
ATOM     27  C   UNL     1     163.331 173.348 181.185  1.00  0.00     0.014 C 
BRANCH   7  28
ATOM     28  O   UNL     1     172.550 174.897 178.767  1.00  0.00    -0.393 OA
ATOM     29  H   UNL     1     172.356 175.850 178.576  1.00  0.00     0.210 HD
ENDBRANCH   7  28
BRANCH  25  30
ATOM     30  O   UNL     1     163.638 175.008 183.410  1.00  0.00    -0.393 OA
ATOM     31  H   UNL     1     163.363 174.056 183.325  1.00  0.00     0.210 HD
ENDBRANCH  25  30
ENDBRANCH   2   6
ENDBRANCH   1   2
BRANCH   1  32
ATOM     32  C   UNL     1     174.114 175.839 182.869  1.00  0.00     0.031 C 
BRANCH  32  33
ATOM     33  C   UNL     1     175.597 175.515 182.842  1.00  0.00    -0.075 C 
ATOM     34  C   UNL     1     176.472 176.482 183.171  1.00  0.00     0.008 C 
BRANCH  33  35
ATOM     35  C   UNL     1     176.135 174.164 182.375  1.00  0.00     0.008 C 
ATOM     36  C   UNL     1     175.063 173.250 181.762  1.00  0.00     0.012 C 
ATOM     37  C   UNL     1     177.298 174.361 181.394  1.00  0.00     0.012 C 
ENDBRANCH  33  35
ENDBRANCH  32  33
ENDBRANCH   1  32
TORSDOF 8
ENDMDL
MODEL 7
REMARK VINA RESULT:    -6.014      6.622     10.344
REMARK INTER + INTRA:          -9.861
REMARK INTER:                  -8.379
REMARK INTRA:                  -1.482
REMARK UNBOUND:                -1.386
REMARK SMILES C=C(CC[C@@H](C(=O)[O-])[C@@H]1[C@H](O)C[C@]2(C)C3=C(CC[C@@]12C)[C@]1(C)CC[C@H](O)C(C)(C)[C@H]1CC3)C(C)C
REMARK SMILES IDX 4 1 5 2 6 3 7 4 8 5 9 6 10 7 19 8 12 9 13 10 18 11 20 12
REMARK SMILES IDX 14 13 15 14 17 15 16 16 32 17 21 18 31 19 30 20 23 21 22 22
REMARK SMILES IDX 27 23 24 24 25 25 28 26 29 27 11 28 26 30 3 32 2 33 1 34
REMARK SMILES IDX 33 35 34 36 35 37
REMARK H PARENT 11 29 26 31
REMARK Flexibility Score: inf
ROOT
ATOM      1  C   UNL     1     169.848 175.367 179.403  1.00  0.00     0.014 C 
ENDROOT
BRANCH   1   2
ATOM      2  C   UNL     1     171.334 175.725 179.123  1.00  0.00     0.042 C 
BRANCH   2   3
ATOM      3  C   UNL     1     171.467 177.157 178.638  1.00  0.00     0.045 C 
ATOM      4  O   UNL     1     171.113 178.125 179.364  1.00  0.00    -0.550 OA
ATOM      5  O   UNL     1     171.917 177.422 177.352  1.00  0.00    -0.550 OA
ENDBRANCH   2   3
BRANCH   2   6
ATOM      6  C   UNL     1     172.306 175.249 180.273  1.00  0.00     0.033 C 
ATOM      7  C   UNL     1     173.531 176.133 180.680  1.00  0.00     0.119 C 
ATOM      8  C   UNL     1     172.899 173.817 180.162  1.00  0.00    -0.017 C 
ATOM      9  C   UNL     1     174.641 175.156 181.140  1.00  0.00     0.043 C 
ATOM     10  C   UNL     1     173.941 173.797 181.321  1.00  0.00    -0.003 C 
ATOM     11  C   UNL     1     171.912 172.659 180.393  1.00  0.00     0.012 C 
ATOM     12  C   UNL     1     173.557 173.634 178.752  1.00  0.00     0.013 C 
ATOM     13  C   UNL     1     173.348 173.769 182.767  1.00  0.00     0.017 C 
ATOM     14  C   UNL     1     174.783 172.534 181.205  1.00  0.00    -0.064 C 
ATOM     15  C   UNL     1     172.651 171.303 180.573  1.00  0.00     0.032 C 
ATOM     16  C   UNL     1     174.159 171.347 180.927  1.00  0.00    -0.064 C 
ATOM     17  C   UNL     1     176.291 172.620 181.356  1.00  0.00     0.032 C 
ATOM     18  C   UNL     1     174.998 170.052 180.852  1.00  0.00    -0.008 C 
ATOM     19  C   UNL     1     176.973 171.358 181.919  1.00  0.00     0.009 C 
ATOM     20  C   UNL     1     176.051 170.115 182.022  1.00  0.00     0.007 C 
ATOM     21  C   UNL     1     174.089 168.802 181.058  1.00  0.00     0.014 C 
ATOM     22  C   UNL     1     175.626 170.009 179.430  1.00  0.00     0.016 C 
ATOM     23  C   UNL     1     176.820 168.772 182.360  1.00  0.00    -0.006 C 
ATOM     24  C   UNL     1     174.867 167.499 181.285  1.00  0.00     0.033 C 
ATOM     25  C   UNL     1     175.794 167.603 182.504  1.00  0.00     0.120 C 
ATOM     26  C   UNL     1     177.900 168.388 181.314  1.00  0.00     0.014 C 
ATOM     27  C   UNL     1     177.564 168.925 183.715  1.00  0.00     0.014 C 
BRANCH   7  28
ATOM     28  O   UNL     1     174.014 176.919 179.624  1.00  0.00    -0.393 OA
ATOM     29  H   UNL     1     174.444 176.300 178.979  1.00  0.00     0.210 HD
ENDBRANCH   7  28
BRANCH  25  30
ATOM     30  O   UNL     1     175.020 167.774 183.668  1.00  0.00    -0.393 OA
ATOM     31  H   UNL     1     175.403 167.176 184.364  1.00  0.00     0.210 HD
ENDBRANCH  25  30
ENDBRANCH   2   6
ENDBRANCH   1   2
BRANCH   1  32
ATOM     32  C   UNL     1     169.539 174.991 180.865  1.00  0.00     0.031 C 
BRANCH  32  33
ATOM     33  C   UNL     1     169.149 176.215 181.676  1.00  0.00    -0.075 C 
ATOM     34  C   UNL     1     168.304 177.105 181.128  1.00  0.00     0.008 C 
BRANCH  33  35
ATOM     35  C   UNL     1     169.744 176.515 183.050  1.00  0.00     0.008 C 
ATOM     36  C   UNL     1     170.171 175.260 183.827  1.00  0.00     0.012 C 
ATOM     37  C   UNL     1     170.917 177.494 182.923  1.00  0.00     0.012 C 
ENDBRANCH  33  35
ENDBRANCH  32  33
ENDBRANCH   1  32
TORSDOF 8
ENDMDL
MODEL 8
REMARK VINA RESULT:    -5.988      4.802      7.840
REMARK INTER + INTRA:          -9.825
REMARK INTER:                  -8.460
REMARK INTRA:                  -1.364
REMARK UNBOUND:                -1.386
REMARK SMILES C=C(CC[C@@H](C(=O)[O-])[C@@H]1[C@H](O)C[C@]2(C)C3=C(CC[C@@]12C)[C@]1(C)CC[C@H](O)C(C)(C)[C@H]1CC3)C(C)C
REMARK SMILES IDX 4 1 5 2 6 3 7 4 8 5 9 6 10 7 19 8 12 9 13 10 18 11 20 12
REMARK SMILES IDX 14 13 15 14 17 15 16 16 32 17 21 18 31 19 30 20 23 21 22 22
REMARK SMILES IDX 27 23 24 24 25 25 28 26 29 27 11 28 26 30 3 32 2 33 1 34
REMARK SMILES IDX 33 35 34 36 35 37
REMARK H PARENT 11 29 26 31
REMARK Flexibility Score: inf
ROOT
ATOM      1  C   UNL     1     161.932 174.658 172.398  1.00  0.00     0.014 C 
ENDROOT
BRANCH   1   2
ATOM      2  C   UNL     1     160.920 173.631 172.979  1.00  0.00     0.042 C 
BRANCH   2   3
ATOM      3  C   UNL     1     160.569 172.572 171.949  1.00  0.00     0.045 C 
ATOM      4  O   UNL     1     159.381 172.414 171.558  1.00  0.00    -0.550 OA
ATOM      5  O   UNL     1     161.545 171.709 171.472  1.00  0.00    -0.550 OA
ENDBRANCH   2   3
BRANCH   2   6
ATOM      6  C   UNL     1     161.308 173.141 174.429  1.00  0.00     0.033 C 
ATOM      7  C   UNL     1     160.469 172.020 175.128  1.00  0.00     0.119 C 
ATOM      8  C   UNL     1     161.475 174.224 175.530  1.00  0.00    -0.017 C 
ATOM      9  C   UNL     1     160.517 172.322 176.647  1.00  0.00     0.043 C 
ATOM     10  C   UNL     1     161.634 173.367 176.821  1.00  0.00    -0.003 C 
ATOM     11  C   UNL     1     162.716 175.126 175.404  1.00  0.00     0.012 C 
ATOM     12  C   UNL     1     160.201 175.135 175.561  1.00  0.00     0.013 C 
ATOM     13  C   UNL     1     162.983 172.586 176.955  1.00  0.00     0.017 C 
ATOM     14  C   UNL     1     161.577 174.284 178.033  1.00  0.00    -0.064 C 
ATOM     15  C   UNL     1     162.959 175.950 176.701  1.00  0.00     0.032 C 
ATOM     16  C   UNL     1     162.265 175.467 178.000  1.00  0.00    -0.064 C 
ATOM     17  C   UNL     1     160.729 173.895 179.231  1.00  0.00     0.032 C 
ATOM     18  C   UNL     1     162.251 176.385 179.242  1.00  0.00    -0.008 C 
ATOM     19  C   UNL     1     161.226 174.418 180.592  1.00  0.00     0.009 C 
ATOM     20  C   UNL     1     162.377 175.455 180.507  1.00  0.00     0.007 C 
ATOM     21  C   UNL     1     163.465 177.363 179.212  1.00  0.00     0.014 C 
ATOM     22  C   UNL     1     160.927 177.201 179.179  1.00  0.00     0.016 C 
ATOM     23  C   UNL     1     162.703 176.166 181.884  1.00  0.00    -0.006 C 
ATOM     24  C   UNL     1     163.695 178.110 180.532  1.00  0.00     0.033 C 
ATOM     25  C   UNL     1     163.913 177.136 181.699  1.00  0.00     0.120 C 
ATOM     26  C   UNL     1     161.502 176.943 182.488  1.00  0.00     0.014 C 
ATOM     27  C   UNL     1     163.103 175.099 182.939  1.00  0.00     0.014 C 
BRANCH   7  28
ATOM     28  O   UNL     1     159.133 171.991 174.704  1.00  0.00    -0.393 OA
ATOM     29  H   UNL     1     158.720 171.185 175.109  1.00  0.00     0.210 HD
ENDBRANCH   7  28
BRANCH  25  30
ATOM     30  O   UNL     1     165.097 176.404 181.483  1.00  0.00    -0.393 OA
ATOM     31  H   UNL     1     164.903 175.459 181.720  1.00  0.00     0.210 HD
ENDBRANCH  25  30
ENDBRANCH   2   6
ENDBRANCH   1   2
BRANCH   1  32
ATOM     32  C   UNL     1     161.345 175.613 171.339  1.00  0.00     0.031 C 
BRANCH  32  33
ATOM     33  C   UNL     1     161.013 176.965 171.944  1.00  0.00    -0.075 C 
ATOM     34  C   UNL     1     161.922 177.551 172.743  1.00  0.00     0.008 C 
BRANCH  33  35
ATOM     35  C   UNL     1     159.659 177.643 171.750  1.00  0.00     0.008 C 
ATOM     36  C   UNL     1     159.196 177.693 170.286  1.00  0.00     0.012 C 
ATOM     37  C   UNL     1     158.594 176.972 172.628  1.00  0.00     0.012 C 
ENDBRANCH  33  35
ENDBRANCH  32  33
ENDBRANCH   1  32
TORSDOF 8
ENDMDL
MODEL 9
REMARK VINA RESULT:    -5.960      7.689     11.686
REMARK INTER + INTRA:          -9.784
REMARK INTER:                  -8.466
REMARK INTRA:                  -1.318
REMARK UNBOUND:                -1.386
REMARK SMILES C=C(CC[C@@H](C(=O)[O-])[C@@H]1[C@H](O)C[C@]2(C)C3=C(CC[C@@]12C)[C@]1(C)CC[C@H](O)C(C)(C)[C@H]1CC3)C(C)C
REMARK SMILES IDX 4 1 5 2 6 3 7 4 8 5 9 6 10 7 19 8 12 9 13 10 18 11 20 12
REMARK SMILES IDX 14 13 15 14 17 15 16 16 32 17 21 18 31 19 30 20 23 21 22 22
REMARK SMILES IDX 27 23 24 24 25 25 28 26 29 27 11 28 26 30 3 32 2 33 1 34
REMARK SMILES IDX 33 35 34 36 35 37
REMARK H PARENT 11 29 26 31
REMARK Flexibility Score: inf
ROOT
ATOM      1  C   UNL     1     173.435 176.970 181.327  1.00  0.00     0.014 C 
ENDROOT
BRANCH   1   2
ATOM      2  C   UNL     1     172.081 176.253 181.065  1.00  0.00     0.042 C 
BRANCH   2   3
ATOM      3  C   UNL     1     170.968 177.260 180.839  1.00  0.00     0.045 C 
ATOM      4  O   UNL     1     169.955 177.289 181.589  1.00  0.00    -0.550 OA
ATOM      5  O   UNL     1     171.015 178.124 179.754  1.00  0.00    -0.550 OA
ENDBRANCH   2   3
BRANCH   2   6
ATOM      6  C   UNL     1     172.208 175.060 180.037  1.00  0.00     0.033 C 
ATOM      7  C   UNL     1     170.922 174.404 179.437  1.00  0.00     0.119 C 
ATOM      8  C   UNL     1     173.088 173.849 180.452  1.00  0.00    -0.017 C 
ATOM      9  C   UNL     1     171.267 172.913 179.192  1.00  0.00     0.043 C 
ATOM     10  C   UNL     1     172.799 172.822 179.317  1.00  0.00    -0.003 C 
ATOM     11  C   UNL     1     174.607 174.101 180.487  1.00  0.00     0.012 C 
ATOM     12  C   UNL     1     172.638 173.337 181.862  1.00  0.00     0.013 C 
ATOM     13  C   UNL     1     173.401 173.170 177.916  1.00  0.00     0.017 C 
ATOM     14  C   UNL     1     173.409 171.481 179.697  1.00  0.00    -0.064 C 
ATOM     15  C   UNL     1     175.405 172.770 180.600  1.00  0.00     0.032 C 
ATOM     16  C   UNL     1     174.670 171.457 180.232  1.00  0.00    -0.064 C 
ATOM     17  C   UNL     1     172.601 170.209 179.518  1.00  0.00     0.032 C 
ATOM     18  C   UNL     1     175.317 170.098 180.579  1.00  0.00    -0.008 C 
ATOM     19  C   UNL     1     173.422 168.936 179.237  1.00  0.00     0.009 C 
ATOM     20  C   UNL     1     174.954 169.102 179.415  1.00  0.00     0.007 C 
ATOM     21  C   UNL     1     176.868 170.238 180.659  1.00  0.00     0.014 C 
ATOM     22  C   UNL     1     174.762 169.682 181.972  1.00  0.00     0.016 C 
ATOM     23  C   UNL     1     175.757 167.736 179.371  1.00  0.00    -0.006 C 
ATOM     24  C   UNL     1     177.611 168.897 180.714  1.00  0.00     0.033 C 
ATOM     25  C   UNL     1     177.287 168.024 179.494  1.00  0.00     0.120 C 
ATOM     26  C   UNL     1     175.330 166.723 180.466  1.00  0.00     0.014 C 
ATOM     27  C   UNL     1     175.511 167.032 178.008  1.00  0.00     0.014 C 
BRANCH   7  28
ATOM     28  O   UNL     1     169.814 174.487 180.292  1.00  0.00    -0.393 OA
ATOM     29  H   UNL     1     169.053 174.061 179.819  1.00  0.00     0.210 HD
ENDBRANCH   7  28
BRANCH  25  30
ATOM     30  O   UNL     1     177.760 168.656 178.327  1.00  0.00    -0.393 OA
ATOM     31  H   UNL     1     177.865 169.621 178.540  1.00  0.00     0.210 HD
ENDBRANCH  25  30
ENDBRANCH   2   6
ENDBRANCH   1   2
BRANCH   1  32
ATOM     32  C   UNL     1     173.976 176.820 182.763  1.00  0.00     0.031 C 
BRANCH  32  33
ATOM     33  C   UNL     1     175.476 176.586 182.762  1.00  0.00    -0.075 C 
ATOM     34  C   UNL     1     175.974 175.607 183.538  1.00  0.00     0.008 C 
BRANCH  33  35
ATOM     35  C   UNL     1     176.446 177.470 181.981  1.00  0.00     0.008 C 
ATOM     36  C   UNL     1     177.587 178.043 182.837  1.00  0.00     0.012 C 
ATOM     37  C   UNL     1     177.009 176.711 180.773  1.00  0.00     0.012 C 
ENDBRANCH  33  35
ENDBRANCH  32  33
ENDBRANCH   1  32
TORSDOF 8
ENDMDL
