MODEL 1
REMARK VINA RESULT:    -3.333      0.000      0.000
REMARK INTER + INTRA:          -8.316
REMARK INTER:                  -6.256
REMARK INTRA:                  -2.060
REMARK UNBOUND:                -2.060
REMARK SMILES O=C([O-])CCCCCCCCCCCCCCC(=O)[O-]
REMARK SMILES IDX 10 1 9 2 8 3 7 4 6 5 5 6 4 7 2 8 1 9 3 10 11 11 12 12 13 13
REMARK SMILES IDX 14 14 15 15 16 16 17 17 18 18 19 19 20 20
REMARK H PARENT
REMARK Flexibility Score: inf
ROOT
ATOM      1  C   UNL     1      62.979  33.013  59.999  1.00  0.00     0.000 C 
ENDROOT
BRANCH   1   2
ATOM      2  C   UNL     1      61.532  33.007  60.524  1.00  0.00     0.000 C 
BRANCH   2   3
ATOM      3  C   UNL     1      60.885  31.615  60.649  1.00  0.00     0.000 C 
BRANCH   3   4
ATOM      4  C   UNL     1      61.328  30.860  61.911  1.00  0.00     0.000 C 
BRANCH   4   5
ATOM      5  C   UNL     1      62.158  29.619  61.545  1.00  0.00     0.000 C 
BRANCH   5   6
ATOM      6  C   UNL     1      63.663  29.823  61.786  1.00  0.00     0.006 C 
BRANCH   6   7
ATOM      7  C   UNL     1      64.530  28.918  60.900  1.00  0.00     0.053 C 
BRANCH   7   8
ATOM      8  C   UNL     1      65.838  29.580  60.600  1.00  0.00     0.041 C 
ATOM      9  O   UNL     1      66.879  29.236  61.220  1.00  0.00    -0.550 OA
ATOM     10  O   UNL     1      65.899  30.611  59.672  1.00  0.00    -0.550 OA
ENDBRANCH   7   8
ENDBRANCH   6   7
ENDBRANCH   5   6
ENDBRANCH   4   5
ENDBRANCH   3   4
ENDBRANCH   2   3
ENDBRANCH   1   2
BRANCH   1  11
ATOM     11  C   UNL     1      63.997  33.486  61.050  1.00  0.00     0.000 C 
BRANCH  11  12
ATOM     12  C   UNL     1      64.489  34.919  60.789  1.00  0.00     0.000 C 
BRANCH  12  13
ATOM     13  C   UNL     1      63.998  35.917  61.850  1.00  0.00     0.000 C 
BRANCH  13  14
ATOM     14  C   UNL     1      63.180  37.045  61.203  1.00  0.00     0.000 C 
BRANCH  14  15
ATOM     15  C   UNL     1      61.680  36.715  61.096  1.00  0.00     0.000 C 
BRANCH  15  16
ATOM     16  C   UNL     1      61.134  36.637  59.658  1.00  0.00     0.006 C 
BRANCH  16  17
ATOM     17  C   UNL     1      62.203  36.922  58.596  1.00  0.00     0.053 C 
BRANCH  17  18
ATOM     18  C   UNL     1      62.403  35.726  57.721  1.00  0.00     0.041 C 
ATOM     19  O   UNL     1      61.417  35.027  57.369  1.00  0.00    -0.550 OA
ATOM     20  O   UNL     1      63.673  35.411  57.253  1.00  0.00    -0.550 OA
ENDBRANCH  17  18
ENDBRANCH  16  17
ENDBRANCH  15  16
ENDBRANCH  14  15
ENDBRANCH  13  14
ENDBRANCH  12  13
ENDBRANCH  11  12
ENDBRANCH   1  11
TORSDOF 15
ENDMDL
MODEL 2
REMARK VINA RESULT:    -3.299     11.401     13.312
REMARK INTER + INTRA:          -8.251
REMARK INTER:                  -6.066
REMARK INTRA:                  -2.185
REMARK UNBOUND:                -2.060
REMARK SMILES O=C([O-])CCCCCCCCCCCCCCC(=O)[O-]
REMARK SMILES IDX 10 1 9 2 8 3 7 4 6 5 5 6 4 7 2 8 1 9 3 10 11 11 12 12 13 13
REMARK SMILES IDX 14 14 15 15 16 16 17 17 18 18 19 19 20 20
REMARK H PARENT
REMARK Flexibility Score: inf
ROOT
ATOM      1  C   UNL     1      56.603  29.186  52.311  1.00  0.00     0.000 C 
ENDROOT
BRANCH   1   2
ATOM      2  C   UNL     1      57.902  29.458  51.531  1.00  0.00     0.000 C 
BRANCH   2   3
ATOM      3  C   UNL     1      57.870  29.061  50.044  1.00  0.00     0.000 C 
BRANCH   3   4
ATOM      4  C   UNL     1      59.267  28.990  49.411  1.00  0.00     0.000 C 
BRANCH   4   5
ATOM      5  C   UNL     1      59.650  27.538  49.087  1.00  0.00     0.000 C 
BRANCH   5   6
ATOM      6  C   UNL     1      61.046  27.163  49.612  1.00  0.00     0.006 C 
BRANCH   6   7
ATOM      7  C   UNL     1      61.781  28.355  50.238  1.00  0.00     0.053 C 
BRANCH   7   8
ATOM      8  C   UNL     1      63.028  28.660  49.471  1.00  0.00     0.041 C 
ATOM      9  O   UNL     1      63.667  27.734  48.905  1.00  0.00    -0.550 OA
ATOM     10  O   UNL     1      63.513  29.961  49.420  1.00  0.00    -0.550 OA
ENDBRANCH   7   8
ENDBRANCH   6   7
ENDBRANCH   5   6
ENDBRANCH   4   5
ENDBRANCH   3   4
ENDBRANCH   2   3
ENDBRANCH   1   2
BRANCH   1  11
ATOM     11  C   UNL     1      55.338  29.392  51.460  1.00  0.00     0.000 C 
BRANCH  11  12
ATOM     12  C   UNL     1      54.458  28.133  51.399  1.00  0.00     0.000 C 
BRANCH  12  13
ATOM     13  C   UNL     1      54.270  27.609  49.967  1.00  0.00     0.000 C 
BRANCH  13  14
ATOM     14  C   UNL     1      55.113  26.347  49.731  1.00  0.00     0.000 C 
BRANCH  14  15
ATOM     15  C   UNL     1      55.863  25.880  50.992  1.00  0.00     0.000 C 
BRANCH  15  16
ATOM     16  C   UNL     1      57.354  25.558  50.780  1.00  0.00     0.006 C 
BRANCH  16  17
ATOM     17  C   UNL     1      58.199  25.783  52.040  1.00  0.00     0.053 C 
BRANCH  17  18
ATOM     18  C   UNL     1      59.168  24.659  52.227  1.00  0.00     0.041 C 
ATOM     19  O   UNL     1      60.372  24.901  52.505  1.00  0.00    -0.550 OA
ATOM     20  O   UNL     1      58.733  23.342  52.142  1.00  0.00    -0.550 OA
ENDBRANCH  17  18
ENDBRANCH  16  17
ENDBRANCH  15  16
ENDBRANCH  14  15
ENDBRANCH  13  14
ENDBRANCH  12  13
ENDBRANCH  11  12
ENDBRANCH   1  11
TORSDOF 15
ENDMDL
MODEL 3
REMARK VINA RESULT:    -3.269      1.278      7.000
REMARK INTER + INTRA:          -8.197
REMARK INTER:                  -6.237
REMARK INTRA:                  -1.960
REMARK UNBOUND:                -2.060
REMARK SMILES O=C([O-])CCCCCCCCCCCCCCC(=O)[O-]
REMARK SMILES IDX 10 1 9 2 8 3 7 4 6 5 5 6 4 7 2 8 1 9 3 10 11 11 12 12 13 13
REMARK SMILES IDX 14 14 15 15 16 16 17 17 18 18 19 19 20 20
REMARK H PARENT
REMARK Flexibility Score: inf
ROOT
ATOM      1  C   UNL     1      62.028  32.114  59.527  1.00  0.00     0.000 C 
ENDROOT
BRANCH   1   2
ATOM      2  C   UNL     1      63.540  32.403  59.489  1.00  0.00     0.000 C 
BRANCH   2   3
ATOM      3  C   UNL     1      64.114  33.061  60.758  1.00  0.00     0.000 C 
BRANCH   3   4
ATOM      4  C   UNL     1      64.607  34.495  60.520  1.00  0.00     0.000 C 
BRANCH   4   5
ATOM      5  C   UNL     1      64.277  35.395  61.721  1.00  0.00     0.000 C 
BRANCH   5   6
ATOM      6  C   UNL     1      63.020  36.250  61.493  1.00  0.00     0.006 C 
BRANCH   6   7
ATOM      7  C   UNL     1      62.711  36.461  60.005  1.00  0.00     0.053 C 
BRANCH   7   8
ATOM      8  C   UNL     1      61.353  35.930  59.674  1.00  0.00     0.041 C 
ATOM      9  O   UNL     1      61.151  35.346  58.576  1.00  0.00    -0.550 OA
ATOM     10  O   UNL     1      60.297  36.122  60.555  1.00  0.00    -0.550 OA
ENDBRANCH   7   8
ENDBRANCH   6   7
ENDBRANCH   5   6
ENDBRANCH   4   5
ENDBRANCH   3   4
ENDBRANCH   2   3
ENDBRANCH   1   2
BRANCH   1  11
ATOM     11  C   UNL     1      61.428  32.240  60.937  1.00  0.00     0.000 C 
BRANCH  11  12
ATOM     12  C   UNL     1      61.091  30.875  61.558  1.00  0.00     0.000 C 
BRANCH  12  13
ATOM     13  C   UNL     1      62.332  30.141  62.089  1.00  0.00     0.000 C 
BRANCH  13  14
ATOM     14  C   UNL     1      62.320  28.665  61.665  1.00  0.00     0.000 C 
BRANCH  14  15
ATOM     15  C   UNL     1      62.551  28.472  60.155  1.00  0.00     0.000 C 
BRANCH  15  16
ATOM     16  C   UNL     1      64.027  28.372  59.730  1.00  0.00     0.006 C 
BRANCH  16  17
ATOM     17  C   UNL     1      64.946  27.912  60.869  1.00  0.00     0.053 C 
BRANCH  17  18
ATOM     18  C   UNL     1      66.076  28.876  61.050  1.00  0.00     0.041 C 
ATOM     19  O   UNL     1      67.053  28.575  61.786  1.00  0.00    -0.550 OA
ATOM     20  O   UNL     1      66.075  30.086  60.368  1.00  0.00    -0.550 OA
ENDBRANCH  17  18
ENDBRANCH  16  17
ENDBRANCH  15  16
ENDBRANCH  14  15
ENDBRANCH  13  14
ENDBRANCH  12  13
ENDBRANCH  11  12
ENDBRANCH   1  11
TORSDOF 15
ENDMDL
MODEL 4
REMARK VINA RESULT:    -3.197     11.335     13.187
REMARK INTER + INTRA:          -8.061
REMARK INTER:                  -6.590
REMARK INTRA:                  -1.471
REMARK UNBOUND:                -2.060
REMARK SMILES O=C([O-])CCCCCCCCCCCCCCC(=O)[O-]
REMARK SMILES IDX 10 1 9 2 8 3 7 4 6 5 5 6 4 7 2 8 1 9 3 10 11 11 12 12 13 13
REMARK SMILES IDX 14 14 15 15 16 16 17 17 18 18 19 19 20 20
REMARK H PARENT
REMARK Flexibility Score: inf
ROOT
ATOM      1  C   UNL     1      58.682  28.817  51.322  1.00  0.00     0.000 C 
ENDROOT
BRANCH   1   2
ATOM      2  C   UNL     1      58.136  30.029  52.099  1.00  0.00     0.000 C 
BRANCH   2   3
ATOM      3  C   UNL     1      56.800  29.793  52.828  1.00  0.00     0.000 C 
BRANCH   3   4
ATOM      4  C   UNL     1      56.213  28.398  52.568  1.00  0.00     0.000 C 
BRANCH   4   5
ATOM      5  C   UNL     1      54.816  28.500  51.935  1.00  0.00     0.000 C 
BRANCH   5   6
ATOM      6  C   UNL     1      54.860  28.483  50.399  1.00  0.00     0.006 C 
BRANCH   6   7
ATOM      7  C   UNL     1      53.874  27.477  49.791  1.00  0.00     0.053 C 
BRANCH   7   8
ATOM      8  C   UNL     1      54.539  26.152  49.589  1.00  0.00     0.041 C 
ATOM      9  O   UNL     1      55.788  26.045  49.710  1.00  0.00    -0.550 OA
ATOM     10  O   UNL     1      53.786  25.045  49.217  1.00  0.00    -0.550 OA
ENDBRANCH   7   8
ENDBRANCH   6   7
ENDBRANCH   5   6
ENDBRANCH   4   5
ENDBRANCH   3   4
ENDBRANCH   2   3
ENDBRANCH   1   2
BRANCH   1  11
ATOM     11  C   UNL     1      58.346  28.864  49.822  1.00  0.00     0.000 C 
BRANCH  11  12
ATOM     12  C   UNL     1      59.368  28.101  48.965  1.00  0.00     0.000 C 
BRANCH  12  13
ATOM     13  C   UNL     1      59.663  26.693  49.507  1.00  0.00     0.000 C 
BRANCH  13  14
ATOM     14  C   UNL     1      61.159  26.527  49.814  1.00  0.00     0.000 C 
BRANCH  14  15
ATOM     15  C   UNL     1      62.021  27.667  49.240  1.00  0.00     0.000 C 
BRANCH  15  16
ATOM     16  C   UNL     1      62.657  28.594  50.292  1.00  0.00     0.006 C 
BRANCH  16  17
ATOM     17  C   UNL     1      62.250  30.062  50.118  1.00  0.00     0.053 C 
BRANCH  17  18
ATOM     18  C   UNL     1      63.293  30.806  49.346  1.00  0.00     0.041 C 
ATOM     19  O   UNL     1      64.353  30.225  48.993  1.00  0.00    -0.550 OA
ATOM     20  O   UNL     1      63.075  32.126  48.973  1.00  0.00    -0.550 OA
ENDBRANCH  17  18
ENDBRANCH  16  17
ENDBRANCH  15  16
ENDBRANCH  14  15
ENDBRANCH  13  14
ENDBRANCH  12  13
ENDBRANCH  11  12
ENDBRANCH   1  11
TORSDOF 15
ENDMDL
MODEL 5
REMARK VINA RESULT:    -3.179     12.239     13.517
REMARK INTER + INTRA:          -8.027
REMARK INTER:                  -6.446
REMARK INTRA:                  -1.581
REMARK UNBOUND:                -2.060
REMARK SMILES O=C([O-])CCCCCCCCCCCCCCC(=O)[O-]
REMARK SMILES IDX 10 1 9 2 8 3 7 4 6 5 5 6 4 7 2 8 1 9 3 10 11 11 12 12 13 13
REMARK SMILES IDX 14 14 15 15 16 16 17 17 18 18 19 19 20 20
REMARK H PARENT
REMARK Flexibility Score: inf
ROOT
ATOM      1  C   UNL     1      57.488  28.701  50.178  1.00  0.00     0.000 C 
ENDROOT
BRANCH   1   2
ATOM      2  C   UNL     1      58.801  28.964  49.418  1.00  0.00     0.000 C 
BRANCH   2   3
ATOM      3  C   UNL     1      59.646  27.712  49.118  1.00  0.00     0.000 C 
BRANCH   3   4
ATOM      4  C   UNL     1      61.122  27.877  49.507  1.00  0.00     0.000 C 
BRANCH   4   5
ATOM      5  C   UNL     1      61.767  26.515  49.807  1.00  0.00     0.000 C 
BRANCH   5   6
ATOM      6  C   UNL     1      63.276  26.497  49.514  1.00  0.00     0.006 C 
BRANCH   6   7
ATOM      7  C   UNL     1      63.879  27.906  49.434  1.00  0.00     0.053 C 
BRANCH   7   8
ATOM      8  C   UNL     1      64.736  28.038  48.215  1.00  0.00     0.041 C 
ATOM      9  O   UNL     1      65.866  27.484  48.171  1.00  0.00    -0.550 OA
ATOM     10  O   UNL     1      64.308  28.814  47.145  1.00  0.00    -0.550 OA
ENDBRANCH   7   8
ENDBRANCH   6   7
ENDBRANCH   5   6
ENDBRANCH   4   5
ENDBRANCH   3   4
ENDBRANCH   2   3
ENDBRANCH   1   2
BRANCH   1  11
ATOM     11  C   UNL     1      57.658  27.719  51.349  1.00  0.00     0.000 C 
BRANCH  11  12
ATOM     12  C   UNL     1      56.863  26.419  51.148  1.00  0.00     0.000 C 
BRANCH  12  13
ATOM     13  C   UNL     1      56.091  26.395  49.820  1.00  0.00     0.000 C 
BRANCH  13  14
ATOM     14  C   UNL     1      54.656  25.890  50.030  1.00  0.00     0.000 C 
BRANCH  14  15
ATOM     15  C   UNL     1      53.589  26.900  49.569  1.00  0.00     0.000 C 
BRANCH  15  16
ATOM     16  C   UNL     1      53.841  28.356  50.004  1.00  0.00     0.006 C 
BRANCH  16  17
ATOM     17  C   UNL     1      53.183  28.701  51.345  1.00  0.00     0.053 C 
BRANCH  17  18
ATOM     18  C   UNL     1      54.209  28.749  52.433  1.00  0.00     0.041 C 
ATOM     19  O   UNL     1      54.359  27.767  53.207  1.00  0.00    -0.550 OA
ATOM     20  O   UNL     1      55.034  29.860  52.563  1.00  0.00    -0.550 OA
ENDBRANCH  17  18
ENDBRANCH  16  17
ENDBRANCH  15  16
ENDBRANCH  14  15
ENDBRANCH  13  14
ENDBRANCH  12  13
ENDBRANCH  11  12
ENDBRANCH   1  11
TORSDOF 15
ENDMDL
MODEL 6
REMARK VINA RESULT:    -3.169     11.316     13.036
REMARK INTER + INTRA:          -8.009
REMARK INTER:                  -5.554
REMARK INTRA:                  -2.455
REMARK UNBOUND:                -2.060
REMARK SMILES O=C([O-])CCCCCCCCCCCCCCC(=O)[O-]
REMARK SMILES IDX 10 1 9 2 8 3 7 4 6 5 5 6 4 7 2 8 1 9 3 10 11 11 12 12 13 13
REMARK SMILES IDX 14 14 15 15 16 16 17 17 18 18 19 19 20 20
REMARK H PARENT
REMARK Flexibility Score: inf
ROOT
ATOM      1  C   UNL     1      53.085  29.114  50.293  1.00  0.00     0.000 C 
ENDROOT
BRANCH   1   2
ATOM      2  C   UNL     1      53.367  28.990  51.801  1.00  0.00     0.000 C 
BRANCH   2   3
ATOM      3  C   UNL     1      54.386  29.999  52.363  1.00  0.00     0.000 C 
BRANCH   3   4
ATOM      4  C   UNL     1      55.265  29.408  53.474  1.00  0.00     0.000 C 
BRANCH   4   5
ATOM      5  C   UNL     1      54.803  27.990  53.845  1.00  0.00     0.000 C 
BRANCH   5   6
ATOM      6  C   UNL     1      55.977  27.026  54.076  1.00  0.00     0.006 C 
BRANCH   6   7
ATOM      7  C   UNL     1      57.342  27.715  53.943  1.00  0.00     0.053 C 
BRANCH   7   8
ATOM      8  C   UNL     1      58.436  26.697  53.885  1.00  0.00     0.041 C 
ATOM      9  O   UNL     1      59.642  27.059  53.923  1.00  0.00    -0.550 OA
ATOM     10  O   UNL     1      58.127  25.350  53.740  1.00  0.00    -0.550 OA
ENDBRANCH   7   8
ENDBRANCH   6   7
ENDBRANCH   5   6
ENDBRANCH   4   5
ENDBRANCH   3   4
ENDBRANCH   2   3
ENDBRANCH   1   2
BRANCH   1  11
ATOM     11  C   UNL     1      53.153  27.766  49.556  1.00  0.00     0.000 C 
BRANCH  11  12
ATOM     12  C   UNL     1      53.918  26.697  50.353  1.00  0.00     0.000 C 
BRANCH  12  13
ATOM     13  C   UNL     1      55.215  26.254  49.659  1.00  0.00     0.000 C 
BRANCH  13  14
ATOM     14  C   UNL     1      56.446  26.713  50.455  1.00  0.00     0.000 C 
BRANCH  14  15
ATOM     15  C   UNL     1      56.762  28.208  50.264  1.00  0.00     0.000 C 
BRANCH  15  16
ATOM     16  C   UNL     1      58.241  28.590  50.462  1.00  0.00     0.006 C 
BRANCH  16  17
ATOM     17  C   UNL     1      59.064  28.479  49.173  1.00  0.00     0.053 C 
BRANCH  17  18
ATOM     18  C   UNL     1      60.033  27.343  49.267  1.00  0.00     0.041 C 
ATOM     19  O   UNL     1      59.622  26.155  49.210  1.00  0.00    -0.550 OA
ATOM     20  O   UNL     1      61.395  27.597  49.368  1.00  0.00    -0.550 OA
ENDBRANCH  17  18
ENDBRANCH  16  17
ENDBRANCH  15  16
ENDBRANCH  14  15
ENDBRANCH  13  14
ENDBRANCH  12  13
ENDBRANCH  11  12
ENDBRANCH   1  11
TORSDOF 15
ENDMDL
MODEL 7
REMARK VINA RESULT:    -3.135     11.234     13.276
REMARK INTER + INTRA:          -7.945
REMARK INTER:                  -5.646
REMARK INTRA:                  -2.299
REMARK UNBOUND:                -2.060
REMARK SMILES O=C([O-])CCCCCCCCCCCCCCC(=O)[O-]
REMARK SMILES IDX 10 1 9 2 8 3 7 4 6 5 5 6 4 7 2 8 1 9 3 10 11 11 12 12 13 13
REMARK SMILES IDX 14 14 15 15 16 16 17 17 18 18 19 19 20 20
REMARK H PARENT
REMARK Flexibility Score: inf
ROOT
ATOM      1  C   UNL     1      58.209  26.030  53.572  1.00  0.00     0.000 C 
ENDROOT
BRANCH   1   2
ATOM      2  C   UNL     1      57.607  27.447  53.569  1.00  0.00     0.000 C 
BRANCH   2   3
ATOM      3  C   UNL     1      56.125  27.530  53.979  1.00  0.00     0.000 C 
BRANCH   3   4
ATOM      4  C   UNL     1      55.209  27.983  52.832  1.00  0.00     0.000 C 
BRANCH   4   5
ATOM      5  C   UNL     1      56.001  28.770  51.776  1.00  0.00     0.000 C 
BRANCH   5   6
ATOM      6  C   UNL     1      55.620  28.380  50.338  1.00  0.00     0.006 C 
BRANCH   6   7
ATOM      7  C   UNL     1      55.399  26.870  50.175  1.00  0.00     0.053 C 
BRANCH   7   8
ATOM      8  C   UNL     1      54.108  26.606  49.467  1.00  0.00     0.041 C 
ATOM      9  O   UNL     1      53.908  25.496  48.906  1.00  0.00    -0.550 OA
ATOM     10  O   UNL     1      53.144  27.602  49.384  1.00  0.00    -0.550 OA
ENDBRANCH   7   8
ENDBRANCH   6   7
ENDBRANCH   5   6
ENDBRANCH   4   5
ENDBRANCH   3   4
ENDBRANCH   2   3
ENDBRANCH   1   2
BRANCH   1  11
ATOM     11  C   UNL     1      57.551  25.095  52.544  1.00  0.00     0.000 C 
BRANCH  11  12
ATOM     12  C   UNL     1      58.522  24.666  51.432  1.00  0.00     0.000 C 
BRANCH  12  13
ATOM     13  C   UNL     1      59.443  25.808  50.975  1.00  0.00     0.000 C 
BRANCH  13  14
ATOM     14  C   UNL     1      59.123  26.224  49.531  1.00  0.00     0.000 C 
BRANCH  14  15
ATOM     15  C   UNL     1      59.830  27.526  49.110  1.00  0.00     0.000 C 
BRANCH  15  16
ATOM     16  C   UNL     1      59.068  28.820  49.454  1.00  0.00     0.006 C 
BRANCH  16  17
ATOM     17  C   UNL     1      59.513  29.439  50.784  1.00  0.00     0.053 C 
BRANCH  17  18
ATOM     18  C   UNL     1      61.004  29.558  50.832  1.00  0.00     0.041 C 
ATOM     19  O   UNL     1      61.591  30.439  50.151  1.00  0.00    -0.550 OA
ATOM     20  O   UNL     1      61.742  28.728  51.667  1.00  0.00    -0.550 OA
ENDBRANCH  17  18
ENDBRANCH  16  17
ENDBRANCH  15  16
ENDBRANCH  14  15
ENDBRANCH  13  14
ENDBRANCH  12  13
ENDBRANCH  11  12
ENDBRANCH   1  11
TORSDOF 15
ENDMDL
MODEL 8
REMARK VINA RESULT:    -3.131     11.507     13.743
REMARK INTER + INTRA:          -7.938
REMARK INTER:                  -5.449
REMARK INTRA:                  -2.489
REMARK UNBOUND:                -2.060
REMARK SMILES O=C([O-])CCCCCCCCCCCCCCC(=O)[O-]
REMARK SMILES IDX 10 1 9 2 8 3 7 4 6 5 5 6 4 7 2 8 1 9 3 10 11 11 12 12 13 13
REMARK SMILES IDX 14 14 15 15 16 16 17 17 18 18 19 19 20 20
REMARK H PARENT
REMARK Flexibility Score: inf
ROOT
ATOM      1  C   UNL     1      60.854  29.244  50.786  1.00  0.00     0.000 C 
ENDROOT
BRANCH   1   2
ATOM      2  C   UNL     1      60.550  29.040  52.281  1.00  0.00     0.000 C 
BRANCH   2   3
ATOM      3  C   UNL     1      59.106  29.365  52.707  1.00  0.00     0.000 C 
BRANCH   3   4
ATOM      4  C   UNL     1      58.161  29.572  51.514  1.00  0.00     0.000 C 
BRANCH   4   5
ATOM      5  C   UNL     1      56.890  28.722  51.668  1.00  0.00     0.000 C 
BRANCH   5   6
ATOM      6  C   UNL     1      56.337  28.235  50.319  1.00  0.00     0.006 C 
BRANCH   6   7
ATOM      7  C   UNL     1      55.714  26.835  50.407  1.00  0.00     0.053 C 
BRANCH   7   8
ATOM      8  C   UNL     1      54.442  26.779  49.623  1.00  0.00     0.041 C 
ATOM      9  O   UNL     1      53.674  27.777  49.588  1.00  0.00    -0.550 OA
ATOM     10  O   UNL     1      54.077  25.609  48.970  1.00  0.00    -0.550 OA
ENDBRANCH   7   8
ENDBRANCH   6   7
ENDBRANCH   5   6
ENDBRANCH   4   5
ENDBRANCH   3   4
ENDBRANCH   2   3
ENDBRANCH   1   2
BRANCH   1  11
ATOM     11  C   UNL     1      61.974  28.324  50.270  1.00  0.00     0.000 C 
BRANCH  11  12
ATOM     12  C   UNL     1      61.428  27.062  49.582  1.00  0.00     0.000 C 
BRANCH  12  13
ATOM     13  C   UNL     1      59.932  27.168  49.248  1.00  0.00     0.000 C 
BRANCH  13  14
ATOM     14  C   UNL     1      59.145  26.016  49.892  1.00  0.00     0.000 C 
BRANCH  14  15
ATOM     15  C   UNL     1      59.710  25.593  51.260  1.00  0.00     0.000 C 
BRANCH  15  16
ATOM     16  C   UNL     1      58.723  25.712  52.436  1.00  0.00     0.006 C 
BRANCH  16  17
ATOM     17  C   UNL     1      57.820  24.481  52.586  1.00  0.00     0.053 C 
BRANCH  17  18
ATOM     18  C   UNL     1      58.618  23.301  53.042  1.00  0.00     0.041 C 
ATOM     19  O   UNL     1      59.427  23.416  54.000  1.00  0.00    -0.550 OA
ATOM     20  O   UNL     1      58.433  22.061  52.443  1.00  0.00    -0.550 OA
ENDBRANCH  17  18
ENDBRANCH  16  17
ENDBRANCH  15  16
ENDBRANCH  14  15
ENDBRANCH  13  14
ENDBRANCH  12  13
ENDBRANCH  11  12
ENDBRANCH   1  11
TORSDOF 15
ENDMDL
