MODEL 1
REMARK VINA RESULT:    -2.342      0.000      0.000
REMARK INTER + INTRA:          -2.547
REMARK INTER:                  -2.547
REMARK INTRA:                   0.000
REMARK UNBOUND:                 0.000
REMARK SMILES [NH3+]CC(=O)[O-]
REMARK SMILES IDX 2 1 1 2 3 6 4 7 5 8
REMARK H PARENT 1 3 1 4 1 5
REMARK Flexibility Score: inf
ROOT
ATOM      1  C   UNL     1      -8.874  -1.629   3.267  1.00  0.00     0.312 C 
ENDROOT
BRANCH   1   2
ATOM      2  N   UNL     1      -9.835  -1.206   4.283  1.00  0.00    -0.353 N 
ATOM      3  H   UNL     1     -10.583  -0.633   3.829  1.00  0.00     0.344 HD
ATOM      4  H   UNL     1     -10.274  -2.042   4.733  1.00  0.00     0.344 HD
ATOM      5  H   UNL     1      -9.356  -0.624   5.010  1.00  0.00     0.344 HD
ENDBRANCH   1   2
BRANCH   1   6
ATOM      6  C   UNL     1      -8.426  -0.462   2.443  1.00  0.00     0.096 C 
ATOM      7  O   UNL     1      -9.275   0.283   1.887  1.00  0.00    -0.544 OA
ATOM      8  O   UNL     1      -7.071  -0.228   2.246  1.00  0.00    -0.544 OA
ENDBRANCH   1   6
TORSDOF 2
ENDMDL
MODEL 2
REMARK VINA RESULT:    -2.317      1.714      1.807
REMARK INTER + INTRA:          -2.521
REMARK INTER:                  -2.521
REMARK INTRA:                   0.000
REMARK UNBOUND:                 0.000
REMARK SMILES [NH3+]CC(=O)[O-]
REMARK SMILES IDX 2 1 1 2 3 6 4 7 5 8
REMARK H PARENT 1 3 1 4 1 5
REMARK Flexibility Score: inf
ROOT
ATOM      1  C   UNL     1     -10.038   0.565   3.439  1.00  0.00     0.312 C 
ENDROOT
BRANCH   1   2
ATOM      2  N   UNL     1     -10.368   0.212   4.818  1.00  0.00    -0.353 N 
ATOM      3  H   UNL     1      -9.811  -0.627   5.100  1.00  0.00     0.344 HD
ATOM      4  H   UNL     1     -10.133   1.005   5.459  1.00  0.00     0.344 HD
ATOM      5  H   UNL     1     -11.387  -0.015   4.897  1.00  0.00     0.344 HD
ENDBRANCH   1   2
BRANCH   1   6
ATOM      6  C   UNL     1      -9.026  -0.385   2.878  1.00  0.00     0.096 C 
ATOM      7  O   UNL     1      -8.925  -1.551   3.343  1.00  0.00    -0.544 OA
ATOM      8  O   UNL     1      -8.159   0.034   1.877  1.00  0.00    -0.544 OA
ENDBRANCH   1   6
TORSDOF 2
ENDMDL
MODEL 3
REMARK VINA RESULT:    -2.290      1.751      1.888
REMARK INTER + INTRA:          -2.491
REMARK INTER:                  -2.491
REMARK INTRA:                   0.000
REMARK UNBOUND:                 0.000
REMARK SMILES [NH3+]CC(=O)[O-]
REMARK SMILES IDX 2 1 1 2 3 6 4 7 5 8
REMARK H PARENT 1 3 1 4 1 5
REMARK Flexibility Score: inf
ROOT
ATOM      1  C   UNL     1     -10.088   0.622   3.496  1.00  0.00     0.312 C 
ENDROOT
BRANCH   1   2
ATOM      2  N   UNL     1     -10.409   0.241   4.869  1.00  0.00    -0.353 N 
ATOM      3  H   UNL     1     -10.481  -0.801   4.927  1.00  0.00     0.344 HD
ATOM      4  H   UNL     1      -9.656   0.565   5.518  1.00  0.00     0.344 HD
ATOM      5  H   UNL     1     -11.325   0.661   5.154  1.00  0.00     0.344 HD
ENDBRANCH   1   2
BRANCH   1   6
ATOM      6  C   UNL     1      -9.114  -0.341   2.893  1.00  0.00     0.096 C 
ATOM      7  O   UNL     1      -8.440  -0.011   1.882  1.00  0.00    -0.544 OA
ATOM      8  O   UNL     1      -8.989  -1.622   3.415  1.00  0.00    -0.544 OA
ENDBRANCH   1   6
TORSDOF 2
ENDMDL
MODEL 4
REMARK VINA RESULT:    -2.273      2.426      2.615
REMARK INTER + INTRA:          -2.473
REMARK INTER:                  -2.473
REMARK INTRA:                   0.000
REMARK UNBOUND:                 0.000
REMARK SMILES [NH3+]CC(=O)[O-]
REMARK SMILES IDX 2 1 1 2 3 6 4 7 5 8
REMARK H PARENT 1 3 1 4 1 5
REMARK Flexibility Score: inf
ROOT
ATOM      1  C   UNL     1      -8.618  -3.481   4.340  1.00  0.00     0.312 C 
ENDROOT
BRANCH   1   2
ATOM      2  N   UNL     1      -8.356  -3.428   5.776  1.00  0.00    -0.353 N 
ATOM      3  H   UNL     1      -9.073  -2.820   6.233  1.00  0.00     0.344 HD
ATOM      4  H   UNL     1      -8.414  -4.388   6.188  1.00  0.00     0.344 HD
ATOM      5  H   UNL     1      -7.406  -3.024   5.953  1.00  0.00     0.344 HD
ENDBRANCH   1   2
BRANCH   1   6
ATOM      6  C   UNL     1      -9.175  -2.179   3.855  1.00  0.00     0.096 C 
ATOM      7  O   UNL     1     -10.320  -1.804   4.219  1.00  0.00    -0.544 OA
ATOM      8  O   UNL     1      -8.450  -1.404   2.958  1.00  0.00    -0.544 OA
ENDBRANCH   1   6
TORSDOF 2
ENDMDL
MODEL 5
REMARK VINA RESULT:    -2.184      4.154      4.402
REMARK INTER + INTRA:          -2.375
REMARK INTER:                  -2.375
REMARK INTRA:                   0.000
REMARK UNBOUND:                 0.000
REMARK SMILES [NH3+]CC(=O)[O-]
REMARK SMILES IDX 2 1 1 2 3 6 4 7 5 8
REMARK H PARENT 1 3 1 4 1 5
REMARK Flexibility Score: inf
ROOT
ATOM      1  C   UNL     1      -8.544  -3.373   4.639  1.00  0.00     0.312 C 
ENDROOT
BRANCH   1   2
ATOM      2  N   UNL     1      -8.288  -3.536   6.068  1.00  0.00    -0.353 N 
ATOM      3  H   UNL     1      -7.529  -2.878   6.357  1.00  0.00     0.344 HD
ATOM      4  H   UNL     1      -9.152  -3.318   6.616  1.00  0.00     0.344 HD
ATOM      5  H   UNL     1      -7.981  -4.517   6.269  1.00  0.00     0.344 HD
ENDBRANCH   1   2
BRANCH   1   6
ATOM      6  C   UNL     1      -9.686  -4.238   4.204  1.00  0.00     0.096 C 
ATOM      7  O   UNL     1     -10.634  -3.747   3.536  1.00  0.00    -0.544 OA
ATOM      8  O   UNL     1      -9.730  -5.574   4.581  1.00  0.00    -0.544 OA
ENDBRANCH   1   6
TORSDOF 2
ENDMDL
MODEL 6
REMARK VINA RESULT:    -2.183      9.352      9.530
REMARK INTER + INTRA:          -2.374
REMARK INTER:                  -2.374
REMARK INTRA:                   0.000
REMARK UNBOUND:                 0.000
REMARK SMILES [NH3+]CC(=O)[O-]
REMARK SMILES IDX 2 1 1 2 3 6 4 7 5 8
REMARK H PARENT 1 3 1 4 1 5
REMARK Flexibility Score: inf
ROOT
ATOM      1  C   UNL     1      -5.024   1.868  11.586  1.00  0.00     0.312 C 
ENDROOT
BRANCH   1   2
ATOM      2  N   UNL     1      -5.944   0.933  10.941  1.00  0.00    -0.353 N 
ATOM      3  H   UNL     1      -5.561  -0.036  11.024  1.00  0.00     0.344 HD
ATOM      4  H   UNL     1      -6.879   0.970  11.408  1.00  0.00     0.344 HD
ATOM      5  H   UNL     1      -6.046   1.172   9.927  1.00  0.00     0.344 HD
ENDBRANCH   1   2
BRANCH   1   6
ATOM      6  C   UNL     1      -4.970   3.161  10.833  1.00  0.00     0.096 C 
ATOM      7  O   UNL     1      -4.875   3.159   9.578  1.00  0.00    -0.544 OA
ATOM      8  O   UNL     1      -4.971   4.367  11.522  1.00  0.00    -0.544 OA
ENDBRANCH   1   6
TORSDOF 2
ENDMDL
MODEL 7
REMARK VINA RESULT:    -2.173      2.333      2.836
REMARK INTER + INTRA:          -2.364
REMARK INTER:                  -2.364
REMARK INTRA:                   0.000
REMARK UNBOUND:                 0.000
REMARK SMILES [NH3+]CC(=O)[O-]
REMARK SMILES IDX 2 1 1 2 3 6 4 7 5 8
REMARK H PARENT 1 3 1 4 1 5
REMARK Flexibility Score: inf
ROOT
ATOM      1  C   UNL     1      -8.579  -0.110   2.288  1.00  0.00     0.312 C 
ENDROOT
BRANCH   1   2
ATOM      2  N   UNL     1      -7.129  -0.164   2.121  1.00  0.00    -0.353 N 
ATOM      3  H   UNL     1      -6.675   0.387   2.885  1.00  0.00     0.344 HD
ATOM      4  H   UNL     1      -6.797  -1.154   2.174  1.00  0.00     0.344 HD
ATOM      5  H   UNL     1      -6.858   0.250   1.197  1.00  0.00     0.344 HD
ENDBRANCH   1   2
BRANCH   1   6
ATOM      6  C   UNL     1      -9.119  -1.455   2.660  1.00  0.00     0.096 C 
ATOM      7  O   UNL     1      -8.540  -2.151   3.534  1.00  0.00    -0.544 OA
ATOM      8  O   UNL     1     -10.234  -1.963   2.004  1.00  0.00    -0.544 OA
ENDBRANCH   1   6
TORSDOF 2
ENDMDL
MODEL 8
REMARK VINA RESULT:    -2.122     10.859     11.069
REMARK INTER + INTRA:          -2.308
REMARK INTER:                  -2.308
REMARK INTRA:                   0.000
REMARK UNBOUND:                 0.000
REMARK SMILES [NH3+]CC(=O)[O-]
REMARK SMILES IDX 2 1 1 2 3 6 4 7 5 8
REMARK H PARENT 1 3 1 4 1 5
REMARK Flexibility Score: inf
ROOT
ATOM      1  C   UNL     1      -5.064   1.336  12.116  1.00  0.00     0.312 C 
ENDROOT
BRANCH   1   2
ATOM      2  N   UNL     1      -6.004   0.628  11.251  1.00  0.00    -0.353 N 
ATOM      3  H   UNL     1      -6.471  -0.129  11.800  1.00  0.00     0.344 HD
ATOM      4  H   UNL     1      -6.734   1.289  10.896  1.00  0.00     0.344 HD
ATOM      5  H   UNL     1      -5.495   0.197  10.443  1.00  0.00     0.344 HD
ENDBRANCH   1   2
BRANCH   1   6
ATOM      6  C   UNL     1      -5.539   1.324  13.535  1.00  0.00     0.096 C 
ATOM      7  O   UNL     1      -6.502   2.054  13.887  1.00  0.00    -0.544 OA
ATOM      8  O   UNL     1      -4.883   0.547  14.482  1.00  0.00    -0.544 OA
ENDBRANCH   1   6
TORSDOF 2
ENDMDL
MODEL 9
REMARK VINA RESULT:    -2.036      2.782      2.976
REMARK INTER + INTRA:          -2.214
REMARK INTER:                  -2.214
REMARK INTRA:                   0.000
REMARK UNBOUND:                 0.000
REMARK SMILES [NH3+]CC(=O)[O-]
REMARK SMILES IDX 2 1 1 2 3 6 4 7 5 8
REMARK H PARENT 1 3 1 4 1 5
REMARK Flexibility Score: inf
ROOT
ATOM      1  C   UNL     1      -9.332  -1.564   3.376  1.00  0.00     0.312 C 
ENDROOT
BRANCH   1   2
ATOM      2  N   UNL     1     -10.052  -0.984   4.508  1.00  0.00    -0.353 N 
ATOM      3  H   UNL     1     -10.381  -0.026   4.250  1.00  0.00     0.344 HD
ATOM      4  H   UNL     1     -10.881  -1.574   4.747  1.00  0.00     0.344 HD
ATOM      5  H   UNL     1      -9.418  -0.913   5.338  1.00  0.00     0.344 HD
ENDBRANCH   1   2
BRANCH   1   6
ATOM      6  C   UNL     1      -9.873  -2.919   3.043  1.00  0.00     0.096 C 
ATOM      7  O   UNL     1     -10.821  -3.040   2.224  1.00  0.00    -0.544 OA
ATOM      8  O   UNL     1      -9.364  -4.046   3.677  1.00  0.00    -0.544 OA
ENDBRANCH   1   6
TORSDOF 2
ENDMDL
