MODEL 1
REMARK VINA RESULT:    -7.368      0.000      0.000
REMARK INTER + INTRA:         -10.048
REMARK INTER:                  -9.307
REMARK INTRA:                  -0.741
REMARK UNBOUND:                -0.741
REMARK SMILES O=C(C=Cc1ccc(O)cc1)c1ccc(O)cc1O
REMARK SMILES IDX 4 1 3 2 5 3 6 4 7 5 8 6 11 7 10 8 9 9 2 11 1 12 12 13 18 14
REMARK SMILES IDX 13 15 17 16 14 17 15 18 19 19 16 21
REMARK H PARENT 9 10 19 20 16 22
REMARK Flexibility Score: inf
ROOT
ATOM      1  C   UNL     1      -4.713 -29.309 -53.150  1.00  0.00     0.012 C 
ATOM      2  C   UNL     1      -5.202 -30.466 -53.622  1.00  0.00     0.053 C 
ENDROOT
BRANCH   1   3
ATOM      3  C   UNL     1      -4.862 -28.008 -53.847  1.00  0.00    -0.025 A 
ATOM      4  C   UNL     1      -3.860 -27.018 -53.824  1.00  0.00     0.012 A 
ATOM      5  C   UNL     1      -4.053 -25.801 -54.486  1.00  0.00     0.047 A 
ATOM      6  C   UNL     1      -5.249 -25.553 -55.171  1.00  0.00     0.115 A 
ATOM      7  C   UNL     1      -6.064 -27.741 -54.523  1.00  0.00     0.012 A 
ATOM      8  C   UNL     1      -6.252 -26.524 -55.186  1.00  0.00     0.047 A 
BRANCH   6   9
ATOM      9  O   UNL     1      -5.449 -24.345 -55.836  1.00  0.00    -0.508 OA
ATOM     10  H   UNL     1      -5.020 -24.156 -56.733  1.00  0.00     0.293 HD
ENDBRANCH   6   9
ENDBRANCH   1   3
BRANCH   2  11
ATOM     11  C   UNL     1      -5.048 -31.743 -52.892  1.00  0.00     0.189 C 
ATOM     12  O   UNL     1      -6.054 -32.478 -52.691  1.00  0.00    -0.289 OA
BRANCH  11  13
ATOM     13  C   UNL     1      -3.718 -32.203 -52.429  1.00  0.00     0.064 A 
ATOM     14  C   UNL     1      -3.470 -32.531 -51.077  1.00  0.00     0.130 A 
ATOM     15  C   UNL     1      -2.679 -32.340 -53.367  1.00  0.00     0.020 A 
ATOM     16  C   UNL     1      -2.191 -32.948 -50.684  1.00  0.00     0.093 A 
ATOM     17  C   UNL     1      -1.409 -32.763 -52.965  1.00  0.00     0.047 A 
ATOM     18  C   UNL     1      -1.160 -33.064 -51.624  1.00  0.00     0.119 A 
BRANCH  14  19
ATOM     19  O   UNL     1      -4.496 -32.471 -50.134  1.00  0.00    -0.507 OA
ATOM     20  H   UNL     1      -5.301 -31.867 -50.260  1.00  0.00     0.293 HD
ENDBRANCH  14  19
BRANCH  18  21
ATOM     21  O   UNL     1       0.112 -33.480 -51.238  1.00  0.00    -0.508 OA
ATOM     22  H   UNL     1       0.263 -33.991 -50.376  1.00  0.00     0.293 HD
ENDBRANCH  18  21
ENDBRANCH  11  13
ENDBRANCH   2  11
TORSDOF 6
ENDMDL
MODEL 2
REMARK VINA RESULT:    -7.244      1.488      7.463
REMARK INTER + INTRA:          -9.890
REMARK INTER:                  -9.446
REMARK INTRA:                  -0.445
REMARK UNBOUND:                -0.741
REMARK SMILES O=C(C=Cc1ccc(O)cc1)c1ccc(O)cc1O
REMARK SMILES IDX 4 1 3 2 5 3 6 4 7 5 8 6 11 7 10 8 9 9 2 11 1 12 12 13 18 14
REMARK SMILES IDX 13 15 17 16 14 17 15 18 19 19 16 21
REMARK H PARENT 9 10 19 20 16 22
REMARK Flexibility Score: inf
ROOT
ATOM      1  C   UNL     1      -4.534 -31.039 -53.533  1.00  0.00     0.012 C 
ATOM      2  C   UNL     1      -4.518 -29.698 -53.511  1.00  0.00     0.053 C 
ENDROOT
BRANCH   1   3
ATOM      3  C   UNL     1      -3.642 -31.885 -52.703  1.00  0.00    -0.025 A 
ATOM      4  C   UNL     1      -2.352 -32.266 -53.125  1.00  0.00     0.012 A 
ATOM      5  C   UNL     1      -1.553 -33.077 -52.313  1.00  0.00     0.047 A 
ATOM      6  C   UNL     1      -2.032 -33.524 -51.074  1.00  0.00     0.115 A 
ATOM      7  C   UNL     1      -4.117 -32.353 -51.467  1.00  0.00     0.012 A 
ATOM      8  C   UNL     1      -3.314 -33.162 -50.657  1.00  0.00     0.047 A 
BRANCH   6   9
ATOM      9  O   UNL     1      -1.242 -34.330 -50.257  1.00  0.00    -0.508 OA
ATOM     10  H   UNL     1      -0.799 -35.170 -50.610  1.00  0.00     0.293 HD
ENDBRANCH   6   9
ENDBRANCH   1   3
BRANCH   2  11
ATOM     11  C   UNL     1      -5.435 -28.886 -54.341  1.00  0.00     0.189 C 
ATOM     12  O   UNL     1      -6.457 -29.419 -54.855  1.00  0.00    -0.289 OA
BRANCH  11  13
ATOM     13  C   UNL     1      -5.202 -27.437 -54.542  1.00  0.00     0.064 A 
ATOM     14  C   UNL     1      -6.209 -26.582 -55.044  1.00  0.00     0.130 A 
ATOM     15  C   UNL     1      -3.952 -26.892 -54.201  1.00  0.00     0.020 A 
ATOM     16  C   UNL     1      -5.938 -25.219 -55.232  1.00  0.00     0.093 A 
ATOM     17  C   UNL     1      -3.694 -25.531 -54.387  1.00  0.00     0.047 A 
ATOM     18  C   UNL     1      -4.682 -24.692 -54.906  1.00  0.00     0.119 A 
BRANCH  14  19
ATOM     19  O   UNL     1      -7.483 -27.077 -55.329  1.00  0.00    -0.507 OA
ATOM     20  H   UNL     1      -7.765 -27.306 -56.275  1.00  0.00     0.293 HD
ENDBRANCH  14  19
BRANCH  18  21
ATOM     21  O   UNL     1      -4.410 -23.339 -55.089  1.00  0.00    -0.508 OA
ATOM     22  H   UNL     1      -5.145 -22.674 -55.299  1.00  0.00     0.293 HD
ENDBRANCH  18  21
ENDBRANCH  11  13
ENDBRANCH   2  11
TORSDOF 6
ENDMDL
MODEL 3
REMARK VINA RESULT:    -7.204      3.106      6.483
REMARK INTER + INTRA:          -9.840
REMARK INTER:                  -9.124
REMARK INTRA:                  -0.716
REMARK UNBOUND:                -0.741
REMARK SMILES O=C(C=Cc1ccc(O)cc1)c1ccc(O)cc1O
REMARK SMILES IDX 4 1 3 2 5 3 6 4 7 5 8 6 11 7 10 8 9 9 2 11 1 12 12 13 18 14
REMARK SMILES IDX 13 15 17 16 14 17 15 18 19 19 16 21
REMARK H PARENT 9 10 19 20 16 22
REMARK Flexibility Score: inf
ROOT
ATOM      1  C   UNL     1      -2.742 -31.760 -51.577  1.00  0.00     0.012 C 
ATOM      2  C   UNL     1      -3.808 -31.669 -52.386  1.00  0.00     0.053 C 
ENDROOT
BRANCH   1   3
ATOM      3  C   UNL     1      -1.344 -31.849 -52.065  1.00  0.00    -0.025 A 
ATOM      4  C   UNL     1      -0.851 -32.977 -52.750  1.00  0.00     0.012 A 
ATOM      5  C   UNL     1       0.479 -33.018 -53.180  1.00  0.00     0.047 A 
ATOM      6  C   UNL     1       1.336 -31.939 -52.925  1.00  0.00     0.115 A 
ATOM      7  C   UNL     1      -0.471 -30.780 -51.801  1.00  0.00     0.012 A 
ATOM      8  C   UNL     1       0.858 -30.824 -52.234  1.00  0.00     0.047 A 
BRANCH   6   9
ATOM      9  O   UNL     1       2.662 -31.970 -53.351  1.00  0.00    -0.508 OA
ATOM     10  H   UNL     1       3.072 -32.806 -53.751  1.00  0.00     0.293 HD
ENDBRANCH   6   9
ENDBRANCH   1   3
BRANCH   2  11
ATOM     11  C   UNL     1      -5.188 -31.566 -51.862  1.00  0.00     0.189 C 
ATOM     12  O   UNL     1      -5.993 -32.525 -52.020  1.00  0.00    -0.289 OA
BRANCH  11  13
ATOM     13  C   UNL     1      -5.632 -30.371 -51.108  1.00  0.00     0.064 A 
ATOM     14  C   UNL     1      -6.336 -30.478 -49.887  1.00  0.00     0.130 A 
ATOM     15  C   UNL     1      -5.324 -29.094 -51.609  1.00  0.00     0.020 A 
ATOM     16  C   UNL     1      -6.749 -29.318 -49.217  1.00  0.00     0.093 A 
ATOM     17  C   UNL     1      -5.735 -27.944 -50.929  1.00  0.00     0.047 A 
ATOM     18  C   UNL     1      -6.452 -28.052 -49.736  1.00  0.00     0.119 A 
BRANCH  14  19
ATOM     19  O   UNL     1      -6.599 -31.729 -49.328  1.00  0.00    -0.507 OA
ATOM     20  H   UNL     1      -7.540 -32.014 -49.083  1.00  0.00     0.293 HD
ENDBRANCH  14  19
BRANCH  18  21
ATOM     21  O   UNL     1      -6.859 -26.898 -49.071  1.00  0.00    -0.508 OA
ATOM     22  H   UNL     1      -7.787 -26.513 -49.198  1.00  0.00     0.293 HD
ENDBRANCH  18  21
ENDBRANCH  11  13
ENDBRANCH   2  11
TORSDOF 6
ENDMDL
MODEL 4
REMARK VINA RESULT:    -7.026      3.659      5.185
REMARK INTER + INTRA:          -9.615
REMARK INTER:                  -8.886
REMARK INTRA:                  -0.730
REMARK UNBOUND:                -0.741
REMARK SMILES O=C(C=Cc1ccc(O)cc1)c1ccc(O)cc1O
REMARK SMILES IDX 4 1 3 2 5 3 6 4 7 5 8 6 11 7 10 8 9 9 2 11 1 12 12 13 18 14
REMARK SMILES IDX 13 15 17 16 14 17 15 18 19 19 16 21
REMARK H PARENT 9 10 19 20 16 22
REMARK Flexibility Score: inf
ROOT
ATOM      1  C   UNL     1      -5.257 -31.539 -51.054  1.00  0.00     0.012 C 
ATOM      2  C   UNL     1      -4.977 -30.935 -52.218  1.00  0.00     0.053 C 
ENDROOT
BRANCH   1   3
ATOM      3  C   UNL     1      -6.361 -31.119 -50.155  1.00  0.00    -0.025 A 
ATOM      4  C   UNL     1      -7.391 -31.997 -49.760  1.00  0.00     0.012 A 
ATOM      5  C   UNL     1      -8.417 -31.551 -48.922  1.00  0.00     0.047 A 
ATOM      6  C   UNL     1      -8.434 -30.224 -48.473  1.00  0.00     0.115 A 
ATOM      7  C   UNL     1      -6.398 -29.787 -49.712  1.00  0.00     0.012 A 
ATOM      8  C   UNL     1      -7.425 -29.345 -48.872  1.00  0.00     0.047 A 
BRANCH   6   9
ATOM      9  O   UNL     1      -9.451 -29.770 -47.635  1.00  0.00    -0.508 OA
ATOM     10  H   UNL     1     -10.339 -30.254 -47.570  1.00  0.00     0.293 HD
ENDBRANCH   6   9
ENDBRANCH   1   3
BRANCH   2  11
ATOM     11  C   UNL     1      -3.878 -31.391 -53.097  1.00  0.00     0.189 C 
ATOM     12  O   UNL     1      -4.127 -31.757 -54.279  1.00  0.00    -0.289 OA
BRANCH  11  13
ATOM     13  C   UNL     1      -2.472 -31.382 -52.629  1.00  0.00     0.064 A 
ATOM     14  C   UNL     1      -1.612 -32.486 -52.828  1.00  0.00     0.130 A 
ATOM     15  C   UNL     1      -1.972 -30.233 -51.991  1.00  0.00     0.020 A 
ATOM     16  C   UNL     1      -0.293 -32.437 -52.355  1.00  0.00     0.093 A 
ATOM     17  C   UNL     1      -0.654 -30.193 -51.529  1.00  0.00     0.047 A 
ATOM     18  C   UNL     1       0.187 -31.293 -51.705  1.00  0.00     0.119 A 
BRANCH  14  19
ATOM     19  O   UNL     1      -2.056 -33.615 -53.517  1.00  0.00    -0.507 OA
ATOM     20  H   UNL     1      -1.665 -33.879 -54.414  1.00  0.00     0.293 HD
ENDBRANCH  14  19
BRANCH  18  21
ATOM     21  O   UNL     1       1.497 -31.240 -51.235  1.00  0.00    -0.508 OA
ATOM     22  H   UNL     1       2.233 -30.789 -51.766  1.00  0.00     0.293 HD
ENDBRANCH  18  21
ENDBRANCH  11  13
ENDBRANCH   2  11
TORSDOF 6
ENDMDL
MODEL 5
REMARK VINA RESULT:    -6.918      3.321      6.220
REMARK INTER + INTRA:          -9.478
REMARK INTER:                  -8.797
REMARK INTRA:                  -0.682
REMARK UNBOUND:                -0.741
REMARK SMILES O=C(C=Cc1ccc(O)cc1)c1ccc(O)cc1O
REMARK SMILES IDX 4 1 3 2 5 3 6 4 7 5 8 6 11 7 10 8 9 9 2 11 1 12 12 13 18 14
REMARK SMILES IDX 13 15 17 16 14 17 15 18 19 19 16 21
REMARK H PARENT 9 10 19 20 16 22
REMARK Flexibility Score: inf
ROOT
ATOM      1  C   UNL     1      -2.160 -29.363 -51.996  1.00  0.00     0.012 C 
ATOM      2  C   UNL     1      -3.268 -29.447 -52.747  1.00  0.00     0.053 C 
ENDROOT
BRANCH   1   3
ATOM      3  C   UNL     1      -0.845 -29.916 -52.406  1.00  0.00    -0.025 A 
ATOM      4  C   UNL     1      -0.099 -29.382 -53.475  1.00  0.00     0.012 A 
ATOM      5  C   UNL     1       1.130 -29.946 -53.831  1.00  0.00     0.047 A 
ATOM      6  C   UNL     1       1.626 -31.054 -53.133  1.00  0.00     0.115 A 
ATOM      7  C   UNL     1      -0.345 -31.038 -51.724  1.00  0.00     0.012 A 
ATOM      8  C   UNL     1       0.884 -31.598 -52.082  1.00  0.00     0.047 A 
BRANCH   6   9
ATOM      9  O   UNL     1       2.850 -31.623 -53.479  1.00  0.00    -0.508 OA
ATOM     10  H   UNL     1       3.272 -32.355 -52.920  1.00  0.00     0.293 HD
ENDBRANCH   6   9
ENDBRANCH   1   3
BRANCH   2  11
ATOM     11  C   UNL     1      -4.559 -28.869 -52.312  1.00  0.00     0.189 C 
ATOM     12  O   UNL     1      -4.959 -27.780 -52.808  1.00  0.00    -0.289 OA
BRANCH  11  13
ATOM     13  C   UNL     1      -5.421 -29.573 -51.334  1.00  0.00     0.064 A 
ATOM     14  C   UNL     1      -6.124 -28.879 -50.324  1.00  0.00     0.130 A 
ATOM     15  C   UNL     1      -5.562 -30.969 -51.429  1.00  0.00     0.020 A 
ATOM     16  C   UNL     1      -6.916 -29.590 -49.411  1.00  0.00     0.093 A 
ATOM     17  C   UNL     1      -6.359 -31.667 -50.518  1.00  0.00     0.047 A 
ATOM     18  C   UNL     1      -7.034 -30.982 -49.506  1.00  0.00     0.119 A 
BRANCH  14  19
ATOM     19  O   UNL     1      -6.060 -27.488 -50.243  1.00  0.00    -0.507 OA
ATOM     20  H   UNL     1      -6.074 -27.005 -49.352  1.00  0.00     0.293 HD
ENDBRANCH  14  19
BRANCH  18  21
ATOM     21  O   UNL     1      -7.822 -31.692 -48.603  1.00  0.00    -0.508 OA
ATOM     22  H   UNL     1      -8.299 -32.544 -48.871  1.00  0.00     0.293 HD
ENDBRANCH  18  21
ENDBRANCH  11  13
ENDBRANCH   2  11
TORSDOF 6
ENDMDL
MODEL 6
REMARK VINA RESULT:    -6.790      1.921      2.793
REMARK INTER + INTRA:          -9.317
REMARK INTER:                  -8.717
REMARK INTRA:                  -0.600
REMARK UNBOUND:                -0.741
REMARK SMILES O=C(C=Cc1ccc(O)cc1)c1ccc(O)cc1O
REMARK SMILES IDX 4 1 3 2 5 3 6 4 7 5 8 6 11 7 10 8 9 9 2 11 1 12 12 13 18 14
REMARK SMILES IDX 13 15 17 16 14 17 15 18 19 19 16 21
REMARK H PARENT 9 10 19 20 16 22
REMARK Flexibility Score: inf
ROOT
ATOM      1  C   UNL     1      -3.481 -28.001 -52.750  1.00  0.00     0.012 C 
ATOM      2  C   UNL     1      -2.476 -28.797 -53.144  1.00  0.00     0.053 C 
ENDROOT
BRANCH   1   3
ATOM      3  C   UNL     1      -4.388 -27.296 -53.690  1.00  0.00    -0.025 A 
ATOM      4  C   UNL     1      -4.052 -26.065 -54.288  1.00  0.00     0.012 A 
ATOM      5  C   UNL     1      -4.946 -25.434 -55.157  1.00  0.00     0.047 A 
ATOM      6  C   UNL     1      -6.190 -26.016 -55.435  1.00  0.00     0.115 A 
ATOM      7  C   UNL     1      -5.645 -27.862 -53.963  1.00  0.00     0.012 A 
ATOM      8  C   UNL     1      -6.536 -27.228 -54.834  1.00  0.00     0.047 A 
BRANCH   6   9
ATOM      9  O   UNL     1      -7.087 -25.395 -56.302  1.00  0.00    -0.508 OA
ATOM     10  H   UNL     1      -7.124 -24.386 -56.393  1.00  0.00     0.293 HD
ENDBRANCH   6   9
ENDBRANCH   1   3
BRANCH   2  11
ATOM     11  C   UNL     1      -1.602 -29.497 -52.178  1.00  0.00     0.189 C 
ATOM     12  O   UNL     1      -0.671 -28.868 -51.602  1.00  0.00    -0.289 OA
BRANCH  11  13
ATOM     13  C   UNL     1      -1.828 -30.920 -51.833  1.00  0.00     0.064 A 
ATOM     14  C   UNL     1      -0.768 -31.772 -51.449  1.00  0.00     0.130 A 
ATOM     15  C   UNL     1      -3.138 -31.430 -51.866  1.00  0.00     0.020 A 
ATOM     16  C   UNL     1      -1.029 -33.116 -51.146  1.00  0.00     0.093 A 
ATOM     17  C   UNL     1      -3.387 -32.770 -51.556  1.00  0.00     0.047 A 
ATOM     18  C   UNL     1      -2.336 -33.617 -51.200  1.00  0.00     0.119 A 
BRANCH  14  19
ATOM     19  O   UNL     1       0.533 -31.281 -51.341  1.00  0.00    -0.507 OA
ATOM     20  H   UNL     1       0.977 -31.145 -50.440  1.00  0.00     0.293 HD
ENDBRANCH  14  19
BRANCH  18  21
ATOM     21  O   UNL     1      -2.599 -34.951 -50.898  1.00  0.00    -0.508 OA
ATOM     22  H   UNL     1      -3.132 -35.213 -50.077  1.00  0.00     0.293 HD
ENDBRANCH  18  21
ENDBRANCH  11  13
ENDBRANCH   2  11
TORSDOF 6
ENDMDL
MODEL 7
REMARK VINA RESULT:    -6.723     12.794     14.144
REMARK INTER + INTRA:          -9.233
REMARK INTER:                  -8.587
REMARK INTRA:                  -0.647
REMARK UNBOUND:                -0.741
REMARK SMILES O=C(C=Cc1ccc(O)cc1)c1ccc(O)cc1O
REMARK SMILES IDX 4 1 3 2 5 3 6 4 7 5 8 6 11 7 10 8 9 9 2 11 1 12 12 13 18 14
REMARK SMILES IDX 13 15 17 16 14 17 15 18 19 19 16 21
REMARK H PARENT 9 10 19 20 16 22
REMARK Flexibility Score: inf
ROOT
ATOM      1  C   UNL     1      -9.189 -40.521 -46.327  1.00  0.00     0.012 C 
ATOM      2  C   UNL     1      -9.782 -39.318 -46.334  1.00  0.00     0.053 C 
ENDROOT
BRANCH   1   3
ATOM      3  C   UNL     1      -8.177 -40.945 -47.325  1.00  0.00    -0.025 A 
ATOM      4  C   UNL     1      -8.502 -41.740 -48.442  1.00  0.00     0.012 A 
ATOM      5  C   UNL     1      -7.509 -42.125 -49.349  1.00  0.00     0.047 A 
ATOM      6  C   UNL     1      -6.180 -41.729 -49.150  1.00  0.00     0.115 A 
ATOM      7  C   UNL     1      -6.838 -40.569 -47.127  1.00  0.00     0.012 A 
ATOM      8  C   UNL     1      -5.849 -40.954 -48.037  1.00  0.00     0.047 A 
BRANCH   6   9
ATOM      9  O   UNL     1      -5.185 -42.106 -50.049  1.00  0.00    -0.508 OA
ATOM     10  H   UNL     1      -5.390 -42.681 -50.858  1.00  0.00     0.293 HD
ENDBRANCH   6   9
ENDBRANCH   1   3
BRANCH   2  11
ATOM     11  C   UNL     1     -10.775 -38.924 -45.312  1.00  0.00     0.189 C 
ATOM     12  O   UNL     1     -11.909 -39.478 -45.290  1.00  0.00    -0.289 OA
BRANCH  11  13
ATOM     13  C   UNL     1     -10.447 -37.918 -44.274  1.00  0.00     0.064 A 
ATOM     14  C   UNL     1     -11.417 -37.022 -43.771  1.00  0.00     0.130 A 
ATOM     15  C   UNL     1      -9.140 -37.871 -43.758  1.00  0.00     0.020 A 
ATOM     16  C   UNL     1     -11.056 -36.077 -42.800  1.00  0.00     0.093 A 
ATOM     17  C   UNL     1      -8.793 -36.930 -42.786  1.00  0.00     0.047 A 
ATOM     18  C   UNL     1      -9.746 -36.028 -42.307  1.00  0.00     0.119 A 
BRANCH  14  19
ATOM     19  O   UNL     1     -12.739 -37.086 -44.212  1.00  0.00    -0.507 OA
ATOM     20  H   UNL     1     -13.137 -36.368 -44.807  1.00  0.00     0.293 HD
ENDBRANCH  14  19
BRANCH  18  21
ATOM     21  O   UNL     1      -9.384 -35.093 -41.341  1.00  0.00    -0.508 OA
ATOM     22  H   UNL     1      -9.738 -35.146 -40.393  1.00  0.00     0.293 HD
ENDBRANCH  18  21
ENDBRANCH  11  13
ENDBRANCH   2  11
TORSDOF 6
ENDMDL
MODEL 8
REMARK VINA RESULT:    -6.566      5.047      5.910
REMARK INTER + INTRA:          -9.034
REMARK INTER:                  -8.401
REMARK INTRA:                  -0.633
REMARK UNBOUND:                -0.741
REMARK SMILES O=C(C=Cc1ccc(O)cc1)c1ccc(O)cc1O
REMARK SMILES IDX 4 1 3 2 5 3 6 4 7 5 8 6 11 7 10 8 9 9 2 11 1 12 12 13 18 14
REMARK SMILES IDX 13 15 17 16 14 17 15 18 19 19 16 21
REMARK H PARENT 9 10 19 20 16 22
REMARK Flexibility Score: inf
ROOT
ATOM      1  C   UNL     1       0.026 -26.218 -53.209  1.00  0.00     0.012 C 
ATOM      2  C   UNL     1      -0.475 -27.074 -52.306  1.00  0.00     0.053 C 
ENDROOT
BRANCH   1   3
ATOM      3  C   UNL     1       1.030 -25.175 -52.886  1.00  0.00    -0.025 A 
ATOM      4  C   UNL     1       2.294 -25.122 -53.508  1.00  0.00     0.012 A 
ATOM      5  C   UNL     1       3.212 -24.127 -53.159  1.00  0.00     0.047 A 
ATOM      6  C   UNL     1       2.886 -23.177 -52.182  1.00  0.00     0.115 A 
ATOM      7  C   UNL     1       0.721 -24.228 -51.895  1.00  0.00     0.012 A 
ATOM      8  C   UNL     1       1.642 -23.233 -51.551  1.00  0.00     0.047 A 
BRANCH   6   9
ATOM      9  O   UNL     1       3.793 -22.181 -51.829  1.00  0.00    -0.508 OA
ATOM     10  H   UNL     1       3.665 -21.617 -50.997  1.00  0.00     0.293 HD
ENDBRANCH   6   9
ENDBRANCH   1   3
BRANCH   2  11
ATOM     11  C   UNL     1      -1.464 -28.112 -52.668  1.00  0.00     0.189 C 
ATOM     12  O   UNL     1      -2.493 -27.798 -53.328  1.00  0.00    -0.289 OA
BRANCH  11  13
ATOM     13  C   UNL     1      -1.246 -29.534 -52.312  1.00  0.00     0.064 A 
ATOM     14  C   UNL     1      -2.315 -30.387 -51.959  1.00  0.00     0.130 A 
ATOM     15  C   UNL     1       0.060 -30.055 -52.349  1.00  0.00     0.020 A 
ATOM     16  C   UNL     1      -2.058 -31.722 -51.614  1.00  0.00     0.093 A 
ATOM     17  C   UNL     1       0.304 -31.388 -52.010  1.00  0.00     0.047 A 
ATOM     18  C   UNL     1      -0.751 -32.223 -51.638  1.00  0.00     0.119 A 
BRANCH  14  19
ATOM     19  O   UNL     1      -3.630 -29.921 -51.977  1.00  0.00    -0.507 OA
ATOM     20  H   UNL     1      -3.991 -29.320 -51.245  1.00  0.00     0.293 HD
ENDBRANCH  14  19
BRANCH  18  21
ATOM     21  O   UNL     1      -0.492 -33.549 -51.298  1.00  0.00    -0.508 OA
ATOM     22  H   UNL     1       0.077 -34.145 -51.887  1.00  0.00     0.293 HD
ENDBRANCH  18  21
ENDBRANCH  11  13
ENDBRANCH   2  11
TORSDOF 6
ENDMDL
MODEL 9
REMARK VINA RESULT:    -6.528      3.725      5.025
REMARK INTER + INTRA:          -8.986
REMARK INTER:                  -8.303
REMARK INTRA:                  -0.683
REMARK UNBOUND:                -0.741
REMARK SMILES O=C(C=Cc1ccc(O)cc1)c1ccc(O)cc1O
REMARK SMILES IDX 4 1 3 2 5 3 6 4 7 5 8 6 11 7 10 8 9 9 2 11 1 12 12 13 18 14
REMARK SMILES IDX 13 15 17 16 14 17 15 18 19 19 16 21
REMARK H PARENT 9 10 19 20 16 22
REMARK Flexibility Score: inf
ROOT
ATOM      1  C   UNL     1      -0.358 -28.470 -53.340  1.00  0.00     0.012 C 
ATOM      2  C   UNL     1      -0.439 -29.406 -52.383  1.00  0.00     0.053 C 
ENDROOT
BRANCH   1   3
ATOM      3  C   UNL     1       0.149 -27.095 -53.105  1.00  0.00    -0.025 A 
ATOM      4  C   UNL     1       1.160 -26.515 -53.896  1.00  0.00     0.012 A 
ATOM      5  C   UNL     1       1.614 -25.220 -53.627  1.00  0.00     0.047 A 
ATOM      6  C   UNL     1       1.071 -24.490 -52.561  1.00  0.00     0.115 A 
ATOM      7  C   UNL     1      -0.376 -26.360 -52.029  1.00  0.00     0.012 A 
ATOM      8  C   UNL     1       0.079 -25.065 -51.764  1.00  0.00     0.047 A 
BRANCH   6   9
ATOM      9  O   UNL     1       1.515 -23.199 -52.286  1.00  0.00    -0.508 OA
ATOM     10  H   UNL     1       2.295 -23.028 -51.662  1.00  0.00     0.293 HD
ENDBRANCH   6   9
ENDBRANCH   1   3
BRANCH   2  11
ATOM     11  C   UNL     1      -0.935 -30.772 -52.659  1.00  0.00     0.189 C 
ATOM     12  O   UNL     1      -0.210 -31.589 -53.291  1.00  0.00    -0.289 OA
BRANCH  11  13
ATOM     13  C   UNL     1      -2.256 -31.220 -52.161  1.00  0.00     0.064 A 
ATOM     14  C   UNL     1      -2.394 -32.346 -51.318  1.00  0.00     0.130 A 
ATOM     15  C   UNL     1      -3.404 -30.490 -52.518  1.00  0.00     0.020 A 
ATOM     16  C   UNL     1      -3.667 -32.741 -50.884  1.00  0.00     0.093 A 
ATOM     17  C   UNL     1      -4.668 -30.889 -52.075  1.00  0.00     0.047 A 
ATOM     18  C   UNL     1      -4.804 -32.016 -51.262  1.00  0.00     0.119 A 
BRANCH  14  19
ATOM     19  O   UNL     1      -1.269 -33.053 -50.890  1.00  0.00    -0.507 OA
ATOM     20  H   UNL     1      -0.347 -32.860 -51.262  1.00  0.00     0.293 HD
ENDBRANCH  14  19
BRANCH  18  21
ATOM     21  O   UNL     1      -6.070 -32.404 -50.831  1.00  0.00    -0.508 OA
ATOM     22  H   UNL     1      -6.230 -33.309 -50.403  1.00  0.00     0.293 HD
ENDBRANCH  18  21
ENDBRANCH  11  13
ENDBRANCH   2  11
TORSDOF 6
ENDMDL
