MODEL 1
REMARK VINA RESULT:    -2.474      0.000      0.000
REMARK INTER + INTRA:          -5.550
REMARK INTER:                  -3.921
REMARK INTRA:                  -1.630
REMARK UNBOUND:                -1.630
REMARK SMILES CCCCCCCCCCCC(=O)[O-]
REMARK SMILES IDX 7 1 8 2 9 3 10 4 11 5 12 6 13 7 14 8 6 9 5 10 4 11 3 12 2 13
REMARK SMILES IDX 1 14
REMARK H PARENT
REMARK Flexibility Score: inf
ROOT
ATOM      1  C   UNL     1       8.903 -18.078  17.986  1.00  0.00     0.000 C 
ENDROOT
BRANCH   1   2
ATOM      2  C   UNL     1       8.436 -16.741  18.584  1.00  0.00     0.000 C 
BRANCH   2   3
ATOM      3  C   UNL     1       9.224 -16.354  19.848  1.00  0.00     0.000 C 
BRANCH   3   4
ATOM      4  C   UNL     1      10.723 -16.692  19.740  1.00  0.00     0.006 C 
BRANCH   4   5
ATOM      5  C   UNL     1      11.299 -17.425  20.963  1.00  0.00     0.053 C 
BRANCH   5   6
ATOM      6  C   UNL     1      11.943 -18.724  20.589  1.00  0.00     0.041 C 
ATOM      7  O   UNL     1      11.930 -19.116  19.392  1.00  0.00    -0.550 OA
ATOM      8  O   UNL     1      12.526 -19.519  21.567  1.00  0.00    -0.550 OA
ENDBRANCH   5   6
ENDBRANCH   4   5
ENDBRANCH   3   4
ENDBRANCH   2   3
ENDBRANCH   1   2
BRANCH   1   9
ATOM      9  C   UNL     1       7.882 -19.209  18.202  1.00  0.00     0.000 C 
BRANCH   9  10
ATOM     10  C   UNL     1       8.413 -20.330  19.114  1.00  0.00    -0.000 C 
BRANCH  10  11
ATOM     11  C   UNL     1       7.748 -20.412  20.501  1.00  0.00    -0.000 C 
BRANCH  11  12
ATOM     12  C   UNL     1       8.499 -19.610  21.575  1.00  0.00    -0.000 C 
BRANCH  12  13
ATOM     13  C   UNL     1       7.537 -18.715  22.364  1.00  0.00    -0.003 C 
ATOM     14  C   UNL     1       6.414 -18.191  21.472  1.00  0.00     0.004 C 
ENDBRANCH  12  13
ENDBRANCH  11  12
ENDBRANCH  10  11
ENDBRANCH   9  10
ENDBRANCH   1   9
TORSDOF 10
ENDMDL
MODEL 2
REMARK VINA RESULT:    -2.471      2.632      4.934
REMARK INTER + INTRA:          -5.544
REMARK INTER:                  -4.209
REMARK INTRA:                  -1.336
REMARK UNBOUND:                -1.630
REMARK SMILES CCCCCCCCCCCC(=O)[O-]
REMARK SMILES IDX 7 1 8 2 9 3 10 4 11 5 12 6 13 7 14 8 6 9 5 10 4 11 3 12 2 13
REMARK SMILES IDX 1 14
REMARK H PARENT
REMARK Flexibility Score: inf
ROOT
ATOM      1  C   UNL     1      10.370 -17.771  21.490  1.00  0.00     0.000 C 
ENDROOT
BRANCH   1   2
ATOM      2  C   UNL     1      10.918 -17.555  20.070  1.00  0.00     0.000 C 
BRANCH   2   3
ATOM      3  C   UNL     1      11.402 -18.864  19.421  1.00  0.00     0.000 C 
BRANCH   3   4
ATOM      4  C   UNL     1      10.527 -19.296  18.229  1.00  0.00     0.006 C 
BRANCH   4   5
ATOM      5  C   UNL     1       9.161 -18.594  18.156  1.00  0.00     0.053 C 
BRANCH   5   6
ATOM      6  C   UNL     1       8.053 -19.467  18.658  1.00  0.00     0.041 C 
ATOM      7  O   UNL     1       8.293 -20.646  19.030  1.00  0.00    -0.550 OA
ATOM      8  O   UNL     1       6.749 -18.990  18.683  1.00  0.00    -0.550 OA
ENDBRANCH   5   6
ENDBRANCH   4   5
ENDBRANCH   3   4
ENDBRANCH   2   3
ENDBRANCH   1   2
BRANCH   1   9
ATOM      9  C   UNL     1      10.350 -19.256  21.893  1.00  0.00     0.000 C 
BRANCH   9  10
ATOM     10  C   UNL     1      11.300 -19.573  23.062  1.00  0.00    -0.000 C 
BRANCH  10  11
ATOM     11  C   UNL     1      12.570 -20.354  22.677  1.00  0.00    -0.000 C 
BRANCH  11  12
ATOM     12  C   UNL     1      13.864 -19.577  22.966  1.00  0.00    -0.000 C 
BRANCH  12  13
ATOM     13  C   UNL     1      14.049 -18.430  21.965  1.00  0.00    -0.003 C 
ATOM     14  C   UNL     1      14.016 -17.075  22.667  1.00  0.00     0.004 C 
ENDBRANCH  12  13
ENDBRANCH  11  12
ENDBRANCH  10  11
ENDBRANCH   9  10
ENDBRANCH   1   9
TORSDOF 10
ENDMDL
MODEL 3
REMARK VINA RESULT:    -2.454      1.571      3.196
REMARK INTER + INTRA:          -5.518
REMARK INTER:                  -4.242
REMARK INTRA:                  -1.277
REMARK UNBOUND:                -1.630
REMARK SMILES CCCCCCCCCCCC(=O)[O-]
REMARK SMILES IDX 7 1 8 2 9 3 10 4 11 5 12 6 13 7 14 8 6 9 5 10 4 11 3 12 2 13
REMARK SMILES IDX 1 14
REMARK H PARENT
REMARK Flexibility Score: inf
ROOT
ATOM      1  C   UNL     1       9.569 -16.728  20.613  1.00  0.00     0.000 C 
ENDROOT
BRANCH   1   2
ATOM      2  C   UNL     1      11.046 -16.593  21.018  1.00  0.00     0.000 C 
BRANCH   2   3
ATOM      3  C   UNL     1      11.989 -17.347  20.064  1.00  0.00     0.000 C 
BRANCH   3   4
ATOM      4  C   UNL     1      11.943 -18.873  20.266  1.00  0.00     0.006 C 
BRANCH   4   5
ATOM      5  C   UNL     1      11.739 -19.315  21.724  1.00  0.00     0.053 C 
BRANCH   5   6
ATOM      6  C   UNL     1      13.025 -19.735  22.368  1.00  0.00     0.041 C 
ATOM      7  O   UNL     1      13.079 -20.800  23.037  1.00  0.00    -0.550 OA
ATOM      8  O   UNL     1      14.152 -18.932  22.259  1.00  0.00    -0.550 OA
ENDBRANCH   5   6
ENDBRANCH   4   5
ENDBRANCH   3   4
ENDBRANCH   2   3
ENDBRANCH   1   2
BRANCH   1   9
ATOM      9  C   UNL     1       9.219 -15.888  19.372  1.00  0.00     0.000 C 
BRANCH   9  10
ATOM     10  C   UNL     1       8.428 -16.680  18.315  1.00  0.00    -0.000 C 
BRANCH  10  11
ATOM     11  C   UNL     1       8.967 -18.092  18.020  1.00  0.00    -0.000 C 
BRANCH  11  12
ATOM     12  C   UNL     1       7.892 -19.183  18.150  1.00  0.00    -0.000 C 
BRANCH  12  13
ATOM     13  C   UNL     1       8.388 -20.339  19.026  1.00  0.00    -0.003 C 
ATOM     14  C   UNL     1       8.107 -20.072  20.502  1.00  0.00     0.004 C 
ENDBRANCH  12  13
ENDBRANCH  11  12
ENDBRANCH  10  11
ENDBRANCH   9  10
ENDBRANCH   1   9
TORSDOF 10
ENDMDL
MODEL 4
REMARK VINA RESULT:    -2.443      2.354      4.423
REMARK INTER + INTRA:          -5.501
REMARK INTER:                  -3.954
REMARK INTRA:                  -1.547
REMARK UNBOUND:                -1.630
REMARK SMILES CCCCCCCCCCCC(=O)[O-]
REMARK SMILES IDX 7 1 8 2 9 3 10 4 11 5 12 6 13 7 14 8 6 9 5 10 4 11 3 12 2 13
REMARK SMILES IDX 1 14
REMARK H PARENT
REMARK Flexibility Score: inf
ROOT
ATOM      1  C   UNL     1      11.445 -18.839  19.333  1.00  0.00     0.000 C 
ENDROOT
BRANCH   1   2
ATOM      2  C   UNL     1      10.445 -19.450  18.337  1.00  0.00     0.000 C 
BRANCH   2   3
ATOM      3  C   UNL     1       9.273 -18.504  18.025  1.00  0.00     0.000 C 
BRANCH   3   4
ATOM      4  C   UNL     1       7.904 -19.117  18.377  1.00  0.00     0.006 C 
BRANCH   4   5
ATOM      5  C   UNL     1       7.346 -18.684  19.742  1.00  0.00     0.053 C 
BRANCH   5   6
ATOM      6  C   UNL     1       7.128 -19.850  20.656  1.00  0.00     0.041 C 
ATOM      7  O   UNL     1       6.144 -19.865  21.440  1.00  0.00    -0.550 OA
ATOM      8  O   UNL     1       8.033 -20.904  20.667  1.00  0.00    -0.550 OA
ENDBRANCH   5   6
ENDBRANCH   4   5
ENDBRANCH   3   4
ENDBRANCH   2   3
ENDBRANCH   1   2
BRANCH   1   9
ATOM      9  C   UNL     1      10.931 -18.881  20.783  1.00  0.00     0.000 C 
BRANCH   9  10
ATOM     10  C   UNL     1      10.645 -17.482  21.359  1.00  0.00    -0.000 C 
BRANCH  10  11
ATOM     11  C   UNL     1      11.494 -16.345  20.762  1.00  0.00    -0.000 C 
BRANCH  11  12
ATOM     12  C   UNL     1      10.666 -15.346  19.938  1.00  0.00    -0.000 C 
BRANCH  12  13
ATOM     13  C   UNL     1       9.243 -15.223  20.494  1.00  0.00    -0.003 C 
ATOM     14  C   UNL     1       8.213 -15.185  19.369  1.00  0.00     0.004 C 
ENDBRANCH  12  13
ENDBRANCH  11  12
ENDBRANCH  10  11
ENDBRANCH   9  10
ENDBRANCH   1   9
TORSDOF 10
ENDMDL
MODEL 5
REMARK VINA RESULT:    -2.403      2.744      3.778
REMARK INTER + INTRA:          -5.437
REMARK INTER:                  -4.039
REMARK INTRA:                  -1.398
REMARK UNBOUND:                -1.630
REMARK SMILES CCCCCCCCCCCC(=O)[O-]
REMARK SMILES IDX 7 1 8 2 9 3 10 4 11 5 12 6 13 7 14 8 6 9 5 10 4 11 3 12 2 13
REMARK SMILES IDX 1 14
REMARK H PARENT
REMARK Flexibility Score: inf
ROOT
ATOM      1  C   UNL     1      10.969 -18.847  20.728  1.00  0.00     0.000 C 
ENDROOT
BRANCH   1   2
ATOM      2  C   UNL     1      11.071 -17.450  21.362  1.00  0.00     0.000 C 
BRANCH   2   3
ATOM      3  C   UNL     1       9.852 -16.568  21.039  1.00  0.00     0.000 C 
BRANCH   3   4
ATOM      4  C   UNL     1      10.125 -15.571  19.897  1.00  0.00     0.006 C 
BRANCH   4   5
ATOM      5  C   UNL     1      11.599 -15.158  19.753  1.00  0.00     0.053 C 
BRANCH   5   6
ATOM      6  C   UNL     1      11.799 -13.694  19.999  1.00  0.00     0.041 C 
ATOM      7  O   UNL     1      10.808 -12.922  20.068  1.00  0.00    -0.550 OA
ATOM      8  O   UNL     1      13.084 -13.179  20.118  1.00  0.00    -0.550 OA
ENDBRANCH   5   6
ENDBRANCH   4   5
ENDBRANCH   3   4
ENDBRANCH   2   3
ENDBRANCH   1   2
BRANCH   1   9
ATOM      9  C   UNL     1      11.558 -18.892  19.307  1.00  0.00     0.000 C 
BRANCH   9  10
ATOM     10  C   UNL     1      10.580 -19.477  18.271  1.00  0.00    -0.000 C 
BRANCH  10  11
ATOM     11  C   UNL     1       9.267 -18.692  18.097  1.00  0.00    -0.000 C 
BRANCH  11  12
ATOM     12  C   UNL     1       8.021 -19.524  18.442  1.00  0.00    -0.000 C 
BRANCH  12  13
ATOM     13  C   UNL     1       7.313 -18.964  19.680  1.00  0.00    -0.003 C 
ATOM     14  C   UNL     1       7.383 -19.946  20.847  1.00  0.00     0.004 C 
ENDBRANCH  12  13
ENDBRANCH  11  12
ENDBRANCH  10  11
ENDBRANCH   9  10
ENDBRANCH   1   9
TORSDOF 10
ENDMDL
MODEL 6
REMARK VINA RESULT:    -2.395      2.034      4.351
REMARK INTER + INTRA:          -5.425
REMARK INTER:                  -4.116
REMARK INTRA:                  -1.308
REMARK UNBOUND:                -1.630
REMARK SMILES CCCCCCCCCCCC(=O)[O-]
REMARK SMILES IDX 7 1 8 2 9 3 10 4 11 5 12 6 13 7 14 8 6 9 5 10 4 11 3 12 2 13
REMARK SMILES IDX 1 14
REMARK H PARENT
REMARK Flexibility Score: inf
ROOT
ATOM      1  C   UNL     1       8.962 -15.895  19.475  1.00  0.00     0.000 C 
ENDROOT
BRANCH   1   2
ATOM      2  C   UNL     1       7.756 -16.472  18.716  1.00  0.00     0.000 C 
BRANCH   2   3
ATOM      3  C   UNL     1       8.125 -17.706  17.875  1.00  0.00     0.000 C 
BRANCH   3   4
ATOM      4  C   UNL     1       7.467 -18.999  18.394  1.00  0.00     0.006 C 
BRANCH   4   5
ATOM      5  C   UNL     1       8.400 -19.902  19.216  1.00  0.00     0.053 C 
BRANCH   5   6
ATOM      6  C   UNL     1       7.953 -20.024  20.640  1.00  0.00     0.041 C 
ATOM      7  O   UNL     1       8.800 -20.180  21.559  1.00  0.00    -0.550 OA
ATOM      8  O   UNL     1       6.599 -20.000  20.949  1.00  0.00    -0.550 OA
ENDBRANCH   5   6
ENDBRANCH   4   5
ENDBRANCH   3   4
ENDBRANCH   2   3
ENDBRANCH   1   2
BRANCH   1   9
ATOM      9  C   UNL     1       9.125 -16.509  20.877  1.00  0.00     0.000 C 
BRANCH   9  10
ATOM     10  C   UNL     1      10.503 -17.160  21.090  1.00  0.00    -0.000 C 
BRANCH  10  11
ATOM     11  C   UNL     1      11.190 -17.669  19.809  1.00  0.00    -0.000 C 
BRANCH  11  12
ATOM     12  C   UNL     1      12.081 -18.896  20.053  1.00  0.00    -0.000 C 
BRANCH  12  13
ATOM     13  C   UNL     1      12.252 -19.161  21.553  1.00  0.00    -0.003 C 
ATOM     14  C   UNL     1      13.671 -18.839  22.012  1.00  0.00     0.004 C 
ENDBRANCH  12  13
ENDBRANCH  11  12
ENDBRANCH  10  11
ENDBRANCH   9  10
ENDBRANCH   1   9
TORSDOF 10
ENDMDL
MODEL 7
REMARK VINA RESULT:    -2.384      1.527      3.398
REMARK INTER + INTRA:          -5.407
REMARK INTER:                  -3.978
REMARK INTRA:                  -1.428
REMARK UNBOUND:                -1.630
REMARK SMILES CCCCCCCCCCCC(=O)[O-]
REMARK SMILES IDX 7 1 8 2 9 3 10 4 11 5 12 6 13 7 14 8 6 9 5 10 4 11 3 12 2 13
REMARK SMILES IDX 1 14
REMARK H PARENT
REMARK Flexibility Score: inf
ROOT
ATOM      1  C   UNL     1       8.073 -19.101  21.833  1.00  0.00     0.000 C 
ENDROOT
BRANCH   1   2
ATOM      2  C   UNL     1       9.473 -19.733  21.905  1.00  0.00     0.000 C 
BRANCH   2   3
ATOM      3  C   UNL     1      10.595 -18.681  21.877  1.00  0.00     0.000 C 
BRANCH   3   4
ATOM      4  C   UNL     1      11.651 -18.967  20.793  1.00  0.00     0.006 C 
BRANCH   4   5
ATOM      5  C   UNL     1      13.045 -18.394  21.096  1.00  0.00     0.053 C 
BRANCH   5   6
ATOM      6  C   UNL     1      13.045 -16.897  21.120  1.00  0.00     0.041 C 
ATOM      7  O   UNL     1      13.260 -16.280  22.197  1.00  0.00    -0.550 OA
ATOM      8  O   UNL     1      12.772 -16.183  19.960  1.00  0.00    -0.550 OA
ENDBRANCH   5   6
ENDBRANCH   4   5
ENDBRANCH   3   4
ENDBRANCH   2   3
ENDBRANCH   1   2
BRANCH   1   9
ATOM      9  C   UNL     1       7.235 -19.656  20.668  1.00  0.00     0.000 C 
BRANCH   9  10
ATOM     10  C   UNL     1       8.098 -20.206  19.518  1.00  0.00    -0.000 C 
BRANCH  10  11
ATOM     11  C   UNL     1       8.030 -19.400  18.208  1.00  0.00    -0.000 C 
BRANCH  11  12
ATOM     12  C   UNL     1       9.164 -18.370  18.078  1.00  0.00    -0.000 C 
BRANCH  12  13
ATOM     13  C   UNL     1       8.628 -16.942  18.229  1.00  0.00    -0.003 C 
ATOM     14  C   UNL     1       9.275 -16.233  19.415  1.00  0.00     0.004 C 
ENDBRANCH  12  13
ENDBRANCH  11  12
ENDBRANCH  10  11
ENDBRANCH   9  10
ENDBRANCH   1   9
TORSDOF 10
ENDMDL
MODEL 8
REMARK VINA RESULT:    -2.378      2.749      3.905
REMARK INTER + INTRA:          -5.397
REMARK INTER:                  -3.844
REMARK INTRA:                  -1.553
REMARK UNBOUND:                -1.630
REMARK SMILES CCCCCCCCCCCC(=O)[O-]
REMARK SMILES IDX 7 1 8 2 9 3 10 4 11 5 12 6 13 7 14 8 6 9 5 10 4 11 3 12 2 13
REMARK SMILES IDX 1 14
REMARK H PARENT
REMARK Flexibility Score: inf
ROOT
ATOM      1  C   UNL     1      11.111 -18.829  20.812  1.00  0.00     0.000 C 
ENDROOT
BRANCH   1   2
ATOM      2  C   UNL     1      10.857 -17.411  21.348  1.00  0.00     0.000 C 
BRANCH   2   3
ATOM      3  C   UNL     1      11.246 -16.321  20.335  1.00  0.00     0.000 C 
BRANCH   3   4
ATOM      4  C   UNL     1      10.041 -15.475  19.881  1.00  0.00     0.006 C 
BRANCH   4   5
ATOM      5  C   UNL     1       8.731 -15.785  20.623  1.00  0.00     0.053 C 
BRANCH   5   6
ATOM      6  C   UNL     1       7.544 -15.744  19.711  1.00  0.00     0.041 C 
ATOM      7  O   UNL     1       7.662 -15.302  18.538  1.00  0.00    -0.550 OA
ATOM      8  O   UNL     1       6.301 -16.162  20.168  1.00  0.00    -0.550 OA
ENDBRANCH   5   6
ENDBRANCH   4   5
ENDBRANCH   3   4
ENDBRANCH   2   3
ENDBRANCH   1   2
BRANCH   1   9
ATOM      9  C   UNL     1      11.611 -18.827  19.356  1.00  0.00     0.000 C 
BRANCH   9  10
ATOM     10  C   UNL     1      10.604 -19.455  18.376  1.00  0.00    -0.000 C 
BRANCH  10  11
ATOM     11  C   UNL     1       9.250 -18.727  18.275  1.00  0.00    -0.000 C 
BRANCH  11  12
ATOM     12  C   UNL     1       8.053 -19.646  18.562  1.00  0.00    -0.000 C 
BRANCH  12  13
ATOM     13  C   UNL     1       7.572 -19.485  20.009  1.00  0.00    -0.003 C 
ATOM     14  C   UNL     1       7.876 -20.733  20.833  1.00  0.00     0.004 C 
ENDBRANCH  12  13
ENDBRANCH  11  12
ENDBRANCH  10  11
ENDBRANCH   9  10
ENDBRANCH   1   9
TORSDOF 10
ENDMDL
MODEL 9
REMARK VINA RESULT:    -2.351      1.536      2.440
REMARK INTER + INTRA:          -5.355
REMARK INTER:                  -4.104
REMARK INTRA:                  -1.252
REMARK UNBOUND:                -1.630
REMARK SMILES CCCCCCCCCCCC(=O)[O-]
REMARK SMILES IDX 7 1 8 2 9 3 10 4 11 5 12 6 13 7 14 8 6 9 5 10 4 11 3 12 2 13
REMARK SMILES IDX 1 14
REMARK H PARENT
REMARK Flexibility Score: inf
ROOT
ATOM      1  C   UNL     1       8.668 -16.283  19.241  1.00  0.00     0.000 C 
ENDROOT
BRANCH   1   2
ATOM      2  C   UNL     1      10.137 -16.373  19.688  1.00  0.00     0.000 C 
BRANCH   2   3
ATOM      3  C   UNL     1      10.442 -17.676  20.447  1.00  0.00     0.000 C 
BRANCH   3   4
ATOM      4  C   UNL     1      11.767 -18.325  20.005  1.00  0.00     0.006 C 
BRANCH   4   5
ATOM      5  C   UNL     1      12.717 -18.680  21.161  1.00  0.00     0.053 C 
BRANCH   5   6
ATOM      6  C   UNL     1      13.751 -17.620  21.385  1.00  0.00     0.041 C 
ATOM      7  O   UNL     1      14.773 -17.868  22.078  1.00  0.00    -0.550 OA
ATOM      8  O   UNL     1      13.569 -16.348  20.858  1.00  0.00    -0.550 OA
ENDBRANCH   5   6
ENDBRANCH   4   5
ENDBRANCH   3   4
ENDBRANCH   2   3
ENDBRANCH   1   2
BRANCH   1   9
ATOM      9  C   UNL     1       8.419 -16.983  17.894  1.00  0.00     0.000 C 
BRANCH   9  10
ATOM     10  C   UNL     1       7.517 -18.224  18.021  1.00  0.00    -0.000 C 
BRANCH  10  11
ATOM     11  C   UNL     1       8.264 -19.557  18.209  1.00  0.00    -0.000 C 
BRANCH  11  12
ATOM     12  C   UNL     1       7.982 -20.216  19.568  1.00  0.00    -0.000 C 
BRANCH  12  13
ATOM     13  C   UNL     1       6.915 -19.436  20.345  1.00  0.00    -0.003 C 
ATOM     14  C   UNL     1       7.374 -19.146  21.772  1.00  0.00     0.004 C 
ENDBRANCH  12  13
ENDBRANCH  11  12
ENDBRANCH  10  11
ENDBRANCH   9  10
ENDBRANCH   1   9
TORSDOF 10
ENDMDL
