MODEL 1
REMARK VINA RESULT:    -5.194      0.000      0.000
REMARK INTER + INTRA:          -6.001
REMARK INTER:                  -5.953
REMARK INTRA:                  -0.048
REMARK UNBOUND:                -0.048
REMARK SMILES O=C([O-])c1cc(O)c(O)c(O)c1
REMARK SMILES IDX 4 1 5 2 12 3 6 4 10 5 8 6 2 7 1 8 3 9 7 10 11 12 9 14
REMARK H PARENT 7 11 11 13 9 15
REMARK Flexibility Score: inf
ROOT
ATOM      1  C   UNL     1     166.978 154.031 151.062  1.00  0.00     0.005 A 
ATOM      2  C   UNL     1     168.246 153.456 151.238  1.00  0.00     0.060 A 
ATOM      3  C   UNL     1     166.570 154.396 149.769  1.00  0.00     0.060 A 
ATOM      4  C   UNL     1     169.101 153.246 150.150  1.00  0.00     0.162 A 
ATOM      5  C   UNL     1     167.415 154.190 148.671  1.00  0.00     0.162 A 
ATOM      6  C   UNL     1     168.682 153.617 148.849  1.00  0.00     0.200 A 
ENDROOT
BRANCH   1   7
ATOM      7  C   UNL     1     166.087 154.246 152.224  1.00  0.00     0.072 C 
ATOM      8  O   UNL     1     164.874 153.907 152.173  1.00  0.00    -0.545 OA
ATOM      9  O   UNL     1     166.575 154.826 153.389  1.00  0.00    -0.545 OA
ENDBRANCH   1   7
BRANCH   4  10
ATOM     10  O   UNL     1     170.348 152.670 150.404  1.00  0.00    -0.504 OA
ATOM     11  H   UNL     1     171.207 152.960 149.960  1.00  0.00     0.293 HD
ENDBRANCH   4  10
BRANCH   5  12
ATOM     12  O   UNL     1     167.001 154.556 147.392  1.00  0.00    -0.504 OA
ATOM     13  H   UNL     1     166.167 154.164 146.970  1.00  0.00     0.293 HD
ENDBRANCH   5  12
BRANCH   6  14
ATOM     14  O   UNL     1     169.484 153.435 147.721  1.00  0.00    -0.502 OA
ATOM     15  H   UNL     1     170.492 153.380 147.746  1.00  0.00     0.293 HD
ENDBRANCH   6  14
TORSDOF 4
ENDMDL
MODEL 2
REMARK VINA RESULT:    -5.162      0.132      2.439
REMARK INTER + INTRA:          -5.965
REMARK INTER:                  -5.915
REMARK INTRA:                  -0.050
REMARK UNBOUND:                -0.048
REMARK SMILES O=C([O-])c1cc(O)c(O)c(O)c1
REMARK SMILES IDX 4 1 5 2 12 3 6 4 10 5 8 6 2 7 1 8 3 9 7 10 11 12 9 14
REMARK H PARENT 7 11 11 13 9 15
REMARK Flexibility Score: inf
ROOT
ATOM      1  C   UNL     1     166.998 154.091 151.046  1.00  0.00     0.005 A 
ATOM      2  C   UNL     1     166.586 154.437 149.750  1.00  0.00     0.060 A 
ATOM      3  C   UNL     1     168.259 153.501 151.224  1.00  0.00     0.060 A 
ATOM      4  C   UNL     1     167.410 154.202 148.644  1.00  0.00     0.162 A 
ATOM      5  C   UNL     1     169.095 153.260 150.126  1.00  0.00     0.162 A 
ATOM      6  C   UNL     1     168.681 153.606 148.832  1.00  0.00     0.200 A 
ENDROOT
BRANCH   1   7
ATOM      7  C   UNL     1     166.114 154.347 152.205  1.00  0.00     0.072 C 
ATOM      8  O   UNL     1     164.862 154.257 152.088  1.00  0.00    -0.545 OA
ATOM      9  O   UNL     1     166.652 154.690 153.440  1.00  0.00    -0.545 OA
ENDBRANCH   1   7
BRANCH   4  10
ATOM     10  O   UNL     1     166.931 154.573 147.385  1.00  0.00    -0.504 OA
ATOM     11  H   UNL     1     167.521 154.756 146.586  1.00  0.00     0.293 HD
ENDBRANCH   4  10
BRANCH   5  12
ATOM     12  O   UNL     1     170.345 152.674 150.313  1.00  0.00    -0.504 OA
ATOM     13  H   UNL     1     170.724 152.005 149.651  1.00  0.00     0.293 HD
ENDBRANCH   5  12
BRANCH   6  14
ATOM     14  O   UNL     1     169.552 153.344 147.772  1.00  0.00    -0.502 OA
ATOM     15  H   UNL     1     169.271 153.313 146.803  1.00  0.00     0.293 HD
ENDBRANCH   6  14
TORSDOF 4
ENDMDL
MODEL 3
REMARK VINA RESULT:    -5.054      2.784      4.339
REMARK INTER + INTRA:          -5.841
REMARK INTER:                  -5.792
REMARK INTRA:                  -0.049
REMARK UNBOUND:                -0.048
REMARK SMILES O=C([O-])c1cc(O)c(O)c(O)c1
REMARK SMILES IDX 4 1 5 2 12 3 6 4 10 5 8 6 2 7 1 8 3 9 7 10 11 12 9 14
REMARK H PARENT 7 11 11 13 9 15
REMARK Flexibility Score: inf
ROOT
ATOM      1  C   UNL     1     165.875 152.849 152.691  1.00  0.00     0.005 A 
ATOM      2  C   UNL     1     166.410 152.823 151.394  1.00  0.00     0.060 A 
ATOM      3  C   UNL     1     164.720 152.101 152.966  1.00  0.00     0.060 A 
ATOM      4  C   UNL     1     165.810 152.067 150.381  1.00  0.00     0.162 A 
ATOM      5  C   UNL     1     164.109 151.339 151.961  1.00  0.00     0.162 A 
ATOM      6  C   UNL     1     164.644 151.315 150.666  1.00  0.00     0.200 A 
ENDROOT
BRANCH   1   7
ATOM      7  C   UNL     1     166.523 153.655 153.751  1.00  0.00     0.072 C 
ATOM      8  O   UNL     1     166.968 154.806 153.498  1.00  0.00    -0.545 OA
ATOM      9  O   UNL     1     166.648 153.152 155.041  1.00  0.00    -0.545 OA
ENDBRANCH   1   7
BRANCH   4  10
ATOM     10  O   UNL     1     166.399 152.091 149.115  1.00  0.00    -0.504 OA
ATOM     11  H   UNL     1     166.236 152.811 148.427  1.00  0.00     0.293 HD
ENDBRANCH   4  10
BRANCH   5  12
ATOM     12  O   UNL     1     162.962 150.599 152.244  1.00  0.00    -0.504 OA
ATOM     13  H   UNL     1     163.011 149.621 152.507  1.00  0.00     0.293 HD
ENDBRANCH   5  12
BRANCH   6  14
ATOM     14  O   UNL     1     163.996 150.539 149.702  1.00  0.00    -0.502 OA
ATOM     15  H   UNL     1     163.031 150.662 149.431  1.00  0.00     0.293 HD
ENDBRANCH   6  14
TORSDOF 4
ENDMDL
MODEL 4
REMARK VINA RESULT:    -5.043      2.776      4.294
REMARK INTER + INTRA:          -5.828
REMARK INTER:                  -5.781
REMARK INTRA:                  -0.047
REMARK UNBOUND:                -0.048
REMARK SMILES O=C([O-])c1cc(O)c(O)c(O)c1
REMARK SMILES IDX 4 1 5 2 12 3 6 4 10 5 8 6 2 7 1 8 3 9 7 10 11 12 9 14
REMARK H PARENT 7 11 11 13 9 15
REMARK Flexibility Score: inf
ROOT
ATOM      1  C   UNL     1     165.882 152.819 152.710  1.00  0.00     0.005 A 
ATOM      2  C   UNL     1     164.697 152.103 152.938  1.00  0.00     0.060 A 
ATOM      3  C   UNL     1     166.452 152.799 151.428  1.00  0.00     0.060 A 
ATOM      4  C   UNL     1     164.084 151.376 151.912  1.00  0.00     0.162 A 
ATOM      5  C   UNL     1     165.849 152.076 150.390  1.00  0.00     0.162 A 
ATOM      6  C   UNL     1     164.666 151.361 150.621  1.00  0.00     0.200 A 
ENDROOT
BRANCH   1   7
ATOM      7  C   UNL     1     166.518 153.582 153.807  1.00  0.00     0.072 C 
ATOM      8  O   UNL     1     166.769 153.029 154.911  1.00  0.00    -0.545 OA
ATOM      9  O   UNL     1     166.847 154.922 153.635  1.00  0.00    -0.545 OA
ENDBRANCH   1   7
BRANCH   4  10
ATOM     10  O   UNL     1     162.906 150.688 152.215  1.00  0.00    -0.504 OA
ATOM     11  H   UNL     1     162.846 149.936 152.886  1.00  0.00     0.293 HD
ENDBRANCH   4  10
BRANCH   5  12
ATOM     12  O   UNL     1     166.423 152.063 149.121  1.00  0.00    -0.504 OA
ATOM     13  H   UNL     1     166.987 152.835 148.783  1.00  0.00     0.293 HD
ENDBRANCH   5  12
BRANCH   6  14
ATOM     14  O   UNL     1     164.105 150.657 149.552  1.00  0.00    -0.502 OA
ATOM     15  H   UNL     1     163.314 150.981 149.014  1.00  0.00     0.293 HD
ENDBRANCH   6  14
TORSDOF 4
ENDMDL
MODEL 5
REMARK VINA RESULT:    -5.036      4.007      4.693
REMARK INTER + INTRA:          -5.820
REMARK INTER:                  -5.772
REMARK INTRA:                  -0.047
REMARK UNBOUND:                -0.048
REMARK SMILES O=C([O-])c1cc(O)c(O)c(O)c1
REMARK SMILES IDX 4 1 5 2 12 3 6 4 10 5 8 6 2 7 1 8 3 9 7 10 11 12 9 14
REMARK H PARENT 7 11 11 13 9 15
REMARK Flexibility Score: inf
ROOT
ATOM      1  C   UNL     1     164.069 150.960 149.486  1.00  0.00     0.005 A 
ATOM      2  C   UNL     1     165.242 151.723 149.592  1.00  0.00     0.060 A 
ATOM      3  C   UNL     1     163.384 150.934 148.262  1.00  0.00     0.060 A 
ATOM      4  C   UNL     1     165.730 152.452 148.502  1.00  0.00     0.162 A 
ATOM      5  C   UNL     1     163.861 151.658 147.161  1.00  0.00     0.162 A 
ATOM      6  C   UNL     1     165.032 152.420 147.270  1.00  0.00     0.200 A 
ENDROOT
BRANCH   1   7
ATOM      7  C   UNL     1     163.567 150.196 150.650  1.00  0.00     0.072 C 
ATOM      8  O   UNL     1     163.397 150.761 151.763  1.00  0.00    -0.545 OA
ATOM      9  O   UNL     1     163.274 148.842 150.530  1.00  0.00    -0.545 OA
ENDBRANCH   1   7
BRANCH   4  10
ATOM     10  O   UNL     1     166.903 153.189 148.684  1.00  0.00    -0.504 OA
ATOM     11  H   UNL     1     167.323 153.772 147.974  1.00  0.00     0.293 HD
ENDBRANCH   4  10
BRANCH   5  12
ATOM     12  O   UNL     1     163.173 151.625 145.950  1.00  0.00    -0.504 OA
ATOM     13  H   UNL     1     162.388 152.241 145.767  1.00  0.00     0.293 HD
ENDBRANCH   5  12
BRANCH   6  14
ATOM     14  O   UNL     1     165.465 153.123 146.143  1.00  0.00    -0.502 OA
ATOM     15  H   UNL     1     166.344 153.617 146.087  1.00  0.00     0.293 HD
ENDBRANCH   6  14
TORSDOF 4
ENDMDL
MODEL 6
REMARK VINA RESULT:    -4.999      3.972      5.073
REMARK INTER + INTRA:          -5.778
REMARK INTER:                  -5.730
REMARK INTRA:                  -0.047
REMARK UNBOUND:                -0.048
REMARK SMILES O=C([O-])c1cc(O)c(O)c(O)c1
REMARK SMILES IDX 4 1 5 2 12 3 6 4 10 5 8 6 2 7 1 8 3 9 7 10 11 12 9 14
REMARK H PARENT 7 11 11 13 9 15
REMARK Flexibility Score: inf
ROOT
ATOM      1  C   UNL     1     164.108 150.890 149.567  1.00  0.00     0.005 A 
ATOM      2  C   UNL     1     163.537 150.909 148.285  1.00  0.00     0.060 A 
ATOM      3  C   UNL     1     165.239 151.682 149.819  1.00  0.00     0.060 A 
ATOM      4  C   UNL     1     164.077 151.701 147.266  1.00  0.00     0.162 A 
ATOM      5  C   UNL     1     165.791 152.480 148.808  1.00  0.00     0.162 A 
ATOM      6  C   UNL     1     165.218 152.497 147.529  1.00  0.00     0.200 A 
ENDROOT
BRANCH   1   7
ATOM      7  C   UNL     1     163.524 150.046 150.633  1.00  0.00     0.072 C 
ATOM      8  O   UNL     1     163.246 150.538 151.759  1.00  0.00    -0.545 OA
ATOM      9  O   UNL     1     163.272 148.698 150.407  1.00  0.00    -0.545 OA
ENDBRANCH   1   7
BRANCH   4  10
ATOM     10  O   UNL     1     163.454 151.668 146.016  1.00  0.00    -0.504 OA
ATOM     11  H   UNL     1     162.493 151.933 145.855  1.00  0.00     0.293 HD
ENDBRANCH   4  10
BRANCH   5  12
ATOM     12  O   UNL     1     166.914 153.262 149.069  1.00  0.00    -0.504 OA
ATOM     13  H   UNL     1     167.031 153.748 149.951  1.00  0.00     0.293 HD
ENDBRANCH   5  12
BRANCH   6  14
ATOM     14  O   UNL     1     165.807 153.310 146.557  1.00  0.00    -0.502 OA
ATOM     15  H   UNL     1     166.422 154.084 146.764  1.00  0.00     0.293 HD
ENDBRANCH   6  14
TORSDOF 4
ENDMDL
MODEL 7
REMARK VINA RESULT:    -4.975      2.704      3.520
REMARK INTER + INTRA:          -5.750
REMARK INTER:                  -5.698
REMARK INTRA:                  -0.052
REMARK UNBOUND:                -0.048
REMARK SMILES O=C([O-])c1cc(O)c(O)c(O)c1
REMARK SMILES IDX 4 1 5 2 12 3 6 4 10 5 8 6 2 7 1 8 3 9 7 10 11 12 9 14
REMARK H PARENT 7 11 11 13 9 15
REMARK Flexibility Score: inf
ROOT
ATOM      1  C   UNL     1     165.571 152.480 150.070  1.00  0.00     0.005 A 
ATOM      2  C   UNL     1     166.343 153.421 149.373  1.00  0.00     0.060 A 
ATOM      3  C   UNL     1     164.692 151.655 149.351  1.00  0.00     0.060 A 
ATOM      4  C   UNL     1     166.248 153.546 147.982  1.00  0.00     0.162 A 
ATOM      5  C   UNL     1     164.586 151.768 147.958  1.00  0.00     0.162 A 
ATOM      6  C   UNL     1     165.358 152.710 147.264  1.00  0.00     0.200 A 
ENDROOT
BRANCH   1   7
ATOM      7  C   UNL     1     165.684 152.362 151.541  1.00  0.00     0.072 C 
ATOM      8  O   UNL     1     164.840 151.695 152.197  1.00  0.00    -0.545 OA
ATOM      9  O   UNL     1     166.725 152.984 152.220  1.00  0.00    -0.545 OA
ENDBRANCH   1   7
BRANCH   4  10
ATOM     10  O   UNL     1     167.048 154.506 147.358  1.00  0.00    -0.504 OA
ATOM     11  H   UNL     1     167.408 154.420 146.419  1.00  0.00     0.293 HD
ENDBRANCH   4  10
BRANCH   5  12
ATOM     12  O   UNL     1     163.711 150.945 147.253  1.00  0.00    -0.504 OA
ATOM     13  H   UNL     1     163.842 149.940 147.211  1.00  0.00     0.293 HD
ENDBRANCH   5  12
BRANCH   6  14
ATOM     14  O   UNL     1     165.215 152.782 145.877  1.00  0.00    -0.502 OA
ATOM     15  H   UNL     1     165.928 153.127 145.251  1.00  0.00     0.293 HD
ENDBRANCH   6  14
TORSDOF 4
ENDMDL
MODEL 8
REMARK VINA RESULT:    -4.966      2.953      4.889
REMARK INTER + INTRA:          -5.740
REMARK INTER:                  -5.689
REMARK INTRA:                  -0.051
REMARK UNBOUND:                -0.048
REMARK SMILES O=C([O-])c1cc(O)c(O)c(O)c1
REMARK SMILES IDX 4 1 5 2 12 3 6 4 10 5 8 6 2 7 1 8 3 9 7 10 11 12 9 14
REMARK H PARENT 7 11 11 13 9 15
REMARK Flexibility Score: inf
ROOT
ATOM      1  C   UNL     1     164.788 151.618 151.469  1.00  0.00     0.005 A 
ATOM      2  C   UNL     1     165.850 152.262 150.816  1.00  0.00     0.060 A 
ATOM      3  C   UNL     1     164.623 151.809 152.850  1.00  0.00     0.060 A 
ATOM      4  C   UNL     1     166.739 153.083 151.519  1.00  0.00     0.162 A 
ATOM      5  C   UNL     1     165.504 152.629 153.567  1.00  0.00     0.162 A 
ATOM      6  C   UNL     1     166.565 153.270 152.912  1.00  0.00     0.200 A 
ENDROOT
BRANCH   1   7
ATOM      7  C   UNL     1     163.857 150.753 150.710  1.00  0.00     0.072 C 
ATOM      8  O   UNL     1     163.242 149.816 151.284  1.00  0.00    -0.545 OA
ATOM      9  O   UNL     1     163.649 150.964 149.351  1.00  0.00    -0.545 OA
ENDBRANCH   1   7
BRANCH   4  10
ATOM     10  O   UNL     1     167.772 153.689 150.801  1.00  0.00    -0.504 OA
ATOM     11  H   UNL     1     167.630 154.309 150.016  1.00  0.00     0.293 HD
ENDBRANCH   4  10
BRANCH   5  12
ATOM     12  O   UNL     1     165.332 152.812 154.937  1.00  0.00    -0.504 OA
ATOM     13  H   UNL     1     164.719 153.531 155.305  1.00  0.00     0.293 HD
ENDBRANCH   5  12
BRANCH   6  14
ATOM     14  O   UNL     1     167.415 154.076 153.673  1.00  0.00    -0.502 OA
ATOM     15  H   UNL     1     167.102 154.689 154.412  1.00  0.00     0.293 HD
ENDBRANCH   6  14
TORSDOF 4
ENDMDL
MODEL 9
REMARK VINA RESULT:    -4.939      2.848      3.985
REMARK INTER + INTRA:          -5.709
REMARK INTER:                  -5.656
REMARK INTRA:                  -0.053
REMARK UNBOUND:                -0.048
REMARK SMILES O=C([O-])c1cc(O)c(O)c(O)c1
REMARK SMILES IDX 4 1 5 2 12 3 6 4 10 5 8 6 2 7 1 8 3 9 7 10 11 12 9 14
REMARK H PARENT 7 11 11 13 9 15
REMARK Flexibility Score: inf
ROOT
ATOM      1  C   UNL     1     165.317 152.304 150.055  1.00  0.00     0.005 A 
ATOM      2  C   UNL     1     164.353 151.642 149.279  1.00  0.00     0.060 A 
ATOM      3  C   UNL     1     166.240 153.147 149.418  1.00  0.00     0.060 A 
ATOM      4  C   UNL     1     164.303 151.811 147.891  1.00  0.00     0.162 A 
ATOM      5  C   UNL     1     166.202 153.326 148.029  1.00  0.00     0.162 A 
ATOM      6  C   UNL     1     165.239 152.663 147.256  1.00  0.00     0.200 A 
ENDROOT
BRANCH   1   7
ATOM      7  C   UNL     1     165.355 152.114 151.522  1.00  0.00     0.072 C 
ATOM      8  O   UNL     1     166.268 152.641 152.213  1.00  0.00    -0.545 OA
ATOM      9  O   UNL     1     164.383 151.351 152.159  1.00  0.00    -0.545 OA
ENDBRANCH   1   7
BRANCH   4  10
ATOM     10  O   UNL     1     163.316 151.118 147.186  1.00  0.00    -0.504 OA
ATOM     11  H   UNL     1     162.511 151.555 146.760  1.00  0.00     0.293 HD
ENDBRANCH   4  10
BRANCH   5  12
ATOM     12  O   UNL     1     167.123 154.165 147.405  1.00  0.00    -0.504 OA
ATOM     13  H   UNL     1     166.839 155.031 146.961  1.00  0.00     0.293 HD
ENDBRANCH   5  12
BRANCH   6  14
ATOM     14  O   UNL     1     165.244 152.876 145.875  1.00  0.00    -0.502 OA
ATOM     15  H   UNL     1     164.417 152.861 145.297  1.00  0.00     0.293 HD
ENDBRANCH   6  14
TORSDOF 4
ENDMDL
