MODEL 1
REMARK VINA RESULT:    -5.507      0.000      0.000
REMARK INTER + INTRA:          -8.331
REMARK INTER:                  -8.404
REMARK INTRA:                   0.073
REMARK UNBOUND:                 0.073
REMARK SMILES CC1=CCC[C@@H](C)C(=O)C[C@@H](C(C)C)C(=O)C1
REMARK SMILES IDX 8 1 9 2 6 3 7 4 5 5 4 6 3 7 2 8 1 9 10 11 11 12 15 13 16 14
REMARK SMILES IDX 17 15 12 17 13 18 14 19
REMARK H PARENT
REMARK Flexibility Score: 70.00
ROOT
ATOM      1  C   UNL     1      -8.484  33.135  22.557  1.00  0.00     0.136 C 
ATOM      2  O   UNL     1      -9.199  32.753  21.643  1.00  0.00    -0.299 OA
ENDROOT
BRANCH   1   3
ATOM      3  C   UNL     1      -8.234  34.621  22.740  1.00  0.00     0.053 C 
ATOM      4  C   UNL     1      -7.330  35.152  21.618  1.00  0.00     0.016 C 
BRANCH   3   5
ATOM      5  C   UNL     1      -7.621  34.895  24.144  1.00  0.00     0.015 C 
BRANCH   5   6
ATOM      6  C   UNL     1      -8.632  34.860  25.307  1.00  0.00     0.028 C 
BRANCH   6   7
ATOM      7  C   UNL     1      -8.237  34.017  26.500  1.00  0.00    -0.028 C 
ATOM      8  C   UNL     1      -8.648  32.755  26.763  1.00  0.00    -0.070 CG0
ATOM      9  C   UNL     1      -8.016  32.040  27.932  1.00  0.00     0.039 C 
ATOM     10  G   UNL     1      -9.698  32.029  25.944  1.00  0.00     0.000 G0
ENDBRANCH   6   7
ENDBRANCH   5   6
ENDBRANCH   3   5
ENDBRANCH   1   3
BRANCH   1  11
ATOM     11  C   UNL     1      -7.829  32.115  23.465  1.00  0.00     0.087 C 
BRANCH  11  12
ATOM     12  C   UNL     1      -8.709  30.867  23.774  1.00  0.00     0.066 C 
BRANCH  12  13
ATOM     13  C   UNL     1      -9.161  30.805  25.232  1.00  0.00     0.140 C 
ATOM     14  O   UNL     1      -9.122  29.742  25.834  1.00  0.00    -0.299 OA
BRANCH  13  15
ATOM     15  C   UNL     1      -9.697  32.017  25.958  1.00  0.00     0.106 CG0
ATOM     16  G   UNL     1      -8.634  32.733  26.769  1.00  0.00     0.000 G0
ENDBRANCH  13  15
ENDBRANCH  12  13
BRANCH  12  17
ATOM     17  C   UNL     1      -8.118  29.531  23.218  1.00  0.00    -0.006 C 
ATOM     18  C   UNL     1      -8.627  29.130  21.823  1.00  0.00     0.008 C 
ATOM     19  C   UNL     1      -6.580  29.538  23.244  1.00  0.00     0.008 C 
ENDBRANCH  12  17
ENDBRANCH  11  12
ENDBRANCH   1  11
TORSDOF 1
ENDMDL
MODEL 2
REMARK VINA RESULT:    -4.996      1.863      4.083
REMARK INTER + INTRA:          -7.551
REMARK INTER:                  -7.512
REMARK INTRA:                  -0.039
REMARK UNBOUND:                 0.073
REMARK SMILES CC1=CCC[C@@H](C)C(=O)C[C@@H](C(C)C)C(=O)C1
REMARK SMILES IDX 8 1 9 2 6 3 7 4 5 5 4 6 3 7 2 8 1 9 10 11 11 12 15 13 16 14
REMARK SMILES IDX 17 15 12 17 13 18 14 19
REMARK H PARENT
REMARK Flexibility Score: 70.00
ROOT
ATOM      1  C   UNL     1      -8.218  30.677  23.727  1.00  0.00     0.136 C 
ATOM      2  O   UNL     1      -7.308  30.137  23.115  1.00  0.00    -0.299 OA
ENDROOT
BRANCH   1   3
ATOM      3  C   UNL     1      -8.622  30.145  25.090  1.00  0.00     0.053 C 
ATOM      4  C   UNL     1      -9.671  29.033  24.939  1.00  0.00     0.016 C 
BRANCH   3   5
ATOM      5  C   UNL     1      -9.146  31.305  25.987  1.00  0.00     0.015 C 
BRANCH   5   6
ATOM      6  C   UNL     1      -8.098  32.383  26.323  1.00  0.00     0.028 C 
BRANCH   6   7
ATOM      7  C   UNL     1      -8.583  33.815  26.268  1.00  0.00    -0.028 C 
ATOM      8  C   UNL     1      -8.293  34.724  25.309  1.00  0.00    -0.070 CG0
ATOM      9  C   UNL     1      -9.002  36.055  25.367  1.00  0.00     0.039 C 
ATOM     10  G   UNL     1      -7.304  34.472  24.187  1.00  0.00     0.000 G0
ENDBRANCH   6   7
ENDBRANCH   5   6
ENDBRANCH   3   5
ENDBRANCH   1   3
BRANCH   1  11
ATOM     11  C   UNL     1      -8.950  31.842  23.095  1.00  0.00     0.087 C 
BRANCH  11  12
ATOM     12  C   UNL     1      -8.045  32.795  22.258  1.00  0.00     0.066 C 
BRANCH  12  13
ATOM     13  C   UNL     1      -7.959  34.202  22.847  1.00  0.00     0.140 C 
ATOM     14  O   UNL     1      -8.409  35.150  22.220  1.00  0.00    -0.299 OA
BRANCH  13  15
ATOM     15  C   UNL     1      -7.297  34.476  24.177  1.00  0.00     0.106 CG0
ATOM     16  G   UNL     1      -8.298  34.702  25.295  1.00  0.00     0.000 G0
ENDBRANCH  13  15
ENDBRANCH  12  13
BRANCH  12  17
ATOM     17  C   UNL     1      -8.335  32.749  20.723  1.00  0.00    -0.006 C 
ATOM     18  C   UNL     1      -7.084  32.736  19.829  1.00  0.00     0.008 C 
ATOM     19  C   UNL     1      -9.265  31.579  20.359  1.00  0.00     0.008 C 
ENDBRANCH  12  17
ENDBRANCH  11  12
ENDBRANCH   1  11
TORSDOF 1
ENDMDL
MODEL 3
REMARK VINA RESULT:    -4.987      1.765      4.141
REMARK INTER + INTRA:          -7.538
REMARK INTER:                  -7.271
REMARK INTRA:                  -0.267
REMARK UNBOUND:                 0.073
REMARK SMILES CC1=CCC[C@@H](C)C(=O)C[C@@H](C(C)C)C(=O)C1
REMARK SMILES IDX 8 1 9 2 6 3 7 4 5 5 4 6 3 7 2 8 1 9 10 11 11 12 15 13 16 14
REMARK SMILES IDX 17 15 12 17 13 18 14 19
REMARK H PARENT
REMARK Flexibility Score: 70.00
ROOT
ATOM      1  C   UNL     1      -8.070  33.957  22.068  1.00  0.00     0.136 C 
ATOM      2  O   UNL     1      -7.435  34.983  21.875  1.00  0.00    -0.299 OA
ENDROOT
BRANCH   1   3
ATOM      3  C   UNL     1      -7.828  32.749  21.180  1.00  0.00     0.053 C 
ATOM      4  C   UNL     1      -7.116  33.172  19.887  1.00  0.00     0.016 C 
BRANCH   3   5
ATOM      5  C   UNL     1      -9.173  32.024  20.879  1.00  0.00     0.015 C 
BRANCH   5   6
ATOM      6  C   UNL     1      -9.269  30.590  21.435  1.00  0.00     0.028 C 
BRANCH   6   7
ATOM      7  C   UNL     1      -8.282  30.238  22.527  1.00  0.00    -0.028 C 
ATOM      8  C   UNL     1      -8.441  30.456  23.853  1.00  0.00    -0.070 CG0
ATOM      9  C   UNL     1      -7.398  29.892  24.787  1.00  0.00     0.039 C 
ATOM     10  G   UNL     1      -9.607  31.227  24.441  1.00  0.00     0.000 G0
ENDBRANCH   6   7
ENDBRANCH   5   6
ENDBRANCH   3   5
ENDBRANCH   1   3
BRANCH   1  11
ATOM     11  C   UNL     1      -9.116  33.924  23.163  1.00  0.00     0.087 C 
BRANCH  11  12
ATOM     12  C   UNL     1      -8.546  33.671  24.591  1.00  0.00     0.066 C 
BRANCH  12  13
ATOM     13  C   UNL     1      -9.143  32.432  25.257  1.00  0.00     0.140 C 
ATOM     14  O   UNL     1      -9.227  32.380  26.475  1.00  0.00    -0.299 OA
BRANCH  13  15
ATOM     15  C   UNL     1      -9.606  31.236  24.458  1.00  0.00     0.106 CG0
ATOM     16  G   UNL     1      -8.454  30.444  23.867  1.00  0.00     0.000 G0
ENDBRANCH  13  15
ENDBRANCH  12  13
BRANCH  12  17
ATOM     17  C   UNL     1      -8.522  34.947  25.493  1.00  0.00    -0.006 C 
ATOM     18  C   UNL     1      -7.124  35.537  25.740  1.00  0.00     0.008 C 
ATOM     19  C   UNL     1      -9.474  36.032  24.962  1.00  0.00     0.008 C 
ENDBRANCH  12  17
ENDBRANCH  11  12
ENDBRANCH   1  11
TORSDOF 1
ENDMDL
MODEL 4
REMARK VINA RESULT:    -4.837      1.585      2.394
REMARK INTER + INTRA:          -7.308
REMARK INTER:                  -7.390
REMARK INTRA:                   0.082
REMARK UNBOUND:                 0.073
REMARK SMILES CC1=CCC[C@@H](C)C(=O)C[C@@H](C(C)C)C(=O)C1
REMARK SMILES IDX 8 1 9 2 6 3 7 4 5 5 4 6 3 7 2 8 1 9 10 11 11 12 15 13 16 14
REMARK SMILES IDX 17 15 12 17 13 18 14 19
REMARK H PARENT
REMARK Flexibility Score: 70.00
ROOT
ATOM      1  C   UNL     1      -8.101  34.306  23.612  1.00  0.00     0.136 C 
ATOM      2  O   UNL     1      -8.093  35.131  22.711  1.00  0.00    -0.299 OA
ENDROOT
BRANCH   1   3
ATOM      3  C   UNL     1      -8.678  34.682  24.965  1.00  0.00     0.053 C 
ATOM      4  C   UNL     1      -8.694  36.209  25.131  1.00  0.00     0.016 C 
BRANCH   3   5
ATOM      5  C   UNL     1      -7.870  33.994  26.105  1.00  0.00     0.015 C 
BRANCH   5   6
ATOM      6  C   UNL     1      -8.724  33.179  27.096  1.00  0.00     0.028 C 
BRANCH   6   7
ATOM      7  C   UNL     1      -8.325  31.729  27.273  1.00  0.00    -0.028 C 
ATOM      8  C   UNL     1      -8.575  30.718  26.410  1.00  0.00    -0.070 CG0
ATOM      9  C   UNL     1      -7.960  29.373  26.708  1.00  0.00     0.039 C 
ATOM     10  G   UNL     1      -9.432  30.869  25.167  1.00  0.00     0.000 G0
ENDBRANCH   6   7
ENDBRANCH   5   6
ENDBRANCH   3   5
ENDBRANCH   1   3
BRANCH   1  11
ATOM     11  C   UNL     1      -7.501  32.936  23.373  1.00  0.00     0.087 C 
BRANCH  11  12
ATOM     12  C   UNL     1      -8.518  31.863  22.884  1.00  0.00     0.066 C 
BRANCH  12  13
ATOM     13  C   UNL     1      -8.682  30.706  23.869  1.00  0.00     0.140 C 
ATOM     14  O   UNL     1      -8.202  29.614  23.607  1.00  0.00    -0.299 OA
BRANCH  13  15
ATOM     15  C   UNL     1      -9.457  30.854  25.158  1.00  0.00     0.106 CG0
ATOM     16  G   UNL     1      -8.584  30.702  26.389  1.00  0.00     0.000 G0
ENDBRANCH  13  15
ENDBRANCH  12  13
BRANCH  12  17
ATOM     17  C   UNL     1      -8.303  31.426  21.398  1.00  0.00    -0.006 C 
ATOM     18  C   UNL     1      -9.587  31.031  20.649  1.00  0.00     0.008 C 
ATOM     19  C   UNL     1      -7.525  32.488  20.604  1.00  0.00     0.008 C 
ENDBRANCH  12  17
ENDBRANCH  11  12
ENDBRANCH   1  11
TORSDOF 1
ENDMDL
MODEL 5
REMARK VINA RESULT:    -4.670      1.821      3.956
REMARK INTER + INTRA:          -7.054
REMARK INTER:                  -7.251
REMARK INTRA:                   0.197
REMARK UNBOUND:                 0.073
REMARK SMILES CC1=CCC[C@@H](C)C(=O)C[C@@H](C(C)C)C(=O)C1
REMARK SMILES IDX 8 1 9 2 6 3 7 4 5 5 4 6 3 7 2 8 1 9 10 11 11 12 15 13 16 14
REMARK SMILES IDX 17 15 12 17 13 18 14 19
REMARK H PARENT
REMARK Flexibility Score: 70.00
ROOT
ATOM      1  C   UNL     1      -8.690  33.787  23.849  1.00  0.00     0.136 C 
ATOM      2  O   UNL     1      -8.503  34.882  24.357  1.00  0.00    -0.299 OA
ENDROOT
BRANCH   1   3
ATOM      3  C   UNL     1      -8.185  33.519  22.442  1.00  0.00     0.053 C 
ATOM      4  C   UNL     1      -7.526  34.780  21.863  1.00  0.00     0.016 C 
BRANCH   3   5
ATOM      5  C   UNL     1      -9.349  33.019  21.538  1.00  0.00     0.015 C 
BRANCH   5   6
ATOM      6  C   UNL     1      -9.331  31.506  21.245  1.00  0.00     0.028 C 
BRANCH   6   7
ATOM      7  C   UNL     1      -8.076  30.768  21.659  1.00  0.00    -0.028 C 
ATOM      8  C   UNL     1      -7.913  30.028  22.780  1.00  0.00    -0.070 CG0
ATOM      9  C   UNL     1      -6.627  29.253  22.928  1.00  0.00     0.039 C 
ATOM     10  G   UNL     1      -8.951  29.936  23.882  1.00  0.00     0.000 G0
ENDBRANCH   6   7
ENDBRANCH   5   6
ENDBRANCH   3   5
ENDBRANCH   1   3
BRANCH   1  11
ATOM     11  C   UNL     1      -9.457  32.732  24.617  1.00  0.00     0.087 C 
BRANCH  11  12
ATOM     12  C   UNL     1      -8.595  31.912  25.623  1.00  0.00     0.066 C 
BRANCH  12  13
ATOM     13  C   UNL     1      -8.457  30.443  25.227  1.00  0.00     0.140 C 
ATOM     14  O   UNL     1      -7.902  29.660  25.984  1.00  0.00    -0.299 OA
BRANCH  13  15
ATOM     15  C   UNL     1      -8.953  29.920  23.899  1.00  0.00     0.106 CG0
ATOM     16  G   UNL     1      -7.918  30.041  22.797  1.00  0.00     0.000 G0
ENDBRANCH  13  15
ENDBRANCH  12  13
BRANCH  12  17
ATOM     17  C   UNL     1      -8.982  32.149  27.119  1.00  0.00    -0.006 C 
ATOM     18  C   UNL     1     -10.069  31.206  27.662  1.00  0.00     0.008 C 
ATOM     19  C   UNL     1      -7.746  32.122  28.033  1.00  0.00     0.008 C 
ENDBRANCH  12  17
ENDBRANCH  11  12
ENDBRANCH   1  11
TORSDOF 1
ENDMDL
MODEL 6
REMARK VINA RESULT:    -4.645      1.919      3.208
REMARK INTER + INTRA:          -7.016
REMARK INTER:                  -7.023
REMARK INTRA:                   0.007
REMARK UNBOUND:                 0.073
REMARK SMILES CC1=CCC[C@@H](C)C(=O)C[C@@H](C(C)C)C(=O)C1
REMARK SMILES IDX 8 1 9 2 6 3 7 4 5 5 4 6 3 7 2 8 1 9 10 11 11 12 15 13 16 14
REMARK SMILES IDX 17 15 12 17 13 18 14 19
REMARK H PARENT
REMARK Flexibility Score: 70.00
ROOT
ATOM      1  C   UNL     1      -7.606  30.880  22.667  1.00  0.00     0.136 C 
ATOM      2  O   UNL     1      -6.848  30.128  22.073  1.00  0.00    -0.299 OA
ENDROOT
BRANCH   1   3
ATOM      3  C   UNL     1      -8.569  31.748  21.876  1.00  0.00     0.053 C 
ATOM      4  C   UNL     1      -9.343  30.897  20.859  1.00  0.00     0.016 C 
BRANCH   3   5
ATOM      5  C   UNL     1      -7.800  32.908  21.179  1.00  0.00     0.015 C 
BRANCH   5   6
ATOM      6  C   UNL     1      -8.249  34.322  21.598  1.00  0.00     0.028 C 
BRANCH   6   7
ATOM      7  C   UNL     1      -7.631  34.861  22.871  1.00  0.00    -0.028 C 
ATOM      8  C   UNL     1      -8.042  34.604  24.133  1.00  0.00    -0.070 CG0
ATOM      9  C   UNL     1      -7.193  35.124  25.267  1.00  0.00     0.039 C 
ATOM     10  G   UNL     1      -9.299  33.822  24.462  1.00  0.00     0.000 G0
ENDBRANCH   6   7
ENDBRANCH   5   6
ENDBRANCH   3   5
ENDBRANCH   1   3
BRANCH   1  11
ATOM     11  C   UNL     1      -7.542  30.960  24.177  1.00  0.00     0.087 C 
BRANCH  11  12
ATOM     12  C   UNL     1      -8.915  31.219  24.867  1.00  0.00     0.066 C 
BRANCH  12  13
ATOM     13  C   UNL     1      -9.053  32.644  25.400  1.00  0.00     0.140 C 
ATOM     14  O   UNL     1      -8.983  32.852  26.601  1.00  0.00    -0.299 OA
BRANCH  13  15
ATOM     15  C   UNL     1      -9.314  33.819  24.486  1.00  0.00     0.106 CG0
ATOM     16  G   UNL     1      -8.052  34.587  24.143  1.00  0.00     0.000 G0
ENDBRANCH  13  15
ENDBRANCH  12  13
BRANCH  12  17
ATOM     17  C   UNL     1      -9.327  30.103  25.882  1.00  0.00    -0.006 C 
ATOM     18  C   UNL     1     -10.076  28.911  25.262  1.00  0.00     0.008 C 
ATOM     19  C   UNL     1      -8.122  29.611  26.701  1.00  0.00     0.008 C 
ENDBRANCH  12  17
ENDBRANCH  11  12
ENDBRANCH   1  11
TORSDOF 1
ENDMDL
MODEL 7
REMARK VINA RESULT:    -4.476      2.135      5.544
REMARK INTER + INTRA:          -6.757
REMARK INTER:                  -6.762
REMARK INTRA:                   0.004
REMARK UNBOUND:                 0.073
REMARK SMILES CC1=CCC[C@@H](C)C(=O)C[C@@H](C(C)C)C(=O)C1
REMARK SMILES IDX 8 1 9 2 6 3 7 4 5 5 4 6 3 7 2 8 1 9 10 11 11 12 15 13 16 14
REMARK SMILES IDX 17 15 12 17 13 18 14 19
REMARK H PARENT
REMARK Flexibility Score: 70.00
ROOT
ATOM      1  C   UNL     1      -9.311  31.515  25.277  1.00  0.00     0.136 C 
ATOM      2  O   UNL     1     -10.063  31.882  26.167  1.00  0.00    -0.299 OA
ENDROOT
BRANCH   1   3
ATOM      3  C   UNL     1      -9.434  30.105  24.728  1.00  0.00     0.053 C 
ATOM      4  C   UNL     1      -9.290  29.077  25.860  1.00  0.00     0.016 C 
BRANCH   3   5
ATOM      5  C   UNL     1      -8.380  29.869  23.607  1.00  0.00     0.015 C 
BRANCH   5   6
ATOM      6  C   UNL     1      -8.939  29.935  22.173  1.00  0.00     0.028 C 
BRANCH   6   7
ATOM      7  C   UNL     1      -8.145  30.771  21.192  1.00  0.00    -0.028 C 
ATOM      8  C   UNL     1      -8.223  32.113  21.035  1.00  0.00    -0.070 CG0
ATOM      9  C   UNL     1      -7.235  32.769  20.103  1.00  0.00     0.039 C 
ATOM     10  G   UNL     1      -9.242  32.982  21.748  1.00  0.00     0.000 G0
ENDBRANCH   6   7
ENDBRANCH   5   6
ENDBRANCH   3   5
ENDBRANCH   1   3
BRANCH   1  11
ATOM     11  C   UNL     1      -8.244  32.461  24.767  1.00  0.00     0.087 C 
BRANCH  11  12
ATOM     12  C   UNL     1      -8.789  33.818  24.230  1.00  0.00     0.066 C 
BRANCH  12  13
ATOM     13  C   UNL     1      -8.632  33.965  22.718  1.00  0.00     0.140 C 
ATOM     14  O   UNL     1      -8.008  34.911  22.262  1.00  0.00    -0.299 OA
BRANCH  13  15
ATOM     15  C   UNL     1      -9.260  32.990  21.748  1.00  0.00     0.106 CG0
ATOM     16  G   UNL     1      -8.235  32.121  21.044  1.00  0.00     0.000 G0
ENDBRANCH  13  15
ENDBRANCH  12  13
BRANCH  12  17
ATOM     17  C   UNL     1      -8.312  35.056  25.057  1.00  0.00    -0.006 C 
ATOM     18  C   UNL     1      -9.380  36.142  25.268  1.00  0.00     0.008 C 
ATOM     19  C   UNL     1      -7.703  34.635  26.405  1.00  0.00     0.008 C 
ENDBRANCH  12  17
ENDBRANCH  11  12
ENDBRANCH   1  11
TORSDOF 1
ENDMDL
MODEL 8
REMARK VINA RESULT:    -4.068      1.500      3.911
REMARK INTER + INTRA:          -6.136
REMARK INTER:                  -6.700
REMARK INTRA:                   0.564
REMARK UNBOUND:                 0.073
REMARK SMILES CC1=CCC[C@@H](C)C(=O)C[C@@H](C(C)C)C(=O)C1
REMARK SMILES IDX 8 1 9 2 6 3 7 4 5 5 4 6 3 7 2 8 1 9 10 11 11 12 15 13 16 14
REMARK SMILES IDX 17 15 12 17 13 18 14 19
REMARK H PARENT
REMARK Flexibility Score: 70.00
ROOT
ATOM      1  C   UNL     1      -7.730  31.099  22.531  1.00  0.00     0.136 C 
ATOM      2  O   UNL     1      -8.353  30.715  21.552  1.00  0.00    -0.299 OA
ENDROOT
BRANCH   1   3
ATOM      3  C   UNL     1      -7.322  30.097  23.597  1.00  0.00     0.053 C 
ATOM      4  C   UNL     1      -6.103  29.289  23.131  1.00  0.00     0.016 C 
BRANCH   3   5
ATOM      5  C   UNL     1      -8.521  29.168  23.950  1.00  0.00     0.015 C 
BRANCH   5   6
ATOM      6  C   UNL     1      -9.062  29.331  25.384  1.00  0.00     0.028 C 
BRANCH   6   7
ATOM      7  C   UNL     1      -8.212  30.165  26.319  1.00  0.00    -0.028 C 
ATOM      8  C   UNL     1      -8.407  31.465  26.637  1.00  0.00    -0.070 CG0
ATOM      9  C   UNL     1      -7.528  32.066  27.706  1.00  0.00     0.039 C 
ATOM     10  G   UNL     1      -9.459  32.339  25.981  1.00  0.00     0.000 G0
ENDBRANCH   6   7
ENDBRANCH   5   6
ENDBRANCH   3   5
ENDBRANCH   1   3
BRANCH   1  11
ATOM     11  C   UNL     1      -7.412  32.571  22.681  1.00  0.00     0.087 C 
BRANCH  11  12
ATOM     12  C   UNL     1      -7.878  33.198  24.029  1.00  0.00     0.066 C 
BRANCH  12  13
ATOM     13  C   UNL     1      -9.200  32.617  24.529  1.00  0.00     0.140 C 
ATOM     14  O   UNL     1     -10.095  32.376  23.733  1.00  0.00    -0.299 OA
BRANCH  13  15
ATOM     15  C   UNL     1      -9.461  32.362  25.995  1.00  0.00     0.106 CG0
ATOM     16  G   UNL     1      -8.412  31.468  26.630  1.00  0.00     0.000 G0
ENDBRANCH  13  15
ENDBRANCH  12  13
BRANCH  12  17
ATOM     17  C   UNL     1      -7.802  34.759  24.055  1.00  0.00    -0.006 C 
ATOM     18  C   UNL     1      -7.729  35.379  25.461  1.00  0.00     0.008 C 
ATOM     19  C   UNL     1      -6.651  35.283  23.180  1.00  0.00     0.008 C 
ENDBRANCH  12  17
ENDBRANCH  11  12
ENDBRANCH   1  11
TORSDOF 1
ENDMDL
MODEL 9
REMARK VINA RESULT:    -3.716      1.581      2.230
REMARK INTER + INTRA:          -5.597
REMARK INTER:                  -6.993
REMARK INTRA:                   1.396
REMARK UNBOUND:                 0.073
REMARK SMILES CC1=CCC[C@@H](C)C(=O)C[C@@H](C(C)C)C(=O)C1
REMARK SMILES IDX 8 1 9 2 6 3 7 4 5 5 4 6 3 7 2 8 1 9 10 11 11 12 15 13 16 14
REMARK SMILES IDX 17 15 12 17 13 18 14 19
REMARK H PARENT
REMARK Flexibility Score: 70.00
ROOT
ATOM      1  C   UNL     1      -8.929  32.197  21.162  1.00  0.00     0.136 C 
ATOM      2  O   UNL     1     -10.110  32.123  20.855  1.00  0.00    -0.299 OA
ENDROOT
BRANCH   1   3
ATOM      3  C   UNL     1      -8.150  33.458  20.835  1.00  0.00     0.053 C 
ATOM      4  C   UNL     1      -7.102  33.171  19.750  1.00  0.00     0.016 C 
BRANCH   3   5
ATOM      5  C   UNL     1      -7.492  34.034  22.124  1.00  0.00     0.015 C 
BRANCH   5   6
ATOM      6  C   UNL     1      -8.253  35.212  22.763  1.00  0.00     0.028 C 
BRANCH   6   7
ATOM      7  C   UNL     1      -8.477  35.121  24.257  1.00  0.00    -0.028 C 
ATOM      8  C   UNL     1      -8.250  34.039  25.038  1.00  0.00    -0.070 CG0
ATOM      9  C   UNL     1      -8.399  34.207  26.530  1.00  0.00     0.039 C 
ATOM     10  G   UNL     1      -7.852  32.681  24.492  1.00  0.00     0.000 G0
ENDBRANCH   6   7
ENDBRANCH   5   6
ENDBRANCH   3   5
ENDBRANCH   1   3
BRANCH   1  11
ATOM     11  C   UNL     1      -8.258  31.014  21.827  1.00  0.00     0.087 C 
BRANCH  11  12
ATOM     12  C   UNL     1      -8.885  30.599  23.192  1.00  0.00     0.066 C 
BRANCH  12  13
ATOM     13  C   UNL     1      -9.006  31.767  24.169  1.00  0.00     0.140 C 
ATOM     14  O   UNL     1     -10.083  32.013  24.691  1.00  0.00    -0.299 OA
BRANCH  13  15
ATOM     15  C   UNL     1      -7.835  32.667  24.492  1.00  0.00     0.106 CG0
ATOM     16  G   UNL     1      -8.265  34.018  25.031  1.00  0.00     0.000 G0
ENDBRANCH  13  15
ENDBRANCH  12  13
BRANCH  12  17
ATOM     17  C   UNL     1      -8.260  29.303  23.802  1.00  0.00    -0.006 C 
ATOM     18  C   UNL     1      -6.723  29.256  23.783  1.00  0.00     0.008 C 
ATOM     19  C   UNL     1      -8.787  29.036  25.222  1.00  0.00     0.008 C 
ENDBRANCH  12  17
ENDBRANCH  11  12
ENDBRANCH   1  11
TORSDOF 1
ENDMDL
