MODEL 1
REMARK VINA RESULT:    -7.153      0.000      0.000
REMARK INTER + INTRA:         -10.931
REMARK INTER:                  -9.035
REMARK INTRA:                  -1.896
REMARK UNBOUND:                -1.896
REMARK SMILES O[C@@H]1OC[C@@H](Cc2ccc3c(c2)OCO3)[C@@H]1Cc1ccc2c(c1)OCO2
REMARK SMILES IDX 4 1 5 2 16 3 2 4 3 5 6 6 7 7 12 8 8 9 11 10 9 11 10 12 13 13
REMARK SMILES IDX 15 14 14 15 17 16 18 17 23 18 19 19 22 20 20 21 21 22 24 23
REMARK SMILES IDX 26 24 25 25 1 26
REMARK H PARENT 1 27
REMARK Flexibility Score: inf
ROOT
ATOM      1  C   UNL     1     -28.769 -29.103 115.425  1.00  0.00     0.168 C 
ATOM      2  C   UNL     1     -27.696 -28.995 114.342  1.00  0.00     0.028 C 
ATOM      3  C   UNL     1     -26.430 -28.882 115.158  1.00  0.00     0.055 C 
ATOM      4  C   UNL     1     -26.795 -29.673 116.412  1.00  0.00     0.250 C 
ATOM      5  O   UNL     1     -28.179 -29.524 116.637  1.00  0.00    -0.352 OA
ENDROOT
BRANCH   2   6
ATOM      6  C   UNL     1     -27.908 -27.796 113.393  1.00  0.00     0.042 C 
BRANCH   6   7
ATOM      7  C   UNL     1     -27.649 -28.179 111.960  1.00  0.00    -0.044 A 
ATOM      8  C   UNL     1     -27.110 -27.231 111.061  1.00  0.00     0.054 A 
ATOM      9  C   UNL     1     -27.910 -29.501 111.511  1.00  0.00     0.008 A 
ATOM     10  C   UNL     1     -26.865 -27.636 109.752  1.00  0.00     0.166 A 
ATOM     11  C   UNL     1     -27.649 -29.868 110.178  1.00  0.00     0.051 A 
ATOM     12  C   UNL     1     -27.123 -28.899 109.329  1.00  0.00     0.165 A 
ATOM     13  O   UNL     1     -26.348 -26.897 108.706  1.00  0.00    -0.454 OA
ATOM     14  O   UNL     1     -26.783 -29.016 107.995  1.00  0.00    -0.454 OA
ATOM     15  C   UNL     1     -26.277 -27.749 107.553  1.00  0.00     0.468 C 
ENDBRANCH   6   7
ENDBRANCH   2   6
BRANCH   3  16
ATOM     16  C   UNL     1     -25.173 -29.387 114.410  1.00  0.00     0.044 C 
BRANCH  16  17
ATOM     17  C   UNL     1     -24.546 -28.287 113.593  1.00  0.00    -0.044 A 
ATOM     18  C   UNL     1     -24.542 -26.961 114.083  1.00  0.00     0.054 A 
ATOM     19  C   UNL     1     -23.922 -28.578 112.352  1.00  0.00     0.008 A 
ATOM     20  C   UNL     1     -23.924 -25.981 113.312  1.00  0.00     0.166 A 
ATOM     21  C   UNL     1     -23.308 -27.556 111.605  1.00  0.00     0.051 A 
ATOM     22  C   UNL     1     -23.333 -26.266 112.125  1.00  0.00     0.165 A 
ATOM     23  O   UNL     1     -23.796 -24.631 113.578  1.00  0.00    -0.454 OA
ATOM     24  O   UNL     1     -22.802 -25.110 111.586  1.00  0.00    -0.454 OA
ATOM     25  C   UNL     1     -23.077 -24.032 112.491  1.00  0.00     0.468 C 
ENDBRANCH  16  17
ENDBRANCH   3  16
BRANCH   4  26
ATOM     26  O   UNL     1     -26.503 -31.037 116.260  1.00  0.00    -0.368 OA
ATOM     27  H   UNL     1     -26.035 -31.317 117.089  1.00  0.00     0.213 HD
ENDBRANCH   4  26
TORSDOF 5
ENDMDL
MODEL 2
REMARK VINA RESULT:    -7.031      6.210     10.493
REMARK INTER + INTRA:         -10.777
REMARK INTER:                  -9.446
REMARK INTRA:                  -1.331
REMARK UNBOUND:                -1.896
REMARK SMILES O[C@@H]1OC[C@@H](Cc2ccc3c(c2)OCO3)[C@@H]1Cc1ccc2c(c1)OCO2
REMARK SMILES IDX 4 1 5 2 16 3 2 4 3 5 6 6 7 7 12 8 8 9 11 10 9 11 10 12 13 13
REMARK SMILES IDX 15 14 14 15 17 16 18 17 23 18 19 19 22 20 20 21 21 22 24 23
REMARK SMILES IDX 26 24 25 25 1 26
REMARK H PARENT 1 27
REMARK Flexibility Score: inf
ROOT
ATOM      1  C   UNL     1     -29.679 -23.107 102.762  1.00  0.00     0.168 C 
ATOM      2  C   UNL     1     -28.425 -23.946 103.003  1.00  0.00     0.028 C 
ATOM      3  C   UNL     1     -28.977 -25.136 103.752  1.00  0.00     0.055 C 
ATOM      4  C   UNL     1     -30.395 -25.227 103.192  1.00  0.00     0.250 C 
ATOM      5  O   UNL     1     -30.825 -23.923 102.873  1.00  0.00    -0.352 OA
ENDROOT
BRANCH   2   6
ATOM      6  C   UNL     1     -27.331 -23.194 103.792  1.00  0.00     0.042 C 
BRANCH   6   7
ATOM      7  C   UNL     1     -26.047 -23.116 103.008  1.00  0.00    -0.044 A 
ATOM      8  C   UNL     1     -25.668 -21.902 102.393  1.00  0.00     0.054 A 
ATOM      9  C   UNL     1     -25.195 -24.248 102.912  1.00  0.00     0.008 A 
ATOM     10  C   UNL     1     -24.461 -21.870 101.698  1.00  0.00     0.166 A 
ATOM     11  C   UNL     1     -23.984 -24.172 102.198  1.00  0.00     0.051 A 
ATOM     12  C   UNL     1     -23.656 -22.957 101.605  1.00  0.00     0.165 A 
ATOM     13  O   UNL     1     -23.887 -20.811 101.023  1.00  0.00    -0.454 OA
ATOM     14  O   UNL     1     -22.534 -22.636 100.865  1.00  0.00    -0.454 OA
ATOM     15  C   UNL     1     -22.641 -21.262 100.471  1.00  0.00     0.468 C 
ENDBRANCH   6   7
ENDBRANCH   2   6
BRANCH   3  16
ATOM     16  C   UNL     1     -28.124 -26.415 103.584  1.00  0.00     0.044 C 
BRANCH  16  17
ATOM     17  C   UNL     1     -27.436 -26.786 104.872  1.00  0.00    -0.044 A 
ATOM     18  C   UNL     1     -28.205 -27.127 106.007  1.00  0.00     0.054 A 
ATOM     19  C   UNL     1     -26.019 -26.836 104.944  1.00  0.00     0.008 A 
ATOM     20  C   UNL     1     -27.531 -27.494 107.168  1.00  0.00     0.166 A 
ATOM     21  C   UNL     1     -25.378 -27.214 106.138  1.00  0.00     0.051 A 
ATOM     22  C   UNL     1     -26.176 -27.536 107.230  1.00  0.00     0.165 A 
ATOM     23  O   UNL     1     -28.060 -27.863 108.390  1.00  0.00    -0.454 OA
ATOM     24  O   UNL     1     -25.786 -27.936 108.494  1.00  0.00    -0.454 OA
ATOM     25  C   UNL     1     -26.969 -28.157 109.274  1.00  0.00     0.468 C 
ENDBRANCH  16  17
ENDBRANCH   3  16
BRANCH   4  26
ATOM     26  O   UNL     1     -30.436 -26.017 102.032  1.00  0.00    -0.368 OA
ATOM     27  H   UNL     1     -31.287 -25.795 101.574  1.00  0.00     0.213 HD
ENDBRANCH   4  26
TORSDOF 5
ENDMDL
MODEL 3
REMARK VINA RESULT:    -7.009      8.759     11.653
REMARK INTER + INTRA:         -10.748
REMARK INTER:                  -9.081
REMARK INTRA:                  -1.668
REMARK UNBOUND:                -1.896
REMARK SMILES O[C@@H]1OC[C@@H](Cc2ccc3c(c2)OCO3)[C@@H]1Cc1ccc2c(c1)OCO2
REMARK SMILES IDX 4 1 5 2 16 3 2 4 3 5 6 6 7 7 12 8 8 9 11 10 9 11 10 12 13 13
REMARK SMILES IDX 15 14 14 15 17 16 18 17 23 18 19 19 22 20 20 21 21 22 24 23
REMARK SMILES IDX 26 24 25 25 1 26
REMARK H PARENT 1 27
REMARK Flexibility Score: inf
ROOT
ATOM      1  C   UNL     1     -30.076 -19.315 106.125  1.00  0.00     0.168 C 
ATOM      2  C   UNL     1     -28.725 -19.693 105.519  1.00  0.00     0.028 C 
ATOM      3  C   UNL     1     -29.126 -20.270 104.181  1.00  0.00     0.055 C 
ATOM      4  C   UNL     1     -30.405 -19.491 103.876  1.00  0.00     0.250 C 
ATOM      5  O   UNL     1     -31.039 -19.194 105.100  1.00  0.00    -0.352 OA
ENDROOT
BRANCH   2   6
ATOM      6  C   UNL     1     -27.926 -20.689 106.387  1.00  0.00     0.042 C 
BRANCH   6   7
ATOM      7  C   UNL     1     -28.184 -22.112 105.966  1.00  0.00    -0.044 A 
ATOM      8  C   UNL     1     -27.107 -22.937 105.569  1.00  0.00     0.054 A 
ATOM      9  C   UNL     1     -29.500 -22.643 105.997  1.00  0.00     0.008 A 
ATOM     10  C   UNL     1     -27.389 -24.252 105.210  1.00  0.00     0.166 A 
ATOM     11  C   UNL     1     -29.741 -23.978 105.625  1.00  0.00     0.051 A 
ATOM     12  C   UNL     1     -28.651 -24.750 105.236  1.00  0.00     0.165 A 
ATOM     13  O   UNL     1     -26.514 -25.236 104.793  1.00  0.00    -0.454 OA
ATOM     14  O   UNL     1     -28.631 -26.072 104.836  1.00  0.00    -0.454 OA
ATOM     15  C   UNL     1     -27.274 -26.427 104.542  1.00  0.00     0.468 C 
ENDBRANCH   6   7
ENDBRANCH   2   6
BRANCH   3  16
ATOM     16  C   UNL     1     -28.019 -20.153 103.108  1.00  0.00     0.044 C 
BRANCH  16  17
ATOM     17  C   UNL     1     -27.684 -21.500 102.521  1.00  0.00    -0.044 A 
ATOM     18  C   UNL     1     -28.707 -22.454 102.320  1.00  0.00     0.054 A 
ATOM     19  C   UNL     1     -26.354 -21.806 102.131  1.00  0.00     0.008 A 
ATOM     20  C   UNL     1     -28.361 -23.674 101.746  1.00  0.00     0.166 A 
ATOM     21  C   UNL     1     -26.048 -23.052 101.553  1.00  0.00     0.051 A 
ATOM     22  C   UNL     1     -27.087 -23.960 101.379  1.00  0.00     0.165 A 
ATOM     23  O   UNL     1     -29.177 -24.751 101.456  1.00  0.00    -0.454 OA
ATOM     24  O   UNL     1     -27.038 -25.230 100.837  1.00  0.00    -0.454 OA
ATOM     25  C   UNL     1     -28.364 -25.775 100.868  1.00  0.00     0.468 C 
ENDBRANCH  16  17
ENDBRANCH   3  16
BRANCH   4  26
ATOM     26  O   UNL     1     -30.124 -18.290 103.206  1.00  0.00    -0.368 OA
ATOM     27  H   UNL     1     -29.505 -17.782 103.790  1.00  0.00     0.213 HD
ENDBRANCH   4  26
TORSDOF 5
ENDMDL
MODEL 4
REMARK VINA RESULT:    -6.936      5.569      9.536
REMARK INTER + INTRA:         -10.657
REMARK INTER:                  -8.968
REMARK INTRA:                  -1.688
REMARK UNBOUND:                -1.896
REMARK SMILES O[C@@H]1OC[C@@H](Cc2ccc3c(c2)OCO3)[C@@H]1Cc1ccc2c(c1)OCO2
REMARK SMILES IDX 4 1 5 2 16 3 2 4 3 5 6 6 7 7 12 8 8 9 11 10 9 11 10 12 13 13
REMARK SMILES IDX 15 14 14 15 17 16 18 17 23 18 19 19 22 20 20 21 21 22 24 23
REMARK SMILES IDX 26 24 25 25 1 26
REMARK H PARENT 1 27
REMARK Flexibility Score: inf
ROOT
ATOM      1  C   UNL     1     -27.016 -26.644 108.630  1.00  0.00     0.168 C 
ATOM      2  C   UNL     1     -28.266 -26.515 107.760  1.00  0.00     0.028 C 
ATOM      3  C   UNL     1     -27.697 -26.639 106.366  1.00  0.00     0.055 C 
ATOM      4  C   UNL     1     -26.484 -27.537 106.602  1.00  0.00     0.250 C 
ATOM      5  O   UNL     1     -25.988 -27.272 107.895  1.00  0.00    -0.352 OA
ENDROOT
BRANCH   2   6
ATOM      6  C   UNL     1     -29.029 -25.192 107.983  1.00  0.00     0.042 C 
BRANCH   6   7
ATOM      7  C   UNL     1     -28.642 -24.158 106.958  1.00  0.00    -0.044 A 
ATOM      8  C   UNL     1     -29.620 -23.629 106.085  1.00  0.00     0.054 A 
ATOM      9  C   UNL     1     -27.306 -23.683 106.885  1.00  0.00     0.008 A 
ATOM     10  C   UNL     1     -29.222 -22.659 105.169  1.00  0.00     0.166 A 
ATOM     11  C   UNL     1     -26.946 -22.702 105.944  1.00  0.00     0.051 A 
ATOM     12  C   UNL     1     -27.942 -22.216 105.101  1.00  0.00     0.165 A 
ATOM     13  O   UNL     1     -29.987 -22.003 104.225  1.00  0.00    -0.454 OA
ATOM     14  O   UNL     1     -27.838 -21.259 104.110  1.00  0.00    -0.454 OA
ATOM     15  C   UNL     1     -29.134 -21.089 103.520  1.00  0.00     0.468 C 
ENDBRANCH   6   7
ENDBRANCH   2   6
BRANCH   3  16
ATOM     16  C   UNL     1     -28.717 -27.176 105.335  1.00  0.00     0.044 C 
BRANCH  16  17
ATOM     17  C   UNL     1     -28.811 -26.269 104.135  1.00  0.00    -0.044 A 
ATOM     18  C   UNL     1     -27.646 -25.647 103.631  1.00  0.00     0.054 A 
ATOM     19  C   UNL     1     -30.054 -26.064 103.482  1.00  0.00     0.008 A 
ATOM     20  C   UNL     1     -27.771 -24.841 102.504  1.00  0.00     0.166 A 
ATOM     21  C   UNL     1     -30.134 -25.242 102.343  1.00  0.00     0.051 A 
ATOM     22  C   UNL     1     -28.963 -24.648 101.886  1.00  0.00     0.165 A 
ATOM     23  O   UNL     1     -26.786 -24.136 101.837  1.00  0.00    -0.454 OA
ATOM     24  O   UNL     1     -28.788 -23.813 100.799  1.00  0.00    -0.454 OA
ATOM     25  C   UNL     1     -27.400 -23.460 100.731  1.00  0.00     0.468 C 
ENDBRANCH  16  17
ENDBRANCH   3  16
BRANCH   4  26
ATOM     26  O   UNL     1     -26.828 -28.895 106.515  1.00  0.00    -0.368 OA
ATOM     27  H   UNL     1     -26.764 -29.258 107.436  1.00  0.00     0.213 HD
ENDBRANCH   4  26
TORSDOF 5
ENDMDL
MODEL 5
REMARK VINA RESULT:    -6.913      9.590     11.759
REMARK INTER + INTRA:         -10.628
REMARK INTER:                  -9.191
REMARK INTRA:                  -1.437
REMARK UNBOUND:                -1.896
REMARK SMILES O[C@@H]1OC[C@@H](Cc2ccc3c(c2)OCO3)[C@@H]1Cc1ccc2c(c1)OCO2
REMARK SMILES IDX 4 1 5 2 16 3 2 4 3 5 6 6 7 7 12 8 8 9 11 10 9 11 10 12 13 13
REMARK SMILES IDX 15 14 14 15 17 16 18 17 23 18 19 19 22 20 20 21 21 22 24 23
REMARK SMILES IDX 26 24 25 25 1 26
REMARK H PARENT 1 27
REMARK Flexibility Score: inf
ROOT
ATOM      1  C   UNL     1     -27.977 -20.993 106.708  1.00  0.00     0.168 C 
ATOM      2  C   UNL     1     -28.084 -21.686 105.349  1.00  0.00     0.028 C 
ATOM      3  C   UNL     1     -29.570 -21.632 105.081  1.00  0.00     0.055 C 
ATOM      4  C   UNL     1     -29.973 -20.354 105.813  1.00  0.00     0.250 C 
ATOM      5  O   UNL     1     -29.124 -20.201 106.928  1.00  0.00    -0.352 OA
ENDROOT
BRANCH   2   6
ATOM      6  C   UNL     1     -27.526 -23.126 105.354  1.00  0.00     0.042 C 
BRANCH   6   7
ATOM      7  C   UNL     1     -26.411 -23.283 104.354  1.00  0.00    -0.044 A 
ATOM      8  C   UNL     1     -26.133 -22.245 103.437  1.00  0.00     0.054 A 
ATOM      9  C   UNL     1     -25.612 -24.457 104.347  1.00  0.00     0.008 A 
ATOM     10  C   UNL     1     -25.079 -22.425 102.545  1.00  0.00     0.166 A 
ATOM     11  C   UNL     1     -24.557 -24.599 103.428  1.00  0.00     0.051 A 
ATOM     12  C   UNL     1     -24.324 -23.552 102.541  1.00  0.00     0.165 A 
ATOM     13  O   UNL     1     -24.623 -21.561 101.569  1.00  0.00    -0.454 OA
ATOM     14  O   UNL     1     -23.356 -23.454 101.560  1.00  0.00    -0.454 OA
ATOM     15  C   UNL     1     -23.511 -22.186 100.909  1.00  0.00     0.468 C 
ENDBRANCH   6   7
ENDBRANCH   2   6
BRANCH   3  16
ATOM     16  C   UNL     1     -29.921 -21.661 103.575  1.00  0.00     0.044 C 
BRANCH  16  17
ATOM     17  C   UNL     1     -29.765 -23.047 103.004  1.00  0.00    -0.044 A 
ATOM     18  C   UNL     1     -29.026 -23.239 101.815  1.00  0.00     0.054 A 
ATOM     19  C   UNL     1     -30.323 -24.168 103.672  1.00  0.00     0.008 A 
ATOM     20  C   UNL     1     -28.881 -24.538 101.338  1.00  0.00     0.166 A 
ATOM     21  C   UNL     1     -30.149 -25.465 103.155  1.00  0.00     0.051 A 
ATOM     22  C   UNL     1     -29.418 -25.605 101.980  1.00  0.00     0.165 A 
ATOM     23  O   UNL     1     -28.211 -24.970 100.208  1.00  0.00    -0.454 OA
ATOM     24  O   UNL     1     -29.113 -26.761 101.288  1.00  0.00    -0.454 OA
ATOM     25  C   UNL     1     -28.335 -26.397 100.140  1.00  0.00     0.468 C 
ENDBRANCH  16  17
ENDBRANCH   3  16
BRANCH   4  26
ATOM     26  O   UNL     1     -29.846 -19.228 104.985  1.00  0.00    -0.368 OA
ATOM     27  H   UNL     1     -28.885 -18.981 104.997  1.00  0.00     0.213 HD
ENDBRANCH   4  26
TORSDOF 5
ENDMDL
MODEL 6
REMARK VINA RESULT:    -6.894      6.046     10.332
REMARK INTER + INTRA:         -10.604
REMARK INTER:                  -9.245
REMARK INTRA:                  -1.358
REMARK UNBOUND:                -1.896
REMARK SMILES O[C@@H]1OC[C@@H](Cc2ccc3c(c2)OCO3)[C@@H]1Cc1ccc2c(c1)OCO2
REMARK SMILES IDX 4 1 5 2 16 3 2 4 3 5 6 6 7 7 12 8 8 9 11 10 9 11 10 12 13 13
REMARK SMILES IDX 15 14 14 15 17 16 18 17 23 18 19 19 22 20 20 21 21 22 24 23
REMARK SMILES IDX 26 24 25 25 1 26
REMARK H PARENT 1 27
REMARK Flexibility Score: inf
ROOT
ATOM      1  C   UNL     1     -30.453 -25.996 103.130  1.00  0.00     0.168 C 
ATOM      2  C   UNL     1     -29.146 -25.571 103.799  1.00  0.00     0.028 C 
ATOM      3  C   UNL     1     -28.750 -24.362 102.984  1.00  0.00     0.055 C 
ATOM      4  C   UNL     1     -30.111 -23.819 102.550  1.00  0.00     0.250 C 
ATOM      5  O   UNL     1     -30.993 -24.910 102.409  1.00  0.00    -0.352 OA
ENDROOT
BRANCH   2   6
ATOM      6  C   UNL     1     -28.070 -26.679 103.793  1.00  0.00     0.042 C 
BRANCH   6   7
ATOM      7  C   UNL     1     -27.505 -26.900 105.171  1.00  0.00    -0.044 A 
ATOM      8  C   UNL     1     -28.366 -26.932 106.291  1.00  0.00     0.054 A 
ATOM      9  C   UNL     1     -26.112 -27.111 105.351  1.00  0.00     0.008 A 
ATOM     10  C   UNL     1     -27.802 -27.162 107.543  1.00  0.00     0.166 A 
ATOM     11  C   UNL     1     -25.583 -27.338 106.635  1.00  0.00     0.051 A 
ATOM     12  C   UNL     1     -26.470 -27.356 107.708  1.00  0.00     0.165 A 
ATOM     13  O   UNL     1     -28.433 -27.237 108.769  1.00  0.00    -0.454 OA
ATOM     14  O   UNL     1     -26.197 -27.562 109.046  1.00  0.00    -0.454 OA
ATOM     15  C   UNL     1     -27.434 -27.495 109.767  1.00  0.00     0.468 C 
ENDBRANCH   6   7
ENDBRANCH   2   6
BRANCH   3  16
ATOM     16  C   UNL     1     -27.866 -23.362 103.764  1.00  0.00     0.044 C 
BRANCH  16  17
ATOM     17  C   UNL     1     -26.511 -23.214 103.121  1.00  0.00    -0.044 A 
ATOM     18  C   UNL     1     -26.154 -21.993 102.506  1.00  0.00     0.054 A 
ATOM     19  C   UNL     1     -25.574 -24.279 103.162  1.00  0.00     0.008 A 
ATOM     20  C   UNL     1     -24.882 -21.887 101.951  1.00  0.00     0.166 A 
ATOM     21  C   UNL     1     -24.297 -24.128 102.590  1.00  0.00     0.051 A 
ATOM     22  C   UNL     1     -23.992 -22.910 101.992  1.00  0.00     0.165 A 
ATOM     23  O   UNL     1     -24.313 -20.807 101.303  1.00  0.00    -0.454 OA
ATOM     24  O   UNL     1     -22.819 -22.525 101.373  1.00  0.00    -0.454 OA
ATOM     25  C   UNL     1     -22.982 -21.176 100.915  1.00  0.00     0.468 C 
ENDBRANCH  16  17
ENDBRANCH   3  16
BRANCH   4  26
ATOM     26  O   UNL     1     -30.633 -22.930 103.501  1.00  0.00    -0.368 OA
ATOM     27  H   UNL     1     -31.180 -22.273 102.998  1.00  0.00     0.213 HD
ENDBRANCH   4  26
TORSDOF 5
ENDMDL
MODEL 7
REMARK VINA RESULT:    -6.884      6.754     10.882
REMARK INTER + INTRA:         -10.591
REMARK INTER:                  -9.463
REMARK INTRA:                  -1.127
REMARK UNBOUND:                -1.896
REMARK SMILES O[C@@H]1OC[C@@H](Cc2ccc3c(c2)OCO3)[C@@H]1Cc1ccc2c(c1)OCO2
REMARK SMILES IDX 4 1 5 2 16 3 2 4 3 5 6 6 7 7 12 8 8 9 11 10 9 11 10 12 13 13
REMARK SMILES IDX 15 14 14 15 17 16 18 17 23 18 19 19 22 20 20 21 21 22 24 23
REMARK SMILES IDX 26 24 25 25 1 26
REMARK H PARENT 1 27
REMARK Flexibility Score: inf
ROOT
ATOM      1  C   UNL     1     -27.621 -25.359 101.764  1.00  0.00     0.168 C 
ATOM      2  C   UNL     1     -27.909 -24.851 103.177  1.00  0.00     0.028 C 
ATOM      3  C   UNL     1     -28.705 -23.595 102.907  1.00  0.00     0.055 C 
ATOM      4  C   UNL     1     -29.397 -23.941 101.589  1.00  0.00     0.250 C 
ATOM      5  O   UNL     1     -28.545 -24.796 100.859  1.00  0.00    -0.352 OA
ENDROOT
BRANCH   2   6
ATOM      6  C   UNL     1     -26.632 -24.587 104.002  1.00  0.00     0.042 C 
BRANCH   6   7
ATOM      7  C   UNL     1     -26.380 -25.694 104.991  1.00  0.00    -0.044 A 
ATOM      8  C   UNL     1     -27.381 -26.051 105.921  1.00  0.00     0.054 A 
ATOM      9  C   UNL     1     -25.152 -26.409 104.972  1.00  0.00     0.008 A 
ATOM     10  C   UNL     1     -27.113 -27.097 106.801  1.00  0.00     0.166 A 
ATOM     11  C   UNL     1     -24.922 -27.458 105.881  1.00  0.00     0.051 A 
ATOM     12  C   UNL     1     -25.936 -27.770 106.782  1.00  0.00     0.165 A 
ATOM     13  O   UNL     1     -27.927 -27.619 107.788  1.00  0.00    -0.454 OA
ATOM     14  O   UNL     1     -25.950 -28.749 107.757  1.00  0.00    -0.454 OA
ATOM     15  C   UNL     1     -27.215 -28.689 108.428  1.00  0.00     0.468 C 
ENDBRANCH   6   7
ENDBRANCH   2   6
BRANCH   3  16
ATOM     16  C   UNL     1     -29.658 -23.214 104.064  1.00  0.00     0.044 C 
BRANCH  16  17
ATOM     17  C   UNL     1     -29.410 -21.805 104.534  1.00  0.00    -0.044 A 
ATOM     18  C   UNL     1     -29.927 -20.716 103.797  1.00  0.00     0.054 A 
ATOM     19  C   UNL     1     -28.693 -21.561 105.735  1.00  0.00     0.008 A 
ATOM     20  C   UNL     1     -29.702 -19.431 104.282  1.00  0.00     0.166 A 
ATOM     21  C   UNL     1     -28.490 -20.245 106.190  1.00  0.00     0.051 A 
ATOM     22  C   UNL     1     -29.014 -19.205 105.428  1.00  0.00     0.165 A 
ATOM     23  O   UNL     1     -30.104 -18.224 103.740  1.00  0.00    -0.454 OA
ATOM     24  O   UNL     1     -28.949 -17.846 105.667  1.00  0.00    -0.454 OA
ATOM     25  C   UNL     1     -29.640 -17.177 104.603  1.00  0.00     0.468 C 
ENDBRANCH  16  17
ENDBRANCH   3  16
BRANCH   4  26
ATOM     26  O   UNL     1     -30.619 -24.595 101.809  1.00  0.00    -0.368 OA
ATOM     27  H   UNL     1     -30.395 -25.530 102.051  1.00  0.00     0.213 HD
ENDBRANCH   4  26
TORSDOF 5
ENDMDL
MODEL 8
REMARK VINA RESULT:    -6.867      7.902     11.565
REMARK INTER + INTRA:         -10.569
REMARK INTER:                  -8.757
REMARK INTRA:                  -1.812
REMARK UNBOUND:                -1.896
REMARK SMILES O[C@@H]1OC[C@@H](Cc2ccc3c(c2)OCO3)[C@@H]1Cc1ccc2c(c1)OCO2
REMARK SMILES IDX 4 1 5 2 16 3 2 4 3 5 6 6 7 7 12 8 8 9 11 10 9 11 10 12 13 13
REMARK SMILES IDX 15 14 14 15 17 16 18 17 23 18 19 19 22 20 20 21 21 22 24 23
REMARK SMILES IDX 26 24 25 25 1 26
REMARK H PARENT 1 27
REMARK Flexibility Score: inf
ROOT
ATOM      1  C   UNL     1     -30.179 -19.091 106.141  1.00  0.00     0.168 C 
ATOM      2  C   UNL     1     -29.456 -20.321 105.595  1.00  0.00     0.028 C 
ATOM      3  C   UNL     1     -29.873 -20.316 104.142  1.00  0.00     0.055 C 
ATOM      4  C   UNL     1     -30.073 -18.824 103.880  1.00  0.00     0.250 C 
ATOM      5  O   UNL     1     -30.512 -18.224 105.078  1.00  0.00    -0.352 OA
ENDROOT
BRANCH   2   6
ATOM      6  C   UNL     1     -29.839 -21.627 106.324  1.00  0.00     0.042 C 
BRANCH   6   7
ATOM      7  C   UNL     1     -28.791 -22.691 106.128  1.00  0.00    -0.044 A 
ATOM      8  C   UNL     1     -29.174 -24.046 106.011  1.00  0.00     0.054 A 
ATOM      9  C   UNL     1     -27.419 -22.338 106.025  1.00  0.00     0.008 A 
ATOM     10  C   UNL     1     -28.174 -24.993 105.807  1.00  0.00     0.166 A 
ATOM     11  C   UNL     1     -26.440 -23.328 105.820  1.00  0.00     0.051 A 
ATOM     12  C   UNL     1     -26.865 -24.649 105.716  1.00  0.00     0.165 A 
ATOM     13  O   UNL     1     -28.302 -26.361 105.664  1.00  0.00    -0.454 OA
ATOM     14  O   UNL     1     -26.104 -25.784 105.513  1.00  0.00    -0.454 OA
ATOM     15  C   UNL     1     -26.990 -26.911 105.471  1.00  0.00     0.468 C 
ENDBRANCH   6   7
ENDBRANCH   2   6
BRANCH   3  16
ATOM     16  C   UNL     1     -28.853 -21.012 103.211  1.00  0.00     0.044 C 
BRANCH  16  17
ATOM     17  C   UNL     1     -29.278 -22.421 102.891  1.00  0.00    -0.044 A 
ATOM     18  C   UNL     1     -28.315 -23.373 102.486  1.00  0.00     0.054 A 
ATOM     19  C   UNL     1     -30.635 -22.814 103.029  1.00  0.00     0.008 A 
ATOM     20  C   UNL     1     -28.744 -24.671 102.230  1.00  0.00     0.166 A 
ATOM     21  C   UNL     1     -31.026 -24.139 102.762  1.00  0.00     0.051 A 
ATOM     22  C   UNL     1     -30.043 -25.038 102.363  1.00  0.00     0.165 A 
ATOM     23  O   UNL     1     -27.996 -25.761 101.826  1.00  0.00    -0.454 OA
ATOM     24  O   UNL     1     -30.177 -26.377 102.050  1.00  0.00    -0.454 OA
ATOM     25  C   UNL     1     -28.882 -26.882 101.699  1.00  0.00     0.468 C 
ENDBRANCH  16  17
ENDBRANCH   3  16
BRANCH   4  26
ATOM     26  O   UNL     1     -28.877 -18.211 103.476  1.00  0.00    -0.368 OA
ATOM     27  H   UNL     1     -28.167 -18.563 104.073  1.00  0.00     0.213 HD
ENDBRANCH   4  26
TORSDOF 5
ENDMDL
MODEL 9
REMARK VINA RESULT:    -6.694      7.515     11.724
REMARK INTER + INTRA:         -10.350
REMARK INTER:                  -9.395
REMARK INTRA:                  -0.955
REMARK UNBOUND:                -1.896
REMARK SMILES O[C@@H]1OC[C@@H](Cc2ccc3c(c2)OCO3)[C@@H]1Cc1ccc2c(c1)OCO2
REMARK SMILES IDX 4 1 5 2 16 3 2 4 3 5 6 6 7 7 12 8 8 9 11 10 9 11 10 12 13 13
REMARK SMILES IDX 15 14 14 15 17 16 18 17 23 18 19 19 22 20 20 21 21 22 24 23
REMARK SMILES IDX 26 24 25 25 1 26
REMARK H PARENT 1 27
REMARK Flexibility Score: inf
ROOT
ATOM      1  C   UNL     1     -27.485 -25.243 102.002  1.00  0.00     0.168 C 
ATOM      2  C   UNL     1     -26.735 -24.138 102.745  1.00  0.00     0.028 C 
ATOM      3  C   UNL     1     -26.207 -23.293 101.609  1.00  0.00     0.055 C 
ATOM      4  C   UNL     1     -27.273 -23.511 100.536  1.00  0.00     0.250 C 
ATOM      5  O   UNL     1     -27.793 -24.812 100.694  1.00  0.00    -0.352 OA
ENDROOT
BRANCH   2   6
ATOM      6  C   UNL     1     -25.617 -24.673 103.666  1.00  0.00     0.042 C 
BRANCH   6   7
ATOM      7  C   UNL     1     -26.188 -25.334 104.893  1.00  0.00    -0.044 A 
ATOM      8  C   UNL     1     -25.939 -26.703 105.138  1.00  0.00     0.054 A 
ATOM      9  C   UNL     1     -26.949 -24.581 105.826  1.00  0.00     0.008 A 
ATOM     10  C   UNL     1     -26.467 -27.267 106.296  1.00  0.00     0.166 A 
ATOM     11  C   UNL     1     -27.465 -25.191 106.984  1.00  0.00     0.051 A 
ATOM     12  C   UNL     1     -27.198 -26.543 107.180  1.00  0.00     0.165 A 
ATOM     13  O   UNL     1     -26.359 -28.568 106.745  1.00  0.00    -0.454 OA
ATOM     14  O   UNL     1     -27.588 -27.354 108.228  1.00  0.00    -0.454 OA
ATOM     15  C   UNL     1     -27.067 -28.668 107.989  1.00  0.00     0.468 C 
ENDBRANCH   6   7
ENDBRANCH   2   6
BRANCH   3  16
ATOM     16  C   UNL     1     -25.970 -21.816 102.004  1.00  0.00     0.044 C 
BRANCH  16  17
ATOM     17  C   UNL     1     -24.604 -21.349 101.575  1.00  0.00    -0.044 A 
ATOM     18  C   UNL     1     -23.545 -22.278 101.465  1.00  0.00     0.054 A 
ATOM     19  C   UNL     1     -24.379 -19.987 101.243  1.00  0.00     0.008 A 
ATOM     20  C   UNL     1     -22.306 -21.811 101.036  1.00  0.00     0.166 A 
ATOM     21  C   UNL     1     -23.110 -19.558 100.811  1.00  0.00     0.051 A 
ATOM     22  C   UNL     1     -22.098 -20.508 100.722  1.00  0.00     0.165 A 
ATOM     23  O   UNL     1     -21.135 -22.521 100.854  1.00  0.00    -0.454 OA
ATOM     24  O   UNL     1     -20.786 -20.333 100.326  1.00  0.00    -0.454 OA
ATOM     25  C   UNL     1     -20.130 -21.606 100.395  1.00  0.00     0.468 C 
ENDBRANCH  16  17
ENDBRANCH   3  16
BRANCH   4  26
ATOM     26  O   UNL     1     -28.319 -22.584 100.658  1.00  0.00    -0.368 OA
ATOM     27  H   UNL     1     -28.259 -21.989  99.867  1.00  0.00     0.213 HD
ENDBRANCH   4  26
TORSDOF 5
ENDMDL
