MODEL 1
REMARK VINA RESULT:    -5.876      0.000      0.000
REMARK INTER + INTRA:          -9.698
REMARK INTER:                  -8.624
REMARK INTRA:                  -1.074
REMARK UNBOUND:                -1.074
REMARK SMILES O=c1c(O[C@@H]2O[C@@H](CO)[C@@H](O)[C@H](O)[C@H]2O)c(-c2ccc(O)c(O)c2)oc2cc(O)cc(O)c12
REMARK SMILES IDX 4 1 3 2 16 3 25 4 2 5 26 6 1 7 33 8 27 9 31 10 28 11 30 12
REMARK SMILES IDX 17 13 18 14 19 15 20 16 24 17 22 18 21 19 23 21 32 23 29 25
REMARK SMILES IDX 5 27 14 28 6 29 12 30 7 31 10 32 15 33 13 35 8 37 9 38 11 40
REMARK H PARENT 21 20 23 22 32 24 29 26 15 34 13 36 9 39 11 41
REMARK Flexibility Score: inf
ROOT
ATOM      1  O   UNL     1      33.892  26.640  18.979  1.00  0.00    -0.454 OA
ENDROOT
BRANCH   1   2
ATOM      2  C   UNL     1      34.151  25.377  19.526  1.00  0.00     0.214 A 
ATOM      3  C   UNL     1      34.678  25.271  20.827  1.00  0.00     0.180 A 
ATOM      4  O   UNL     1      34.836  24.073  21.383  1.00  0.00    -0.452 OA
ATOM      5  C   UNL     1      33.859  24.201  18.816  1.00  0.00     0.239 A 
ATOM      6  C   UNL     1      34.543  22.937  20.760  1.00  0.00     0.146 A 
ATOM      7  O   UNL     1      33.441  24.279  17.630  1.00  0.00    -0.285 OA
ATOM      8  C   UNL     1      34.046  22.949  19.437  1.00  0.00     0.111 A 
ATOM      9  C   UNL     1      34.737  21.725  21.430  1.00  0.00     0.094 A 
ATOM     10  C   UNL     1      33.751  21.719  18.800  1.00  0.00     0.134 A 
ATOM     11  C   UNL     1      34.438  20.514  20.799  1.00  0.00     0.123 A 
ATOM     12  C   UNL     1      33.950  20.513  19.490  1.00  0.00     0.093 A 
BRANCH   3  13
ATOM     13  C   UNL     1      35.028  26.468  21.623  1.00  0.00     0.025 A 
ATOM     14  C   UNL     1      34.015  27.180  22.284  1.00  0.00     0.016 A 
ATOM     15  C   UNL     1      34.325  28.318  23.035  1.00  0.00     0.051 A 
ATOM     16  C   UNL     1      35.654  28.750  23.146  1.00  0.00     0.157 A 
ATOM     17  C   UNL     1      36.363  26.892  21.754  1.00  0.00     0.062 A 
ATOM     18  C   UNL     1      36.678  28.029  22.508  1.00  0.00     0.158 A 
BRANCH  16  19
ATOM     19  O   UNL     1      35.961  29.891  23.886  1.00  0.00    -0.504 OA
ATOM     20  H   UNL     1      36.655  29.874  24.623  1.00  0.00     0.293 HD
ENDBRANCH  16  19
BRANCH  18  21
ATOM     21  O   UNL     1      38.011  28.423  22.613  1.00  0.00    -0.504 OA
ATOM     22  H   UNL     1      38.323  29.081  23.317  1.00  0.00     0.293 HD
ENDBRANCH  18  21
ENDBRANCH   3  13
BRANCH  10  23
ATOM     23  O   UNL     1      33.263  21.685  17.493  1.00  0.00    -0.507 OA
ATOM     24  H   UNL     1      32.273  21.597  17.295  1.00  0.00     0.293 HD
ENDBRANCH  10  23
BRANCH  11  25
ATOM     25  O   UNL     1      34.623  19.303  21.463  1.00  0.00    -0.508 OA
ATOM     26  H   UNL     1      33.855  18.659  21.614  1.00  0.00     0.293 HD
ENDBRANCH  11  25
ENDBRANCH   1   2
BRANCH   1  27
ATOM     27  C   UNL     1      32.564  27.136  18.783  1.00  0.00     0.339 C 
ATOM     28  C   UNL     1      32.308  28.383  19.665  1.00  0.00     0.214 C 
ATOM     29  O   UNL     1      32.297  27.383  17.412  1.00  0.00    -0.332 OA
ATOM     30  C   UNL     1      32.924  29.680  19.082  1.00  0.00     0.180 C 
ATOM     31  C   UNL     1      33.130  28.410  16.900  1.00  0.00     0.179 C 
ATOM     32  C   UNL     1      32.778  29.766  17.547  1.00  0.00     0.177 C 
BRANCH  28  33
ATOM     33  O   UNL     1      30.929  28.552  19.893  1.00  0.00    -0.384 OA
ATOM     34  H   UNL     1      30.503  28.791  19.028  1.00  0.00     0.211 HD
ENDBRANCH  28  33
BRANCH  30  35
ATOM     35  O   UNL     1      34.270  29.825  19.468  1.00  0.00    -0.387 OA
ATOM     36  H   UNL     1      34.524  30.777  19.358  1.00  0.00     0.211 HD
ENDBRANCH  30  35
BRANCH  31  37
ATOM     37  C   UNL     1      32.994  28.459  15.367  1.00  0.00     0.191 C 
BRANCH  37  38
ATOM     38  O   UNL     1      33.009  27.170  14.808  1.00  0.00    -0.394 OA
ATOM     39  H   UNL     1      32.504  27.229  13.954  1.00  0.00     0.210 HD
ENDBRANCH  37  38
ENDBRANCH  31  37
BRANCH  32  40
ATOM     40  O   UNL     1      31.456  30.125  17.231  1.00  0.00    -0.387 OA
ATOM     41  H   UNL     1      30.885  29.885  18.006  1.00  0.00     0.211 HD
ENDBRANCH  32  40
ENDBRANCH   1  27
TORSDOF 12
ENDMDL
MODEL 2
REMARK VINA RESULT:    -4.247      1.434      5.370
REMARK INTER + INTRA:          -7.308
REMARK INTER:                  -7.128
REMARK INTRA:                  -0.180
REMARK UNBOUND:                -1.074
REMARK SMILES O=c1c(O[C@@H]2O[C@@H](CO)[C@@H](O)[C@H](O)[C@H]2O)c(-c2ccc(O)c(O)c2)oc2cc(O)cc(O)c12
REMARK SMILES IDX 4 1 3 2 16 3 25 4 2 5 26 6 1 7 33 8 27 9 31 10 28 11 30 12
REMARK SMILES IDX 17 13 18 14 19 15 20 16 24 17 22 18 21 19 23 21 32 23 29 25
REMARK SMILES IDX 5 27 14 28 6 29 12 30 7 31 10 32 15 33 13 35 8 37 9 38 11 40
REMARK H PARENT 21 20 23 22 32 24 29 26 15 34 13 36 9 39 11 41
REMARK Flexibility Score: inf
ROOT
ATOM      1  O   UNL     1      34.469  26.882  20.974  1.00  0.00    -0.454 OA
ENDROOT
BRANCH   1   2
ATOM      2  C   UNL     1      34.281  25.624  20.388  1.00  0.00     0.214 A 
ATOM      3  C   UNL     1      33.765  25.529  19.082  1.00  0.00     0.180 A 
ATOM      4  O   UNL     1      33.674  24.342  18.490  1.00  0.00    -0.452 OA
ATOM      5  C   UNL     1      34.634  24.445  21.064  1.00  0.00     0.239 A 
ATOM      6  C   UNL     1      34.026  23.204  19.079  1.00  0.00     0.146 A 
ATOM      7  O   UNL     1      35.043  24.510  22.254  1.00  0.00    -0.285 OA
ATOM      8  C   UNL     1      34.518  23.204  20.405  1.00  0.00     0.111 A 
ATOM      9  C   UNL     1      33.900  22.004  18.373  1.00  0.00     0.094 A 
ATOM     10  C   UNL     1      34.877  21.973  21.006  1.00  0.00     0.134 A 
ATOM     11  C   UNL     1      34.263  20.793  18.969  1.00  0.00     0.123 A 
ATOM     12  C   UNL     1      34.746  20.779  20.280  1.00  0.00     0.093 A 
BRANCH   3  13
ATOM     13  C   UNL     1      33.352  26.728  18.320  1.00  0.00     0.025 A 
ATOM     14  C   UNL     1      33.422  26.715  16.918  1.00  0.00     0.016 A 
ATOM     15  C   UNL     1      33.044  27.841  16.180  1.00  0.00     0.051 A 
ATOM     16  C   UNL     1      32.578  28.990  16.835  1.00  0.00     0.157 A 
ATOM     17  C   UNL     1      32.865  27.875  18.972  1.00  0.00     0.062 A 
ATOM     18  C   UNL     1      32.482  29.004  18.236  1.00  0.00     0.158 A 
BRANCH  16  19
ATOM     19  O   UNL     1      32.212  30.115  16.099  1.00  0.00    -0.504 OA
ATOM     20  H   UNL     1      32.801  30.480  15.360  1.00  0.00     0.293 HD
ENDBRANCH  16  19
BRANCH  18  21
ATOM     21  O   UNL     1      32.007  30.125  18.916  1.00  0.00    -0.504 OA
ATOM     22  H   UNL     1      32.576  30.952  19.050  1.00  0.00     0.293 HD
ENDBRANCH  18  21
ENDBRANCH   3  13
BRANCH  10  23
ATOM     23  O   UNL     1      35.362  21.927  22.314  1.00  0.00    -0.507 OA
ATOM     24  H   UNL     1      34.796  22.217  23.104  1.00  0.00     0.293 HD
ENDBRANCH  10  23
BRANCH  11  25
ATOM     25  O   UNL     1      34.147  19.594  18.269  1.00  0.00    -0.508 OA
ATOM     26  H   UNL     1      33.329  19.385  17.708  1.00  0.00     0.293 HD
ENDBRANCH  11  25
ENDBRANCH   1   2
BRANCH   1  27
ATOM     27  C   UNL     1      35.627  27.204  21.751  1.00  0.00     0.339 C 
ATOM     28  C   UNL     1      36.208  28.575  21.329  1.00  0.00     0.214 C 
ATOM     29  O   UNL     1      35.354  27.140  23.141  1.00  0.00    -0.332 OA
ATOM     30  C   UNL     1      35.426  29.777  21.918  1.00  0.00     0.180 C 
ATOM     31  C   UNL     1      34.397  28.112  23.527  1.00  0.00     0.179 C 
ATOM     32  C   UNL     1      34.979  29.534  23.376  1.00  0.00     0.177 C 
BRANCH  28  33
ATOM     33  O   UNL     1      37.571  28.660  21.670  1.00  0.00    -0.384 OA
ATOM     34  H   UNL     1      37.650  28.527  22.651  1.00  0.00     0.211 HD
ENDBRANCH  28  33
BRANCH  30  35
ATOM     35  O   UNL     1      34.330  30.122  21.106  1.00  0.00    -0.387 OA
ATOM     36  H   UNL     1      34.140  29.361  20.501  1.00  0.00     0.211 HD
ENDBRANCH  30  35
BRANCH  31  37
ATOM     37  C   UNL     1      33.940  27.834  24.971  1.00  0.00     0.191 C 
BRANCH  37  38
ATOM     38  O   UNL     1      33.613  29.023  25.644  1.00  0.00    -0.394 OA
ATOM     39  H   UNL     1      33.201  29.624  24.968  1.00  0.00     0.210 HD
ENDBRANCH  37  38
ENDBRANCH  31  37
BRANCH  32  40
ATOM     40  O   UNL     1      36.084  29.697  24.229  1.00  0.00    -0.387 OA
ATOM     41  H   UNL     1      36.336  28.801  24.572  1.00  0.00     0.211 HD
ENDBRANCH  32  40
ENDBRANCH   1  27
TORSDOF 12
ENDMDL
