MODEL 1
REMARK VINA RESULT:    -3.135      0.000      0.000
REMARK INTER + INTRA:          -3.790
REMARK INTER:                  -3.684
REMARK INTRA:                  -0.106
REMARK UNBOUND:                -0.106
REMARK SMILES O=C([O-])CCC(=O)[O-]
REMARK SMILES IDX 4 1 2 2 1 3 3 4 5 5 6 6 7 7 8 8
REMARK H PARENT
REMARK Flexibility Score: inf
ROOT
ATOM      1  C   UNL     1      10.954  -5.954  -5.584  1.00  0.00     0.059 C 
ENDROOT
BRANCH   1   2
ATOM      2  C   UNL     1      10.915  -4.932  -4.492  1.00  0.00     0.042 C 
ATOM      3  O   UNL     1      11.206  -3.732  -4.736  1.00  0.00    -0.550 OA
ATOM      4  O   UNL     1      10.606  -5.315  -3.192  1.00  0.00    -0.550 OA
ENDBRANCH   1   2
BRANCH   1   5
ATOM      5  C   UNL     1      10.191  -5.453  -6.812  1.00  0.00     0.059 C 
BRANCH   5   6
ATOM      6  C   UNL     1       8.742  -5.811  -6.709  1.00  0.00     0.042 C 
ATOM      7  O   UNL     1       8.379  -6.789  -6.003  1.00  0.00    -0.550 OA
ATOM      8  O   UNL     1       7.796  -5.098  -7.434  1.00  0.00    -0.550 OA
ENDBRANCH   5   6
ENDBRANCH   1   5
TORSDOF 3
ENDMDL
MODEL 2
REMARK VINA RESULT:    -3.132      0.155      1.156
REMARK INTER + INTRA:          -3.787
REMARK INTER:                  -3.676
REMARK INTRA:                  -0.111
REMARK UNBOUND:                -0.106
REMARK SMILES O=C([O-])CCC(=O)[O-]
REMARK SMILES IDX 4 1 2 2 1 3 3 4 5 5 6 6 7 7 8 8
REMARK H PARENT
REMARK Flexibility Score: inf
ROOT
ATOM      1  C   UNL     1      10.955  -6.033  -5.387  1.00  0.00     0.059 C 
ENDROOT
BRANCH   1   2
ATOM      2  C   UNL     1      10.932  -4.993  -4.312  1.00  0.00     0.042 C 
ATOM      3  O   UNL     1      10.595  -5.300  -3.139  1.00  0.00    -0.550 OA
ATOM      4  O   UNL     1      11.237  -3.671  -4.616  1.00  0.00    -0.550 OA
ENDBRANCH   1   2
BRANCH   1   5
ATOM      5  C   UNL     1      10.304  -5.497  -6.663  1.00  0.00     0.059 C 
BRANCH   5   6
ATOM      6  C   UNL     1       8.836  -5.788  -6.664  1.00  0.00     0.042 C 
ATOM      7  O   UNL     1       8.379  -6.742  -5.981  1.00  0.00    -0.550 OA
ATOM      8  O   UNL     1       7.979  -5.036  -7.457  1.00  0.00    -0.550 OA
ENDBRANCH   5   6
ENDBRANCH   1   5
TORSDOF 3
ENDMDL
MODEL 3
REMARK VINA RESULT:    -3.113      0.230      3.440
REMARK INTER + INTRA:          -3.764
REMARK INTER:                  -3.639
REMARK INTRA:                  -0.124
REMARK UNBOUND:                -0.106
REMARK SMILES O=C([O-])CCC(=O)[O-]
REMARK SMILES IDX 4 1 2 2 1 3 3 4 5 5 6 6 7 7 8 8
REMARK H PARENT
REMARK Flexibility Score: inf
ROOT
ATOM      1  C   UNL     1      10.449  -5.521  -6.730  1.00  0.00     0.059 C 
ENDROOT
BRANCH   1   2
ATOM      2  C   UNL     1       8.968  -5.730  -6.754  1.00  0.00     0.042 C 
ATOM      3  O   UNL     1       8.231  -4.971  -7.439  1.00  0.00    -0.550 OA
ATOM      4  O   UNL     1       8.393  -6.732  -5.982  1.00  0.00    -0.550 OA
ENDBRANCH   1   2
BRANCH   1   5
ATOM      5  C   UNL     1      11.039  -6.028  -5.414  1.00  0.00     0.059 C 
BRANCH   5   6
ATOM      6  C   UNL     1      10.971  -4.963  -4.366  1.00  0.00     0.042 C 
ATOM      7  O   UNL     1      10.619  -5.250  -3.191  1.00  0.00    -0.550 OA
ATOM      8  O   UNL     1      11.249  -3.643  -4.697  1.00  0.00    -0.550 OA
ENDBRANCH   5   6
ENDBRANCH   1   5
TORSDOF 3
ENDMDL
MODEL 4
REMARK VINA RESULT:    -3.112      0.097      3.771
REMARK INTER + INTRA:          -3.763
REMARK INTER:                  -3.654
REMARK INTRA:                  -0.109
REMARK UNBOUND:                -0.106
REMARK SMILES O=C([O-])CCC(=O)[O-]
REMARK SMILES IDX 4 1 2 2 1 3 3 4 5 5 6 6 7 7 8 8
REMARK H PARENT
REMARK Flexibility Score: inf
ROOT
ATOM      1  C   UNL     1      10.307  -5.563  -6.807  1.00  0.00     0.059 C 
ENDROOT
BRANCH   1   2
ATOM      2  C   UNL     1       8.841  -5.844  -6.711  1.00  0.00     0.042 C 
ATOM      3  O   UNL     1       8.425  -6.813  -6.024  1.00  0.00    -0.550 OA
ATOM      4  O   UNL     1       7.936  -5.064  -7.421  1.00  0.00    -0.550 OA
ENDBRANCH   1   2
BRANCH   1   5
ATOM      5  C   UNL     1      11.023  -6.013  -5.533  1.00  0.00     0.059 C 
BRANCH   5   6
ATOM      6  C   UNL     1      10.919  -4.961  -4.474  1.00  0.00     0.042 C 
ATOM      7  O   UNL     1      11.165  -3.757  -4.751  1.00  0.00    -0.550 OA
ATOM      8  O   UNL     1      10.600  -5.315  -3.170  1.00  0.00    -0.550 OA
ENDBRANCH   5   6
ENDBRANCH   1   5
TORSDOF 3
ENDMDL
MODEL 5
REMARK VINA RESULT:    -3.039      2.541      5.011
REMARK INTER + INTRA:          -3.678
REMARK INTER:                  -3.647
REMARK INTRA:                  -0.031
REMARK UNBOUND:                -0.106
REMARK SMILES O=C([O-])CCC(=O)[O-]
REMARK SMILES IDX 4 1 2 2 1 3 3 4 5 5 6 6 7 7 8 8
REMARK H PARENT
REMARK Flexibility Score: inf
ROOT
ATOM      1  C   UNL     1       6.958  -4.505  -7.885  1.00  0.00     0.059 C 
ENDROOT
BRANCH   1   2
ATOM      2  C   UNL     1       6.332  -4.117  -9.187  1.00  0.00     0.042 C 
ATOM      3  O   UNL     1       7.043  -3.671 -10.125  1.00  0.00    -0.550 OA
ATOM      4  O   UNL     1       4.954  -4.201  -9.348  1.00  0.00    -0.550 OA
ENDBRANCH   1   2
BRANCH   1   5
ATOM      5  C   UNL     1       8.231  -5.318  -8.125  1.00  0.00     0.059 C 
BRANCH   5   6
ATOM      6  C   UNL     1       8.913  -5.618  -6.828  1.00  0.00     0.042 C 
ATOM      7  O   UNL     1       9.955  -4.991  -6.500  1.00  0.00    -0.550 OA
ATOM      8  O   UNL     1       8.428  -6.624  -6.002  1.00  0.00    -0.550 OA
ENDBRANCH   5   6
ENDBRANCH   1   5
TORSDOF 3
ENDMDL
MODEL 6
REMARK VINA RESULT:    -3.013      2.541      3.739
REMARK INTER + INTRA:          -3.647
REMARK INTER:                  -3.616
REMARK INTRA:                  -0.031
REMARK UNBOUND:                -0.106
REMARK SMILES O=C([O-])CCC(=O)[O-]
REMARK SMILES IDX 4 1 2 2 1 3 3 4 5 5 6 6 7 7 8 8
REMARK H PARENT
REMARK Flexibility Score: inf
ROOT
ATOM      1  C   UNL     1       8.358  -5.223  -8.127  1.00  0.00     0.059 C 
ENDROOT
BRANCH   1   2
ATOM      2  C   UNL     1       8.959  -5.550  -6.797  1.00  0.00     0.042 C 
ATOM      3  O   UNL     1       9.991  -4.946  -6.401  1.00  0.00    -0.550 OA
ATOM      4  O   UNL     1       8.409  -6.557  -6.013  1.00  0.00    -0.550 OA
ENDBRANCH   1   2
BRANCH   1   5
ATOM      5  C   UNL     1       6.999  -4.544  -7.947  1.00  0.00     0.059 C 
BRANCH   5   6
ATOM      6  C   UNL     1       6.486  -4.046  -9.261  1.00  0.00     0.042 C 
ATOM      7  O   UNL     1       7.235  -3.377 -10.022  1.00  0.00    -0.550 OA
ATOM      8  O   UNL     1       5.165  -4.276  -9.624  1.00  0.00    -0.550 OA
ENDBRANCH   5   6
ENDBRANCH   1   5
TORSDOF 3
ENDMDL
MODEL 7
REMARK VINA RESULT:    -2.883      1.492      2.070
REMARK INTER + INTRA:          -3.494
REMARK INTER:                  -3.376
REMARK INTRA:                  -0.117
REMARK UNBOUND:                -0.106
REMARK SMILES O=C([O-])CCC(=O)[O-]
REMARK SMILES IDX 4 1 2 2 1 3 3 4 5 5 6 6 7 7 8 8
REMARK H PARENT
REMARK Flexibility Score: inf
ROOT
ATOM      1  C   UNL     1      11.020  -4.728  -4.266  1.00  0.00     0.059 C 
ENDROOT
BRANCH   1   2
ATOM      2  C   UNL     1      11.347  -5.599  -3.094  1.00  0.00     0.042 C 
ATOM      3  O   UNL     1      12.026  -5.145  -2.136  1.00  0.00    -0.550 OA
ATOM      4  O   UNL     1      10.944  -6.929  -3.082  1.00  0.00    -0.550 OA
ENDBRANCH   1   2
BRANCH   1   5
ATOM      5  C   UNL     1      11.140  -5.518  -5.569  1.00  0.00     0.059 C 
BRANCH   5   6
ATOM      6  C   UNL     1       9.812  -5.605  -6.253  1.00  0.00     0.042 C 
ATOM      7  O   UNL     1       9.513  -4.788  -7.163  1.00  0.00    -0.550 OA
ATOM      8  O   UNL     1       8.884  -6.557  -5.850  1.00  0.00    -0.550 OA
ENDBRANCH   5   6
ENDBRANCH   1   5
TORSDOF 3
ENDMDL
MODEL 8
REMARK VINA RESULT:    -2.655      1.631      3.836
REMARK INTER + INTRA:          -3.226
REMARK INTER:                  -3.150
REMARK INTRA:                  -0.076
REMARK UNBOUND:                -0.106
REMARK SMILES O=C([O-])CCC(=O)[O-]
REMARK SMILES IDX 4 1 2 2 1 3 3 4 5 5 6 6 7 7 8 8
REMARK H PARENT
REMARK Flexibility Score: inf
ROOT
ATOM      1  C   UNL     1      10.741  -5.025  -5.090  1.00  0.00     0.059 C 
ENDROOT
BRANCH   1   2
ATOM      2  C   UNL     1       9.836  -5.495  -6.186  1.00  0.00     0.042 C 
ATOM      3  O   UNL     1       9.890  -4.961  -7.325  1.00  0.00    -0.550 OA
ATOM      4  O   UNL     1       8.899  -6.490  -5.935  1.00  0.00    -0.550 OA
ENDBRANCH   1   2
BRANCH   1   5
ATOM      5  C   UNL     1      11.719  -6.131  -4.693  1.00  0.00     0.059 C 
BRANCH   5   6
ATOM      6  C   UNL     1      11.608  -6.429  -3.232  1.00  0.00     0.042 C 
ATOM      7  O   UNL     1      11.052  -7.490  -2.842  1.00  0.00    -0.550 OA
ATOM      8  O   UNL     1      12.072  -5.512  -2.298  1.00  0.00    -0.550 OA
ENDBRANCH   5   6
ENDBRANCH   1   5
TORSDOF 3
ENDMDL
MODEL 9
REMARK VINA RESULT:    -2.626      1.740      2.645
REMARK INTER + INTRA:          -3.192
REMARK INTER:                  -3.110
REMARK INTRA:                  -0.083
REMARK UNBOUND:                -0.106
REMARK SMILES O=C([O-])CCC(=O)[O-]
REMARK SMILES IDX 4 1 2 2 1 3 3 4 5 5 6 6 7 7 8 8
REMARK H PARENT
REMARK Flexibility Score: inf
ROOT
ATOM      1  C   UNL     1       8.589  -6.188  -6.604  1.00  0.00     0.059 C 
ENDROOT
BRANCH   1   2
ATOM      2  C   UNL     1       9.889  -5.875  -5.935  1.00  0.00     0.042 C 
ATOM      3  O   UNL     1      10.348  -6.642  -5.048  1.00  0.00    -0.550 OA
ATOM      4  O   UNL     1      10.573  -4.708  -6.256  1.00  0.00    -0.550 OA
ENDBRANCH   1   2
BRANCH   1   5
ATOM      5  C   UNL     1       8.668  -5.879  -8.100  1.00  0.00     0.059 C 
BRANCH   5   6
ATOM      6  C   UNL     1       7.778  -4.727  -8.444  1.00  0.00     0.042 C 
ATOM      7  O   UNL     1       6.731  -4.514  -7.778  1.00  0.00    -0.550 OA
ATOM      8  O   UNL     1       8.078  -3.917  -9.531  1.00  0.00    -0.550 OA
ENDBRANCH   5   6
ENDBRANCH   1   5
TORSDOF 3
ENDMDL
