MODEL 1
REMARK VINA RESULT:    -2.540      0.000      0.000
REMARK INTER + INTRA:          -2.892
REMARK INTER:                  -2.837
REMARK INTRA:                  -0.054
REMARK UNBOUND:                -0.054
REMARK SMILES CCCC(=O)[O-]
REMARK SMILES IDX 3 1 4 2 5 3 6 4 2 5 1 6
REMARK H PARENT
REMARK Flexibility Score: inf
ROOT
ATOM      1  C   UNL     1     -12.013  10.958   5.470  1.00  0.00     0.052 C 
ENDROOT
BRANCH   1   2
ATOM      2  C   UNL     1     -13.330  10.974   6.182  1.00  0.00     0.041 C 
ATOM      3  O   UNL     1     -13.571  10.135   7.090  1.00  0.00    -0.550 OA
ATOM      4  O   UNL     1     -14.305  11.895   5.821  1.00  0.00    -0.550 OA
ENDBRANCH   1   2
BRANCH   1   5
ATOM      5  C   UNL     1     -11.773   9.626   4.749  1.00  0.00     0.003 C 
ATOM      6  C   UNL     1     -12.465   9.567   3.388  1.00  0.00     0.004 C 
ENDBRANCH   1   5
TORSDOF 2
ENDMDL
MODEL 2
REMARK VINA RESULT:    -2.534      0.085      1.324
REMARK INTER + INTRA:          -2.884
REMARK INTER:                  -2.830
REMARK INTRA:                  -0.054
REMARK UNBOUND:                -0.054
REMARK SMILES CCCC(=O)[O-]
REMARK SMILES IDX 3 1 4 2 5 3 6 4 2 5 1 6
REMARK H PARENT
REMARK Flexibility Score: inf
ROOT
ATOM      1  C   UNL     1     -11.996  10.959   5.423  1.00  0.00     0.052 C 
ENDROOT
BRANCH   1   2
ATOM      2  C   UNL     1     -13.307  10.986   6.147  1.00  0.00     0.041 C 
ATOM      3  O   UNL     1     -14.190  11.827   5.830  1.00  0.00    -0.550 OA
ATOM      4  O   UNL     1     -13.542  10.104   7.194  1.00  0.00    -0.550 OA
ENDBRANCH   1   2
BRANCH   1   5
ATOM      5  C   UNL     1     -11.772   9.622   4.704  1.00  0.00     0.003 C 
ATOM      6  C   UNL     1     -12.536   9.537   3.383  1.00  0.00     0.004 C 
ENDBRANCH   1   5
TORSDOF 2
ENDMDL
MODEL 3
REMARK VINA RESULT:    -2.505      1.901      2.459
REMARK INTER + INTRA:          -2.853
REMARK INTER:                  -2.783
REMARK INTRA:                  -0.070
REMARK UNBOUND:                -0.054
REMARK SMILES CCCC(=O)[O-]
REMARK SMILES IDX 3 1 4 2 5 3 6 4 2 5 1 6
REMARK H PARENT
REMARK Flexibility Score: inf
ROOT
ATOM      1  C   UNL     1     -12.829  10.426   4.174  1.00  0.00     0.052 C 
ENDROOT
BRANCH   1   2
ATOM      2  C   UNL     1     -12.070  10.687   5.438  1.00  0.00     0.041 C 
ATOM      3  O   UNL     1     -12.091   9.848   6.377  1.00  0.00    -0.550 OA
ATOM      4  O   UNL     1     -11.364  11.873   5.593  1.00  0.00    -0.550 OA
ENDBRANCH   1   2
BRANCH   1   5
ATOM      5  C   UNL     1     -14.335  10.292   4.434  1.00  0.00     0.003 C 
ATOM      6  C   UNL     1     -14.929  11.545   5.078  1.00  0.00     0.004 C 
ENDBRANCH   1   5
TORSDOF 2
ENDMDL
MODEL 4
REMARK VINA RESULT:    -2.420      1.606      1.824
REMARK INTER + INTRA:          -2.758
REMARK INTER:                  -2.690
REMARK INTRA:                  -0.067
REMARK UNBOUND:                -0.054
REMARK SMILES CCCC(=O)[O-]
REMARK SMILES IDX 3 1 4 2 5 3 6 4 2 5 1 6
REMARK H PARENT
REMARK Flexibility Score: inf
ROOT
ATOM      1  C   UNL     1     -13.502  10.718   4.733  1.00  0.00     0.052 C 
ENDROOT
BRANCH   1   2
ATOM      2  C   UNL     1     -12.292  10.720   5.615  1.00  0.00     0.041 C 
ATOM      3  O   UNL     1     -12.095   9.776   6.425  1.00  0.00    -0.550 OA
ATOM      4  O   UNL     1     -11.398  11.782   5.567  1.00  0.00    -0.550 OA
ENDBRANCH   1   2
BRANCH   1   5
ATOM      5  C   UNL     1     -13.583   9.444   3.883  1.00  0.00     0.003 C 
ATOM      6  C   UNL     1     -12.463   9.362   2.847  1.00  0.00     0.004 C 
ENDBRANCH   1   5
TORSDOF 2
ENDMDL
MODEL 5
REMARK VINA RESULT:    -2.375      2.055      2.843
REMARK INTER + INTRA:          -2.707
REMARK INTER:                  -2.638
REMARK INTRA:                  -0.069
REMARK UNBOUND:                -0.054
REMARK SMILES CCCC(=O)[O-]
REMARK SMILES IDX 3 1 4 2 5 3 6 4 2 5 1 6
REMARK H PARENT
REMARK Flexibility Score: inf
ROOT
ATOM      1  C   UNL     1     -12.164   9.371   5.999  1.00  0.00     0.052 C 
ENDROOT
BRANCH   1   2
ATOM      2  C   UNL     1     -11.986  10.547   5.088  1.00  0.00     0.041 C 
ATOM      3  O   UNL     1     -11.534  11.634   5.535  1.00  0.00    -0.550 OA
ATOM      4  O   UNL     1     -12.350  10.452   3.751  1.00  0.00    -0.550 OA
ENDBRANCH   1   2
BRANCH   1   5
ATOM      5  C   UNL     1     -13.058   9.712   7.198  1.00  0.00     0.003 C 
ATOM      6  C   UNL     1     -14.486  10.059   6.780  1.00  0.00     0.004 C 
ENDBRANCH   1   5
TORSDOF 2
ENDMDL
MODEL 6
REMARK VINA RESULT:    -2.339     11.891     12.189
REMARK INTER + INTRA:          -2.667
REMARK INTER:                  -2.631
REMARK INTRA:                  -0.035
REMARK UNBOUND:                -0.054
REMARK SMILES CCCC(=O)[O-]
REMARK SMILES IDX 3 1 4 2 5 3 6 4 2 5 1 6
REMARK H PARENT
REMARK Flexibility Score: inf
ROOT
ATOM      1  C   UNL     1      -0.670  12.164   9.523  1.00  0.00     0.052 C 
ENDROOT
BRANCH   1   2
ATOM      2  C   UNL     1      -1.909  12.848  10.011  1.00  0.00     0.041 C 
ATOM      3  O   UNL     1      -2.873  12.172  10.460  1.00  0.00    -0.550 OA
ATOM      4  O   UNL     1      -2.014  14.231   9.940  1.00  0.00    -0.550 OA
ENDBRANCH   1   2
BRANCH   1   5
ATOM      5  C   UNL     1      -0.879  11.527   8.143  1.00  0.00     0.003 C 
ATOM      6  C   UNL     1      -0.809  10.001   8.190  1.00  0.00     0.004 C 
ENDBRANCH   1   5
TORSDOF 2
ENDMDL
MODEL 7
REMARK VINA RESULT:    -2.327      2.291      3.099
REMARK INTER + INTRA:          -2.653
REMARK INTER:                  -2.617
REMARK INTRA:                  -0.036
REMARK UNBOUND:                -0.054
REMARK SMILES CCCC(=O)[O-]
REMARK SMILES IDX 3 1 4 2 5 3 6 4 2 5 1 6
REMARK H PARENT
REMARK Flexibility Score: inf
ROOT
ATOM      1  C   UNL     1     -11.868   9.410   5.103  1.00  0.00     0.052 C 
ENDROOT
BRANCH   1   2
ATOM      2  C   UNL     1     -12.657   9.885   3.922  1.00  0.00     0.041 C 
ATOM      3  O   UNL     1     -13.676  10.606   4.087  1.00  0.00    -0.550 OA
ATOM      4  O   UNL     1     -12.285   9.503   2.639  1.00  0.00    -0.550 OA
ENDBRANCH   1   2
BRANCH   1   5
ATOM      5  C   UNL     1     -12.280  10.137   6.390  1.00  0.00     0.003 C 
ATOM      6  C   UNL     1     -13.112   9.253   7.317  1.00  0.00     0.004 C 
ENDBRANCH   1   5
TORSDOF 2
ENDMDL
MODEL 8
REMARK VINA RESULT:    -2.244      1.652      2.151
REMARK INTER + INTRA:          -2.561
REMARK INTER:                  -2.536
REMARK INTRA:                  -0.025
REMARK UNBOUND:                -0.054
REMARK SMILES CCCC(=O)[O-]
REMARK SMILES IDX 3 1 4 2 5 3 6 4 2 5 1 6
REMARK H PARENT
REMARK Flexibility Score: inf
ROOT
ATOM      1  C   UNL     1     -13.339  11.506   5.928  1.00  0.00     0.052 C 
ENDROOT
BRANCH   1   2
ATOM      2  C   UNL     1     -14.809  11.476   5.644  1.00  0.00     0.041 C 
ATOM      3  O   UNL     1     -15.228  11.518   4.457  1.00  0.00    -0.550 OA
ATOM      4  O   UNL     1     -15.719  11.434   6.693  1.00  0.00    -0.550 OA
ENDBRANCH   1   2
BRANCH   1   5
ATOM      5  C   UNL     1     -12.824  10.141   6.402  1.00  0.00     0.003 C 
ATOM      6  C   UNL     1     -11.965   9.444   5.347  1.00  0.00     0.004 C 
ENDBRANCH   1   5
TORSDOF 2
ENDMDL
MODEL 9
REMARK VINA RESULT:    -2.221      1.475      2.051
REMARK INTER + INTRA:          -2.536
REMARK INTER:                  -2.475
REMARK INTRA:                  -0.061
REMARK UNBOUND:                -0.054
REMARK SMILES CCCC(=O)[O-]
REMARK SMILES IDX 3 1 4 2 5 3 6 4 2 5 1 6
REMARK H PARENT
REMARK Flexibility Score: inf
ROOT
ATOM      1  C   UNL     1     -13.062   9.887   3.886  1.00  0.00     0.052 C 
ENDROOT
BRANCH   1   2
ATOM      2  C   UNL     1     -14.339  10.103   4.638  1.00  0.00     0.041 C 
ATOM      3  O   UNL     1     -14.765   9.223   5.433  1.00  0.00    -0.550 OA
ATOM      4  O   UNL     1     -15.078  11.262   4.436  1.00  0.00    -0.550 OA
ENDBRANCH   1   2
BRANCH   1   5
ATOM      5  C   UNL     1     -11.841   9.950   4.811  1.00  0.00     0.003 C 
ATOM      6  C   UNL     1     -11.797  11.239   5.630  1.00  0.00     0.004 C 
ENDBRANCH   1   5
TORSDOF 2
ENDMDL
