MODEL 1
REMARK VINA RESULT:    -5.042      0.000      0.000
REMARK INTER + INTRA:         -11.377
REMARK INTER:                  -9.464
REMARK INTRA:                  -1.913
REMARK UNBOUND:                -1.913
REMARK SMILES CCCCCCCCC=CCCCCCCCC(=O)[O-]
REMARK SMILES IDX 10 1 9 2 11 3 12 4 13 5 14 6 15 7 16 8 17 9 18 10 19 11
REMARK SMILES IDX 20 12 8 13 7 14 6 15 5 16 4 17 3 18 2 19 1 20
REMARK H PARENT
REMARK Flexibility Score: inf
ROOT
ATOM      1  C   UNL     1       1.348 -38.124  19.776  1.00  0.00    -0.031 C 
ATOM      2  C   UNL     1       1.738 -37.208  18.878  1.00  0.00    -0.031 C 
ENDROOT
BRANCH   1   3
ATOM      3  C   UNL     1       0.053 -37.986  20.528  1.00  0.00     0.027 C 
BRANCH   3   4
ATOM      4  C   UNL     1       0.103 -36.797  21.501  1.00  0.00     0.004 C 
BRANCH   4   5
ATOM      5  C   UNL     1      -0.811 -35.641  21.066  1.00  0.00     0.000 C 
BRANCH   5   6
ATOM      6  C   UNL     1      -2.302 -35.976  21.223  1.00  0.00     0.000 C 
BRANCH   6   7
ATOM      7  C   UNL     1      -2.890 -35.288  22.464  1.00  0.00     0.000 C 
BRANCH   7   8
ATOM      8  C   UNL     1      -2.016 -34.125  22.973  1.00  0.00     0.006 C 
BRANCH   8   9
ATOM      9  C   UNL     1      -2.767 -33.103  23.842  1.00  0.00     0.053 C 
BRANCH   9  10
ATOM     10  C   UNL     1      -1.890 -31.959  24.247  1.00  0.00     0.041 C 
ATOM     11  O   UNL     1      -2.384 -30.814  24.426  1.00  0.00    -0.550 OA
ATOM     12  O   UNL     1      -0.534 -32.164  24.464  1.00  0.00    -0.550 OA
ENDBRANCH   9  10
ENDBRANCH   8   9
ENDBRANCH   7   8
ENDBRANCH   6   7
ENDBRANCH   5   6
ENDBRANCH   4   5
ENDBRANCH   3   4
ENDBRANCH   1   3
BRANCH   2  13
ATOM     13  C   UNL     1       3.000 -37.375  18.076  1.00  0.00     0.027 C 
BRANCH  13  14
ATOM     14  C   UNL     1       4.092 -36.399  18.534  1.00  0.00     0.004 C 
BRANCH  14  15
ATOM     15  C   UNL     1       5.398 -37.126  18.903  1.00  0.00     0.000 C 
BRANCH  15  16
ATOM     16  C   UNL     1       5.215 -38.125  20.058  1.00  0.00     0.000 C 
BRANCH  16  17
ATOM     17  C   UNL     1       5.504 -37.494  21.433  1.00  0.00    -0.000 C 
BRANCH  17  18
ATOM     18  C   UNL     1       4.244 -37.387  22.307  1.00  0.00    -0.000 C 
BRANCH  18  19
ATOM     19  C   UNL     1       3.991 -35.958  22.811  1.00  0.00    -0.003 C 
ATOM     20  C   UNL     1       3.222 -35.140  21.779  1.00  0.00     0.004 C 
ENDBRANCH  18  19
ENDBRANCH  17  18
ENDBRANCH  16  17
ENDBRANCH  15  16
ENDBRANCH  14  15
ENDBRANCH  13  14
ENDBRANCH   2  13
TORSDOF 15
ENDMDL
MODEL 2
REMARK VINA RESULT:    -5.012     20.855     22.559
REMARK INTER + INTRA:         -11.321
REMARK INTER:                  -9.506
REMARK INTRA:                  -1.815
REMARK UNBOUND:                -1.913
REMARK SMILES CCCCCCCCC=CCCCCCCCC(=O)[O-]
REMARK SMILES IDX 10 1 9 2 11 3 12 4 13 5 14 6 15 7 16 8 17 9 18 10 19 11
REMARK SMILES IDX 20 12 8 13 7 14 6 15 5 16 4 17 3 18 2 19 1 20
REMARK H PARENT
REMARK Flexibility Score: inf
ROOT
ATOM      1  C   UNL     1      -9.720 -21.075  34.065  1.00  0.00    -0.031 C 
ATOM      2  C   UNL     1     -10.838 -21.442  34.706  1.00  0.00    -0.031 C 
ENDROOT
BRANCH   1   3
ATOM      3  C   UNL     1      -8.420 -21.804  34.271  1.00  0.00     0.027 C 
BRANCH   3   4
ATOM      4  C   UNL     1      -7.228 -20.948  33.815  1.00  0.00     0.004 C 
BRANCH   4   5
ATOM      5  C   UNL     1      -7.649 -19.537  33.375  1.00  0.00     0.000 C 
BRANCH   5   6
ATOM      6  C   UNL     1      -6.644 -18.896  32.405  1.00  0.00     0.000 C 
BRANCH   6   7
ATOM      7  C   UNL     1      -5.231 -19.450  32.638  1.00  0.00     0.000 C 
BRANCH   7   8
ATOM      8  C   UNL     1      -4.397 -18.577  33.595  1.00  0.00     0.006 C 
BRANCH   8   9
ATOM      9  C   UNL     1      -4.319 -19.113  35.034  1.00  0.00     0.053 C 
BRANCH   9  10
ATOM     10  C   UNL     1      -3.552 -20.397  35.114  1.00  0.00     0.041 C 
ATOM     11  O   UNL     1      -4.118 -21.450  35.513  1.00  0.00    -0.550 OA
ATOM     12  O   UNL     1      -2.224 -20.440  34.713  1.00  0.00    -0.550 OA
ENDBRANCH   9  10
ENDBRANCH   8   9
ENDBRANCH   7   8
ENDBRANCH   6   7
ENDBRANCH   5   6
ENDBRANCH   4   5
ENDBRANCH   3   4
ENDBRANCH   1   3
BRANCH   2  13
ATOM     13  C   UNL     1     -12.155 -20.758  34.453  1.00  0.00     0.027 C 
BRANCH  13  14
ATOM     14  C   UNL     1     -12.033 -19.691  33.357  1.00  0.00     0.004 C 
BRANCH  14  15
ATOM     15  C   UNL     1     -12.529 -20.206  31.993  1.00  0.00     0.000 C 
BRANCH  15  16
ATOM     16  C   UNL     1     -11.448 -20.128  30.902  1.00  0.00     0.000 C 
BRANCH  16  17
ATOM     17  C   UNL     1     -10.677 -18.796  30.930  1.00  0.00    -0.000 C 
BRANCH  17  18
ATOM     18  C   UNL     1      -9.543 -18.750  29.894  1.00  0.00    -0.000 C 
BRANCH  18  19
ATOM     19  C   UNL     1      -9.753 -19.740  28.739  1.00  0.00    -0.003 C 
ATOM     20  C   UNL     1      -9.735 -19.024  27.393  1.00  0.00     0.004 C 
ENDBRANCH  18  19
ENDBRANCH  17  18
ENDBRANCH  16  17
ENDBRANCH  15  16
ENDBRANCH  14  15
ENDBRANCH  13  14
ENDBRANCH   2  13
TORSDOF 15
ENDMDL
MODEL 3
REMARK VINA RESULT:    -4.950     21.244     22.264
REMARK INTER + INTRA:         -11.203
REMARK INTER:                  -8.922
REMARK INTRA:                  -2.281
REMARK UNBOUND:                -1.913
REMARK SMILES CCCCCCCCC=CCCCCCCCC(=O)[O-]
REMARK SMILES IDX 10 1 9 2 11 3 12 4 13 5 14 6 15 7 16 8 17 9 18 10 19 11
REMARK SMILES IDX 20 12 8 13 7 14 6 15 5 16 4 17 3 18 2 19 1 20
REMARK H PARENT
REMARK Flexibility Score: inf
ROOT
ATOM      1  C   UNL     1      -8.100 -18.824  30.806  1.00  0.00    -0.031 C 
ATOM      2  C   UNL     1      -8.048 -17.921  31.796  1.00  0.00    -0.031 C 
ENDROOT
BRANCH   1   3
ATOM      3  C   UNL     1      -9.068 -18.684  29.664  1.00  0.00     0.027 C 
BRANCH   3   4
ATOM      4  C   UNL     1     -10.521 -18.692  30.166  1.00  0.00     0.004 C 
BRANCH   4   5
ATOM      5  C   UNL     1     -11.027 -20.108  30.482  1.00  0.00     0.000 C 
BRANCH   5   6
ATOM      6  C   UNL     1     -11.843 -20.167  31.783  1.00  0.00     0.000 C 
BRANCH   6   7
ATOM      7  C   UNL     1     -11.509 -18.976  32.693  1.00  0.00     0.000 C 
BRANCH   7   8
ATOM      8  C   UNL     1     -10.713 -19.386  33.946  1.00  0.00     0.006 C 
BRANCH   8   9
ATOM      9  C   UNL     1     -10.140 -20.812  33.893  1.00  0.00     0.053 C 
BRANCH   9  10
ATOM     10  C   UNL     1     -10.691 -21.679  34.983  1.00  0.00     0.041 C 
ATOM     11  O   UNL     1     -11.814 -21.423  35.492  1.00  0.00    -0.550 OA
ATOM     12  O   UNL     1      -9.980 -22.793  35.412  1.00  0.00    -0.550 OA
ENDBRANCH   9  10
ENDBRANCH   8   9
ENDBRANCH   7   8
ENDBRANCH   6   7
ENDBRANCH   5   6
ENDBRANCH   4   5
ENDBRANCH   3   4
ENDBRANCH   1   3
BRANCH   2  13
ATOM     13  C   UNL     1      -7.037 -18.021  32.905  1.00  0.00     0.027 C 
BRANCH  13  14
ATOM     14  C   UNL     1      -5.947 -19.052  32.581  1.00  0.00     0.004 C 
BRANCH  14  15
ATOM     15  C   UNL     1      -4.677 -18.834  33.426  1.00  0.00     0.000 C 
BRANCH  15  16
ATOM     16  C   UNL     1      -4.992 -18.431  34.876  1.00  0.00     0.000 C 
BRANCH  16  17
ATOM     17  C   UNL     1      -4.487 -19.465  35.897  1.00  0.00    -0.000 C 
BRANCH  17  18
ATOM     18  C   UNL     1      -4.213 -20.837  35.260  1.00  0.00    -0.000 C 
BRANCH  18  19
ATOM     19  C   UNL     1      -5.216 -21.910  35.707  1.00  0.00    -0.003 C 
ATOM     20  C   UNL     1      -6.524 -21.796  34.931  1.00  0.00     0.004 C 
ENDBRANCH  18  19
ENDBRANCH  17  18
ENDBRANCH  16  17
ENDBRANCH  15  16
ENDBRANCH  14  15
ENDBRANCH  13  14
ENDBRANCH   2  13
TORSDOF 15
ENDMDL
MODEL 4
REMARK VINA RESULT:    -4.903      2.715      7.030
REMARK INTER + INTRA:         -11.115
REMARK INTER:                  -9.179
REMARK INTRA:                  -1.936
REMARK UNBOUND:                -1.913
REMARK SMILES CCCCCCCCC=CCCCCCCCC(=O)[O-]
REMARK SMILES IDX 10 1 9 2 11 3 12 4 13 5 14 6 15 7 16 8 17 9 18 10 19 11
REMARK SMILES IDX 20 12 8 13 7 14 6 15 5 16 4 17 3 18 2 19 1 20
REMARK H PARENT
REMARK Flexibility Score: inf
ROOT
ATOM      1  C   UNL     1       1.460 -37.046  19.413  1.00  0.00    -0.031 C 
ATOM      2  C   UNL     1       0.607 -37.890  20.011  1.00  0.00    -0.031 C 
ENDROOT
BRANCH   1   3
ATOM      3  C   UNL     1       1.963 -37.293  18.018  1.00  0.00     0.027 C 
BRANCH   3   4
ATOM      4  C   UNL     1       3.363 -36.691  17.820  1.00  0.00     0.004 C 
BRANCH   4   5
ATOM      5  C   UNL     1       4.050 -36.346  19.150  1.00  0.00     0.000 C 
BRANCH   5   6
ATOM      6  C   UNL     1       5.447 -36.976  19.273  1.00  0.00     0.000 C 
BRANCH   6   7
ATOM      7  C   UNL     1       5.542 -37.857  20.527  1.00  0.00     0.000 C 
BRANCH   7   8
ATOM      8  C   UNL     1       4.180 -38.061  21.218  1.00  0.00     0.006 C 
BRANCH   8   9
ATOM      9  C   UNL     1       4.167 -37.695  22.711  1.00  0.00     0.053 C 
BRANCH   9  10
ATOM     10  C   UNL     1       3.930 -36.232  22.928  1.00  0.00     0.041 C 
ATOM     11  O   UNL     1       3.037 -35.630  22.274  1.00  0.00    -0.550 OA
ATOM     12  O   UNL     1       4.668 -35.541  23.880  1.00  0.00    -0.550 OA
ENDBRANCH   9  10
ENDBRANCH   8   9
ENDBRANCH   7   8
ENDBRANCH   6   7
ENDBRANCH   5   6
ENDBRANCH   4   5
ENDBRANCH   3   4
ENDBRANCH   1   3
BRANCH   2  13
ATOM     13  C   UNL     1       0.050 -37.613  21.381  1.00  0.00     0.027 C 
BRANCH  13  14
ATOM     14  C   UNL     1      -0.368 -36.144  21.531  1.00  0.00     0.004 C 
BRANCH  14  15
ATOM     15  C   UNL     1      -1.787 -35.889  20.990  1.00  0.00     0.000 C 
BRANCH  15  16
ATOM     16  C   UNL     1      -2.875 -36.580  21.830  1.00  0.00     0.000 C 
BRANCH  16  17
ATOM     17  C   UNL     1      -3.646 -37.646  21.032  1.00  0.00    -0.000 C 
BRANCH  17  18
ATOM     18  C   UNL     1      -3.280 -37.644  19.539  1.00  0.00    -0.000 C 
BRANCH  18  19
ATOM     19  C   UNL     1      -4.512 -37.709  18.625  1.00  0.00    -0.003 C 
ATOM     20  C   UNL     1      -4.743 -36.376  17.920  1.00  0.00     0.004 C 
ENDBRANCH  18  19
ENDBRANCH  17  18
ENDBRANCH  16  17
ENDBRANCH  15  16
ENDBRANCH  14  15
ENDBRANCH  13  14
ENDBRANCH   2  13
TORSDOF 15
ENDMDL
MODEL 5
REMARK VINA RESULT:    -4.880     21.428     23.129
REMARK INTER + INTRA:         -11.072
REMARK INTER:                  -9.458
REMARK INTRA:                  -1.614
REMARK UNBOUND:                -1.913
REMARK SMILES CCCCCCCCC=CCCCCCCCC(=O)[O-]
REMARK SMILES IDX 10 1 9 2 11 3 12 4 13 5 14 6 15 7 16 8 17 9 18 10 19 11
REMARK SMILES IDX 20 12 8 13 7 14 6 15 5 16 4 17 3 18 2 19 1 20
REMARK H PARENT
REMARK Flexibility Score: inf
ROOT
ATOM      1  C   UNL     1     -10.695 -18.968  30.473  1.00  0.00    -0.031 C 
ATOM      2  C   UNL     1     -11.137 -20.166  30.882  1.00  0.00    -0.031 C 
ENDROOT
BRANCH   1   3
ATOM      3  C   UNL     1      -9.663 -18.839  29.387  1.00  0.00     0.027 C 
BRANCH   3   4
ATOM      4  C   UNL     1      -8.253 -18.688  29.979  1.00  0.00     0.004 C 
BRANCH   4   5
ATOM      5  C   UNL     1      -8.276 -18.301  31.466  1.00  0.00     0.000 C 
BRANCH   5   6
ATOM      6  C   UNL     1      -7.035 -18.798  32.224  1.00  0.00     0.000 C 
BRANCH   6   7
ATOM      7  C   UNL     1      -7.434 -19.463  33.549  1.00  0.00     0.000 C 
BRANCH   7   8
ATOM      8  C   UNL     1      -6.379 -20.465  34.056  1.00  0.00     0.006 C 
BRANCH   8   9
ATOM      9  C   UNL     1      -5.430 -19.897  35.124  1.00  0.00     0.053 C 
BRANCH   9  10
ATOM     10  C   UNL     1      -4.064 -19.623  34.574  1.00  0.00     0.041 C 
ATOM     11  O   UNL     1      -3.147 -20.479  34.696  1.00  0.00    -0.550 OA
ATOM     12  O   UNL     1      -3.813 -18.440  33.892  1.00  0.00    -0.550 OA
ENDBRANCH   9  10
ENDBRANCH   8   9
ENDBRANCH   7   8
ENDBRANCH   6   7
ENDBRANCH   5   6
ENDBRANCH   4   5
ENDBRANCH   3   4
ENDBRANCH   1   3
BRANCH   2  13
ATOM     13  C   UNL     1     -12.216 -20.298  31.921  1.00  0.00     0.027 C 
BRANCH  13  14
ATOM     14  C   UNL     1     -11.952 -19.387  33.127  1.00  0.00     0.004 C 
BRANCH  14  15
ATOM     15  C   UNL     1     -13.222 -19.153  33.965  1.00  0.00     0.000 C 
BRANCH  15  16
ATOM     16  C   UNL     1     -13.429 -20.232  35.040  1.00  0.00     0.000 C 
BRANCH  16  17
ATOM     17  C   UNL     1     -12.099 -20.773  35.596  1.00  0.00    -0.000 C 
BRANCH  17  18
ATOM     18  C   UNL     1     -12.001 -22.304  35.500  1.00  0.00    -0.000 C 
BRANCH  18  19
ATOM     19  C   UNL     1     -10.554 -22.812  35.591  1.00  0.00    -0.003 C 
ATOM     20  C   UNL     1      -9.668 -22.139  34.548  1.00  0.00     0.004 C 
ENDBRANCH  18  19
ENDBRANCH  17  18
ENDBRANCH  16  17
ENDBRANCH  15  16
ENDBRANCH  14  15
ENDBRANCH  13  14
ENDBRANCH   2  13
TORSDOF 15
ENDMDL
MODEL 6
REMARK VINA RESULT:    -4.869      1.004      2.733
REMARK INTER + INTRA:         -11.051
REMARK INTER:                  -9.017
REMARK INTRA:                  -2.034
REMARK UNBOUND:                -1.913
REMARK SMILES CCCCCCCCC=CCCCCCCCC(=O)[O-]
REMARK SMILES IDX 10 1 9 2 11 3 12 4 13 5 14 6 15 7 16 8 17 9 18 10 19 11
REMARK SMILES IDX 20 12 8 13 7 14 6 15 5 16 4 17 3 18 2 19 1 20
REMARK H PARENT
REMARK Flexibility Score: inf
ROOT
ATOM      1  C   UNL     1       1.643 -35.523  21.756  1.00  0.00    -0.031 C 
ATOM      2  C   UNL     1       2.702 -36.338  21.868  1.00  0.00    -0.031 C 
ENDROOT
BRANCH   1   3
ATOM      3  C   UNL     1       0.450 -35.895  20.918  1.00  0.00     0.027 C 
BRANCH   3   4
ATOM      4  C   UNL     1      -0.250 -37.143  21.478  1.00  0.00     0.004 C 
BRANCH   4   5
ATOM      5  C   UNL     1      -1.498 -37.532  20.669  1.00  0.00     0.000 C 
BRANCH   5   6
ATOM      6  C   UNL     1      -2.643 -36.519  20.827  1.00  0.00     0.000 C 
BRANCH   6   7
ATOM      7  C   UNL     1      -2.962 -36.281  22.310  1.00  0.00     0.000 C 
BRANCH   7   8
ATOM      8  C   UNL     1      -3.150 -34.791  22.650  1.00  0.00     0.006 C 
BRANCH   8   9
ATOM      9  C   UNL     1      -1.852 -34.060  23.029  1.00  0.00     0.053 C 
BRANCH   9  10
ATOM     10  C   UNL     1      -2.119 -32.807  23.805  1.00  0.00     0.041 C 
ATOM     11  O   UNL     1      -3.274 -32.302  23.818  1.00  0.00    -0.550 OA
ATOM     12  O   UNL     1      -1.104 -32.217  24.546  1.00  0.00    -0.550 OA
ENDBRANCH   9  10
ENDBRANCH   8   9
ENDBRANCH   7   8
ENDBRANCH   6   7
ENDBRANCH   5   6
ENDBRANCH   4   5
ENDBRANCH   3   4
ENDBRANCH   1   3
BRANCH   2  13
ATOM     13  C   UNL     1       3.868 -36.000  22.757  1.00  0.00     0.027 C 
BRANCH  13  14
ATOM     14  C   UNL     1       5.206 -36.316  22.075  1.00  0.00     0.004 C 
BRANCH  14  15
ATOM     15  C   UNL     1       5.281 -37.780  21.601  1.00  0.00     0.000 C 
BRANCH  15  16
ATOM     16  C   UNL     1       5.884 -37.917  20.194  1.00  0.00     0.000 C 
BRANCH  16  17
ATOM     17  C   UNL     1       4.813 -37.890  19.089  1.00  0.00    -0.000 C 
BRANCH  17  18
ATOM     18  C   UNL     1       4.588 -36.479  18.522  1.00  0.00    -0.000 C 
BRANCH  18  19
ATOM     19  C   UNL     1       3.109 -36.186  18.226  1.00  0.00    -0.003 C 
ATOM     20  C   UNL     1       2.275 -37.462  18.283  1.00  0.00     0.004 C 
ENDBRANCH  18  19
ENDBRANCH  17  18
ENDBRANCH  16  17
ENDBRANCH  15  16
ENDBRANCH  14  15
ENDBRANCH  13  14
ENDBRANCH   2  13
TORSDOF 15
ENDMDL
MODEL 7
REMARK VINA RESULT:    -4.821     20.660     22.092
REMARK INTER + INTRA:         -10.961
REMARK INTER:                  -8.981
REMARK INTRA:                  -1.980
REMARK UNBOUND:                -1.913
REMARK SMILES CCCCCCCCC=CCCCCCCCC(=O)[O-]
REMARK SMILES IDX 10 1 9 2 11 3 12 4 13 5 14 6 15 7 16 8 17 9 18 10 19 11
REMARK SMILES IDX 20 12 8 13 7 14 6 15 5 16 4 17 3 18 2 19 1 20
REMARK H PARENT
REMARK Flexibility Score: inf
ROOT
ATOM      1  C   UNL     1      -8.583 -20.594  33.089  1.00  0.00    -0.031 C 
ATOM      2  C   UNL     1      -8.194 -19.311  33.072  1.00  0.00    -0.031 C 
ENDROOT
BRANCH   1   3
ATOM      3  C   UNL     1      -9.762 -21.049  33.904  1.00  0.00     0.027 C 
BRANCH   3   4
ATOM      4  C   UNL     1     -10.870 -19.984  33.914  1.00  0.00     0.004 C 
BRANCH   4   5
ATOM      5  C   UNL     1     -12.052 -20.354  33.004  1.00  0.00     0.000 C 
BRANCH   5   6
ATOM      6  C   UNL     1     -11.831 -19.925  31.545  1.00  0.00     0.000 C 
BRANCH   6   7
ATOM      7  C   UNL     1     -11.266 -18.499  31.474  1.00  0.00     0.000 C 
BRANCH   7   8
ATOM      8  C   UNL     1     -10.793 -18.113  30.060  1.00  0.00     0.006 C 
BRANCH   8   9
ATOM      9  C   UNL     1      -9.536 -18.863  29.588  1.00  0.00     0.053 C 
BRANCH   9  10
ATOM     10  C   UNL     1      -9.797 -19.674  28.356  1.00  0.00     0.041 C 
ATOM     11  O   UNL     1     -10.159 -20.877  28.454  1.00  0.00    -0.550 OA
ATOM     12  O   UNL     1      -9.676 -19.093  27.101  1.00  0.00    -0.550 OA
ENDBRANCH   9  10
ENDBRANCH   8   9
ENDBRANCH   7   8
ENDBRANCH   6   7
ENDBRANCH   5   6
ENDBRANCH   4   5
ENDBRANCH   3   4
ENDBRANCH   1   3
BRANCH   2  13
ATOM     13  C   UNL     1      -7.057 -18.841  32.207  1.00  0.00     0.027 C 
BRANCH  13  14
ATOM     14  C   UNL     1      -6.044 -18.013  33.009  1.00  0.00     0.004 C 
BRANCH  14  15
ATOM     15  C   UNL     1      -5.935 -18.490  34.469  1.00  0.00     0.000 C 
BRANCH  15  16
ATOM     16  C   UNL     1      -4.520 -18.316  35.045  1.00  0.00     0.000 C 
BRANCH  16  17
ATOM     17  C   UNL     1      -3.576 -19.464  34.645  1.00  0.00    -0.000 C 
BRANCH  17  18
ATOM     18  C   UNL     1      -4.305 -20.812  34.526  1.00  0.00    -0.000 C 
BRANCH  18  19
ATOM     19  C   UNL     1      -4.707 -21.392  35.890  1.00  0.00    -0.003 C 
ATOM     20  C   UNL     1      -6.052 -22.105  35.809  1.00  0.00     0.004 C 
ENDBRANCH  18  19
ENDBRANCH  17  18
ENDBRANCH  16  17
ENDBRANCH  15  16
ENDBRANCH  14  15
ENDBRANCH  13  14
ENDBRANCH   2  13
TORSDOF 15
ENDMDL
MODEL 8
REMARK VINA RESULT:    -4.811     20.946     23.108
REMARK INTER + INTRA:         -10.944
REMARK INTER:                  -9.192
REMARK INTRA:                  -1.751
REMARK UNBOUND:                -1.913
REMARK SMILES CCCCCCCCC=CCCCCCCCC(=O)[O-]
REMARK SMILES IDX 10 1 9 2 11 3 12 4 13 5 14 6 15 7 16 8 17 9 18 10 19 11
REMARK SMILES IDX 20 12 8 13 7 14 6 15 5 16 4 17 3 18 2 19 1 20
REMARK H PARENT
REMARK Flexibility Score: inf
ROOT
ATOM      1  C   UNL     1     -12.246 -21.650  35.008  1.00  0.00    -0.031 C 
ATOM      2  C   UNL     1     -12.750 -20.508  35.497  1.00  0.00    -0.031 C 
ENDROOT
BRANCH   1   3
ATOM      3  C   UNL     1     -11.402 -22.564  35.853  1.00  0.00     0.027 C 
BRANCH   3   4
ATOM      4  C   UNL     1      -9.972 -22.665  35.298  1.00  0.00     0.004 C 
BRANCH   4   5
ATOM      5  C   UNL     1      -9.682 -21.612  34.217  1.00  0.00     0.000 C 
BRANCH   5   6
ATOM      6  C   UNL     1      -8.178 -21.420  33.969  1.00  0.00     0.000 C 
BRANCH   6   7
ATOM      7  C   UNL     1      -7.904 -20.074  33.282  1.00  0.00     0.000 C 
BRANCH   7   8
ATOM      8  C   UNL     1      -6.438 -19.621  33.418  1.00  0.00     0.006 C 
BRANCH   8   9
ATOM      9  C   UNL     1      -5.533 -20.621  34.156  1.00  0.00     0.053 C 
BRANCH   9  10
ATOM     10  C   UNL     1      -4.139 -20.099  34.325  1.00  0.00     0.041 C 
ATOM     11  O   UNL     1      -3.874 -18.898  34.050  1.00  0.00    -0.550 OA
ATOM     12  O   UNL     1      -3.141 -20.927  34.821  1.00  0.00    -0.550 OA
ENDBRANCH   9  10
ENDBRANCH   8   9
ENDBRANCH   7   8
ENDBRANCH   6   7
ENDBRANCH   5   6
ENDBRANCH   4   5
ENDBRANCH   3   4
ENDBRANCH   1   3
BRANCH   2  13
ATOM     13  C   UNL     1     -13.650 -19.625  34.676  1.00  0.00     0.027 C 
BRANCH  13  14
ATOM     14  C   UNL     1     -13.083 -19.398  33.269  1.00  0.00     0.004 C 
BRANCH  14  15
ATOM     15  C   UNL     1     -11.899 -18.412  33.275  1.00  0.00     0.000 C 
BRANCH  15  16
ATOM     16  C   UNL     1     -10.991 -18.568  32.044  1.00  0.00     0.000 C 
BRANCH  16  17
ATOM     17  C   UNL     1     -11.173 -19.928  31.347  1.00  0.00    -0.000 C 
BRANCH  17  18
ATOM     18  C   UNL     1     -10.275 -20.081  30.109  1.00  0.00    -0.000 C 
BRANCH  18  19
ATOM     19  C   UNL     1     -10.192 -18.795  29.273  1.00  0.00    -0.003 C 
ATOM     20  C   UNL     1      -9.548 -19.062  27.917  1.00  0.00     0.004 C 
ENDBRANCH  18  19
ENDBRANCH  17  18
ENDBRANCH  16  17
ENDBRANCH  15  16
ENDBRANCH  14  15
ENDBRANCH  13  14
ENDBRANCH   2  13
TORSDOF 15
ENDMDL
MODEL 9
REMARK VINA RESULT:    -4.737     21.113     22.334
REMARK INTER + INTRA:         -10.803
REMARK INTER:                  -8.521
REMARK INTRA:                  -2.282
REMARK UNBOUND:                -1.913
REMARK SMILES CCCCCCCCC=CCCCCCCCC(=O)[O-]
REMARK SMILES IDX 10 1 9 2 11 3 12 4 13 5 14 6 15 7 16 8 17 9 18 10 19 11
REMARK SMILES IDX 20 12 8 13 7 14 6 15 5 16 4 17 3 18 2 19 1 20
REMARK H PARENT
REMARK Flexibility Score: inf
ROOT
ATOM      1  C   UNL     1      -8.028 -19.403  33.027  1.00  0.00    -0.031 C 
ATOM      2  C   UNL     1      -8.704 -20.548  33.201  1.00  0.00    -0.031 C 
ENDROOT
BRANCH   1   3
ATOM      3  C   UNL     1      -8.523 -18.332  32.094  1.00  0.00     0.027 C 
BRANCH   3   4
ATOM      4  C   UNL     1      -8.280 -18.722  30.627  1.00  0.00     0.004 C 
BRANCH   4   5
ATOM      5  C   UNL     1      -9.554 -18.631  29.773  1.00  0.00     0.000 C 
BRANCH   5   6
ATOM      6  C   UNL     1     -10.836 -18.686  30.619  1.00  0.00     0.000 C 
BRANCH   6   7
ATOM      7  C   UNL     1     -11.346 -20.129  30.745  1.00  0.00     0.000 C 
BRANCH   7   8
ATOM      8  C   UNL     1     -12.255 -20.336  31.972  1.00  0.00     0.006 C 
BRANCH   8   9
ATOM      9  C   UNL     1     -12.187 -19.202  33.008  1.00  0.00     0.053 C 
BRANCH   9  10
ATOM     10  C   UNL     1     -12.117 -19.725  34.409  1.00  0.00     0.041 C 
ATOM     11  O   UNL     1     -11.866 -20.942  34.621  1.00  0.00    -0.550 OA
ATOM     12  O   UNL     1     -12.290 -18.863  35.484  1.00  0.00    -0.550 OA
ENDBRANCH   9  10
ENDBRANCH   8   9
ENDBRANCH   7   8
ENDBRANCH   6   7
ENDBRANCH   5   6
ENDBRANCH   4   5
ENDBRANCH   3   4
ENDBRANCH   1   3
BRANCH   2  13
ATOM     13  C   UNL     1      -8.248 -21.593  34.182  1.00  0.00     0.027 C 
BRANCH  13  14
ATOM     14  C   UNL     1      -6.717 -21.681  34.241  1.00  0.00     0.004 C 
BRANCH  14  15
ATOM     15  C   UNL     1      -6.211 -22.000  35.660  1.00  0.00     0.000 C 
BRANCH  15  16
ATOM     16  C   UNL     1      -5.104 -21.040  36.125  1.00  0.00     0.000 C 
BRANCH  16  17
ATOM     17  C   UNL     1      -4.365 -20.380  34.947  1.00  0.00    -0.000 C 
BRANCH  17  18
ATOM     18  C   UNL     1      -4.501 -18.848  34.951  1.00  0.00    -0.000 C 
BRANCH  18  19
ATOM     19  C   UNL     1      -4.470 -18.246  33.539  1.00  0.00    -0.003 C 
ATOM     20  C   UNL     1      -4.751 -19.309  32.482  1.00  0.00     0.004 C 
ENDBRANCH  18  19
ENDBRANCH  17  18
ENDBRANCH  16  17
ENDBRANCH  15  16
ENDBRANCH  14  15
ENDBRANCH  13  14
ENDBRANCH   2  13
TORSDOF 15
ENDMDL
