MODEL 1
REMARK VINA RESULT:    28.114      0.000      0.000
REMARK INTER + INTRA:          32.776
REMARK INTER:                  33.045
REMARK INTRA:                  -0.269
REMARK UNBOUND:                -0.269
REMARK SMILES O=c1cc(-c2ccc(O)c(O)c2)oc2cc(O)cc(O)c12
REMARK SMILES IDX 4 1 3 2 2 3 1 4 21 5 19 6 18 7 16 8 15 9 14 10 13 11 5 12
REMARK SMILES IDX 6 13 7 14 8 15 12 16 10 17 9 18 11 20 20 22 17 24
REMARK H PARENT 9 19 11 21 20 23 17 25
REMARK Flexibility Score: inf
ROOT
ATOM      1  C   UNL     1      17.457  41.118  10.681  1.00  0.00     0.138 A 
ATOM      2  C   UNL     1      18.394  40.165  10.251  1.00  0.00     0.100 A 
ATOM      3  C   UNL     1      19.753  40.388  10.474  1.00  0.00     0.197 A 
ATOM      4  O   UNL     1      20.587  39.526  10.086  1.00  0.00    -0.289 OA
ATOM      5  C   UNL     1      20.166  41.564  11.132  1.00  0.00     0.107 A 
ATOM      6  C   UNL     1      21.522  41.869  11.396  1.00  0.00     0.134 A 
ATOM      7  C   UNL     1      21.850  43.059  12.061  1.00  0.00     0.093 A 
ATOM      8  C   UNL     1      20.851  43.949  12.465  1.00  0.00     0.123 A 
ATOM      9  C   UNL     1      19.509  43.653  12.206  1.00  0.00     0.094 A 
ATOM     10  C   UNL     1      19.161  42.472  11.544  1.00  0.00     0.146 A 
ATOM     11  O   UNL     1      17.878  42.215  11.307  1.00  0.00    -0.456 OA
ENDROOT
BRANCH   1  12
ATOM     12  C   UNL     1      15.998  40.934  10.472  1.00  0.00     0.021 A 
ATOM     13  C   UNL     1      15.279  41.891   9.737  1.00  0.00     0.016 A 
ATOM     14  C   UNL     1      13.907  41.738   9.519  1.00  0.00     0.051 A 
ATOM     15  C   UNL     1      13.233  40.622  10.021  1.00  0.00     0.157 A 
ATOM     16  C   UNL     1      15.316  39.803  10.964  1.00  0.00     0.062 A 
ATOM     17  C   UNL     1      13.940  39.647  10.744  1.00  0.00     0.158 A 
BRANCH  15  18
ATOM     18  O   UNL     1      11.863  40.496   9.789  1.00  0.00    -0.504 OA
ATOM     19  H   UNL     1      11.318  41.238   9.366  1.00  0.00     0.293 HD
ENDBRANCH  15  18
BRANCH  17  20
ATOM     20  O   UNL     1      13.274  38.526  11.238  1.00  0.00    -0.504 OA
ATOM     21  H   UNL     1      13.722  37.618  11.280  1.00  0.00     0.293 HD
ENDBRANCH  17  20
ENDBRANCH   1  12
BRANCH   6  22
ATOM     22  O   UNL     1      22.541  40.999  11.006  1.00  0.00    -0.507 OA
ATOM     23  H   UNL     1      22.419  39.993  11.024  1.00  0.00     0.293 HD
ENDBRANCH   6  22
BRANCH   8  24
ATOM     24  O   UNL     1      21.204  45.124  13.124  1.00  0.00    -0.508 OA
ATOM     25  H   UNL     1      22.174  45.378  13.272  1.00  0.00     0.293 HD
ENDBRANCH   8  24
TORSDOF 5
ENDMDL
