MODEL 1
REMARK VINA RESULT:    -3.699      0.000      0.000
REMARK INTER + INTRA:          -5.775
REMARK INTER:                  -5.105
REMARK INTRA:                  -0.670
REMARK UNBOUND:                -0.670
REMARK SMILES OC[C@@H](O)C(O)[C@H](O)CO
REMARK SMILES IDX 5 1 7 2 9 3 10 4 8 6 3 8 2 9 1 10 4 12 6 14
REMARK H PARENT 10 5 8 7 1 11 4 13 6 15
REMARK Flexibility Score: inf
ROOT
ATOM      1  C   UNL     1     178.792 162.026 175.603  1.00  0.00     0.176 C 
ENDROOT
BRANCH   1   2
ATOM      2  C   UNL     1     177.971 161.655 176.873  1.00  0.00     0.171 C 
BRANCH   2   3
ATOM      3  C   UNL     1     177.013 162.785 177.303  1.00  0.00     0.190 C 
BRANCH   3   4
ATOM      4  O   UNL     1     177.682 164.019 177.318  1.00  0.00    -0.394 OA
ATOM      5  H   UNL     1     178.113 164.118 176.428  1.00  0.00     0.210 HD
ENDBRANCH   3   4
ENDBRANCH   2   3
BRANCH   2   6
ATOM      6  O   UNL     1     177.239 160.471 176.671  1.00  0.00    -0.388 OA
ATOM      7  H   UNL     1     176.930 160.464 175.727  1.00  0.00     0.211 HD
ENDBRANCH   2   6
ENDBRANCH   1   2
BRANCH   1   8
ATOM      8  C   UNL     1     179.323 160.782 174.838  1.00  0.00     0.171 C 
BRANCH   8   9
ATOM      9  C   UNL     1     180.125 161.120 173.560  1.00  0.00     0.190 C 
BRANCH   9  10
ATOM     10  O   UNL     1     179.629 162.277 172.941  1.00  0.00    -0.394 OA
ATOM     11  H   UNL     1     180.397 162.708 172.484  1.00  0.00     0.210 HD
ENDBRANCH   9  10
ENDBRANCH   8   9
BRANCH   8  12
ATOM     12  O   UNL     1     180.121 160.005 175.696  1.00  0.00    -0.388 OA
ATOM     13  H   UNL     1     180.082 160.419 176.598  1.00  0.00     0.211 HD
ENDBRANCH   8  12
ENDBRANCH   1   8
BRANCH   1  14
ATOM     14  O   UNL     1     179.905 162.806 175.971  1.00  0.00    -0.388 OA
ATOM     15  H   UNL     1     180.720 162.284 175.747  1.00  0.00     0.211 HD
ENDBRANCH   1  14
TORSDOF 9
ENDMDL
MODEL 2
REMARK VINA RESULT:    -3.563     24.069     25.143
REMARK INTER + INTRA:          -5.587
REMARK INTER:                  -4.922
REMARK INTRA:                  -0.665
REMARK UNBOUND:                -0.670
REMARK SMILES OC[C@@H](O)C(O)[C@H](O)CO
REMARK SMILES IDX 5 1 7 2 9 3 10 4 8 6 3 8 2 9 1 10 4 12 6 14
REMARK H PARENT 10 5 8 7 1 11 4 13 6 15
REMARK Flexibility Score: inf
ROOT
ATOM      1  C   UNL     1     162.595 176.804 186.281  1.00  0.00     0.176 C 
ENDROOT
BRANCH   1   2
ATOM      2  C   UNL     1     161.081 177.143 186.143  1.00  0.00     0.171 C 
BRANCH   2   3
ATOM      3  C   UNL     1     160.441 176.478 184.907  1.00  0.00     0.190 C 
BRANCH   3   4
ATOM      4  O   UNL     1     160.665 177.255 183.759  1.00  0.00    -0.394 OA
ATOM      5  H   UNL     1     161.632 177.478 183.753  1.00  0.00     0.210 HD
ENDBRANCH   3   4
ENDBRANCH   2   3
BRANCH   2   6
ATOM      6  O   UNL     1     160.374 176.764 187.298  1.00  0.00    -0.388 OA
ATOM      7  H   UNL     1     160.110 175.813 187.193  1.00  0.00     0.211 HD
ENDBRANCH   2   6
ENDBRANCH   1   2
BRANCH   1   8
ATOM      8  C   UNL     1     163.291 177.587 187.428  1.00  0.00     0.171 C 
BRANCH   8   9
ATOM      9  C   UNL     1     164.812 177.781 187.229  1.00  0.00     0.190 C 
BRANCH   9  10
ATOM     10  O   UNL     1     165.076 178.816 186.320  1.00  0.00    -0.394 OA
ATOM     11  H   UNL     1     164.597 178.588 185.481  1.00  0.00     0.210 HD
ENDBRANCH   9  10
ENDBRANCH   8   9
BRANCH   8  12
ATOM     12  O   UNL     1     162.678 178.843 187.583  1.00  0.00    -0.388 OA
ATOM     13  H   UNL     1     162.395 178.922 188.532  1.00  0.00     0.211 HD
ENDBRANCH   8  12
ENDBRANCH   1   8
BRANCH   1  14
ATOM     14  O   UNL     1     163.261 177.124 185.083  1.00  0.00    -0.388 OA
ATOM     15  H   UNL     1     162.851 176.579 184.360  1.00  0.00     0.211 HD
ENDBRANCH   1  14
TORSDOF 9
ENDMDL
MODEL 3
REMARK VINA RESULT:    -3.545      7.357      9.474
REMARK INTER + INTRA:          -5.561
REMARK INTER:                  -4.831
REMARK INTRA:                  -0.730
REMARK UNBOUND:                -0.670
REMARK SMILES OC[C@@H](O)C(O)[C@H](O)CO
REMARK SMILES IDX 5 1 7 2 9 3 10 4 8 6 3 8 2 9 1 10 4 12 6 14
REMARK H PARENT 10 5 8 7 1 11 4 13 6 15
REMARK Flexibility Score: inf
ROOT
ATOM      1  C   UNL     1     176.827 161.907 183.780  1.00  0.00     0.176 C 
ENDROOT
BRANCH   1   2
ATOM      2  C   UNL     1     177.876 162.017 182.635  1.00  0.00     0.171 C 
BRANCH   2   3
ATOM      3  C   UNL     1     178.612 160.684 182.382  1.00  0.00     0.190 C 
BRANCH   3   4
ATOM      4  O   UNL     1     179.642 160.506 183.318  1.00  0.00    -0.394 OA
ATOM      5  H   UNL     1     180.314 159.915 182.889  1.00  0.00     0.210 HD
ENDBRANCH   3   4
ENDBRANCH   2   3
BRANCH   2   6
ATOM      6  O   UNL     1     177.273 162.453 181.441  1.00  0.00    -0.388 OA
ATOM      7  H   UNL     1     176.529 161.829 181.233  1.00  0.00     0.211 HD
ENDBRANCH   2   6
ENDBRANCH   1   2
BRANCH   1   8
ATOM      8  C   UNL     1     177.214 162.730 185.040  1.00  0.00     0.171 C 
BRANCH   8   9
ATOM      9  C   UNL     1     176.330 162.448 186.277  1.00  0.00     0.190 C 
BRANCH   9  10
ATOM     10  O   UNL     1     176.832 161.370 187.022  1.00  0.00    -0.394 OA
ATOM     11  H   UNL     1     177.223 161.753 187.850  1.00  0.00     0.210 HD
ENDBRANCH   9  10
ENDBRANCH   8   9
BRANCH   8  12
ATOM     12  O   UNL     1     178.561 162.492 185.366  1.00  0.00    -0.388 OA
ATOM     13  H   UNL     1     178.705 161.509 185.340  1.00  0.00     0.211 HD
ENDBRANCH   8  12
ENDBRANCH   1   8
BRANCH   1  14
ATOM     14  O   UNL     1     176.700 160.562 184.175  1.00  0.00    -0.388 OA
ATOM     15  H   UNL     1     177.386 160.040 183.680  1.00  0.00     0.211 HD
ENDBRANCH   1  14
TORSDOF 9
ENDMDL
MODEL 4
REMARK VINA RESULT:    -3.536      1.436      3.701
REMARK INTER + INTRA:          -5.549
REMARK INTER:                  -5.028
REMARK INTRA:                  -0.521
REMARK UNBOUND:                -0.670
REMARK SMILES OC[C@@H](O)C(O)[C@H](O)CO
REMARK SMILES IDX 5 1 7 2 9 3 10 4 8 6 3 8 2 9 1 10 4 12 6 14
REMARK H PARENT 10 5 8 7 1 11 4 13 6 15
REMARK Flexibility Score: inf
ROOT
ATOM      1  C   UNL     1     177.973 161.166 175.922  1.00  0.00     0.176 C 
ENDROOT
BRANCH   1   2
ATOM      2  C   UNL     1     178.771 160.000 175.267  1.00  0.00     0.171 C 
BRANCH   2   3
ATOM      3  C   UNL     1     178.670 160.011 173.728  1.00  0.00     0.190 C 
BRANCH   3   4
ATOM      4  O   UNL     1     177.327 160.010 173.323  1.00  0.00    -0.394 OA
ATOM      5  H   UNL     1     176.782 160.071 174.151  1.00  0.00     0.210 HD
ENDBRANCH   3   4
ENDBRANCH   2   3
BRANCH   2   6
ATOM      6  O   UNL     1     180.125 160.040 175.649  1.00  0.00    -0.388 OA
ATOM      7  H   UNL     1     180.226 159.484 176.465  1.00  0.00     0.211 HD
ENDBRANCH   2   6
ENDBRANCH   1   2
BRANCH   1   8
ATOM      8  C   UNL     1     178.487 162.568 175.495  1.00  0.00     0.171 C 
BRANCH   8   9
ATOM      9  C   UNL     1     177.552 163.734 175.895  1.00  0.00     0.190 C 
BRANCH   9  10
ATOM     10  O   UNL     1     177.765 164.119 177.227  1.00  0.00    -0.394 OA
ATOM     11  H   UNL     1     178.610 163.687 177.517  1.00  0.00     0.210 HD
ENDBRANCH   9  10
ENDBRANCH   8   9
BRANCH   8  12
ATOM     12  O   UNL     1     179.765 162.790 176.038  1.00  0.00    -0.388 OA
ATOM     13  H   UNL     1     180.179 163.539 175.533  1.00  0.00     0.211 HD
ENDBRANCH   8  12
ENDBRANCH   1   8
BRANCH   1  14
ATOM     14  O   UNL     1     178.081 161.083 177.323  1.00  0.00    -0.388 OA
ATOM     15  H   UNL     1     178.014 160.123 177.570  1.00  0.00     0.211 HD
ENDBRANCH   1  14
TORSDOF 9
ENDMDL
MODEL 5
REMARK VINA RESULT:    -3.334     10.746     12.221
REMARK INTER + INTRA:          -5.270
REMARK INTER:                  -4.577
REMARK INTRA:                  -0.694
REMARK UNBOUND:                -0.670
REMARK SMILES OC[C@@H](O)C(O)[C@H](O)CO
REMARK SMILES IDX 5 1 7 2 9 3 10 4 8 6 3 8 2 9 1 10 4 12 6 14
REMARK H PARENT 10 5 8 7 1 11 4 13 6 15
REMARK Flexibility Score: inf
ROOT
ATOM      1  C   UNL     1     176.766 163.298 187.628  1.00  0.00     0.176 C 
ENDROOT
BRANCH   1   2
ATOM      2  C   UNL     1     177.039 161.769 187.732  1.00  0.00     0.171 C 
BRANCH   2   3
ATOM      3  C   UNL     1     176.687 161.204 189.124  1.00  0.00     0.190 C 
BRANCH   3   4
ATOM      4  O   UNL     1     177.818 161.202 189.955  1.00  0.00    -0.394 OA
ATOM      5  H   UNL     1     178.452 161.863 189.571  1.00  0.00     0.210 HD
ENDBRANCH   3   4
ENDBRANCH   2   3
BRANCH   2   6
ATOM      6  O   UNL     1     176.327 161.062 186.746  1.00  0.00    -0.388 OA
ATOM      7  H   UNL     1     175.593 161.648 186.425  1.00  0.00     0.211 HD
ENDBRANCH   2   6
ENDBRANCH   1   2
BRANCH   1   8
ATOM      8  C   UNL     1     177.217 163.905 186.270  1.00  0.00     0.171 C 
BRANCH   8   9
ATOM      9  C   UNL     1     177.736 165.358 186.367  1.00  0.00     0.190 C 
BRANCH   9  10
ATOM     10  O   UNL     1     179.109 165.387 186.654  1.00  0.00    -0.394 OA
ATOM     11  H   UNL     1     179.557 165.789 185.865  1.00  0.00     0.210 HD
ENDBRANCH   9  10
ENDBRANCH   8   9
BRANCH   8  12
ATOM     12  O   UNL     1     178.211 163.092 185.697  1.00  0.00    -0.388 OA
ATOM     13  H   UNL     1     178.178 163.228 184.713  1.00  0.00     0.211 HD
ENDBRANCH   8  12
ENDBRANCH   1   8
BRANCH   1  14
ATOM     14  O   UNL     1     177.463 163.973 188.647  1.00  0.00    -0.388 OA
ATOM     15  H   UNL     1     178.260 164.397 188.232  1.00  0.00     0.211 HD
ENDBRANCH   1  14
TORSDOF 9
ENDMDL
MODEL 6
REMARK VINA RESULT:    -3.326      7.897     10.069
REMARK INTER + INTRA:          -5.259
REMARK INTER:                  -4.526
REMARK INTRA:                  -0.733
REMARK UNBOUND:                -0.670
REMARK SMILES OC[C@@H](O)C(O)[C@H](O)CO
REMARK SMILES IDX 5 1 7 2 9 3 10 4 8 6 3 8 2 9 1 10 4 12 6 14
REMARK H PARENT 10 5 8 7 1 11 4 13 6 15
REMARK Flexibility Score: inf
ROOT
ATOM      1  C   UNL     1     177.237 162.605 185.543  1.00  0.00     0.176 C 
ENDROOT
BRANCH   1   2
ATOM      2  C   UNL     1     176.552 161.895 184.338  1.00  0.00     0.171 C 
BRANCH   2   3
ATOM      3  C   UNL     1     177.533 161.633 183.177  1.00  0.00     0.190 C 
BRANCH   3   4
ATOM      4  O   UNL     1     177.821 162.826 182.498  1.00  0.00    -0.394 OA
ATOM      5  H   UNL     1     176.950 163.264 182.313  1.00  0.00     0.210 HD
ENDBRANCH   3   4
ENDBRANCH   2   3
BRANCH   2   6
ATOM      6  O   UNL     1     175.963 160.682 184.738  1.00  0.00    -0.388 OA
ATOM      7  H   UNL     1     174.980 160.776 184.638  1.00  0.00     0.211 HD
ENDBRANCH   2   6
ENDBRANCH   1   2
BRANCH   1   8
ATOM      8  C   UNL     1     176.816 164.093 185.692  1.00  0.00     0.171 C 
BRANCH   8   9
ATOM      9  C   UNL     1     177.534 164.843 186.838  1.00  0.00     0.190 C 
BRANCH   9  10
ATOM     10  O   UNL     1     178.820 165.247 186.450  1.00  0.00    -0.394 OA
ATOM     11  H   UNL     1     179.329 164.421 186.244  1.00  0.00     0.210 HD
ENDBRANCH   9  10
ENDBRANCH   8   9
BRANCH   8  12
ATOM     12  O   UNL     1     177.038 164.771 184.480  1.00  0.00    -0.388 OA
ATOM     13  H   UNL     1     176.180 164.777 183.979  1.00  0.00     0.211 HD
ENDBRANCH   8  12
ENDBRANCH   1   8
BRANCH   1  14
ATOM     14  O   UNL     1     178.634 162.574 185.376  1.00  0.00    -0.388 OA
ATOM     15  H   UNL     1     178.937 163.509 185.232  1.00  0.00     0.211 HD
ENDBRANCH   1  14
TORSDOF 9
ENDMDL
MODEL 7
REMARK VINA RESULT:    -3.326     14.726     16.580
REMARK INTER + INTRA:          -5.259
REMARK INTER:                  -4.532
REMARK INTRA:                  -0.727
REMARK UNBOUND:                -0.670
REMARK SMILES OC[C@@H](O)C(O)[C@H](O)CO
REMARK SMILES IDX 5 1 7 2 9 3 10 4 8 6 3 8 2 9 1 10 4 12 6 14
REMARK H PARENT 10 5 8 7 1 11 4 13 6 15
REMARK Flexibility Score: inf
ROOT
ATOM      1  C   UNL     1     178.530 174.737 185.458  1.00  0.00     0.176 C 
ENDROOT
BRANCH   1   2
ATOM      2  C   UNL     1     178.956 173.914 184.207  1.00  0.00     0.171 C 
BRANCH   2   3
ATOM      3  C   UNL     1     179.476 174.811 183.064  1.00  0.00     0.190 C 
BRANCH   3   4
ATOM      4  O   UNL     1     178.410 175.471 182.434  1.00  0.00    -0.394 OA
ATOM      5  H   UNL     1     177.655 175.469 183.078  1.00  0.00     0.210 HD
ENDBRANCH   3   4
ENDBRANCH   2   3
BRANCH   2   6
ATOM      6  O   UNL     1     179.940 172.964 184.541  1.00  0.00    -0.388 OA
ATOM      7  H   UNL     1     179.480 172.187 184.953  1.00  0.00     0.211 HD
ENDBRANCH   2   6
ENDBRANCH   1   2
BRANCH   1   8
ATOM      8  C   UNL     1     176.989 174.799 185.648  1.00  0.00     0.171 C 
BRANCH   8   9
ATOM      9  C   UNL     1     176.532 175.682 186.832  1.00  0.00     0.190 C 
BRANCH   9  10
ATOM     10  O   UNL     1     176.479 177.035 186.464  1.00  0.00    -0.394 OA
ATOM     11  H   UNL     1     177.404 177.387 186.536  1.00  0.00     0.210 HD
ENDBRANCH   9  10
ENDBRANCH   8   9
BRANCH   8  12
ATOM     12  O   UNL     1     176.385 175.259 184.464  1.00  0.00    -0.388 OA
ATOM     13  H   UNL     1     175.758 174.553 184.154  1.00  0.00     0.211 HD
ENDBRANCH   8  12
ENDBRANCH   1   8
BRANCH   1  14
ATOM     14  O   UNL     1     178.996 176.059 185.334  1.00  0.00    -0.388 OA
ATOM     15  H   UNL     1     179.932 176.015 185.005  1.00  0.00     0.211 HD
ENDBRANCH   1  14
TORSDOF 9
ENDMDL
MODEL 8
REMARK VINA RESULT:    -3.246     17.957     20.186
REMARK INTER + INTRA:          -5.149
REMARK INTER:                  -4.139
REMARK INTRA:                  -1.010
REMARK UNBOUND:                -0.670
REMARK SMILES OC[C@@H](O)C(O)[C@H](O)CO
REMARK SMILES IDX 5 1 7 2 9 3 10 4 8 6 3 8 2 9 1 10 4 12 6 14
REMARK H PARENT 10 5 8 7 1 11 4 13 6 15
REMARK Flexibility Score: inf
ROOT
ATOM      1  C   UNL     1     174.047 177.828 187.362  1.00  0.00     0.176 C 
ENDROOT
BRANCH   1   2
ATOM      2  C   UNL     1     174.510 179.314 187.312  1.00  0.00     0.171 C 
BRANCH   2   3
ATOM      3  C   UNL     1     173.954 180.061 186.082  1.00  0.00     0.190 C 
BRANCH   3   4
ATOM      4  O   UNL     1     174.591 179.622 184.911  1.00  0.00    -0.394 OA
ATOM      5  H   UNL     1     174.126 180.065 184.154  1.00  0.00     0.210 HD
ENDBRANCH   3   4
ENDBRANCH   2   3
BRANCH   2   6
ATOM      6  O   UNL     1     174.135 179.997 188.484  1.00  0.00    -0.388 OA
ATOM      7  H   UNL     1     173.150 179.918 188.578  1.00  0.00     0.211 HD
ENDBRANCH   2   6
ENDBRANCH   1   2
BRANCH   1   8
ATOM      8  C   UNL     1     175.142 176.835 186.886  1.00  0.00     0.171 C 
BRANCH   8   9
ATOM      9  C   UNL     1     174.751 176.012 185.637  1.00  0.00     0.190 C 
BRANCH   9  10
ATOM     10  O   UNL     1     174.822 176.792 184.474  1.00  0.00    -0.394 OA
ATOM     11  H   UNL     1     174.569 177.716 184.733  1.00  0.00     0.210 HD
ENDBRANCH   9  10
ENDBRANCH   8   9
BRANCH   8  12
ATOM     12  O   UNL     1     176.335 177.533 186.628  1.00  0.00    -0.388 OA
ATOM     13  H   UNL     1     176.231 177.990 185.752  1.00  0.00     0.211 HD
ENDBRANCH   8  12
ENDBRANCH   1   8
BRANCH   1  14
ATOM     14  O   UNL     1     172.926 177.656 186.529  1.00  0.00    -0.388 OA
ATOM     15  H   UNL     1     173.225 177.802 185.593  1.00  0.00     0.211 HD
ENDBRANCH   1  14
TORSDOF 9
ENDMDL
MODEL 9
REMARK VINA RESULT:    -3.126      1.310      2.639
REMARK INTER + INTRA:          -4.983
REMARK INTER:                  -4.494
REMARK INTRA:                  -0.489
REMARK UNBOUND:                -0.670
REMARK SMILES OC[C@@H](O)C(O)[C@H](O)CO
REMARK SMILES IDX 5 1 7 2 9 3 10 4 8 6 3 8 2 9 1 10 4 12 6 14
REMARK H PARENT 10 5 8 7 1 11 4 13 6 15
REMARK Flexibility Score: inf
ROOT
ATOM      1  C   UNL     1     179.219 160.895 174.785  1.00  0.00     0.176 C 
ENDROOT
BRANCH   1   2
ATOM      2  C   UNL     1     178.690 162.070 175.660  1.00  0.00     0.171 C 
BRANCH   2   3
ATOM      3  C   UNL     1     177.856 161.578 176.861  1.00  0.00     0.190 C 
BRANCH   3   4
ATOM      4  O   UNL     1     178.324 160.333 177.307  1.00  0.00    -0.394 OA
ATOM      5  H   UNL     1     177.726 160.055 178.049  1.00  0.00     0.210 HD
ENDBRANCH   3   4
ENDBRANCH   2   3
BRANCH   2   6
ATOM      6  O   UNL     1     179.751 162.871 176.122  1.00  0.00    -0.388 OA
ATOM      7  H   UNL     1     179.958 162.590 177.051  1.00  0.00     0.211 HD
ENDBRANCH   2   6
ENDBRANCH   1   2
BRANCH   1   8
ATOM      8  C   UNL     1     180.022 161.375 173.544  1.00  0.00     0.171 C 
BRANCH   8   9
ATOM      9  C   UNL     1     180.125 160.326 172.413  1.00  0.00     0.190 C 
BRANCH   9  10
ATOM     10  O   UNL     1     179.794 160.887 171.171  1.00  0.00    -0.394 OA
ATOM     11  H   UNL     1     178.804 160.863 171.102  1.00  0.00     0.210 HD
ENDBRANCH   9  10
ENDBRANCH   8   9
BRANCH   8  12
ATOM     12  O   UNL     1     179.447 162.553 173.036  1.00  0.00    -0.388 OA
ATOM     13  H   UNL     1     180.103 162.960 172.411  1.00  0.00     0.211 HD
ENDBRANCH   8  12
ENDBRANCH   1   8
BRANCH   1  14
ATOM     14  O   UNL     1     178.135 160.128 174.319  1.00  0.00    -0.388 OA
ATOM     15  H   UNL     1     177.508 160.748 173.861  1.00  0.00     0.211 HD
ENDBRANCH   1  14
TORSDOF 9
ENDMDL
