MODEL 1
REMARK VINA RESULT:     0.387      0.000      0.000
REMARK INTER + INTRA:           0.414
REMARK INTER:                   0.455
REMARK INTRA:                  -0.042
REMARK UNBOUND:                -0.042
REMARK SMILES CCCCC(=O)[O-]
REMARK SMILES IDX 4 1 5 2 6 3 7 4 3 5 2 6 1 7
REMARK H PARENT
REMARK Flexibility Score: inf
ROOT
ATOM      1  C   UNL     1       6.026  -6.999  29.754  1.00  0.00     0.053 C 
ENDROOT
BRANCH   1   2
ATOM      2  C   UNL     1       6.082  -7.566  28.367  1.00  0.00     0.041 C 
ATOM      3  O   UNL     1       6.124  -8.812  28.194  1.00  0.00    -0.550 OA
ATOM      4  O   UNL     1       6.123  -6.719  27.267  1.00  0.00    -0.550 OA
ENDBRANCH   1   2
BRANCH   1   5
ATOM      5  C   UNL     1       5.781  -8.078  30.822  1.00  0.00     0.006 C 
BRANCH   5   6
ATOM      6  C   UNL     1       4.624  -7.750  31.782  1.00  0.00    -0.003 C 
ATOM      7  C   UNL     1       4.520  -6.263  32.116  1.00  0.00     0.004 C 
ENDBRANCH   5   6
ENDBRANCH   1   5
TORSDOF 3
ENDMDL
MODEL 2
REMARK VINA RESULT:     0.429      2.531      3.920
REMARK INTER + INTRA:           0.462
REMARK INTER:                   0.489
REMARK INTRA:                  -0.027
REMARK UNBOUND:                -0.042
REMARK SMILES CCCCC(=O)[O-]
REMARK SMILES IDX 4 1 5 2 6 3 7 4 3 5 2 6 1 7
REMARK H PARENT
REMARK Flexibility Score: inf
ROOT
ATOM      1  C   UNL     1       5.582  -7.332  29.831  1.00  0.00     0.053 C 
ENDROOT
BRANCH   1   2
ATOM      2  C   UNL     1       5.308  -7.534  31.291  1.00  0.00     0.041 C 
ATOM      3  O   UNL     1       4.495  -6.785  31.892  1.00  0.00    -0.550 OA
ATOM      4  O   UNL     1       5.977  -8.527  31.997  1.00  0.00    -0.550 OA
ENDBRANCH   1   2
BRANCH   1   5
ATOM      5  C   UNL     1       6.095  -8.609  29.145  1.00  0.00     0.006 C 
BRANCH   5   6
ATOM      6  C   UNL     1       6.125  -8.521  27.609  1.00  0.00    -0.003 C 
ATOM      7  C   UNL     1       6.122  -7.086  27.087  1.00  0.00     0.004 C 
ENDBRANCH   5   6
ENDBRANCH   1   5
TORSDOF 3
ENDMDL
MODEL 3
REMARK VINA RESULT:     3.037     16.247     16.833
REMARK INTER + INTRA:           3.528
REMARK INTER:                   3.550
REMARK INTRA:                  -0.022
REMARK UNBOUND:                -0.042
REMARK SMILES CCCCC(=O)[O-]
REMARK SMILES IDX 4 1 5 2 6 3 7 4 3 5 2 6 1 7
REMARK H PARENT
REMARK Flexibility Score: inf
ROOT
ATOM      1  C   UNL     1      -7.428 -17.138  26.731  1.00  0.00     0.053 C 
ENDROOT
BRANCH   1   2
ATOM      2  C   UNL     1      -6.158 -17.932  26.675  1.00  0.00     0.041 C 
ATOM      3  O   UNL     1      -5.233 -17.704  27.498  1.00  0.00    -0.550 OA
ATOM      4  O   UNL     1      -5.982 -18.899  25.694  1.00  0.00    -0.550 OA
ENDBRANCH   1   2
BRANCH   1   5
ATOM      5  C   UNL     1      -8.283 -17.479  27.963  1.00  0.00     0.006 C 
BRANCH   5   6
ATOM      6  C   UNL     1      -9.743 -17.001  27.860  1.00  0.00    -0.003 C 
ATOM      7  C   UNL     1      -9.898 -15.711  27.057  1.00  0.00     0.004 C 
ENDBRANCH   5   6
ENDBRANCH   1   5
TORSDOF 3
ENDMDL
MODEL 4
REMARK VINA RESULT:     3.130     16.681     17.352
REMARK INTER + INTRA:           3.637
REMARK INTER:                   3.664
REMARK INTRA:                  -0.028
REMARK UNBOUND:                -0.042
REMARK SMILES CCCCC(=O)[O-]
REMARK SMILES IDX 4 1 5 2 6 3 7 4 3 5 2 6 1 7
REMARK H PARENT
REMARK Flexibility Score: inf
ROOT
ATOM      1  C   UNL     1      -7.616 -17.150  27.488  1.00  0.00     0.053 C 
ENDROOT
BRANCH   1   2
ATOM      2  C   UNL     1      -9.072 -17.221  27.837  1.00  0.00     0.041 C 
ATOM      3  O   UNL     1      -9.858 -16.310  27.464  1.00  0.00    -0.550 OA
ATOM      4  O   UNL     1      -9.556 -18.273  28.604  1.00  0.00    -0.550 OA
ENDBRANCH   1   2
BRANCH   1   5
ATOM      5  C   UNL     1      -7.310 -17.761  26.110  1.00  0.00     0.006 C 
BRANCH   5   6
ATOM      6  C   UNL     1      -5.930 -18.436  26.022  1.00  0.00    -0.003 C 
ATOM      7  C   UNL     1      -4.938 -17.917  27.061  1.00  0.00     0.004 C 
ENDBRANCH   5   6
ENDBRANCH   1   5
TORSDOF 3
ENDMDL
