MODEL 1
REMARK VINA RESULT:    -3.797      0.000      0.000
REMARK INTER + INTRA:          -4.258
REMARK INTER:                  -4.241
REMARK INTRA:                  -0.017
REMARK UNBOUND:                -0.017
REMARK SMILES CCCC(=O)[O-]
REMARK SMILES IDX 3 1 4 2 5 3 6 4 2 5 1 6
REMARK H PARENT
REMARK Flexibility Score: inf
ROOT
ATOM      1  C   UNL     1     -17.370  36.864  80.526  1.00  0.00     0.052 C 
ENDROOT
BRANCH   1   2
ATOM      2  C   UNL     1     -16.964  35.643  81.293  1.00  0.00     0.041 C 
ATOM      3  O   UNL     1     -16.069  35.715  82.176  1.00  0.00    -0.550 OA
ATOM      4  O   UNL     1     -17.554  34.417  81.009  1.00  0.00    -0.550 OA
ENDBRANCH   1   2
BRANCH   1   5
ATOM      5  C   UNL     1     -18.669  36.636  79.744  1.00  0.00     0.003 C 
ATOM      6  C   UNL     1     -18.673  37.360  78.398  1.00  0.00     0.004 C 
ENDBRANCH   1   5
TORSDOF 2
ENDMDL
MODEL 2
REMARK VINA RESULT:    -3.772      0.079      1.324
REMARK INTER + INTRA:          -4.230
REMARK INTER:                  -4.210
REMARK INTRA:                  -0.021
REMARK UNBOUND:                -0.017
REMARK SMILES CCCC(=O)[O-]
REMARK SMILES IDX 3 1 4 2 5 3 6 4 2 5 1 6
REMARK H PARENT
REMARK Flexibility Score: inf
ROOT
ATOM      1  C   UNL     1     -17.395  36.877  80.491  1.00  0.00     0.052 C 
ENDROOT
BRANCH   1   2
ATOM      2  C   UNL     1     -17.014  35.643  81.250  1.00  0.00     0.041 C 
ATOM      3  O   UNL     1     -17.570  34.543  80.994  1.00  0.00    -0.550 OA
ATOM      4  O   UNL     1     -16.067  35.716  82.265  1.00  0.00    -0.550 OA
ENDBRANCH   1   2
BRANCH   1   5
ATOM      5  C   UNL     1     -18.697  36.680  79.705  1.00  0.00     0.003 C 
ATOM      6  C   UNL     1     -18.669  37.382  78.348  1.00  0.00     0.004 C 
ENDBRANCH   1   5
TORSDOF 2
ENDMDL
MODEL 3
REMARK VINA RESULT:    -3.558      1.708      2.174
REMARK INTER + INTRA:          -3.991
REMARK INTER:                  -3.956
REMARK INTRA:                  -0.036
REMARK UNBOUND:                -0.017
REMARK SMILES CCCC(=O)[O-]
REMARK SMILES IDX 3 1 4 2 5 3 6 4 2 5 1 6
REMARK H PARENT
REMARK Flexibility Score: inf
ROOT
ATOM      1  C   UNL     1     -17.167  36.735  80.861  1.00  0.00     0.052 C 
ENDROOT
BRANCH   1   2
ATOM      2  C   UNL     1     -17.567  37.060  82.268  1.00  0.00     0.041 C 
ATOM      3  O   UNL     1     -18.766  36.935  82.633  1.00  0.00    -0.550 OA
ATOM      4  O   UNL     1     -16.619  37.533  83.168  1.00  0.00    -0.550 OA
ENDBRANCH   1   2
BRANCH   1   5
ATOM      5  C   UNL     1     -18.352  36.209  80.043  1.00  0.00     0.003 C 
ATOM      6  C   UNL     1     -18.720  37.139  78.887  1.00  0.00     0.004 C 
ENDBRANCH   1   5
TORSDOF 2
ENDMDL
MODEL 4
REMARK VINA RESULT:    -3.401     10.771     11.512
REMARK INTER + INTRA:          -3.816
REMARK INTER:                  -3.811
REMARK INTRA:                  -0.005
REMARK UNBOUND:                -0.017
REMARK SMILES CCCC(=O)[O-]
REMARK SMILES IDX 3 1 4 2 5 3 6 4 2 5 1 6
REMARK H PARENT
REMARK Flexibility Score: inf
ROOT
ATOM      1  C   UNL     1     -21.400  29.504  88.279  1.00  0.00     0.052 C 
ENDROOT
BRANCH   1   2
ATOM      2  C   UNL     1     -21.137  28.821  89.587  1.00  0.00     0.041 C 
ATOM      3  O   UNL     1     -19.984  28.841  90.093  1.00  0.00    -0.550 OA
ATOM      4  O   UNL     1     -22.160  28.135  90.230  1.00  0.00    -0.550 OA
ENDBRANCH   1   2
BRANCH   1   5
ATOM      5  C   UNL     1     -21.644  28.493  87.152  1.00  0.00     0.003 C 
ATOM      6  C   UNL     1     -21.707  29.159  85.777  1.00  0.00     0.004 C 
ENDBRANCH   1   5
TORSDOF 2
ENDMDL
MODEL 5
REMARK VINA RESULT:    -3.352      2.179      3.378
REMARK INTER + INTRA:          -3.761
REMARK INTER:                  -3.762
REMARK INTRA:                   0.001
REMARK UNBOUND:                -0.017
REMARK SMILES CCCC(=O)[O-]
REMARK SMILES IDX 3 1 4 2 5 3 6 4 2 5 1 6
REMARK H PARENT
REMARK Flexibility Score: inf
ROOT
ATOM      1  C   UNL     1     -17.961  35.205  79.812  1.00  0.00     0.052 C 
ENDROOT
BRANCH   1   2
ATOM      2  C   UNL     1     -18.245  36.675  79.844  1.00  0.00     0.041 C 
ATOM      3  O   UNL     1     -19.400  37.105  79.584  1.00  0.00    -0.550 OA
ATOM      4  O   UNL     1     -17.225  37.574  80.129  1.00  0.00    -0.550 OA
ENDBRANCH   1   2
BRANCH   1   5
ATOM      5  C   UNL     1     -18.202  34.551  81.178  1.00  0.00     0.003 C 
ATOM      6  C   UNL     1     -17.120  34.912  82.195  1.00  0.00     0.004 C 
ENDBRANCH   1   5
TORSDOF 2
ENDMDL
MODEL 6
REMARK VINA RESULT:    -3.340      1.837      3.250
REMARK INTER + INTRA:          -3.748
REMARK INTER:                  -3.738
REMARK INTRA:                  -0.009
REMARK UNBOUND:                -0.017
REMARK SMILES CCCC(=O)[O-]
REMARK SMILES IDX 3 1 4 2 5 3 6 4 2 5 1 6
REMARK H PARENT
REMARK Flexibility Score: inf
ROOT
ATOM      1  C   UNL     1     -17.270  37.035  80.923  1.00  0.00     0.052 C 
ENDROOT
BRANCH   1   2
ATOM      2  C   UNL     1     -18.197  36.321  79.988  1.00  0.00     0.041 C 
ATOM      3  O   UNL     1     -19.069  36.963  79.344  1.00  0.00    -0.550 OA
ATOM      4  O   UNL     1     -18.120  34.940  79.852  1.00  0.00    -0.550 OA
ENDBRANCH   1   2
BRANCH   1   5
ATOM      5  C   UNL     1     -16.595  36.065  81.901  1.00  0.00     0.003 C 
ATOM      6  C   UNL     1     -16.166  36.751  83.198  1.00  0.00     0.004 C 
ENDBRANCH   1   5
TORSDOF 2
ENDMDL
MODEL 7
REMARK VINA RESULT:    -3.340     16.140     16.354
REMARK INTER + INTRA:          -3.748
REMARK INTER:                  -3.683
REMARK INTRA:                  -0.065
REMARK UNBOUND:                -0.017
REMARK SMILES CCCC(=O)[O-]
REMARK SMILES IDX 3 1 4 2 5 3 6 4 2 5 1 6
REMARK H PARENT
REMARK Flexibility Score: inf
ROOT
ATOM      1  C   UNL     1     -26.928  43.539  91.411  1.00  0.00     0.052 C 
ENDROOT
BRANCH   1   2
ATOM      2  C   UNL     1     -28.099  42.909  90.720  1.00  0.00     0.041 C 
ATOM      3  O   UNL     1     -29.171  42.702  91.348  1.00  0.00    -0.550 OA
ATOM      4  O   UNL     1     -27.995  42.521  89.390  1.00  0.00    -0.550 OA
ENDBRANCH   1   2
BRANCH   1   5
ATOM      5  C   UNL     1     -26.329  44.682  90.583  1.00  0.00     0.003 C 
ATOM      6  C   UNL     1     -27.231  45.916  90.556  1.00  0.00     0.004 C 
ENDBRANCH   1   5
TORSDOF 2
ENDMDL
MODEL 8
REMARK VINA RESULT:    -3.256      2.258      3.190
REMARK INTER + INTRA:          -3.654
REMARK INTER:                  -3.594
REMARK INTRA:                  -0.060
REMARK UNBOUND:                -0.017
REMARK SMILES CCCC(=O)[O-]
REMARK SMILES IDX 3 1 4 2 5 3 6 4 2 5 1 6
REMARK H PARENT
REMARK Flexibility Score: inf
ROOT
ATOM      1  C   UNL     1     -16.527  36.741  82.798  1.00  0.00     0.052 C 
ENDROOT
BRANCH   1   2
ATOM      2  C   UNL     1     -16.951  36.325  81.423  1.00  0.00     0.041 C 
ATOM      3  O   UNL     1     -17.198  37.192  80.544  1.00  0.00    -0.550 OA
ATOM      4  O   UNL     1     -17.104  34.977  81.122  1.00  0.00    -0.550 OA
ENDBRANCH   1   2
BRANCH   1   5
ATOM      5  C   UNL     1     -17.556  36.329  83.858  1.00  0.00     0.003 C 
ATOM      6  C   UNL     1     -18.790  37.230  83.853  1.00  0.00     0.004 C 
ENDBRANCH   1   5
TORSDOF 2
ENDMDL
MODEL 9
REMARK VINA RESULT:    -3.077      9.558     10.054
REMARK INTER + INTRA:          -3.454
REMARK INTER:                  -3.429
REMARK INTRA:                  -0.025
REMARK UNBOUND:                -0.017
REMARK SMILES CCCC(=O)[O-]
REMARK SMILES IDX 3 1 4 2 5 3 6 4 2 5 1 6
REMARK H PARENT
REMARK Flexibility Score: inf
ROOT
ATOM      1  C   UNL     1     -18.167  44.699  85.403  1.00  0.00     0.052 C 
ENDROOT
BRANCH   1   2
ATOM      2  C   UNL     1     -19.464  43.951  85.435  1.00  0.00     0.041 C 
ATOM      3  O   UNL     1     -20.526  44.505  85.045  1.00  0.00    -0.550 OA
ATOM      4  O   UNL     1     -19.505  42.653  85.927  1.00  0.00    -0.550 OA
ENDBRANCH   1   2
BRANCH   1   5
ATOM      5  C   UNL     1     -18.018  45.521  84.116  1.00  0.00     0.003 C 
ATOM      6  C   UNL     1     -17.462  46.920  84.380  1.00  0.00     0.004 C 
ENDBRANCH   1   5
TORSDOF 2
ENDMDL
