MODEL 1
REMARK VINA RESULT:    -3.827      0.000      0.000
REMARK INTER + INTRA:          -5.619
REMARK INTER:                  -5.840
REMARK INTRA:                   0.221
REMARK UNBOUND:                 0.221
REMARK SMILES CC1=CCC[C@H](C)C(=O)C[C@@H](C(C)C)C(=O)C1
REMARK SMILES IDX 8 1 9 2 6 3 7 4 5 5 4 6 3 7 2 8 1 9 10 11 11 12 15 13 16 14
REMARK SMILES IDX 17 15 12 17 13 18 14 19
REMARK H PARENT
REMARK Flexibility Score: 70.00
ROOT
ATOM      1  C   UNL     1      82.900   5.735  30.104  1.00  0.00     0.136 C 
ATOM      2  O   UNL     1      82.289   6.620  30.681  1.00  0.00    -0.299 OA
ENDROOT
BRANCH   1   3
ATOM      3  C   UNL     1      82.802   4.318  30.648  1.00  0.00     0.053 C 
ATOM      4  C   UNL     1      82.091   4.296  32.007  1.00  0.00     0.016 C 
BRANCH   3   5
ATOM      5  C   UNL     1      82.120   3.365  29.646  1.00  0.00     0.015 C 
BRANCH   5   6
ATOM      6  C   UNL     1      82.979   2.113  29.396  1.00  0.00     0.028 C 
BRANCH   6   7
ATOM      7  C   UNL     1      84.462   2.385  29.361  1.00  0.00    -0.028 C 
ATOM      8  C   UNL     1      85.143   3.011  28.367  1.00  0.00    -0.070 CG0
ATOM      9  C   UNL     1      86.599   3.318  28.624  1.00  0.00     0.039 C 
ATOM     10  G   UNL     1      84.579   3.320  26.982  1.00  0.00     0.000 G0
ENDBRANCH   6   7
ENDBRANCH   5   6
ENDBRANCH   3   5
ENDBRANCH   1   3
BRANCH   1  11
ATOM     11  C   UNL     1      83.681   6.065  28.846  1.00  0.00     0.087 C 
BRANCH  11  12
ATOM     12  C   UNL     1      83.157   5.430  27.522  1.00  0.00     0.066 C 
BRANCH  12  13
ATOM     13  C   UNL     1      84.246   4.760  26.695  1.00  0.00     0.140 C 
ATOM     14  O   UNL     1      84.743   5.338  25.738  1.00  0.00    -0.299 OA
BRANCH  13  15
ATOM     15  C   UNL     1      84.601   3.319  26.970  1.00  0.00     0.106 CG0
ATOM     16  G   UNL     1      85.139   3.020  28.367  1.00  0.00     0.000 G0
ENDBRANCH  13  15
ENDBRANCH  12  13
BRANCH  12  17
ATOM     17  C   UNL     1      82.196   6.323  26.666  1.00  0.00    -0.006 C 
ATOM     18  C   UNL     1      81.385   5.488  25.660  1.00  0.00     0.008 C 
ATOM     19  C   UNL     1      81.247   7.206  27.488  1.00  0.00     0.008 C 
ENDBRANCH  12  17
ENDBRANCH  11  12
ENDBRANCH   1  11
TORSDOF 1
ENDMDL
MODEL 2
REMARK VINA RESULT:    -3.662      1.938      4.867
REMARK INTER + INTRA:          -5.367
REMARK INTER:                  -6.041
REMARK INTRA:                   0.674
REMARK UNBOUND:                 0.221
REMARK SMILES CC1=CCC[C@H](C)C(=O)C[C@@H](C(C)C)C(=O)C1
REMARK SMILES IDX 8 1 9 2 6 3 7 4 5 5 4 6 3 7 2 8 1 9 10 11 11 12 15 13 16 14
REMARK SMILES IDX 17 15 12 17 13 18 14 19
REMARK H PARENT
REMARK Flexibility Score: 70.00
ROOT
ATOM      1  C   UNL     1      85.390   3.507  28.298  1.00  0.00     0.136 C 
ATOM      2  O   UNL     1      86.595   3.363  28.436  1.00  0.00    -0.299 OA
ENDROOT
BRANCH   1   3
ATOM      3  C   UNL     1      84.826   3.548  26.886  1.00  0.00     0.053 C 
ATOM      4  C   UNL     1      83.612   2.620  26.751  1.00  0.00     0.016 C 
BRANCH   3   5
ATOM      5  C   UNL     1      84.482   4.984  26.447  1.00  0.00     0.015 C 
BRANCH   5   6
ATOM      6  C   UNL     1      83.151   5.028  25.674  1.00  0.00     0.028 C 
BRANCH   6   7
ATOM      7  C   UNL     1      82.317   6.251  25.962  1.00  0.00    -0.028 C 
ATOM      8  C   UNL     1      81.637   6.511  27.108  1.00  0.00    -0.070 CG0
ATOM      9  C   UNL     1      81.003   7.877  27.232  1.00  0.00     0.039 C 
ATOM     10  G   UNL     1      81.373   5.496  28.216  1.00  0.00     0.000 G0
ENDBRANCH   6   7
ENDBRANCH   5   6
ENDBRANCH   3   5
ENDBRANCH   1   3
BRANCH   1  11
ATOM     11  C   UNL     1      84.502   3.581  29.526  1.00  0.00     0.087 C 
BRANCH  11  12
ATOM     12  C   UNL     1      82.972   3.722  29.263  1.00  0.00     0.066 C 
BRANCH  12  13
ATOM     13  C   UNL     1      82.503   5.166  29.151  1.00  0.00     0.140 C 
ATOM     14  O   UNL     1      82.964   6.027  29.887  1.00  0.00    -0.299 OA
BRANCH  13  15
ATOM     15  C   UNL     1      81.354   5.501  28.231  1.00  0.00     0.106 CG0
ATOM     16  G   UNL     1      81.660   6.506  27.122  1.00  0.00     0.000 G0
ENDBRANCH  13  15
ENDBRANCH  12  13
BRANCH  12  17
ATOM     17  C   UNL     1      82.038   2.839  30.158  1.00  0.00    -0.006 C 
ATOM     18  C   UNL     1      82.519   1.379  30.220  1.00  0.00     0.008 C 
ATOM     19  C   UNL     1      81.827   3.374  31.580  1.00  0.00     0.008 C 
ENDBRANCH  12  17
ENDBRANCH  11  12
ENDBRANCH   1  11
TORSDOF 1
ENDMDL
MODEL 3
REMARK VINA RESULT:    -3.407     11.596     13.222
REMARK INTER + INTRA:          -4.978
REMARK INTER:                  -4.661
REMARK INTRA:                  -0.317
REMARK UNBOUND:                 0.221
REMARK SMILES CC1=CCC[C@H](C)C(=O)C[C@@H](C(C)C)C(=O)C1
REMARK SMILES IDX 8 1 9 2 6 3 7 4 5 5 4 6 3 7 2 8 1 9 10 11 11 12 15 13 16 14
REMARK SMILES IDX 17 15 12 17 13 18 14 19
REMARK H PARENT
REMARK Flexibility Score: 70.00
ROOT
ATOM      1  C   UNL     1      78.750  -5.665  27.693  1.00  0.00     0.136 C 
ATOM      2  O   UNL     1      78.118  -4.851  28.348  1.00  0.00    -0.299 OA
ENDROOT
BRANCH   1   3
ATOM      3  C   UNL     1      80.178  -5.978  28.114  1.00  0.00     0.053 C 
ATOM      4  C   UNL     1      81.009  -4.695  28.238  1.00  0.00     0.016 C 
BRANCH   3   5
ATOM      5  C   UNL     1      80.225  -6.801  29.416  1.00  0.00     0.015 C 
BRANCH   5   6
ATOM      6  C   UNL     1      80.452  -8.295  29.123  1.00  0.00     0.028 C 
BRANCH   6   7
ATOM      7  C   UNL     1      81.554  -8.562  28.129  1.00  0.00    -0.028 C 
ATOM      8  C   UNL     1      81.400  -9.005  26.854  1.00  0.00    -0.070 CG0
ATOM      9  C   UNL     1      82.638  -9.044  25.989  1.00  0.00     0.039 C 
ATOM     10  G   UNL     1      80.104  -9.566  26.276  1.00  0.00     0.000 G0
ENDBRANCH   6   7
ENDBRANCH   5   6
ENDBRANCH   3   5
ENDBRANCH   1   3
BRANCH   1  11
ATOM     11  C   UNL     1      78.077  -6.372  26.531  1.00  0.00     0.087 C 
BRANCH  11  12
ATOM     12  C   UNL     1      78.080  -7.931  26.576  1.00  0.00     0.066 C 
BRANCH  12  13
ATOM     13  C   UNL     1      79.135  -8.563  25.679  1.00  0.00     0.140 C 
ATOM     14  O   UNL     1      79.128  -8.358  24.473  1.00  0.00    -0.299 OA
BRANCH  13  15
ATOM     15  C   UNL     1      80.097  -9.569  26.264  1.00  0.00     0.106 CG0
ATOM     16  G   UNL     1      81.387  -8.995  26.846  1.00  0.00     0.000 G0
ENDBRANCH  13  15
ENDBRANCH  12  13
BRANCH  12  17
ATOM     17  C   UNL     1      76.680  -8.623  26.463  1.00  0.00    -0.006 C 
ATOM     18  C   UNL     1      75.960  -8.681  27.822  1.00  0.00     0.008 C 
ATOM     19  C   UNL     1      75.749  -8.007  25.411  1.00  0.00     0.008 C 
ENDBRANCH  12  17
ENDBRANCH  11  12
ENDBRANCH   1  11
TORSDOF 1
ENDMDL
MODEL 4
REMARK VINA RESULT:    -3.294     11.502     13.240
REMARK INTER + INTRA:          -4.806
REMARK INTER:                  -4.802
REMARK INTRA:                  -0.004
REMARK UNBOUND:                 0.221
REMARK SMILES CC1=CCC[C@H](C)C(=O)C[C@@H](C(C)C)C(=O)C1
REMARK SMILES IDX 8 1 9 2 6 3 7 4 5 5 4 6 3 7 2 8 1 9 10 11 11 12 15 13 16 14
REMARK SMILES IDX 17 15 12 17 13 18 14 19
REMARK H PARENT
REMARK Flexibility Score: 70.00
ROOT
ATOM      1  C   UNL     1      79.141  -8.688  29.424  1.00  0.00     0.136 C 
ATOM      2  O   UNL     1      79.708  -9.718  29.094  1.00  0.00    -0.299 OA
ENDROOT
BRANCH   1   3
ATOM      3  C   UNL     1      77.653  -8.750  29.730  1.00  0.00     0.053 C 
ATOM      4  C   UNL     1      77.111  -7.368  30.114  1.00  0.00     0.016 C 
BRANCH   3   5
ATOM      5  C   UNL     1      76.851  -9.359  28.563  1.00  0.00     0.015 C 
BRANCH   5   6
ATOM      6  C   UNL     1      76.624  -8.327  27.444  1.00  0.00     0.028 C 
BRANCH   6   7
ATOM      7  C   UNL     1      77.180  -8.743  26.106  1.00  0.00    -0.028 C 
ATOM      8  C   UNL     1      78.291  -8.244  25.505  1.00  0.00    -0.070 CG0
ATOM      9  C   UNL     1      78.750  -8.929  24.239  1.00  0.00     0.039 C 
ATOM     10  G   UNL     1      79.034  -6.986  25.948  1.00  0.00     0.000 G0
ENDBRANCH   6   7
ENDBRANCH   5   6
ENDBRANCH   3   5
ENDBRANCH   1   3
BRANCH   1  11
ATOM     11  C   UNL     1      79.944  -7.410  29.571  1.00  0.00     0.087 C 
BRANCH  11  12
ATOM     12  C   UNL     1      79.945  -6.449  28.342  1.00  0.00     0.066 C 
BRANCH  12  13
ATOM     13  C   UNL     1      80.097  -7.168  27.008  1.00  0.00     0.140 C 
ATOM     14  O   UNL     1      81.120  -7.785  26.749  1.00  0.00    -0.299 OA
BRANCH  13  15
ATOM     15  C   UNL     1      79.039  -6.986  25.946  1.00  0.00     0.106 CG0
ATOM     16  G   UNL     1      78.310  -8.254  25.509  1.00  0.00     0.000 G0
ENDBRANCH  13  15
ENDBRANCH  12  13
BRANCH  12  17
ATOM     17  C   UNL     1      80.853  -5.180  28.465  1.00  0.00    -0.006 C 
ATOM     18  C   UNL     1      81.344  -4.694  27.090  1.00  0.00     0.008 C 
ATOM     19  C   UNL     1      80.215  -4.012  29.228  1.00  0.00     0.008 C 
ENDBRANCH  12  17
ENDBRANCH  11  12
ENDBRANCH   1  11
TORSDOF 1
ENDMDL
MODEL 5
REMARK VINA RESULT:    -3.260     10.990     12.959
REMARK INTER + INTRA:          -4.754
REMARK INTER:                  -5.172
REMARK INTRA:                   0.418
REMARK UNBOUND:                 0.221
REMARK SMILES CC1=CCC[C@H](C)C(=O)C[C@@H](C(C)C)C(=O)C1
REMARK SMILES IDX 8 1 9 2 6 3 7 4 5 5 4 6 3 7 2 8 1 9 10 11 11 12 15 13 16 14
REMARK SMILES IDX 17 15 12 17 13 18 14 19
REMARK H PARENT
REMARK Flexibility Score: 70.00
ROOT
ATOM      1  C   UNL     1      80.973  -5.474  27.331  1.00  0.00     0.136 C 
ATOM      2  O   UNL     1      80.328  -5.093  26.367  1.00  0.00    -0.299 OA
ENDROOT
BRANCH   1   3
ATOM      3  C   UNL     1      80.544  -5.009  28.715  1.00  0.00     0.053 C 
ATOM      4  C   UNL     1      80.972  -3.558  28.967  1.00  0.00     0.016 C 
BRANCH   3   5
ATOM      5  C   UNL     1      79.030  -5.191  28.938  1.00  0.00     0.015 C 
BRANCH   5   6
ATOM      6  C   UNL     1      78.638  -6.678  28.914  1.00  0.00     0.028 C 
BRANCH   6   7
ATOM      7  C   UNL     1      78.105  -7.148  27.583  1.00  0.00    -0.028 C 
ATOM      8  C   UNL     1      78.409  -8.317  26.961  1.00  0.00    -0.070 CG0
ATOM      9  C   UNL     1      77.629  -8.649  25.711  1.00  0.00     0.039 C 
ATOM     10  G   UNL     1      79.546  -9.251  27.365  1.00  0.00     0.000 G0
ENDBRANCH   6   7
ENDBRANCH   5   6
ENDBRANCH   3   5
ENDBRANCH   1   3
BRANCH   1  11
ATOM     11  C   UNL     1      82.129  -6.433  27.124  1.00  0.00     0.087 C 
BRANCH  11  12
ATOM     12  C   UNL     1      81.751  -7.906  26.780  1.00  0.00     0.066 C 
BRANCH  12  13
ATOM     13  C   UNL     1      80.839  -8.557  27.811  1.00  0.00     0.140 C 
ATOM     14  O   UNL     1      81.182  -8.636  28.982  1.00  0.00    -0.299 OA
BRANCH  13  15
ATOM     15  C   UNL     1      79.574  -9.241  27.352  1.00  0.00     0.106 CG0
ATOM     16  G   UNL     1      78.421  -8.319  26.964  1.00  0.00     0.000 G0
ENDBRANCH  13  15
ENDBRANCH  12  13
BRANCH  12  17
ATOM     17  C   UNL     1      82.933  -8.831  26.333  1.00  0.00    -0.006 C 
ATOM     18  C   UNL     1      82.500  -9.825  25.241  1.00  0.00     0.008 C 
ATOM     19  C   UNL     1      84.193  -8.081  25.880  1.00  0.00     0.008 C 
ENDBRANCH  12  17
ENDBRANCH  11  12
ENDBRANCH   1  11
TORSDOF 1
ENDMDL
MODEL 6
REMARK VINA RESULT:    -3.241     11.086     13.057
REMARK INTER + INTRA:          -4.725
REMARK INTER:                  -5.408
REMARK INTRA:                   0.683
REMARK UNBOUND:                 0.221
REMARK SMILES CC1=CCC[C@H](C)C(=O)C[C@@H](C(C)C)C(=O)C1
REMARK SMILES IDX 8 1 9 2 6 3 7 4 5 5 4 6 3 7 2 8 1 9 10 11 11 12 15 13 16 14
REMARK SMILES IDX 17 15 12 17 13 18 14 19
REMARK H PARENT
REMARK Flexibility Score: 70.00
ROOT
ATOM      1  C   UNL     1      78.143  -7.367  25.669  1.00  0.00     0.136 C 
ATOM      2  O   UNL     1      79.013  -8.081  25.195  1.00  0.00    -0.299 OA
ENDROOT
BRANCH   1   3
ATOM      3  C   UNL     1      76.746  -7.946  25.835  1.00  0.00     0.053 C 
ATOM      4  C   UNL     1      76.138  -8.318  24.476  1.00  0.00     0.016 C 
BRANCH   3   5
ATOM      5  C   UNL     1      76.733  -9.148  26.799  1.00  0.00     0.015 C 
BRANCH   5   6
ATOM      6  C   UNL     1      76.863  -8.690  28.262  1.00  0.00     0.028 C 
BRANCH   6   7
ATOM      7  C   UNL     1      78.272  -8.752  28.799  1.00  0.00    -0.028 C 
ATOM      8  C   UNL     1      78.884  -7.814  29.566  1.00  0.00    -0.070 CG0
ATOM      9  C   UNL     1      80.243  -8.166  30.124  1.00  0.00     0.039 C 
ATOM     10  G   UNL     1      78.355  -6.402  29.806  1.00  0.00     0.000 G0
ENDBRANCH   6   7
ENDBRANCH   5   6
ENDBRANCH   3   5
ENDBRANCH   1   3
BRANCH   1  11
ATOM     11  C   UNL     1      78.495  -5.964  26.126  1.00  0.00     0.087 C 
BRANCH  11  12
ATOM     12  C   UNL     1      79.329  -5.855  27.439  1.00  0.00     0.066 C 
BRANCH  12  13
ATOM     13  C   UNL     1      78.505  -5.438  28.650  1.00  0.00     0.140 C 
ATOM     14  O   UNL     1      78.069  -4.298  28.742  1.00  0.00    -0.299 OA
BRANCH  13  15
ATOM     15  C   UNL     1      78.357  -6.394  29.809  1.00  0.00     0.106 CG0
ATOM     16  G   UNL     1      78.863  -7.814  29.569  1.00  0.00     0.000 G0
ENDBRANCH  13  15
ENDBRANCH  12  13
BRANCH  12  17
ATOM     17  C   UNL     1      80.689  -5.088  27.327  1.00  0.00    -0.006 C 
ATOM     18  C   UNL     1      81.076  -4.413  28.654  1.00  0.00     0.008 C 
ATOM     19  C   UNL     1      81.860  -5.939  26.820  1.00  0.00     0.008 C 
ENDBRANCH  12  17
ENDBRANCH  11  12
ENDBRANCH   1  11
TORSDOF 1
ENDMDL
MODEL 7
REMARK VINA RESULT:    -3.222     12.101     14.131
REMARK INTER + INTRA:          -4.696
REMARK INTER:                  -4.351
REMARK INTRA:                  -0.345
REMARK UNBOUND:                 0.221
REMARK SMILES CC1=CCC[C@H](C)C(=O)C[C@@H](C(C)C)C(=O)C1
REMARK SMILES IDX 8 1 9 2 6 3 7 4 5 5 4 6 3 7 2 8 1 9 10 11 11 12 15 13 16 14
REMARK SMILES IDX 17 15 12 17 13 18 14 19
REMARK H PARENT
REMARK Flexibility Score: 70.00
ROOT
ATOM      1  C   UNL     1      80.214  -6.218  27.573  1.00  0.00     0.136 C 
ATOM      2  O   UNL     1      80.826  -5.437  26.863  1.00  0.00    -0.299 OA
ENDROOT
BRANCH   1   3
ATOM      3  C   UNL     1      78.712  -6.030  27.725  1.00  0.00     0.053 C 
ATOM      4  C   UNL     1      78.394  -4.810  28.598  1.00  0.00     0.016 C 
BRANCH   3   5
ATOM      5  C   UNL     1      78.004  -5.938  26.359  1.00  0.00     0.015 C 
BRANCH   5   6
ATOM      6  C   UNL     1      77.824  -7.331  25.729  1.00  0.00     0.028 C 
BRANCH   6   7
ATOM      7  C   UNL     1      76.857  -8.217  26.474  1.00  0.00    -0.028 C 
ATOM      8  C   UNL     1      77.170  -9.331  27.185  1.00  0.00    -0.070 CG0
ATOM      9  C   UNL     1      76.057  -9.968  27.984  1.00  0.00     0.039 C 
ATOM     10  G   UNL     1      78.520 -10.043  27.145  1.00  0.00     0.000 G0
ENDBRANCH   6   7
ENDBRANCH   5   6
ENDBRANCH   3   5
ENDBRANCH   1   3
BRANCH   1  11
ATOM     11  C   UNL     1      80.953  -7.371  28.226  1.00  0.00     0.087 C 
BRANCH  11  12
ATOM     12  C   UNL     1      80.773  -8.771  27.563  1.00  0.00     0.066 C 
BRANCH  12  13
ATOM     13  C   UNL     1      79.584  -9.553  28.105  1.00  0.00     0.140 C 
ATOM     14  O   UNL     1      79.537  -9.872  29.284  1.00  0.00    -0.299 OA
BRANCH  13  15
ATOM     15  C   UNL     1      78.537 -10.064  27.146  1.00  0.00     0.106 CG0
ATOM     16  G   UNL     1      77.191  -9.344  27.184  1.00  0.00     0.000 G0
ENDBRANCH  13  15
ENDBRANCH  12  13
BRANCH  12  17
ATOM     17  C   UNL     1      82.070  -9.638  27.428  1.00  0.00    -0.006 C 
ATOM     18  C   UNL     1      82.935  -9.191  26.236  1.00  0.00     0.008 C 
ATOM     19  C   UNL     1      82.931  -9.697  28.697  1.00  0.00     0.008 C 
ENDBRANCH  12  17
ENDBRANCH  11  12
ENDBRANCH   1  11
TORSDOF 1
ENDMDL
MODEL 8
REMARK VINA RESULT:    -3.177     11.604     13.401
REMARK INTER + INTRA:          -4.627
REMARK INTER:                  -4.426
REMARK INTRA:                  -0.201
REMARK UNBOUND:                 0.221
REMARK SMILES CC1=CCC[C@H](C)C(=O)C[C@@H](C(C)C)C(=O)C1
REMARK SMILES IDX 8 1 9 2 6 3 7 4 5 5 4 6 3 7 2 8 1 9 10 11 11 12 15 13 16 14
REMARK SMILES IDX 17 15 12 17 13 18 14 19
REMARK H PARENT
REMARK Flexibility Score: 70.00
ROOT
ATOM      1  C   UNL     1      77.970  -6.951  26.374  1.00  0.00     0.136 C 
ATOM      2  O   UNL     1      77.598  -6.048  25.643  1.00  0.00    -0.299 OA
ENDROOT
BRANCH   1   3
ATOM      3  C   UNL     1      77.939  -8.374  25.838  1.00  0.00     0.053 C 
ATOM      4  C   UNL     1      76.634  -8.651  25.082  1.00  0.00     0.016 C 
BRANCH   3   5
ATOM      5  C   UNL     1      79.168  -8.683  24.960  1.00  0.00     0.015 C 
BRANCH   5   6
ATOM      6  C   UNL     1      79.853  -9.989  25.400  1.00  0.00     0.028 C 
BRANCH   6   7
ATOM      7  C   UNL     1      81.208  -9.785  26.031  1.00  0.00    -0.028 C 
ATOM      8  C   UNL     1      81.467  -9.645  27.357  1.00  0.00    -0.070 CG0
ATOM      9  C   UNL     1      82.919  -9.617  27.771  1.00  0.00     0.039 C 
ATOM     10  G   UNL     1      80.411  -9.402  28.431  1.00  0.00     0.000 G0
ENDBRANCH   6   7
ENDBRANCH   5   6
ENDBRANCH   3   5
ENDBRANCH   1   3
BRANCH   1  11
ATOM     11  C   UNL     1      78.500  -6.621  27.757  1.00  0.00     0.087 C 
BRANCH  11  12
ATOM     12  C   UNL     1      80.022  -6.865  27.990  1.00  0.00     0.066 C 
BRANCH  12  13
ATOM     13  C   UNL     1      80.315  -7.995  28.967  1.00  0.00     0.140 C 
ATOM     14  O   UNL     1      80.591  -7.751  30.134  1.00  0.00    -0.299 OA
BRANCH  13  15
ATOM     15  C   UNL     1      80.413  -9.411  28.452  1.00  0.00     0.106 CG0
ATOM     16  G   UNL     1      81.452  -9.651  27.360  1.00  0.00     0.000 G0
ENDBRANCH  13  15
ENDBRANCH  12  13
BRANCH  12  17
ATOM     17  C   UNL     1      80.890  -5.587  28.248  1.00  0.00    -0.006 C 
ATOM     18  C   UNL     1      81.359  -4.939  26.934  1.00  0.00     0.008 C 
ATOM     19  C   UNL     1      80.219  -4.530  29.135  1.00  0.00     0.008 C 
ENDBRANCH  12  17
ENDBRANCH  11  12
ENDBRANCH   1  11
TORSDOF 1
ENDMDL
MODEL 9
REMARK VINA RESULT:    -3.154     12.167     14.003
REMARK INTER + INTRA:          -4.592
REMARK INTER:                  -4.544
REMARK INTRA:                  -0.049
REMARK UNBOUND:                 0.221
REMARK SMILES CC1=CCC[C@H](C)C(=O)C[C@@H](C(C)C)C(=O)C1
REMARK SMILES IDX 8 1 9 2 6 3 7 4 5 5 4 6 3 7 2 8 1 9 10 11 11 12 15 13 16 14
REMARK SMILES IDX 17 15 12 17 13 18 14 19
REMARK H PARENT
REMARK Flexibility Score: 70.00
ROOT
ATOM      1  C   UNL     1      79.808  -6.484  26.527  1.00  0.00     0.136 C 
ATOM      2  O   UNL     1      78.975  -5.710  26.083  1.00  0.00    -0.299 OA
ENDROOT
BRANCH   1   3
ATOM      3  C   UNL     1      80.777  -5.972  27.582  1.00  0.00     0.053 C 
ATOM      4  C   UNL     1      81.257  -4.554  27.249  1.00  0.00     0.016 C 
BRANCH   3   5
ATOM      5  C   UNL     1      80.171  -6.037  28.998  1.00  0.00     0.015 C 
BRANCH   5   6
ATOM      6  C   UNL     1      80.237  -7.465  29.567  1.00  0.00     0.028 C 
BRANCH   6   7
ATOM      7  C   UNL     1      78.890  -8.045  29.921  1.00  0.00    -0.028 C 
ATOM      8  C   UNL     1      78.288  -9.107  29.327  1.00  0.00    -0.070 CG0
ATOM      9  C   UNL     1      77.012  -9.612  29.957  1.00  0.00     0.039 C 
ATOM     10  G   UNL     1      78.742  -9.747  28.017  1.00  0.00     0.000 G0
ENDBRANCH   6   7
ENDBRANCH   5   6
ENDBRANCH   3   5
ENDBRANCH   1   3
BRANCH   1  11
ATOM     11  C   UNL     1      79.811  -7.927  26.060  1.00  0.00     0.087 C 
BRANCH  11  12
ATOM     12  C   UNL     1      78.421  -8.544  25.718  1.00  0.00     0.066 C 
BRANCH  12  13
ATOM     13  C   UNL     1      77.868  -9.446  26.813  1.00  0.00     0.140 C 
ATOM     14  O   UNL     1      76.702  -9.814  26.785  1.00  0.00    -0.299 OA
BRANCH  13  15
ATOM     15  C   UNL     1      78.724  -9.756  28.017  1.00  0.00     0.106 CG0
ATOM     16  G   UNL     1      78.284  -9.117  29.331  1.00  0.00     0.000 G0
ENDBRANCH  13  15
ENDBRANCH  12  13
BRANCH  12  17
ATOM     17  C   UNL     1      78.277  -9.159  24.284  1.00  0.00    -0.006 C 
ATOM     18  C   UNL     1      78.028  -8.076  23.220  1.00  0.00     0.008 C 
ATOM     19  C   UNL     1      79.452 -10.047  23.853  1.00  0.00     0.008 C 
ENDBRANCH  12  17
ENDBRANCH  11  12
ENDBRANCH   1  11
TORSDOF 1
ENDMDL
