MODEL 1
REMARK VINA RESULT:    -3.922      0.000      0.000
REMARK INTER + INTRA:         -14.504
REMARK INTER:                  -9.884
REMARK INTRA:                  -4.621
REMARK UNBOUND:                -4.621
REMARK SMILES CCCCCCCCCCCCCCCCCCCCCCCCCCCC(=O)[O-]
REMARK SMILES IDX 15 1 16 2 17 3 18 4 19 5 20 6 21 7 22 8 23 9 24 10 25 11
REMARK SMILES IDX 26 12 27 13 28 14 29 15 30 16 14 17 13 18 12 19 11 20 10 21
REMARK SMILES IDX 9 22 8 23 7 24 6 25 5 26 4 27 3 28 2 29 1 30
REMARK H PARENT
REMARK Flexibility Score: inf
ROOT
ATOM      1  C   UNL     1     122.329 112.195 114.785  1.00  0.00     0.000 C 
ENDROOT
BRANCH   1   2
ATOM      2  C   UNL     1     122.803 111.097 113.818  1.00  0.00     0.000 C 
BRANCH   2   3
ATOM      3  C   UNL     1     121.636 110.351 113.148  1.00  0.00     0.000 C 
BRANCH   3   4
ATOM      4  C   UNL     1     120.390 111.235 112.983  1.00  0.00     0.000 C 
BRANCH   4   5
ATOM      5  C   UNL     1     119.329 110.595 112.070  1.00  0.00     0.000 C 
BRANCH   5   6
ATOM      6  C   UNL     1     119.503 110.988 110.596  1.00  0.00     0.000 C 
BRANCH   6   7
ATOM      7  C   UNL     1     119.712 109.768 109.681  1.00  0.00     0.000 C 
BRANCH   7   8
ATOM      8  C   UNL     1     121.157 109.240 109.712  1.00  0.00     0.000 C 
BRANCH   8   9
ATOM      9  C   UNL     1     121.899 109.286 108.361  1.00  0.00     0.000 C 
BRANCH   9  10
ATOM     10  C   UNL     1     121.181 110.065 107.244  1.00  0.00     0.000 C 
BRANCH  10  11
ATOM     11  C   UNL     1     121.816 111.439 106.971  1.00  0.00     0.000 C 
BRANCH  11  12
ATOM     12  C   UNL     1     120.772 112.567 106.868  1.00  0.00     0.006 C 
BRANCH  12  13
ATOM     13  C   UNL     1     121.338 113.982 107.066  1.00  0.00     0.053 C 
BRANCH  13  14
ATOM     14  C   UNL     1     121.114 114.852 105.867  1.00  0.00     0.041 C 
ATOM     15  O   UNL     1     121.977 114.902 104.951  1.00  0.00    -0.550 OA
ATOM     16  O   UNL     1     119.939 115.582 105.744  1.00  0.00    -0.550 OA
ENDBRANCH  13  14
ENDBRANCH  12  13
ENDBRANCH  11  12
ENDBRANCH  10  11
ENDBRANCH   9  10
ENDBRANCH   8   9
ENDBRANCH   7   8
ENDBRANCH   6   7
ENDBRANCH   5   6
ENDBRANCH   4   5
ENDBRANCH   3   4
ENDBRANCH   2   3
ENDBRANCH   1   2
BRANCH   1  17
ATOM     17  C   UNL     1     122.949 112.058 116.186  1.00  0.00     0.000 C 
BRANCH  17  18
ATOM     18  C   UNL     1     121.962 111.451 117.206  1.00  0.00     0.000 C 
BRANCH  18  19
ATOM     19  C   UNL     1     120.508 111.395 116.705  1.00  0.00     0.000 C 
BRANCH  19  20
ATOM     20  C   UNL     1     119.494 111.863 117.761  1.00  0.00     0.000 C 
BRANCH  20  21
ATOM     21  C   UNL     1     118.856 113.218 117.413  1.00  0.00     0.000 C 
BRANCH  21  22
ATOM     22  C   UNL     1     119.470 113.863 116.160  1.00  0.00    -0.000 C 
BRANCH  22  23
ATOM     23  C   UNL     1     118.496 114.862 115.518  1.00  0.00    -0.000 C 
BRANCH  23  24
ATOM     24  C   UNL     1     119.046 115.495 114.226  1.00  0.00    -0.000 C 
BRANCH  24  25
ATOM     25  C   UNL     1     120.527 115.195 113.929  1.00  0.00    -0.000 C 
BRANCH  25  26
ATOM     26  C   UNL     1     120.778 114.820 112.459  1.00  0.00    -0.000 C 
BRANCH  26  27
ATOM     27  C   UNL     1     121.935 115.616 111.836  1.00  0.00    -0.000 C 
BRANCH  27  28
ATOM     28  C   UNL     1     122.775 114.780 110.858  1.00  0.00    -0.000 C 
BRANCH  28  29
ATOM     29  C   UNL     1     122.109 113.426 110.583  1.00  0.00    -0.003 C 
ATOM     30  C   UNL     1     123.150 112.349 110.291  1.00  0.00     0.004 C 
ENDBRANCH  28  29
ENDBRANCH  27  28
ENDBRANCH  26  27
ENDBRANCH  25  26
ENDBRANCH  24  25
ENDBRANCH  23  24
ENDBRANCH  22  23
ENDBRANCH  21  22
ENDBRANCH  20  21
ENDBRANCH  19  20
ENDBRANCH  18  19
ENDBRANCH  17  18
ENDBRANCH   1  17
TORSDOF 26
ENDMDL
MODEL 2
REMARK VINA RESULT:    -3.889      2.447      6.838
REMARK INTER + INTRA:         -14.421
REMARK INTER:                 -10.147
REMARK INTRA:                  -4.274
REMARK UNBOUND:                -4.621
REMARK SMILES CCCCCCCCCCCCCCCCCCCCCCCCCCCC(=O)[O-]
REMARK SMILES IDX 15 1 16 2 17 3 18 4 19 5 20 6 21 7 22 8 23 9 24 10 25 11
REMARK SMILES IDX 26 12 27 13 28 14 29 15 30 16 14 17 13 18 12 19 11 20 10 21
REMARK SMILES IDX 9 22 8 23 7 24 6 25 5 26 4 27 3 28 2 29 1 30
REMARK H PARENT
REMARK Flexibility Score: inf
ROOT
ATOM      1  C   UNL     1     123.298 113.647 113.638  1.00  0.00     0.000 C 
ENDROOT
BRANCH   1   2
ATOM      2  C   UNL     1     123.377 112.958 115.010  1.00  0.00     0.000 C 
BRANCH   2   3
ATOM      3  C   UNL     1     122.072 113.084 115.815  1.00  0.00     0.000 C 
BRANCH   3   4
ATOM      4  C   UNL     1     121.345 111.739 115.969  1.00  0.00     0.000 C 
BRANCH   4   5
ATOM      5  C   UNL     1     121.038 111.398 117.438  1.00  0.00     0.000 C 
BRANCH   5   6
ATOM      6  C   UNL     1     119.538 111.463 117.759  1.00  0.00     0.000 C 
BRANCH   6   7
ATOM      7  C   UNL     1     119.075 112.884 118.126  1.00  0.00     0.000 C 
BRANCH   7   8
ATOM      8  C   UNL     1     117.634 113.176 117.672  1.00  0.00     0.000 C 
BRANCH   8   9
ATOM      9  C   UNL     1     117.500 114.240 116.563  1.00  0.00     0.000 C 
BRANCH   9  10
ATOM     10  C   UNL     1     118.828 114.846 116.072  1.00  0.00     0.000 C 
BRANCH  10  11
ATOM     11  C   UNL     1     119.020 114.710 114.552  1.00  0.00     0.000 C 
BRANCH  11  12
ATOM     12  C   UNL     1     120.139 115.619 114.010  1.00  0.00     0.006 C 
BRANCH  12  13
ATOM     13  C   UNL     1     119.741 116.466 112.791  1.00  0.00     0.053 C 
BRANCH  13  14
ATOM     14  C   UNL     1     119.794 117.935 113.083  1.00  0.00     0.041 C 
ATOM     15  O   UNL     1     120.199 118.740 112.205  1.00  0.00    -0.550 OA
ATOM     16  O   UNL     1     119.364 118.418 114.312  1.00  0.00    -0.550 OA
ENDBRANCH  13  14
ENDBRANCH  12  13
ENDBRANCH  11  12
ENDBRANCH  10  11
ENDBRANCH   9  10
ENDBRANCH   8   9
ENDBRANCH   7   8
ENDBRANCH   6   7
ENDBRANCH   5   6
ENDBRANCH   4   5
ENDBRANCH   3   4
ENDBRANCH   2   3
ENDBRANCH   1   2
BRANCH   1  17
ATOM     17  C   UNL     1     122.782 112.709 112.533  1.00  0.00     0.000 C 
BRANCH  17  18
ATOM     18  C   UNL     1     121.759 113.401 111.608  1.00  0.00     0.000 C 
BRANCH  18  19
ATOM     19  C   UNL     1     120.384 112.711 111.576  1.00  0.00     0.000 C 
BRANCH  19  20
ATOM     20  C   UNL     1     120.241 111.615 112.644  1.00  0.00     0.000 C 
BRANCH  20  21
ATOM     21  C   UNL     1     119.987 110.224 112.039  1.00  0.00     0.000 C 
BRANCH  21  22
ATOM     22  C   UNL     1     118.988 110.255 110.871  1.00  0.00    -0.000 C 
BRANCH  22  23
ATOM     23  C   UNL     1     119.630 109.727 109.580  1.00  0.00    -0.000 C 
BRANCH  23  24
ATOM     24  C   UNL     1     121.137 109.448 109.726  1.00  0.00    -0.000 C 
BRANCH  24  25
ATOM     25  C   UNL     1     122.062 110.507 109.100  1.00  0.00    -0.000 C 
BRANCH  25  26
ATOM     26  C   UNL     1     121.530 111.052 107.764  1.00  0.00    -0.000 C 
BRANCH  26  27
ATOM     27  C   UNL     1     121.091 112.522 107.859  1.00  0.00    -0.000 C 
BRANCH  27  28
ATOM     28  C   UNL     1     121.795 113.421 106.831  1.00  0.00    -0.000 C 
BRANCH  28  29
ATOM     29  C   UNL     1     120.877 113.713 105.639  1.00  0.00    -0.003 C 
ATOM     30  C   UNL     1     120.252 115.101 105.750  1.00  0.00     0.004 C 
ENDBRANCH  28  29
ENDBRANCH  27  28
ENDBRANCH  26  27
ENDBRANCH  25  26
ENDBRANCH  24  25
ENDBRANCH  23  24
ENDBRANCH  22  23
ENDBRANCH  21  22
ENDBRANCH  20  21
ENDBRANCH  19  20
ENDBRANCH  18  19
ENDBRANCH  17  18
ENDBRANCH   1  17
TORSDOF 26
ENDMDL
MODEL 3
REMARK VINA RESULT:    -3.870      3.557      7.773
REMARK INTER + INTRA:         -14.372
REMARK INTER:                 -10.079
REMARK INTRA:                  -4.293
REMARK UNBOUND:                -4.621
REMARK SMILES CCCCCCCCCCCCCCCCCCCCCCCCCCCC(=O)[O-]
REMARK SMILES IDX 15 1 16 2 17 3 18 4 19 5 20 6 21 7 22 8 23 9 24 10 25 11
REMARK SMILES IDX 26 12 27 13 28 14 29 15 30 16 14 17 13 18 12 19 11 20 10 21
REMARK SMILES IDX 9 22 8 23 7 24 6 25 5 26 4 27 3 28 2 29 1 30
REMARK H PARENT
REMARK Flexibility Score: inf
ROOT
ATOM      1  C   UNL     1     122.696 114.441 113.598  1.00  0.00     0.000 C 
ENDROOT
BRANCH   1   2
ATOM      2  C   UNL     1     121.461 114.874 112.792  1.00  0.00     0.000 C 
BRANCH   2   3
ATOM      3  C   UNL     1     120.781 116.126 113.374  1.00  0.00     0.000 C 
BRANCH   3   4
ATOM      4  C   UNL     1     119.247 116.027 113.346  1.00  0.00     0.000 C 
BRANCH   4   5
ATOM      5  C   UNL     1     118.632 116.008 114.757  1.00  0.00     0.000 C 
BRANCH   5   6
ATOM      6  C   UNL     1     118.665 114.612 115.397  1.00  0.00     0.000 C 
BRANCH   6   7
ATOM      7  C   UNL     1     117.592 114.436 116.484  1.00  0.00     0.000 C 
BRANCH   7   8
ATOM      8  C   UNL     1     118.155 113.843 117.788  1.00  0.00     0.000 C 
BRANCH   8   9
ATOM      9  C   UNL     1     118.226 112.303 117.829  1.00  0.00     0.000 C 
BRANCH   9  10
ATOM     10  C   UNL     1     119.608 111.718 118.171  1.00  0.00     0.000 C 
BRANCH  10  11
ATOM     11  C   UNL     1     120.644 111.946 117.058  1.00  0.00     0.000 C 
BRANCH  11  12
ATOM     12  C   UNL     1     122.077 112.105 117.601  1.00  0.00     0.006 C 
BRANCH  12  13
ATOM     13  C   UNL     1     122.789 110.782 117.924  1.00  0.00     0.053 C 
BRANCH  13  14
ATOM     14  C   UNL     1     124.131 110.688 117.264  1.00  0.00     0.041 C 
ATOM     15  O   UNL     1     124.711 109.575 117.165  1.00  0.00    -0.550 OA
ATOM     16  O   UNL     1     124.724 111.822 116.726  1.00  0.00    -0.550 OA
ENDBRANCH  13  14
ENDBRANCH  12  13
ENDBRANCH  11  12
ENDBRANCH  10  11
ENDBRANCH   9  10
ENDBRANCH   8   9
ENDBRANCH   7   8
ENDBRANCH   6   7
ENDBRANCH   5   6
ENDBRANCH   4   5
ENDBRANCH   3   4
ENDBRANCH   2   3
ENDBRANCH   1   2
BRANCH   1  17
ATOM     17  C   UNL     1     122.601 112.987 114.094  1.00  0.00     0.000 C 
BRANCH  17  18
ATOM     18  C   UNL     1     121.374 112.251 113.514  1.00  0.00     0.000 C 
BRANCH  18  19
ATOM     19  C   UNL     1     121.471 110.717 113.603  1.00  0.00     0.000 C 
BRANCH  19  20
ATOM     20  C   UNL     1     120.485 110.002 112.665  1.00  0.00     0.000 C 
BRANCH  20  21
ATOM     21  C   UNL     1     119.635 110.980 111.837  1.00  0.00     0.000 C 
BRANCH  21  22
ATOM     22  C   UNL     1     119.110 110.359 110.533  1.00  0.00    -0.000 C 
BRANCH  22  23
ATOM     23  C   UNL     1     120.199 109.529 109.838  1.00  0.00    -0.000 C 
BRANCH  23  24
ATOM     24  C   UNL     1     120.355 109.868 108.344  1.00  0.00    -0.000 C 
BRANCH  24  25
ATOM     25  C   UNL     1     119.793 111.237 107.921  1.00  0.00    -0.000 C 
BRANCH  25  26
ATOM     26  C   UNL     1     120.853 112.145 107.276  1.00  0.00    -0.000 C 
BRANCH  26  27
ATOM     27  C   UNL     1     122.276 111.834 107.767  1.00  0.00    -0.000 C 
BRANCH  27  28
ATOM     28  C   UNL     1     122.831 112.913 108.709  1.00  0.00    -0.000 C 
BRANCH  28  29
ATOM     29  C   UNL     1     122.691 112.485 110.175  1.00  0.00    -0.003 C 
ATOM     30  C   UNL     1     123.426 111.175 110.440  1.00  0.00     0.004 C 
ENDBRANCH  28  29
ENDBRANCH  27  28
ENDBRANCH  26  27
ENDBRANCH  25  26
ENDBRANCH  24  25
ENDBRANCH  23  24
ENDBRANCH  22  23
ENDBRANCH  21  22
ENDBRANCH  20  21
ENDBRANCH  19  20
ENDBRANCH  18  19
ENDBRANCH  17  18
ENDBRANCH   1  17
TORSDOF 26
ENDMDL
MODEL 4
REMARK VINA RESULT:    -3.869      3.821      8.076
REMARK INTER + INTRA:         -14.371
REMARK INTER:                  -9.736
REMARK INTRA:                  -4.636
REMARK UNBOUND:                -4.621
REMARK SMILES CCCCCCCCCCCCCCCCCCCCCCCCCCCC(=O)[O-]
REMARK SMILES IDX 15 1 16 2 17 3 18 4 19 5 20 6 21 7 22 8 23 9 24 10 25 11
REMARK SMILES IDX 26 12 27 13 28 14 29 15 30 16 14 17 13 18 12 19 11 20 10 21
REMARK SMILES IDX 9 22 8 23 7 24 6 25 5 26 4 27 3 28 2 29 1 30
REMARK H PARENT
REMARK Flexibility Score: inf
ROOT
ATOM      1  C   UNL     1     122.157 112.902 115.118  1.00  0.00     0.000 C 
ENDROOT
BRANCH   1   2
ATOM      2  C   UNL     1     121.192 114.022 115.539  1.00  0.00     0.000 C 
BRANCH   2   3
ATOM      3  C   UNL     1     119.787 113.855 114.934  1.00  0.00     0.000 C 
BRANCH   3   4
ATOM      4  C   UNL     1     118.757 114.802 115.570  1.00  0.00     0.000 C 
BRANCH   4   5
ATOM      5  C   UNL     1     117.734 114.058 116.447  1.00  0.00     0.000 C 
BRANCH   5   6
ATOM      6  C   UNL     1     118.318 113.628 117.800  1.00  0.00     0.000 C 
BRANCH   6   7
ATOM      7  C   UNL     1     118.415 112.098 117.941  1.00  0.00     0.000 C 
BRANCH   7   8
ATOM      8  C   UNL     1     119.867 111.601 118.051  1.00  0.00     0.000 C 
BRANCH   8   9
ATOM      9  C   UNL     1     120.753 112.382 119.044  1.00  0.00     0.000 C 
BRANCH   9  10
ATOM     10  C   UNL     1     122.005 111.633 119.535  1.00  0.00     0.000 C 
BRANCH  10  11
ATOM     11  C   UNL     1     121.991 110.141 119.165  1.00  0.00     0.000 C 
BRANCH  11  12
ATOM     12  C   UNL     1     123.342 109.654 118.607  1.00  0.00     0.006 C 
BRANCH  12  13
ATOM     13  C   UNL     1     123.822 110.400 117.352  1.00  0.00     0.053 C 
BRANCH  13  14
ATOM     14  C   UNL     1     125.074 111.183 117.606  1.00  0.00     0.041 C 
ATOM     15  O   UNL     1     125.052 112.441 117.570  1.00  0.00    -0.550 OA
ATOM     16  O   UNL     1     126.257 110.526 117.916  1.00  0.00    -0.550 OA
ENDBRANCH  13  14
ENDBRANCH  12  13
ENDBRANCH  11  12
ENDBRANCH  10  11
ENDBRANCH   9  10
ENDBRANCH   8   9
ENDBRANCH   7   8
ENDBRANCH   6   7
ENDBRANCH   5   6
ENDBRANCH   4   5
ENDBRANCH   3   4
ENDBRANCH   2   3
ENDBRANCH   1   2
BRANCH   1  17
ATOM     17  C   UNL     1     121.429 111.588 114.783  1.00  0.00     0.000 C 
BRANCH  17  18
ATOM     18  C   UNL     1     122.187 110.752 113.729  1.00  0.00     0.000 C 
BRANCH  18  19
ATOM     19  C   UNL     1     121.298 110.254 112.576  1.00  0.00     0.000 C 
BRANCH  19  20
ATOM     20  C   UNL     1     119.980 111.036 112.457  1.00  0.00     0.000 C 
BRANCH  20  21
ATOM     21  C   UNL     1     118.938 110.317 111.584  1.00  0.00     0.000 C 
BRANCH  21  22
ATOM     22  C   UNL     1     119.054 110.680 110.095  1.00  0.00    -0.000 C 
BRANCH  22  23
ATOM     23  C   UNL     1     119.813 109.595 109.318  1.00  0.00    -0.000 C 
BRANCH  23  24
ATOM     24  C   UNL     1     120.740 110.169 108.230  1.00  0.00    -0.000 C 
BRANCH  24  25
ATOM     25  C   UNL     1     121.953 110.960 108.753  1.00  0.00    -0.000 C 
BRANCH  25  26
ATOM     26  C   UNL     1     121.998 112.403 108.226  1.00  0.00    -0.000 C 
BRANCH  26  27
ATOM     27  C   UNL     1     121.451 113.420 109.241  1.00  0.00    -0.000 C 
BRANCH  27  28
ATOM     28  C   UNL     1     122.206 113.393 110.578  1.00  0.00    -0.000 C 
BRANCH  28  29
ATOM     29  C   UNL     1     121.436 114.161 111.659  1.00  0.00    -0.003 C 
ATOM     30  C   UNL     1     121.969 115.582 111.811  1.00  0.00     0.004 C 
ENDBRANCH  28  29
ENDBRANCH  27  28
ENDBRANCH  26  27
ENDBRANCH  25  26
ENDBRANCH  24  25
ENDBRANCH  23  24
ENDBRANCH  22  23
ENDBRANCH  21  22
ENDBRANCH  20  21
ENDBRANCH  19  20
ENDBRANCH  18  19
ENDBRANCH  17  18
ENDBRANCH   1  17
TORSDOF 26
ENDMDL
MODEL 5
REMARK VINA RESULT:    -3.866      4.219      8.182
REMARK INTER + INTRA:         -14.362
REMARK INTER:                  -9.920
REMARK INTRA:                  -4.442
REMARK UNBOUND:                -4.621
REMARK SMILES CCCCCCCCCCCCCCCCCCCCCCCCCCCC(=O)[O-]
REMARK SMILES IDX 15 1 16 2 17 3 18 4 19 5 20 6 21 7 22 8 23 9 24 10 25 11
REMARK SMILES IDX 26 12 27 13 28 14 29 15 30 16 14 17 13 18 12 19 11 20 10 21
REMARK SMILES IDX 9 22 8 23 7 24 6 25 5 26 4 27 3 28 2 29 1 30
REMARK H PARENT
REMARK Flexibility Score: inf
ROOT
ATOM      1  C   UNL     1     118.692 116.555 114.731  1.00  0.00     0.000 C 
ENDROOT
BRANCH   1   2
ATOM      2  C   UNL     1     117.708 115.871 115.693  1.00  0.00     0.000 C 
BRANCH   2   3
ATOM      3  C   UNL     1     118.276 114.579 116.307  1.00  0.00     0.000 C 
BRANCH   3   4
ATOM      4  C   UNL     1     117.307 113.927 117.304  1.00  0.00     0.000 C 
BRANCH   4   5
ATOM      5  C   UNL     1     117.806 112.558 117.803  1.00  0.00     0.000 C 
BRANCH   5   6
ATOM      6  C   UNL     1     119.325 112.530 118.027  1.00  0.00     0.000 C 
BRANCH   6   7
ATOM      7  C   UNL     1     119.985 111.273 117.434  1.00  0.00     0.000 C 
BRANCH   7   8
ATOM      8  C   UNL     1     121.156 111.603 116.492  1.00  0.00     0.000 C 
BRANCH   8   9
ATOM      9  C   UNL     1     121.528 113.098 116.411  1.00  0.00     0.000 C 
BRANCH   9  10
ATOM     10  C   UNL     1     123.026 113.391 116.213  1.00  0.00     0.000 C 
BRANCH  10  11
ATOM     11  C   UNL     1     123.895 112.123 116.266  1.00  0.00     0.000 C 
BRANCH  11  12
ATOM     12  C   UNL     1     124.719 112.019 117.562  1.00  0.00     0.006 C 
BRANCH  12  13
ATOM     13  C   UNL     1     123.914 111.596 118.801  1.00  0.00     0.053 C 
BRANCH  13  14
ATOM     14  C   UNL     1     123.667 110.119 118.835  1.00  0.00     0.041 C 
ATOM     15  O   UNL     1     122.742 109.648 119.548  1.00  0.00    -0.550 OA
ATOM     16  O   UNL     1     124.435 109.265 118.055  1.00  0.00    -0.550 OA
ENDBRANCH  13  14
ENDBRANCH  12  13
ENDBRANCH  11  12
ENDBRANCH  10  11
ENDBRANCH   9  10
ENDBRANCH   8   9
ENDBRANCH   7   8
ENDBRANCH   6   7
ENDBRANCH   5   6
ENDBRANCH   4   5
ENDBRANCH   3   4
ENDBRANCH   2   3
ENDBRANCH   1   2
BRANCH   1  17
ATOM     17  C   UNL     1     119.843 115.627 114.302  1.00  0.00     0.000 C 
BRANCH  17  18
ATOM     18  C   UNL     1     119.617 115.025 112.899  1.00  0.00     0.000 C 
BRANCH  18  19
ATOM     19  C   UNL     1     120.918 114.647 112.169  1.00  0.00     0.000 C 
BRANCH  19  20
ATOM     20  C   UNL     1     122.160 114.751 113.069  1.00  0.00     0.000 C 
BRANCH  20  21
ATOM     21  C   UNL     1     123.439 114.249 112.379  1.00  0.00     0.000 C 
BRANCH  21  22
ATOM     22  C   UNL     1     123.673 112.743 112.577  1.00  0.00    -0.000 C 
BRANCH  22  23
ATOM     23  C   UNL     1     123.302 111.954 111.313  1.00  0.00    -0.000 C 
BRANCH  23  24
ATOM     24  C   UNL     1     122.650 110.593 111.621  1.00  0.00    -0.000 C 
BRANCH  24  25
ATOM     25  C   UNL     1     122.290 110.359 113.100  1.00  0.00    -0.000 C 
BRANCH  25  26
ATOM     26  C   UNL     1     120.776 110.412 113.362  1.00  0.00    -0.000 C 
BRANCH  26  27
ATOM     27  C   UNL     1     120.011 111.162 112.260  1.00  0.00    -0.000 C 
BRANCH  27  28
ATOM     28  C   UNL     1     118.961 110.285 111.561  1.00  0.00    -0.000 C 
BRANCH  28  29
ATOM     29  C   UNL     1     119.260 110.160 110.063  1.00  0.00    -0.003 C 
ATOM     30  C   UNL     1     119.660 111.506 109.466  1.00  0.00     0.004 C 
ENDBRANCH  28  29
ENDBRANCH  27  28
ENDBRANCH  26  27
ENDBRANCH  25  26
ENDBRANCH  24  25
ENDBRANCH  23  24
ENDBRANCH  22  23
ENDBRANCH  21  22
ENDBRANCH  20  21
ENDBRANCH  19  20
ENDBRANCH  18  19
ENDBRANCH  17  18
ENDBRANCH   1  17
TORSDOF 26
ENDMDL
MODEL 6
REMARK VINA RESULT:    -3.854      3.558      8.137
REMARK INTER + INTRA:         -14.332
REMARK INTER:                  -9.667
REMARK INTRA:                  -4.665
REMARK UNBOUND:                -4.621
REMARK SMILES CCCCCCCCCCCCCCCCCCCCCCCCCCCC(=O)[O-]
REMARK SMILES IDX 15 1 16 2 17 3 18 4 19 5 20 6 21 7 22 8 23 9 24 10 25 11
REMARK SMILES IDX 26 12 27 13 28 14 29 15 30 16 14 17 13 18 12 19 11 20 10 21
REMARK SMILES IDX 9 22 8 23 7 24 6 25 5 26 4 27 3 28 2 29 1 30
REMARK H PARENT
REMARK Flexibility Score: inf
ROOT
ATOM      1  C   UNL     1     119.043 110.202 111.419  1.00  0.00     0.000 C 
ENDROOT
BRANCH   1   2
ATOM      2  C   UNL     1     119.879 111.231 112.197  1.00  0.00     0.000 C 
BRANCH   2   3
ATOM      3  C   UNL     1     120.796 110.581 113.248  1.00  0.00     0.000 C 
BRANCH   3   4
ATOM      4  C   UNL     1     122.283 110.868 112.988  1.00  0.00     0.000 C 
BRANCH   4   5
ATOM      5  C   UNL     1     122.520 111.583 111.646  1.00  0.00     0.000 C 
BRANCH   5   6
ATOM      6  C   UNL     1     122.947 113.047 111.823  1.00  0.00     0.000 C 
BRANCH   6   7
ATOM      7  C   UNL     1     122.104 114.014 110.974  1.00  0.00     0.000 C 
BRANCH   7   8
ATOM      8  C   UNL     1     121.521 115.177 111.796  1.00  0.00     0.000 C 
BRANCH   8   9
ATOM      9  C   UNL     1     120.441 114.775 112.822  1.00  0.00     0.000 C 
BRANCH   9  10
ATOM     10  C   UNL     1     120.802 115.046 114.293  1.00  0.00     0.000 C 
BRANCH  10  11
ATOM     11  C   UNL     1     121.237 113.777 115.045  1.00  0.00     0.000 C 
BRANCH  11  12
ATOM     12  C   UNL     1     120.157 113.260 116.015  1.00  0.00     0.006 C 
BRANCH  12  13
ATOM     13  C   UNL     1     118.892 114.130 116.086  1.00  0.00     0.053 C 
BRANCH  13  14
ATOM     14  C   UNL     1     118.007 113.745 117.232  1.00  0.00     0.041 C 
ATOM     15  O   UNL     1     116.763 113.920 117.157  1.00  0.00    -0.550 OA
ATOM     16  O   UNL     1     118.551 113.162 118.368  1.00  0.00    -0.550 OA
ENDBRANCH  13  14
ENDBRANCH  12  13
ENDBRANCH  11  12
ENDBRANCH  10  11
ENDBRANCH   9  10
ENDBRANCH   8   9
ENDBRANCH   7   8
ENDBRANCH   6   7
ENDBRANCH   5   6
ENDBRANCH   4   5
ENDBRANCH   3   4
ENDBRANCH   2   3
ENDBRANCH   1   2
BRANCH   1  17
ATOM     17  C   UNL     1     119.625 109.896 110.028  1.00  0.00     0.000 C 
BRANCH  17  18
ATOM     18  C   UNL     1     119.853 111.175 109.195  1.00  0.00     0.000 C 
BRANCH  18  19
ATOM     19  C   UNL     1     119.903 110.927 107.677  1.00  0.00     0.000 C 
BRANCH  19  20
ATOM     20  C   UNL     1     120.259 109.474 107.321  1.00  0.00     0.000 C 
BRANCH  20  21
ATOM     21  C   UNL     1     121.636 109.347 106.649  1.00  0.00     0.000 C 
BRANCH  21  22
ATOM     22  C   UNL     1     122.725 108.846 107.610  1.00  0.00    -0.000 C 
BRANCH  22  23
ATOM     23  C   UNL     1     123.401 110.015 108.339  1.00  0.00    -0.000 C 
BRANCH  23  24
ATOM     24  C   UNL     1     123.684 111.218 107.419  1.00  0.00    -0.000 C 
BRANCH  24  25
ATOM     25  C   UNL     1     123.260 112.587 107.982  1.00  0.00    -0.000 C 
BRANCH  25  26
ATOM     26  C   UNL     1     122.985 113.626 106.883  1.00  0.00    -0.000 C 
BRANCH  26  27
ATOM     27  C   UNL     1     122.183 113.045 105.707  1.00  0.00    -0.000 C 
BRANCH  27  28
ATOM     28  C   UNL     1     120.844 113.764 105.487  1.00  0.00    -0.000 C 
BRANCH  28  29
ATOM     29  C   UNL     1     121.001 115.280 105.658  1.00  0.00    -0.003 C 
ATOM     30  C   UNL     1     121.536 115.927 104.384  1.00  0.00     0.004 C 
ENDBRANCH  28  29
ENDBRANCH  27  28
ENDBRANCH  26  27
ENDBRANCH  25  26
ENDBRANCH  24  25
ENDBRANCH  23  24
ENDBRANCH  22  23
ENDBRANCH  21  22
ENDBRANCH  20  21
ENDBRANCH  19  20
ENDBRANCH  18  19
ENDBRANCH  17  18
ENDBRANCH   1  17
TORSDOF 26
ENDMDL
MODEL 7
REMARK VINA RESULT:    -3.844      4.363      8.901
REMARK INTER + INTRA:         -14.308
REMARK INTER:                 -10.028
REMARK INTRA:                  -4.280
REMARK UNBOUND:                -4.621
REMARK SMILES CCCCCCCCCCCCCCCCCCCCCCCCCCCC(=O)[O-]
REMARK SMILES IDX 15 1 16 2 17 3 18 4 19 5 20 6 21 7 22 8 23 9 24 10 25 11
REMARK SMILES IDX 26 12 27 13 28 14 29 15 30 16 14 17 13 18 12 19 11 20 10 21
REMARK SMILES IDX 9 22 8 23 7 24 6 25 5 26 4 27 3 28 2 29 1 30
REMARK H PARENT
REMARK Flexibility Score: inf
ROOT
ATOM      1  C   UNL     1     120.739 111.540 113.226  1.00  0.00     0.000 C 
ENDROOT
BRANCH   1   2
ATOM      2  C   UNL     1     121.179 112.980 113.538  1.00  0.00     0.000 C 
BRANCH   2   3
ATOM      3  C   UNL     1     119.995 113.959 113.621  1.00  0.00     0.000 C 
BRANCH   3   4
ATOM      4  C   UNL     1     119.870 114.615 115.004  1.00  0.00     0.000 C 
BRANCH   4   5
ATOM      5  C   UNL     1     118.561 115.408 115.166  1.00  0.00     0.000 C 
BRANCH   5   6
ATOM      6  C   UNL     1     117.817 115.062 116.464  1.00  0.00     0.000 C 
BRANCH   6   7
ATOM      7  C   UNL     1     117.892 113.563 116.804  1.00  0.00     0.000 C 
BRANCH   7   8
ATOM      8  C   UNL     1     118.676 113.284 118.098  1.00  0.00     0.000 C 
BRANCH   8   9
ATOM      9  C   UNL     1     119.408 111.927 118.139  1.00  0.00     0.000 C 
BRANCH   9  10
ATOM     10  C   UNL     1     120.092 111.511 116.825  1.00  0.00     0.000 C 
BRANCH  10  11
ATOM     11  C   UNL     1     121.620 111.399 116.956  1.00  0.00     0.000 C 
BRANCH  11  12
ATOM     12  C   UNL     1     122.235 112.559 117.762  1.00  0.00     0.006 C 
BRANCH  12  13
ATOM     13  C   UNL     1     123.276 112.131 118.808  1.00  0.00     0.053 C 
BRANCH  13  14
ATOM     14  C   UNL     1     122.724 111.130 119.776  1.00  0.00     0.041 C 
ATOM     15  O   UNL     1     123.182 109.958 119.806  1.00  0.00    -0.550 OA
ATOM     16  O   UNL     1     121.728 111.500 120.669  1.00  0.00    -0.550 OA
ENDBRANCH  13  14
ENDBRANCH  12  13
ENDBRANCH  11  12
ENDBRANCH  10  11
ENDBRANCH   9  10
ENDBRANCH   8   9
ENDBRANCH   7   8
ENDBRANCH   6   7
ENDBRANCH   5   6
ENDBRANCH   4   5
ENDBRANCH   3   4
ENDBRANCH   2   3
ENDBRANCH   1   2
BRANCH   1  17
ATOM     17  C   UNL     1     119.699 111.470 112.094  1.00  0.00     0.000 C 
BRANCH  17  18
ATOM     18  C   UNL     1     119.483 110.029 111.587  1.00  0.00     0.000 C 
BRANCH  18  19
ATOM     19  C   UNL     1     119.777 109.847 110.087  1.00  0.00     0.000 C 
BRANCH  19  20
ATOM     20  C   UNL     1     119.618 111.149 109.286  1.00  0.00     0.000 C 
BRANCH  20  21
ATOM     21  C   UNL     1     120.052 111.001 107.818  1.00  0.00     0.000 C 
BRANCH  21  22
ATOM     22  C   UNL     1     119.968 109.551 107.314  1.00  0.00    -0.000 C 
BRANCH  22  23
ATOM     23  C   UNL     1     121.350 109.032 106.891  1.00  0.00    -0.000 C 
BRANCH  23  24
ATOM     24  C   UNL     1     121.714 107.686 107.546  1.00  0.00    -0.000 C 
BRANCH  24  25
ATOM     25  C   UNL     1     122.751 107.770 108.681  1.00  0.00    -0.000 C 
BRANCH  25  26
ATOM     26  C   UNL     1     123.261 109.201 108.920  1.00  0.00    -0.000 C 
BRANCH  26  27
ATOM     27  C   UNL     1     123.902 109.375 110.306  1.00  0.00    -0.000 C 
BRANCH  27  28
ATOM     28  C   UNL     1     123.483 110.682 110.996  1.00  0.00    -0.000 C 
BRANCH  28  29
ATOM     29  C   UNL     1     123.027 111.723 109.967  1.00  0.00    -0.003 C 
ATOM     30  C   UNL     1     123.289 113.142 110.464  1.00  0.00     0.004 C 
ENDBRANCH  28  29
ENDBRANCH  27  28
ENDBRANCH  26  27
ENDBRANCH  25  26
ENDBRANCH  24  25
ENDBRANCH  23  24
ENDBRANCH  22  23
ENDBRANCH  21  22
ENDBRANCH  20  21
ENDBRANCH  19  20
ENDBRANCH  18  19
ENDBRANCH  17  18
ENDBRANCH   1  17
TORSDOF 26
ENDMDL
MODEL 8
REMARK VINA RESULT:    -3.820      1.644      4.338
REMARK INTER + INTRA:         -14.248
REMARK INTER:                 -10.224
REMARK INTRA:                  -4.024
REMARK UNBOUND:                -4.621
REMARK SMILES CCCCCCCCCCCCCCCCCCCCCCCCCCCC(=O)[O-]
REMARK SMILES IDX 15 1 16 2 17 3 18 4 19 5 20 6 21 7 22 8 23 9 24 10 25 11
REMARK SMILES IDX 26 12 27 13 28 14 29 15 30 16 14 17 13 18 12 19 11 20 10 21
REMARK SMILES IDX 9 22 8 23 7 24 6 25 5 26 4 27 3 28 2 29 1 30
REMARK H PARENT
REMARK Flexibility Score: inf
ROOT
ATOM      1  C   UNL     1     118.847 115.934 114.632  1.00  0.00     0.000 C 
ENDROOT
BRANCH   1   2
ATOM      2  C   UNL     1     120.209 116.254 113.997  1.00  0.00     0.000 C 
BRANCH   2   3
ATOM      3  C   UNL     1     121.172 115.054 114.016  1.00  0.00     0.000 C 
BRANCH   3   4
ATOM      4  C   UNL     1     121.369 114.437 112.622  1.00  0.00     0.000 C 
BRANCH   4   5
ATOM      5  C   UNL     1     120.089 113.775 112.082  1.00  0.00     0.000 C 
BRANCH   5   6
ATOM      6  C   UNL     1     120.379 112.513 111.257  1.00  0.00     0.000 C 
BRANCH   6   7
ATOM      7  C   UNL     1     119.646 111.274 111.798  1.00  0.00     0.000 C 
BRANCH   7   8
ATOM      8  C   UNL     1     120.161 109.961 111.182  1.00  0.00     0.000 C 
BRANCH   8   9
ATOM      9  C   UNL     1     119.602 109.632 109.783  1.00  0.00     0.000 C 
BRANCH   9  10
ATOM     10  C   UNL     1     120.657 109.511 108.668  1.00  0.00     0.000 C 
BRANCH  10  11
ATOM     11  C   UNL     1     120.257 110.259 107.385  1.00  0.00     0.000 C 
BRANCH  11  12
ATOM     12  C   UNL     1     120.541 111.771 107.464  1.00  0.00     0.006 C 
BRANCH  12  13
ATOM     13  C   UNL     1     121.973 112.132 107.891  1.00  0.00     0.053 C 
BRANCH  13  14
ATOM     14  C   UNL     1     122.908 112.207 106.723  1.00  0.00     0.041 C 
ATOM     15  O   UNL     1     124.142 112.023 106.888  1.00  0.00    -0.550 OA
ATOM     16  O   UNL     1     122.413 112.447 105.448  1.00  0.00    -0.550 OA
ENDBRANCH  13  14
ENDBRANCH  12  13
ENDBRANCH  11  12
ENDBRANCH  10  11
ENDBRANCH   9  10
ENDBRANCH   8   9
ENDBRANCH   7   8
ENDBRANCH   6   7
ENDBRANCH   5   6
ENDBRANCH   4   5
ENDBRANCH   3   4
ENDBRANCH   2   3
ENDBRANCH   1   2
BRANCH   1  17
ATOM     17  C   UNL     1     118.879 114.659 115.494  1.00  0.00     0.000 C 
BRANCH  17  18
ATOM     18  C   UNL     1     117.600 114.494 116.342  1.00  0.00     0.000 C 
BRANCH  18  19
ATOM     19  C   UNL     1     117.868 114.029 117.785  1.00  0.00     0.000 C 
BRANCH  19  20
ATOM     20  C   UNL     1     118.163 112.524 117.882  1.00  0.00     0.000 C 
BRANCH  20  21
ATOM     21  C   UNL     1     119.621 112.228 118.268  1.00  0.00     0.000 C 
BRANCH  21  22
ATOM     22  C   UNL     1     120.294 111.213 117.329  1.00  0.00    -0.000 C 
BRANCH  22  23
ATOM     23  C   UNL     1     121.242 111.914 116.346  1.00  0.00    -0.000 C 
BRANCH  23  24
ATOM     24  C   UNL     1     121.090 111.410 114.899  1.00  0.00    -0.000 C 
BRANCH  24  25
ATOM     25  C   UNL     1     122.405 111.022 114.199  1.00  0.00    -0.000 C 
BRANCH  25  26
ATOM     26  C   UNL     1     123.572 111.958 114.556  1.00  0.00    -0.000 C 
BRANCH  26  27
ATOM     27  C   UNL     1     124.835 111.192 114.980  1.00  0.00    -0.000 C 
BRANCH  27  28
ATOM     28  C   UNL     1     124.536 110.042 115.954  1.00  0.00    -0.000 C 
BRANCH  28  29
ATOM     29  C   UNL     1     124.564 110.533 117.406  1.00  0.00    -0.003 C 
ATOM     30  C   UNL     1     123.628 109.709 118.285  1.00  0.00     0.004 C 
ENDBRANCH  28  29
ENDBRANCH  27  28
ENDBRANCH  26  27
ENDBRANCH  25  26
ENDBRANCH  24  25
ENDBRANCH  23  24
ENDBRANCH  22  23
ENDBRANCH  21  22
ENDBRANCH  20  21
ENDBRANCH  19  20
ENDBRANCH  18  19
ENDBRANCH  17  18
ENDBRANCH   1  17
TORSDOF 26
ENDMDL
MODEL 9
REMARK VINA RESULT:    -3.785      3.135      7.550
REMARK INTER + INTRA:         -14.159
REMARK INTER:                  -8.809
REMARK INTRA:                  -5.350
REMARK UNBOUND:                -4.621
REMARK SMILES CCCCCCCCCCCCCCCCCCCCCCCCCCCC(=O)[O-]
REMARK SMILES IDX 15 1 16 2 17 3 18 4 19 5 20 6 21 7 22 8 23 9 24 10 25 11
REMARK SMILES IDX 26 12 27 13 28 14 29 15 30 16 14 17 13 18 12 19 11 20 10 21
REMARK SMILES IDX 9 22 8 23 7 24 6 25 5 26 4 27 3 28 2 29 1 30
REMARK H PARENT
REMARK Flexibility Score: inf
ROOT
ATOM      1  C   UNL     1     120.241 109.476 109.618  1.00  0.00     0.000 C 
ENDROOT
BRANCH   1   2
ATOM      2  C   UNL     1     119.167 110.387 110.233  1.00  0.00     0.000 C 
BRANCH   2   3
ATOM      3  C   UNL     1     119.269 110.475 111.766  1.00  0.00     0.000 C 
BRANCH   3   4
ATOM      4  C   UNL     1     120.632 110.001 112.292  1.00  0.00     0.000 C 
BRANCH   4   5
ATOM      5  C   UNL     1     121.139 110.852 113.471  1.00  0.00     0.000 C 
BRANCH   5   6
ATOM      6  C   UNL     1     120.371 112.174 113.617  1.00  0.00     0.000 C 
BRANCH   6   7
ATOM      7  C   UNL     1     121.171 113.381 113.097  1.00  0.00     0.000 C 
BRANCH   7   8
ATOM      8  C   UNL     1     120.665 113.889 111.735  1.00  0.00     0.000 C 
BRANCH   8   9
ATOM      9  C   UNL     1     121.427 113.344 110.510  1.00  0.00     0.000 C 
BRANCH   9  10
ATOM     10  C   UNL     1     122.837 112.798 110.804  1.00  0.00     0.000 C 
BRANCH  10  11
ATOM     11  C   UNL     1     123.252 111.669 109.846  1.00  0.00     0.000 C 
BRANCH  11  12
ATOM     12  C   UNL     1     123.930 110.492 110.571  1.00  0.00     0.006 C 
BRANCH  12  13
ATOM     13  C   UNL     1     123.831 109.146 109.836  1.00  0.00     0.053 C 
BRANCH  13  14
ATOM     14  C   UNL     1     125.178 108.542 109.581  1.00  0.00     0.041 C 
ATOM     15  O   UNL     1     125.781 107.927 110.498  1.00  0.00    -0.550 OA
ATOM     16  O   UNL     1     125.753 108.630 108.320  1.00  0.00    -0.550 OA
ENDBRANCH  13  14
ENDBRANCH  12  13
ENDBRANCH  11  12
ENDBRANCH  10  11
ENDBRANCH   9  10
ENDBRANCH   8   9
ENDBRANCH   7   8
ENDBRANCH   6   7
ENDBRANCH   5   6
ENDBRANCH   4   5
ENDBRANCH   3   4
ENDBRANCH   2   3
ENDBRANCH   1   2
BRANCH   1  17
ATOM     17  C   UNL     1     120.444 109.732 108.114  1.00  0.00     0.000 C 
BRANCH  17  18
ATOM     18  C   UNL     1     120.121 111.188 107.719  1.00  0.00     0.000 C 
BRANCH  18  19
ATOM     19  C   UNL     1     121.219 111.862 106.877  1.00  0.00     0.000 C 
BRANCH  19  20
ATOM     20  C   UNL     1     121.133 113.396 106.902  1.00  0.00     0.000 C 
BRANCH  20  21
ATOM     21  C   UNL     1     120.663 113.987 105.562  1.00  0.00     0.000 C 
BRANCH  21  22
ATOM     22  C   UNL     1     120.419 115.503 105.631  1.00  0.00    -0.000 C 
BRANCH  22  23
ATOM     23  C   UNL     1     121.746 116.276 105.666  1.00  0.00    -0.000 C 
BRANCH  23  24
ATOM     24  C   UNL     1     122.281 116.619 104.263  1.00  0.00    -0.000 C 
BRANCH  24  25
ATOM     25  C   UNL     1     123.778 116.334 104.046  1.00  0.00    -0.000 C 
BRANCH  25  26
ATOM     26  C   UNL     1     124.300 115.180 104.919  1.00  0.00    -0.000 C 
BRANCH  26  27
ATOM     27  C   UNL     1     124.075 113.803 104.275  1.00  0.00    -0.000 C 
BRANCH  27  28
ATOM     28  C   UNL     1     124.632 112.650 105.124  1.00  0.00    -0.000 C 
BRANCH  28  29
ATOM     29  C   UNL     1     124.821 113.085 106.582  1.00  0.00    -0.003 C 
ATOM     30  C   UNL     1     125.723 112.112 107.336  1.00  0.00     0.004 C 
ENDBRANCH  28  29
ENDBRANCH  27  28
ENDBRANCH  26  27
ENDBRANCH  25  26
ENDBRANCH  24  25
ENDBRANCH  23  24
ENDBRANCH  22  23
ENDBRANCH  21  22
ENDBRANCH  20  21
ENDBRANCH  19  20
ENDBRANCH  18  19
ENDBRANCH  17  18
ENDBRANCH   1  17
TORSDOF 26
ENDMDL
