MODEL 1
REMARK VINA RESULT:    -4.098      0.000      0.000
REMARK INTER + INTRA:          -5.651
REMARK INTER:                  -5.775
REMARK INTRA:                   0.124
REMARK UNBOUND:                 0.124
REMARK SMILES CC1=CCC(=C(C)C)C(=O)CC(C)=CCC1
REMARK SMILES IDX 12 1 14 2 13 3 15 4 16 5 2 6 1 7 3 8 11 10 9 11 10 12 5 13
REMARK SMILES IDX 6 14 7 15 8 16 4 17
REMARK H PARENT
REMARK Flexibility Score: 60.00
ROOT
ATOM      1  C   UNL     1     -13.228   0.425  29.125  1.00  0.00    -0.070 C 
ATOM      2  C   UNL     1     -12.659   0.336  30.355  1.00  0.00    -0.027 C 
ATOM      3  C   UNL     1     -12.517  -0.261  27.983  1.00  0.00     0.039 C 
ENDROOT
BRANCH   2   4
ATOM      4  C   UNL     1     -13.137   1.025  31.611  1.00  0.00     0.032 C 
BRANCH   4   5
ATOM      5  C   UNL     1     -12.804   2.522  31.644  1.00  0.00     0.034 C 
BRANCH   5   6
ATOM      6  C   UNL     1     -14.002   3.315  32.129  1.00  0.00    -0.077 C 
ATOM      7  C   UNL     1     -14.450   3.134  33.556  1.00  0.00     0.039 C 
ATOM      8  C   UNL     1     -14.642   4.237  31.370  1.00  0.00    -0.023 CG0
ATOM      9  G   UNL     1     -14.347   4.545  29.921  1.00  0.00     0.000 G0
ENDBRANCH   5   6
ENDBRANCH   4   5
ENDBRANCH   2   4
BRANCH   1  10
ATOM     10  C   UNL     1     -14.567   1.098  28.841  1.00  0.00     0.111 C 
BRANCH  10  11
ATOM     11  C   UNL     1     -14.446   2.506  28.315  1.00  0.00     0.163 C 
ATOM     12  O   UNL     1     -13.762   2.682  27.270  1.00  0.00    -0.294 OA
BRANCH  11  13
ATOM     13  C   UNL     1     -15.148   3.672  28.948  1.00  0.00    -0.002 C 
ATOM     14  C   UNL     1     -16.452   3.955  28.638  1.00  0.00    -0.069 C 
ATOM     15  C   UNL     1     -17.153   5.179  29.188  1.00  0.00     0.039 C 
ATOM     16  C   UNL     1     -17.283   3.034  27.772  1.00  0.00     0.039 C 
BRANCH  13  17
ATOM     17  C   UNL     1     -14.363   4.572  29.901  1.00  0.00     0.066 CG0
ATOM     18  G   UNL     1     -14.616   4.225  31.349  1.00  0.00     0.000 G0
ENDBRANCH  13  17
ENDBRANCH  11  13
ENDBRANCH  10  11
ENDBRANCH   1  10
TORSDOF 0
ENDMDL
MODEL 2
REMARK VINA RESULT:    -3.988      1.039      1.278
REMARK INTER + INTRA:          -5.496
REMARK INTER:                  -5.643
REMARK INTRA:                   0.147
REMARK UNBOUND:                 0.124
REMARK SMILES CC1=CCC(=C(C)C)C(=O)CC(C)=CCC1
REMARK SMILES IDX 12 1 14 2 13 3 15 4 16 5 2 6 1 7 3 8 11 10 9 11 10 12 5 13
REMARK SMILES IDX 6 14 7 15 8 16 4 17
REMARK H PARENT
REMARK Flexibility Score: 60.00
ROOT
ATOM      1  C   UNL     1     -13.170   0.517  29.335  1.00  0.00    -0.070 C 
ATOM      2  C   UNL     1     -12.663  -0.031  30.471  1.00  0.00    -0.027 C 
ATOM      3  C   UNL     1     -12.481   0.175  28.036  1.00  0.00     0.039 C 
ENDROOT
BRANCH   2   4
ATOM      4  C   UNL     1     -13.126   0.252  31.880  1.00  0.00     0.032 C 
BRANCH   4   5
ATOM      5  C   UNL     1     -12.592   1.577  32.438  1.00  0.00     0.034 C 
BRANCH   5   6
ATOM      6  C   UNL     1     -13.713   2.360  33.095  1.00  0.00    -0.077 C 
ATOM      7  C   UNL     1     -14.285   1.842  34.388  1.00  0.00     0.039 C 
ATOM      8  C   UNL     1     -14.173   3.542  32.620  1.00  0.00    -0.023 CG0
ATOM      9  G   UNL     1     -13.735   4.209  31.338  1.00  0.00     0.000 G0
ENDBRANCH   5   6
ENDBRANCH   4   5
ENDBRANCH   2   4
BRANCH   1  10
ATOM     10  C   UNL     1     -14.426   1.380  29.280  1.00  0.00     0.111 C 
BRANCH  10  11
ATOM     11  C   UNL     1     -14.149   2.857  29.147  1.00  0.00     0.163 C 
ATOM     12  O   UNL     1     -13.525   3.243  28.121  1.00  0.00    -0.294 OA
BRANCH  11  13
ATOM     13  C   UNL     1     -14.634   3.867  30.145  1.00  0.00    -0.002 C 
ATOM     14  C   UNL     1     -15.839   4.496  29.974  1.00  0.00    -0.069 C 
ATOM     15  C   UNL     1     -16.307   5.587  30.914  1.00  0.00     0.039 C 
ATOM     16  C   UNL     1     -16.794   4.101  28.869  1.00  0.00     0.039 C 
BRANCH  13  17
ATOM     17  C   UNL     1     -13.733   4.223  31.326  1.00  0.00     0.066 CG0
ATOM     18  G   UNL     1     -14.170   3.541  32.601  1.00  0.00     0.000 G0
ENDBRANCH  13  17
ENDBRANCH  11  13
ENDBRANCH  10  11
ENDBRANCH   1  10
TORSDOF 0
ENDMDL
MODEL 3
REMARK VINA RESULT:    -3.945      6.037      8.471
REMARK INTER + INTRA:          -5.435
REMARK INTER:                  -5.656
REMARK INTRA:                   0.221
REMARK UNBOUND:                 0.124
REMARK SMILES CC1=CCC(=C(C)C)C(=O)CC(C)=CCC1
REMARK SMILES IDX 12 1 14 2 13 3 15 4 16 5 2 6 1 7 3 8 11 10 9 11 10 12 5 13
REMARK SMILES IDX 6 14 7 15 8 16 4 17
REMARK H PARENT
REMARK Flexibility Score: 60.00
ROOT
ATOM      1  C   UNL     1     -11.746  11.691  30.571  1.00  0.00    -0.070 C 
ATOM      2  C   UNL     1     -12.973  11.867  30.015  1.00  0.00    -0.027 C 
ATOM      3  C   UNL     1     -10.575  12.355  29.886  1.00  0.00     0.039 C 
ENDROOT
BRANCH   2   4
ATOM      4  C   UNL     1     -14.258  11.217  30.469  1.00  0.00     0.032 C 
BRANCH   4   5
ATOM      5  C   UNL     1     -14.290   9.703  30.223  1.00  0.00     0.034 C 
BRANCH   5   6
ATOM      6  C   UNL     1     -14.870   8.988  31.428  1.00  0.00    -0.077 C 
ATOM      7  C   UNL     1     -16.272   9.332  31.859  1.00  0.00     0.039 C 
ATOM      8  C   UNL     1     -14.222   7.999  32.090  1.00  0.00    -0.023 CG0
ATOM      9  G   UNL     1     -12.814   7.528  31.815  1.00  0.00     0.000 G0
ENDBRANCH   5   6
ENDBRANCH   4   5
ENDBRANCH   2   4
BRANCH   1  10
ATOM     10  C   UNL     1     -11.488  10.941  31.873  1.00  0.00     0.111 C 
BRANCH  10  11
ATOM     11  C   UNL     1     -11.127   9.489  31.684  1.00  0.00     0.163 C 
ATOM     12  O   UNL     1     -10.233   9.215  30.838  1.00  0.00    -0.294 OA
BRANCH  11  13
ATOM     13  C   UNL     1     -11.743   8.387  32.496  1.00  0.00    -0.002 C 
ATOM     14  C   UNL     1     -11.327   8.146  33.778  1.00  0.00    -0.069 C 
ATOM     15  C   UNL     1     -11.864   6.982  34.584  1.00  0.00     0.039 C 
ATOM     16  C   UNL     1     -10.348   9.059  34.482  1.00  0.00     0.039 C 
BRANCH  13  17
ATOM     17  C   UNL     1     -12.805   7.501  31.845  1.00  0.00     0.066 CG0
ATOM     18  G   UNL     1     -14.204   8.007  32.102  1.00  0.00     0.000 G0
ENDBRANCH  13  17
ENDBRANCH  11  13
ENDBRANCH  10  11
ENDBRANCH   1  10
TORSDOF 0
ENDMDL
MODEL 4
REMARK VINA RESULT:    -3.756     10.054     12.115
REMARK INTER + INTRA:          -5.168
REMARK INTER:                  -5.333
REMARK INTRA:                   0.165
REMARK UNBOUND:                 0.124
REMARK SMILES CC1=CCC(=C(C)C)C(=O)CC(C)=CCC1
REMARK SMILES IDX 12 1 14 2 13 3 15 4 16 5 2 6 1 7 3 8 11 10 9 11 10 12 5 13
REMARK SMILES IDX 6 14 7 15 8 16 4 17
REMARK H PARENT
REMARK Flexibility Score: 60.00
ROOT
ATOM      1  C   UNL     1      -1.814   2.548  30.705  1.00  0.00    -0.070 C 
ATOM      2  C   UNL     1      -0.784   1.894  30.107  1.00  0.00    -0.027 C 
ATOM      3  C   UNL     1      -1.789   2.646  32.211  1.00  0.00     0.039 C 
ENDROOT
BRANCH   2   4
ATOM      4  C   UNL     1      -0.657   1.589  28.634  1.00  0.00     0.032 C 
BRANCH   4   5
ATOM      5  C   UNL     1      -0.941   0.120  28.293  1.00  0.00     0.034 C 
BRANCH   5   6
ATOM      6  C   UNL     1      -2.256   0.001  27.546  1.00  0.00    -0.077 C 
ATOM      7  C   UNL     1      -2.229   0.019  26.041  1.00  0.00     0.039 C 
ATOM      8  C   UNL     1      -3.446  -0.202  28.162  1.00  0.00    -0.023 CG0
ATOM      9  G   UNL     1      -3.673  -0.235  29.655  1.00  0.00     0.000 G0
ENDBRANCH   5   6
ENDBRANCH   4   5
ENDBRANCH   2   4
BRANCH   1  10
ATOM     10  C   UNL     1      -2.940   3.251  29.955  1.00  0.00     0.111 C 
BRANCH  10  11
ATOM     11  C   UNL     1      -4.057   2.335  29.525  1.00  0.00     0.163 C 
ATOM     12  O   UNL     1      -4.739   2.676  28.520  1.00  0.00    -0.294 OA
BRANCH  11  13
ATOM     13  C   UNL     1      -4.341   1.027  30.205  1.00  0.00    -0.002 C 
ATOM     14  C   UNL     1      -5.132   0.976  31.323  1.00  0.00    -0.069 C 
ATOM     15  C   UNL     1      -5.355  -0.314  32.082  1.00  0.00     0.039 C 
ATOM     16  C   UNL     1      -5.868   2.195  31.832  1.00  0.00     0.039 C 
BRANCH  13  17
ATOM     17  C   UNL     1      -3.686  -0.241  29.660  1.00  0.00     0.066 CG0
ATOM     18  G   UNL     1      -3.463  -0.170  28.168  1.00  0.00     0.000 G0
ENDBRANCH  13  17
ENDBRANCH  11  13
ENDBRANCH  10  11
ENDBRANCH   1  10
TORSDOF 0
ENDMDL
MODEL 5
REMARK VINA RESULT:    -3.743     10.860     12.271
REMARK INTER + INTRA:          -5.151
REMARK INTER:                  -5.336
REMARK INTRA:                   0.185
REMARK UNBOUND:                 0.124
REMARK SMILES CC1=CCC(=C(C)C)C(=O)CC(C)=CCC1
REMARK SMILES IDX 12 1 14 2 13 3 15 4 16 5 2 6 1 7 3 8 11 10 9 11 10 12 5 13
REMARK SMILES IDX 6 14 7 15 8 16 4 17
REMARK H PARENT
REMARK Flexibility Score: 60.00
ROOT
ATOM      1  C   UNL     1      -2.278   0.263  27.291  1.00  0.00    -0.070 C 
ATOM      2  C   UNL     1      -1.029   0.121  27.808  1.00  0.00    -0.027 C 
ATOM      3  C   UNL     1      -2.435   0.070  25.801  1.00  0.00     0.039 C 
ENDROOT
BRANCH   2   4
ATOM      4  C   UNL     1      -0.625   0.367  29.241  1.00  0.00     0.032 C 
BRANCH   4   5
ATOM      5  C   UNL     1      -0.026   1.761  29.470  1.00  0.00     0.034 C 
BRANCH   5   6
ATOM      6  C   UNL     1      -1.037   2.661  30.154  1.00  0.00    -0.077 C 
ATOM      7  C   UNL     1      -1.084   2.671  31.659  1.00  0.00     0.039 C 
ATOM      8  C   UNL     1      -1.846   3.515  29.483  1.00  0.00    -0.023 CG0
ATOM      9  G   UNL     1      -1.951   3.635  27.981  1.00  0.00     0.000 G0
ENDBRANCH   5   6
ENDBRANCH   4   5
ENDBRANCH   2   4
BRANCH   1  10
ATOM     10  C   UNL     1      -3.530   0.523  28.120  1.00  0.00     0.111 C 
BRANCH  10  11
ATOM     11  C   UNL     1      -3.932   1.975  28.186  1.00  0.00     0.163 C 
ATOM     12  O   UNL     1      -4.864   2.288  28.975  1.00  0.00    -0.294 OA
BRANCH  11  13
ATOM     13  C   UNL     1      -3.232   3.047  27.402  1.00  0.00    -0.002 C 
ATOM     14  C   UNL     1      -3.701   3.435  26.175  1.00  0.00    -0.069 C 
ATOM     15  C   UNL     1      -2.961   4.444  25.323  1.00  0.00     0.039 C 
ATOM     16  C   UNL     1      -5.011   2.918  25.623  1.00  0.00     0.039 C 
BRANCH  13  17
ATOM     17  C   UNL     1      -1.954   3.659  27.973  1.00  0.00     0.066 CG0
ATOM     18  G   UNL     1      -1.863   3.492  29.471  1.00  0.00     0.000 G0
ENDBRANCH  13  17
ENDBRANCH  11  13
ENDBRANCH  10  11
ENDBRANCH   1  10
TORSDOF 0
ENDMDL
MODEL 6
REMARK VINA RESULT:    -3.732      1.353      3.852
REMARK INTER + INTRA:          -5.135
REMARK INTER:                  -5.629
REMARK INTRA:                   0.494
REMARK UNBOUND:                 0.124
REMARK SMILES CC1=CCC(=C(C)C)C(=O)CC(C)=CCC1
REMARK SMILES IDX 12 1 14 2 13 3 15 4 16 5 2 6 1 7 3 8 11 10 9 11 10 12 5 13
REMARK SMILES IDX 6 14 7 15 8 16 4 17
REMARK H PARENT
REMARK Flexibility Score: 60.00
ROOT
ATOM      1  C   UNL     1     -16.356   3.413  27.693  1.00  0.00    -0.070 C 
ATOM      2  C   UNL     1     -17.128   4.352  28.300  1.00  0.00    -0.027 C 
ATOM      3  C   UNL     1     -16.415   3.338  26.186  1.00  0.00     0.039 C 
ENDROOT
BRANCH   2   4
ATOM      4  C   UNL     1     -17.303   4.536  29.788  1.00  0.00     0.032 C 
BRANCH   4   5
ATOM      5  C   UNL     1     -16.315   5.542  30.394  1.00  0.00     0.034 C 
BRANCH   5   6
ATOM      6  C   UNL     1     -15.924   5.115  31.795  1.00  0.00    -0.077 C 
ATOM      7  C   UNL     1     -16.957   5.213  32.887  1.00  0.00     0.039 C 
ATOM      8  C   UNL     1     -14.720   4.575  32.101  1.00  0.00    -0.023 CG0
ATOM      9  G   UNL     1     -13.560   4.411  31.149  1.00  0.00     0.000 G0
ENDBRANCH   5   6
ENDBRANCH   4   5
ENDBRANCH   2   4
BRANCH   1  10
ATOM     10  C   UNL     1     -15.382   2.494  28.423  1.00  0.00     0.111 C 
BRANCH  10  11
ATOM     11  C   UNL     1     -14.132   3.184  28.907  1.00  0.00     0.163 C 
ATOM     12  O   UNL     1     -13.500   3.895  28.078  1.00  0.00    -0.294 OA
BRANCH  11  13
ATOM     13  C   UNL     1     -13.658   3.103  30.328  1.00  0.00    -0.002 C 
ATOM     14  C   UNL     1     -13.369   1.892  30.901  1.00  0.00    -0.069 C 
ATOM     15  C   UNL     1     -12.982   1.774  32.360  1.00  0.00     0.039 C 
ATOM     16  C   UNL     1     -13.371   0.611  30.097  1.00  0.00     0.039 C 
BRANCH  13  17
ATOM     17  C   UNL     1     -13.556   4.391  31.143  1.00  0.00     0.066 CG0
ATOM     18  G   UNL     1     -14.726   4.565  32.083  1.00  0.00     0.000 G0
ENDBRANCH  13  17
ENDBRANCH  11  13
ENDBRANCH  10  11
ENDBRANCH   1  10
TORSDOF 0
ENDMDL
MODEL 7
REMARK VINA RESULT:    -3.702     10.231     11.816
REMARK INTER + INTRA:          -5.093
REMARK INTER:                  -5.227
REMARK INTRA:                   0.133
REMARK UNBOUND:                 0.124
REMARK SMILES CC1=CCC(=C(C)C)C(=O)CC(C)=CCC1
REMARK SMILES IDX 12 1 14 2 13 3 15 4 16 5 2 6 1 7 3 8 11 10 9 11 10 12 5 13
REMARK SMILES IDX 6 14 7 15 8 16 4 17
REMARK H PARENT
REMARK Flexibility Score: 60.00
ROOT
ATOM      1  C   UNL     1      -2.146   0.780  27.467  1.00  0.00    -0.070 C 
ATOM      2  C   UNL     1      -1.731   2.021  27.104  1.00  0.00    -0.027 C 
ATOM      3  C   UNL     1      -1.408  -0.396  26.873  1.00  0.00     0.039 C 
ENDROOT
BRANCH   2   4
ATOM      4  C   UNL     1      -2.382   3.327  27.491  1.00  0.00     0.032 C 
BRANCH   4   5
ATOM      5  C   UNL     1      -1.949   3.834  28.873  1.00  0.00     0.034 C 
BRANCH   5   6
ATOM      6  C   UNL     1      -3.156   4.304  29.661  1.00  0.00    -0.077 C 
ATOM      7  C   UNL     1      -3.961   5.455  29.118  1.00  0.00     0.039 C 
ATOM      8  C   UNL     1      -3.594   3.692  30.788  1.00  0.00    -0.023 CG0
ATOM      9  G   UNL     1      -2.914   2.539  31.487  1.00  0.00     0.000 G0
ENDBRANCH   5   6
ENDBRANCH   4   5
ENDBRANCH   2   4
BRANCH   1  10
ATOM     10  C   UNL     1      -3.245   0.501  28.486  1.00  0.00     0.111 C 
BRANCH  10  11
ATOM     11  C   UNL     1      -2.758   0.442  29.912  1.00  0.00     0.163 C 
ATOM     12  O   UNL     1      -1.698  -0.204  30.141  1.00  0.00    -0.294 OA
BRANCH  11  13
ATOM     13  C   UNL     1      -3.446   1.160  31.036  1.00  0.00    -0.002 C 
ATOM     14  C   UNL     1      -4.564   0.631  31.624  1.00  0.00    -0.069 C 
ATOM     15  C   UNL     1      -5.332   1.380  32.693  1.00  0.00     0.039 C 
ATOM     16  C   UNL     1      -5.066  -0.754  31.278  1.00  0.00     0.039 C 
BRANCH  13  17
ATOM     17  C   UNL     1      -2.909   2.521  31.475  1.00  0.00     0.066 CG0
ATOM     18  G   UNL     1      -3.611   3.662  30.778  1.00  0.00     0.000 G0
ENDBRANCH  13  17
ENDBRANCH  11  13
ENDBRANCH  10  11
ENDBRANCH   1  10
TORSDOF 0
ENDMDL
MODEL 8
REMARK VINA RESULT:    -3.592      2.322      4.204
REMARK INTER + INTRA:          -4.937
REMARK INTER:                  -5.125
REMARK INTRA:                   0.188
REMARK UNBOUND:                 0.124
REMARK SMILES CC1=CCC(=C(C)C)C(=O)CC(C)=CCC1
REMARK SMILES IDX 12 1 14 2 13 3 15 4 16 5 2 6 1 7 3 8 11 10 9 11 10 12 5 13
REMARK SMILES IDX 6 14 7 15 8 16 4 17
REMARK H PARENT
REMARK Flexibility Score: 60.00
ROOT
ATOM      1  C   UNL     1     -13.554   1.717  33.741  1.00  0.00    -0.070 C 
ATOM      2  C   UNL     1     -13.189   0.599  33.059  1.00  0.00    -0.027 C 
ATOM      3  C   UNL     1     -14.222   1.521  35.081  1.00  0.00     0.039 C 
ENDROOT
BRANCH   2   4
ATOM      4  C   UNL     1     -12.605   0.555  31.668  1.00  0.00     0.032 C 
BRANCH   4   5
ATOM      5  C   UNL     1     -13.597   0.988  30.580  1.00  0.00     0.034 C 
BRANCH   5   6
ATOM      6  C   UNL     1     -12.981   2.064  29.707  1.00  0.00    -0.077 C 
ATOM      7  C   UNL     1     -11.720   1.737  28.952  1.00  0.00     0.039 C 
ATOM      8  C   UNL     1     -13.550   3.278  29.508  1.00  0.00    -0.023 CG0
ATOM      9  G   UNL     1     -14.799   3.788  30.185  1.00  0.00     0.000 G0
ENDBRANCH   5   6
ENDBRANCH   4   5
ENDBRANCH   2   4
BRANCH   1  10
ATOM     10  C   UNL     1     -13.263   3.141  33.281  1.00  0.00     0.111 C 
BRANCH  10  11
ATOM     11  C   UNL     1     -14.474   3.881  32.772  1.00  0.00     0.163 C 
ATOM     12  O   UNL     1     -15.488   3.926  33.522  1.00  0.00    -0.294 OA
BRANCH  11  13
ATOM     13  C   UNL     1     -14.492   4.601  31.456  1.00  0.00    -0.002 C 
ATOM     14  C   UNL     1     -14.281   5.953  31.395  1.00  0.00    -0.069 C 
ATOM     15  C   UNL     1     -14.388   6.718  30.093  1.00  0.00     0.039 C 
ATOM     16  C   UNL     1     -13.878   6.752  32.615  1.00  0.00     0.039 C 
BRANCH  13  17
ATOM     17  C   UNL     1     -14.805   3.807  30.189  1.00  0.00     0.066 CG0
ATOM     18  G   UNL     1     -13.556   3.284  29.521  1.00  0.00     0.000 G0
ENDBRANCH  13  17
ENDBRANCH  11  13
ENDBRANCH  10  11
ENDBRANCH   1  10
TORSDOF 0
ENDMDL
MODEL 9
REMARK VINA RESULT:    -3.470      5.483      6.976
REMARK INTER + INTRA:          -4.765
REMARK INTER:                  -4.986
REMARK INTRA:                   0.221
REMARK UNBOUND:                 0.124
REMARK SMILES CC1=CCC(=C(C)C)C(=O)CC(C)=CCC1
REMARK SMILES IDX 12 1 14 2 13 3 15 4 16 5 2 6 1 7 3 8 11 10 9 11 10 12 5 13
REMARK SMILES IDX 6 14 7 15 8 16 4 17
REMARK H PARENT
REMARK Flexibility Score: 60.00
ROOT
ATOM      1  C   UNL     1     -14.924   6.946  32.042  1.00  0.00    -0.070 C 
ATOM      2  C   UNL     1     -14.138   6.449  33.032  1.00  0.00    -0.027 C 
ATOM      3  C   UNL     1     -15.784   5.964  31.282  1.00  0.00     0.039 C 
ENDROOT
BRANCH   2   4
ATOM      4  C   UNL     1     -13.131   7.225  33.845  1.00  0.00     0.032 C 
BRANCH   4   5
ATOM      5  C   UNL     1     -11.750   7.305  33.183  1.00  0.00     0.034 C 
BRANCH   5   6
ATOM      6  C   UNL     1     -11.235   8.731  33.213  1.00  0.00    -0.077 C 
ATOM      7  C   UNL     1     -10.657   9.256  34.500  1.00  0.00     0.039 C 
ATOM      8  C   UNL     1     -11.195   9.532  32.120  1.00  0.00    -0.023 CG0
ATOM      9  G   UNL     1     -11.738   9.187  30.754  1.00  0.00     0.000 G0
ENDBRANCH   5   6
ENDBRANCH   4   5
ENDBRANCH   2   4
BRANCH   1  10
ATOM     10  C   UNL     1     -15.053   8.428  31.705  1.00  0.00     0.111 C 
BRANCH  10  11
ATOM     11  C   UNL     1     -14.296   8.843  30.468  1.00  0.00     0.163 C 
ATOM     12  O   UNL     1     -14.711   8.412  29.358  1.00  0.00    -0.294 OA
BRANCH  11  13
ATOM     13  C   UNL     1     -13.126   9.783  30.509  1.00  0.00    -0.002 C 
ATOM     14  C   UNL     1     -13.299  11.125  30.295  1.00  0.00    -0.069 C 
ATOM     15  C   UNL     1     -12.125  12.078  30.236  1.00  0.00     0.039 C 
ATOM     16  C   UNL     1     -14.675  11.738  30.157  1.00  0.00     0.039 C 
BRANCH  13  17
ATOM     17  C   UNL     1     -11.730   9.207  30.739  1.00  0.00     0.066 CG0
ATOM     18  G   UNL     1     -11.203   9.524  32.117  1.00  0.00     0.000 G0
ENDBRANCH  13  17
ENDBRANCH  11  13
ENDBRANCH  10  11
ENDBRANCH   1  10
TORSDOF 0
ENDMDL
