MODEL 1
REMARK VINA RESULT:    -3.190      0.000      0.000
REMARK INTER + INTRA:          -4.121
REMARK INTER:                  -4.868
REMARK INTRA:                   0.747
REMARK UNBOUND:                 0.747
REMARK SMILES CC1=CCC[C@@H](C)C(=O)C[C@H](C(C)C)C(=O)C1
REMARK SMILES IDX 8 1 9 2 6 3 7 4 5 5 4 6 3 7 2 8 1 9 10 11 11 12 15 13 16 14
REMARK SMILES IDX 17 15 12 17 13 18 14 19
REMARK H PARENT
REMARK Flexibility Score: 70.00
ROOT
ATOM      1  C   UNL     1       4.621 147.209  -5.734  1.00  0.00     0.136 C 
ATOM      2  O   UNL     1       4.974 148.190  -5.096  1.00  0.00    -0.299 OA
ENDROOT
BRANCH   1   3
ATOM      3  C   UNL     1       5.545 146.689  -6.826  1.00  0.00     0.053 C 
ATOM      4  C   UNL     1       5.085 147.179  -8.206  1.00  0.00     0.016 C 
BRANCH   3   5
ATOM      5  C   UNL     1       5.689 145.146  -6.805  1.00  0.00     0.015 C 
BRANCH   5   6
ATOM      6  C   UNL     1       5.621 144.449  -8.181  1.00  0.00     0.028 C 
BRANCH   6   7
ATOM      7  C   UNL     1       4.737 143.225  -8.282  1.00  0.00    -0.028 C 
ATOM      8  C   UNL     1       3.400 143.214  -8.499  1.00  0.00    -0.070 CG0
ATOM      9  C   UNL     1       2.739 141.878  -8.733  1.00  0.00     0.039 C 
ATOM     10  G   UNL     1       2.526 144.451  -8.450  1.00  0.00     0.000 G0
ENDBRANCH   6   7
ENDBRANCH   5   6
ENDBRANCH   3   5
ENDBRANCH   1   3
BRANCH   1  11
ATOM     11  C   UNL     1       3.267 146.593  -5.412  1.00  0.00     0.087 C 
BRANCH  11  12
ATOM     12  C   UNL     1       2.366 146.360  -6.653  1.00  0.00     0.066 C 
BRANCH  12  13
ATOM     13  C   UNL     1       2.287 144.891  -7.030  1.00  0.00     0.140 C 
ATOM     14  O   UNL     1       2.111 144.049  -6.163  1.00  0.00    -0.299 OA
BRANCH  13  15
ATOM     15  C   UNL     1       2.509 144.443  -8.456  1.00  0.00     0.106 CG0
ATOM     16  G   UNL     1       3.397 143.214  -8.480  1.00  0.00     0.000 G0
ENDBRANCH  13  15
ENDBRANCH  12  13
BRANCH  12  17
ATOM     17  C   UNL     1       0.974 147.056  -6.527  1.00  0.00    -0.006 C 
ATOM     18  C   UNL     1       0.849 148.065  -5.370  1.00  0.00     0.008 C 
ATOM     19  C   UNL     1      -0.154 146.015  -6.426  1.00  0.00     0.008 C 
ENDBRANCH  12  17
ENDBRANCH  11  12
ENDBRANCH   1  11
TORSDOF 1
ENDMDL
MODEL 2
REMARK VINA RESULT:    -3.158      1.845      3.882
REMARK INTER + INTRA:          -4.073
REMARK INTER:                  -4.480
REMARK INTRA:                   0.407
REMARK UNBOUND:                 0.747
REMARK SMILES CC1=CCC[C@@H](C)C(=O)C[C@H](C(C)C)C(=O)C1
REMARK SMILES IDX 8 1 9 2 6 3 7 4 5 5 4 6 3 7 2 8 1 9 10 11 11 12 15 13 16 14
REMARK SMILES IDX 17 15 12 17 13 18 14 19
REMARK H PARENT
REMARK Flexibility Score: 70.00
ROOT
ATOM      1  C   UNL     1       2.559 143.515  -7.438  1.00  0.00     0.136 C 
ATOM      2  O   UNL     1       2.789 142.783  -6.487  1.00  0.00    -0.299 OA
ENDROOT
BRANCH   1   3
ATOM      3  C   UNL     1       2.680 142.934  -8.840  1.00  0.00     0.053 C 
ATOM      4  C   UNL     1       1.577 141.898  -9.097  1.00  0.00     0.016 C 
BRANCH   3   5
ATOM      5  C   UNL     1       4.081 142.335  -9.121  1.00  0.00     0.015 C 
BRANCH   5   6
ATOM      6  C   UNL     1       5.264 143.320  -9.015  1.00  0.00     0.028 C 
BRANCH   6   7
ATOM      7  C   UNL     1       5.934 143.440  -7.664  1.00  0.00    -0.028 C 
ATOM      8  C   UNL     1       6.092 144.575  -6.942  1.00  0.00    -0.070 CG0
ATOM      9  C   UNL     1       6.640 144.446  -5.542  1.00  0.00     0.039 C 
ATOM     10  G   UNL     1       5.819 145.964  -7.482  1.00  0.00     0.000 G0
ENDBRANCH   6   7
ENDBRANCH   5   6
ENDBRANCH   3   5
ENDBRANCH   1   3
BRANCH   1  11
ATOM     11  C   UNL     1       2.195 144.965  -7.155  1.00  0.00     0.087 C 
BRANCH  11  12
ATOM     12  C   UNL     1       3.367 145.814  -6.594  1.00  0.00     0.066 C 
BRANCH  12  13
ATOM     13  C   UNL     1       4.357 146.203  -7.677  1.00  0.00     0.140 C 
ATOM     14  O   UNL     1       3.952 146.647  -8.741  1.00  0.00    -0.299 OA
BRANCH  13  15
ATOM     15  C   UNL     1       5.839 145.969  -7.495  1.00  0.00     0.106 CG0
ATOM     16  G   UNL     1       6.080 144.578  -6.946  1.00  0.00     0.000 G0
ENDBRANCH  13  15
ENDBRANCH  12  13
BRANCH  12  17
ATOM     17  C   UNL     1       2.879 147.015  -5.723  1.00  0.00    -0.006 C 
ATOM     18  C   UNL     1       1.579 147.686  -6.203  1.00  0.00     0.008 C 
ATOM     19  C   UNL     1       3.984 148.076  -5.580  1.00  0.00     0.008 C 
ENDBRANCH  12  17
ENDBRANCH  11  12
ENDBRANCH   1  11
TORSDOF 1
ENDMDL
MODEL 3
REMARK VINA RESULT:    -2.065      1.744      3.708
REMARK INTER + INTRA:          -2.405
REMARK INTER:                  -3.521
REMARK INTRA:                   1.116
REMARK UNBOUND:                 0.747
REMARK SMILES CC1=CCC[C@@H](C)C(=O)C[C@H](C(C)C)C(=O)C1
REMARK SMILES IDX 8 1 9 2 6 3 7 4 5 5 4 6 3 7 2 8 1 9 10 11 11 12 15 13 16 14
REMARK SMILES IDX 17 15 12 17 13 18 14 19
REMARK H PARENT
REMARK Flexibility Score: 70.00
ROOT
ATOM      1  C   UNL     1       2.309 145.165  -8.631  1.00  0.00     0.136 C 
ATOM      2  O   UNL     1       1.091 145.253  -8.582  1.00  0.00    -0.299 OA
ENDROOT
BRANCH   1   3
ATOM      3  C   UNL     1       2.919 143.860  -9.123  1.00  0.00     0.053 C 
ATOM      4  C   UNL     1       2.374 142.669  -8.321  1.00  0.00     0.016 C 
BRANCH   3   5
ATOM      5  C   UNL     1       4.467 143.878  -9.107  1.00  0.00     0.015 C 
BRANCH   5   6
ATOM      6  C   UNL     1       5.144 142.660  -8.441  1.00  0.00     0.028 C 
BRANCH   6   7
ATOM      7  C   UNL     1       5.879 142.912  -7.144  1.00  0.00    -0.028 C 
ATOM      8  C   UNL     1       6.181 144.120  -6.611  1.00  0.00    -0.070 CG0
ATOM      9  C   UNL     1       6.772 144.148  -5.224  1.00  0.00     0.039 C 
ATOM     10  G   UNL     1       6.026 145.433  -7.353  1.00  0.00     0.000 G0
ENDBRANCH   6   7
ENDBRANCH   5   6
ENDBRANCH   3   5
ENDBRANCH   1   3
BRANCH   1  11
ATOM     11  C   UNL     1       3.132 146.357  -8.167  1.00  0.00     0.087 C 
BRANCH  11  12
ATOM     12  C   UNL     1       3.626 146.253  -6.700  1.00  0.00     0.066 C 
BRANCH  12  13
ATOM     13  C   UNL     1       5.136 146.381  -6.598  1.00  0.00     0.140 C 
ATOM     14  O   UNL     1       5.627 147.292  -5.948  1.00  0.00    -0.299 OA
BRANCH  13  15
ATOM     15  C   UNL     1       6.047 145.447  -7.360  1.00  0.00     0.106 CG0
ATOM     16  G   UNL     1       6.156 144.122  -6.632  1.00  0.00     0.000 G0
ENDBRANCH  13  15
ENDBRANCH  12  13
BRANCH  12  17
ATOM     17  C   UNL     1       2.846 147.198  -5.732  1.00  0.00    -0.006 C 
ATOM     18  C   UNL     1       3.031 146.897  -4.232  1.00  0.00     0.008 C 
ATOM     19  C   UNL     1       1.345 147.216  -6.071  1.00  0.00     0.008 C 
ENDBRANCH  12  17
ENDBRANCH  11  12
ENDBRANCH   1  11
TORSDOF 1
ENDMDL
MODEL 4
REMARK VINA RESULT:    -1.737      1.662      4.191
REMARK INTER + INTRA:          -1.903
REMARK INTER:                  -3.495
REMARK INTRA:                   1.592
REMARK UNBOUND:                 0.747
REMARK SMILES CC1=CCC[C@@H](C)C(=O)C[C@H](C(C)C)C(=O)C1
REMARK SMILES IDX 8 1 9 2 6 3 7 4 5 5 4 6 3 7 2 8 1 9 10 11 11 12 15 13 16 14
REMARK SMILES IDX 17 15 12 17 13 18 14 19
REMARK H PARENT
REMARK Flexibility Score: 70.00
ROOT
ATOM      1  C   UNL     1       5.500 146.593  -8.340  1.00  0.00     0.136 C 
ATOM      2  O   UNL     1       6.151 147.416  -8.966  1.00  0.00    -0.299 OA
ENDROOT
BRANCH   1   3
ATOM      3  C   UNL     1       5.619 146.582  -6.822  1.00  0.00     0.053 C 
ATOM      4  C   UNL     1       5.338 145.179  -6.265  1.00  0.00     0.016 C 
BRANCH   3   5
ATOM      5  C   UNL     1       4.715 147.640  -6.143  1.00  0.00     0.015 C 
BRANCH   5   6
ATOM      6  C   UNL     1       3.597 147.082  -5.236  1.00  0.00     0.028 C 
BRANCH   6   7
ATOM      7  C   UNL     1       2.175 147.243  -5.727  1.00  0.00    -0.028 C 
ATOM      8  C   UNL     1       1.388 146.270  -6.243  1.00  0.00    -0.070 CG0
ATOM      9  C   UNL     1      -0.057 146.608  -6.517  1.00  0.00     0.039 C 
ATOM     10  G   UNL     1       1.889 144.892  -6.626  1.00  0.00     0.000 G0
ENDBRANCH   6   7
ENDBRANCH   5   6
ENDBRANCH   3   5
ENDBRANCH   1   3
BRANCH   1  11
ATOM     11  C   UNL     1       4.637 145.614  -9.124  1.00  0.00     0.087 C 
BRANCH  11  12
ATOM     12  C   UNL     1       3.927 144.551  -8.245  1.00  0.00     0.066 C 
BRANCH  12  13
ATOM     13  C   UNL     1       2.463 144.885  -8.021  1.00  0.00     0.140 C 
ATOM     14  O   UNL     1       1.766 145.231  -8.963  1.00  0.00    -0.299 OA
BRANCH  13  15
ATOM     15  C   UNL     1       1.869 144.879  -6.631  1.00  0.00     0.106 CG0
ATOM     16  G   UNL     1       1.400 146.272  -6.263  1.00  0.00     0.000 G0
ENDBRANCH  13  15
ENDBRANCH  12  13
BRANCH  12  17
ATOM     17  C   UNL     1       4.173 143.092  -8.746  1.00  0.00    -0.006 C 
ATOM     18  C   UNL     1       3.203 142.035  -8.185  1.00  0.00     0.008 C 
ATOM     19  C   UNL     1       5.623 142.655  -8.477  1.00  0.00     0.008 C 
ENDBRANCH  12  17
ENDBRANCH  11  12
ENDBRANCH   1  11
TORSDOF 1
ENDMDL
MODEL 5
REMARK VINA RESULT:    -1.545      1.578      3.798
REMARK INTER + INTRA:          -1.611
REMARK INTER:                  -2.298
REMARK INTRA:                   0.687
REMARK UNBOUND:                 0.747
REMARK SMILES CC1=CCC[C@@H](C)C(=O)C[C@H](C(C)C)C(=O)C1
REMARK SMILES IDX 8 1 9 2 6 3 7 4 5 5 4 6 3 7 2 8 1 9 10 11 11 12 15 13 16 14
REMARK SMILES IDX 17 15 12 17 13 18 14 19
REMARK H PARENT
REMARK Flexibility Score: 70.00
ROOT
ATOM      1  C   UNL     1       4.183 147.646  -5.602  1.00  0.00     0.136 C 
ATOM      2  O   UNL     1       4.394 147.737  -4.402  1.00  0.00    -0.299 OA
ENDROOT
BRANCH   1   3
ATOM      3  C   UNL     1       2.812 148.051  -6.125  1.00  0.00     0.053 C 
ATOM      4  C   UNL     1       2.440 149.460  -5.641  1.00  0.00     0.016 C 
BRANCH   3   5
ATOM      5  C   UNL     1       1.706 147.030  -5.760  1.00  0.00     0.015 C 
BRANCH   5   6
ATOM      6  C   UNL     1       1.192 146.156  -6.925  1.00  0.00     0.028 C 
BRANCH   6   7
ATOM      7  C   UNL     1       1.640 144.711  -6.943  1.00  0.00    -0.028 C 
ATOM      8  C   UNL     1       2.582 144.171  -7.752  1.00  0.00    -0.070 CG0
ATOM      9  C   UNL     1       2.997 142.744  -7.492  1.00  0.00     0.039 C 
ATOM     10  G   UNL     1       3.188 144.890  -8.940  1.00  0.00     0.000 G0
ENDBRANCH   6   7
ENDBRANCH   5   6
ENDBRANCH   3   5
ENDBRANCH   1   3
BRANCH   1  11
ATOM     11  C   UNL     1       5.297 147.106  -6.487  1.00  0.00     0.087 C 
BRANCH  11  12
ATOM     12  C   UNL     1       4.961 145.756  -7.175  1.00  0.00     0.066 C 
BRANCH  12  13
ATOM     13  C   UNL     1       4.177 145.953  -8.460  1.00  0.00     0.140 C 
ATOM     14  O   UNL     1       4.285 146.998  -9.085  1.00  0.00    -0.299 OA
BRANCH  13  15
ATOM     15  C   UNL     1       3.195 144.909  -8.939  1.00  0.00     0.106 CG0
ATOM     16  G   UNL     1       2.595 144.181  -7.753  1.00  0.00     0.000 G0
ENDBRANCH  13  15
ENDBRANCH  12  13
BRANCH  12  17
ATOM     17  C   UNL     1       6.209 144.831  -7.331  1.00  0.00    -0.006 C 
ATOM     18  C   UNL     1       6.360 144.163  -8.711  1.00  0.00     0.008 C 
ATOM     19  C   UNL     1       6.238 143.756  -6.233  1.00  0.00     0.008 C 
ENDBRANCH  12  17
ENDBRANCH  11  12
ENDBRANCH   1  11
TORSDOF 1
ENDMDL
MODEL 6
REMARK VINA RESULT:    -1.374      1.983      3.681
REMARK INTER + INTRA:          -1.350
REMARK INTER:                  -2.714
REMARK INTRA:                   1.364
REMARK UNBOUND:                 0.747
REMARK SMILES CC1=CCC[C@@H](C)C(=O)C[C@H](C(C)C)C(=O)C1
REMARK SMILES IDX 8 1 9 2 6 3 7 4 5 5 4 6 3 7 2 8 1 9 10 11 11 12 15 13 16 14
REMARK SMILES IDX 17 15 12 17 13 18 14 19
REMARK H PARENT
REMARK Flexibility Score: 70.00
ROOT
ATOM      1  C   UNL     1       2.618 143.362  -7.786  1.00  0.00     0.136 C 
ATOM      2  O   UNL     1       2.113 142.255  -7.676  1.00  0.00    -0.299 OA
ENDROOT
BRANCH   1   3
ATOM      3  C   UNL     1       4.121 143.450  -8.016  1.00  0.00     0.053 C 
ATOM      4  C   UNL     1       4.568 142.431  -9.073  1.00  0.00     0.016 C 
BRANCH   3   5
ATOM      5  C   UNL     1       4.938 143.290  -6.710  1.00  0.00     0.015 C 
BRANCH   5   6
ATOM      6  C   UNL     1       6.222 144.141  -6.616  1.00  0.00     0.028 C 
BRANCH   6   7
ATOM      7  C   UNL     1       6.517 145.064  -7.778  1.00  0.00    -0.028 C 
ATOM      8  C   UNL     1       5.983 146.290  -7.986  1.00  0.00    -0.070 CG0
ATOM      9  C   UNL     1       6.540 147.115  -9.121  1.00  0.00     0.039 C 
ATOM     10  G   UNL     1       4.817 146.850  -7.196  1.00  0.00     0.000 G0
ENDBRANCH   6   7
ENDBRANCH   5   6
ENDBRANCH   3   5
ENDBRANCH   1   3
BRANCH   1  11
ATOM     11  C   UNL     1       1.713 144.578  -7.654  1.00  0.00     0.087 C 
BRANCH  11  12
ATOM     12  C   UNL     1       2.393 145.804  -6.987  1.00  0.00     0.066 C 
BRANCH  12  13
ATOM     13  C   UNL     1       3.517 146.365  -7.841  1.00  0.00     0.140 C 
ATOM     14  O   UNL     1       3.412 146.369  -9.058  1.00  0.00    -0.299 OA
BRANCH  13  15
ATOM     15  C   UNL     1       4.805 146.842  -7.212  1.00  0.00     0.106 CG0
ATOM     16  G   UNL     1       5.990 146.312  -7.995  1.00  0.00     0.000 G0
ENDBRANCH  13  15
ENDBRANCH  12  13
BRANCH  12  17
ATOM     17  C   UNL     1       1.365 146.879  -6.510  1.00  0.00    -0.006 C 
ATOM     18  C   UNL     1       1.815 147.725  -5.304  1.00  0.00     0.008 C 
ATOM     19  C   UNL     1      -0.001 146.238  -6.209  1.00  0.00     0.008 C 
ENDBRANCH  12  17
ENDBRANCH  11  12
ENDBRANCH   1  11
TORSDOF 1
ENDMDL
MODEL 7
REMARK VINA RESULT:    -0.978      1.897      4.946
REMARK INTER + INTRA:          -0.745
REMARK INTER:                  -3.312
REMARK INTRA:                   2.567
REMARK UNBOUND:                 0.747
REMARK SMILES CC1=CCC[C@@H](C)C(=O)C[C@H](C(C)C)C(=O)C1
REMARK SMILES IDX 8 1 9 2 6 3 7 4 5 5 4 6 3 7 2 8 1 9 10 11 11 12 15 13 16 14
REMARK SMILES IDX 17 15 12 17 13 18 14 19
REMARK H PARENT
REMARK Flexibility Score: 70.00
ROOT
ATOM      1  C   UNL     1       4.441 143.653  -8.784  1.00  0.00     0.136 C 
ATOM      2  O   UNL     1       4.965 142.603  -9.125  1.00  0.00    -0.299 OA
ENDROOT
BRANCH   1   3
ATOM      3  C   UNL     1       2.964 143.635  -8.414  1.00  0.00     0.053 C 
ATOM      4  C   UNL     1       2.328 142.287  -8.784  1.00  0.00     0.016 C 
BRANCH   3   5
ATOM      5  C   UNL     1       2.175 144.811  -9.041  1.00  0.00     0.015 C 
BRANCH   5   6
ATOM      6  C   UNL     1       1.234 145.571  -8.082  1.00  0.00     0.028 C 
BRANCH   6   7
ATOM      7  C   UNL     1       1.731 145.793  -6.671  1.00  0.00    -0.028 C 
ATOM      8  C   UNL     1       2.815 146.518  -6.304  1.00  0.00    -0.070 CG0
ATOM      9  C   UNL     1       3.038 146.750  -4.830  1.00  0.00     0.039 C 
ATOM     10  G   UNL     1       3.849 147.044  -7.280  1.00  0.00     0.000 G0
ENDBRANCH   6   7
ENDBRANCH   5   6
ENDBRANCH   3   5
ENDBRANCH   1   3
BRANCH   1  11
ATOM     11  C   UNL     1       5.294 144.913  -8.783  1.00  0.00     0.087 C 
BRANCH  11  12
ATOM     12  C   UNL     1       5.850 145.300  -7.387  1.00  0.00     0.066 C 
BRANCH  12  13
ATOM     13  C   UNL     1       5.248 146.596  -6.875  1.00  0.00     0.140 C 
ATOM     14  O   UNL     1       5.855 147.266  -6.053  1.00  0.00    -0.299 OA
BRANCH  13  15
ATOM     15  C   UNL     1       3.865 147.031  -7.301  1.00  0.00     0.106 CG0
ATOM     16  G   UNL     1       2.835 146.522  -6.313  1.00  0.00     0.000 G0
ENDBRANCH  13  15
ENDBRANCH  12  13
BRANCH  12  17
ATOM     17  C   UNL     1       5.781 144.123  -6.363  1.00  0.00    -0.006 C 
ATOM     18  C   UNL     1       6.567 144.345  -5.057  1.00  0.00     0.008 C 
ATOM     19  C   UNL     1       6.225 142.801  -7.012  1.00  0.00     0.008 C 
ENDBRANCH  12  17
ENDBRANCH  11  12
ENDBRANCH   1  11
TORSDOF 1
ENDMDL
MODEL 8
REMARK VINA RESULT:    -0.562      1.951      4.006
REMARK INTER + INTRA:          -0.110
REMARK INTER:                  -1.768
REMARK INTRA:                   1.658
REMARK UNBOUND:                 0.747
REMARK SMILES CC1=CCC[C@@H](C)C(=O)C[C@H](C(C)C)C(=O)C1
REMARK SMILES IDX 8 1 9 2 6 3 7 4 5 5 4 6 3 7 2 8 1 9 10 11 11 12 15 13 16 14
REMARK SMILES IDX 17 15 12 17 13 18 14 19
REMARK H PARENT
REMARK Flexibility Score: 70.00
ROOT
ATOM      1  C   UNL     1       5.008 143.228  -8.047  1.00  0.00     0.136 C 
ATOM      2  O   UNL     1       4.759 142.706  -9.124  1.00  0.00    -0.299 OA
ENDROOT
BRANCH   1   3
ATOM      3  C   UNL     1       6.279 144.057  -7.923  1.00  0.00     0.053 C 
ATOM      4  C   UNL     1       6.561 144.402  -6.454  1.00  0.00     0.016 C 
BRANCH   3   5
ATOM      5  C   UNL     1       6.248 145.335  -8.797  1.00  0.00     0.015 C 
BRANCH   5   6
ATOM      6  C   UNL     1       5.008 146.238  -8.619  1.00  0.00     0.028 C 
BRANCH   6   7
ATOM      7  C   UNL     1       5.055 147.247  -7.494  1.00  0.00    -0.028 C 
ATOM      8  C   UNL     1       4.195 147.329  -6.451  1.00  0.00    -0.070 CG0
ATOM      9  C   UNL     1       4.520 148.307  -5.348  1.00  0.00     0.039 C 
ATOM     10  G   UNL     1       2.897 146.552  -6.362  1.00  0.00     0.000 G0
ENDBRANCH   6   7
ENDBRANCH   5   6
ENDBRANCH   3   5
ENDBRANCH   1   3
BRANCH   1  11
ATOM     11  C   UNL     1       4.043 142.987  -6.895  1.00  0.00     0.087 C 
BRANCH  11  12
ATOM     12  C   UNL     1       2.857 143.987  -6.842  1.00  0.00     0.066 C 
BRANCH  12  13
ATOM     13  C   UNL     1       3.139 145.154  -5.913  1.00  0.00     0.140 C 
ATOM     14  O   UNL     1       3.499 144.945  -4.765  1.00  0.00    -0.299 OA
BRANCH  13  15
ATOM     15  C   UNL     1       2.899 146.578  -6.360  1.00  0.00     0.106 CG0
ATOM     16  G   UNL     1       4.214 147.327  -6.432  1.00  0.00     0.000 G0
ENDBRANCH  13  15
ENDBRANCH  12  13
BRANCH  12  17
ATOM     17  C   UNL     1       2.365 144.414  -8.262  1.00  0.00    -0.006 C 
ATOM     18  C   UNL     1       1.406 145.619  -8.287  1.00  0.00     0.008 C 
ATOM     19  C   UNL     1       1.720 143.228  -9.000  1.00  0.00     0.008 C 
ENDBRANCH  12  17
ENDBRANCH  11  12
ENDBRANCH   1  11
TORSDOF 1
ENDMDL
MODEL 9
REMARK VINA RESULT:    -0.521      1.868      3.897
REMARK INTER + INTRA:          -0.049
REMARK INTER:                  -1.207
REMARK INTRA:                   1.158
REMARK UNBOUND:                 0.747
REMARK SMILES CC1=CCC[C@@H](C)C(=O)C[C@H](C(C)C)C(=O)C1
REMARK SMILES IDX 8 1 9 2 6 3 7 4 5 5 4 6 3 7 2 8 1 9 10 11 11 12 15 13 16 14
REMARK SMILES IDX 17 15 12 17 13 18 14 19
REMARK H PARENT
REMARK Flexibility Score: 70.00
ROOT
ATOM      1  C   UNL     1       2.914 145.652  -5.266  1.00  0.00     0.136 C 
ATOM      2  O   UNL     1       3.463 145.455  -4.192  1.00  0.00    -0.299 OA
ENDROOT
BRANCH   1   3
ATOM      3  C   UNL     1       2.461 147.068  -5.594  1.00  0.00     0.053 C 
ATOM      4  C   UNL     1       1.652 147.090  -6.899  1.00  0.00     0.016 C 
BRANCH   3   5
ATOM      5  C   UNL     1       3.637 148.075  -5.653  1.00  0.00     0.015 C 
BRANCH   5   6
ATOM      6  C   UNL     1       5.046 147.453  -5.745  1.00  0.00     0.028 C 
BRANCH   6   7
ATOM      7  C   UNL     1       5.610 147.239  -7.133  1.00  0.00    -0.028 C 
ATOM      8  C   UNL     1       6.017 146.062  -7.663  1.00  0.00    -0.070 CG0
ATOM      9  C   UNL     1       6.390 146.043  -9.125  1.00  0.00     0.039 C 
ATOM     10  G   UNL     1       6.187 144.787  -6.861  1.00  0.00     0.000 G0
ENDBRANCH   6   7
ENDBRANCH   5   6
ENDBRANCH   3   5
ENDBRANCH   1   3
BRANCH   1  11
ATOM     11  C   UNL     1       2.695 144.462  -6.188  1.00  0.00     0.087 C 
BRANCH  11  12
ATOM     12  C   UNL     1       3.634 144.436  -7.423  1.00  0.00     0.066 C 
BRANCH  12  13
ATOM     13  C   UNL     1       5.003 143.872  -7.084  1.00  0.00     0.140 C 
ATOM     14  O   UNL     1       5.145 142.668  -6.933  1.00  0.00    -0.299 OA
BRANCH  13  15
ATOM     15  C   UNL     1       6.181 144.787  -6.844  1.00  0.00     0.106 CG0
ATOM     16  G   UNL     1       6.030 146.052  -7.666  1.00  0.00     0.000 G0
ENDBRANCH  13  15
ENDBRANCH  12  13
BRANCH  12  17
ATOM     17  C   UNL     1       2.970 143.774  -8.672  1.00  0.00    -0.006 C 
ATOM     18  C   UNL     1       1.633 144.399  -9.111  1.00  0.00     0.008 C 
ATOM     19  C   UNL     1       2.786 142.261  -8.461  1.00  0.00     0.008 C 
ENDBRANCH  12  17
ENDBRANCH  11  12
ENDBRANCH   1  11
TORSDOF 1
ENDMDL
