MODEL 1
REMARK VINA RESULT:    -3.916      0.000      0.000
REMARK INTER + INTRA:          -6.201
REMARK INTER:                  -5.404
REMARK INTRA:                  -0.797
REMARK UNBOUND:                -0.797
REMARK SMILES OC[C@@H](O)[C@@H](O)[C@@H](O)CO
REMARK SMILES IDX 5 1 3 2 2 3 1 4 4 6 7 8 9 9 10 10 8 12 6 14
REMARK H PARENT 1 5 4 7 10 11 8 13 6 15
REMARK Flexibility Score: inf
ROOT
ATOM      1  C   UNL     1       2.597  18.092  20.450  1.00  0.00     0.176 C 
ENDROOT
BRANCH   1   2
ATOM      2  C   UNL     1       2.639  16.600  20.892  1.00  0.00     0.171 C 
BRANCH   2   3
ATOM      3  C   UNL     1       1.257  15.907  20.909  1.00  0.00     0.190 C 
BRANCH   3   4
ATOM      4  O   UNL     1       0.733  15.783  19.614  1.00  0.00    -0.394 OA
ATOM      5  H   UNL     1       1.421  15.318  19.070  1.00  0.00     0.210 HD
ENDBRANCH   3   4
ENDBRANCH   2   3
BRANCH   2   6
ATOM      6  O   UNL     1       3.528  15.885  20.069  1.00  0.00    -0.388 OA
ATOM      7  H   UNL     1       3.536  14.941  20.379  1.00  0.00     0.211 HD
ENDBRANCH   2   6
ENDBRANCH   1   2
BRANCH   1   8
ATOM      8  C   UNL     1       1.518  18.921  21.190  1.00  0.00     0.171 C 
BRANCH   8   9
ATOM      9  C   UNL     1       0.567  19.621  20.204  1.00  0.00     0.190 C 
BRANCH   9  10
ATOM     10  O   UNL     1      -0.386  18.718  19.717  1.00  0.00    -0.394 OA
ATOM     11  H   UNL     1       0.123  17.959  19.332  1.00  0.00     0.210 HD
ENDBRANCH   9  10
ENDBRANCH   8   9
BRANCH   8  12
ATOM     12  O   UNL     1       2.139  19.896  21.989  1.00  0.00    -0.388 OA
ATOM     13  H   UNL     1       3.116  19.816  21.836  1.00  0.00     0.211 HD
ENDBRANCH   8  12
ENDBRANCH   1   8
BRANCH   1  14
ATOM     14  O   UNL     1       2.380  18.175  19.062  1.00  0.00    -0.388 OA
ATOM     15  H   UNL     1       3.230  18.479  18.648  1.00  0.00     0.211 HD
ENDBRANCH   1  14
TORSDOF 9
ENDMDL
MODEL 2
REMARK VINA RESULT:    -3.857      7.032      8.608
REMARK INTER + INTRA:          -6.120
REMARK INTER:                  -5.578
REMARK INTRA:                  -0.542
REMARK UNBOUND:                -0.797
REMARK SMILES OC[C@@H](O)[C@@H](O)[C@@H](O)CO
REMARK SMILES IDX 5 1 3 2 2 3 1 4 4 6 7 8 9 9 10 10 8 12 6 14
REMARK H PARENT 1 5 4 7 10 11 8 13 6 15
REMARK Flexibility Score: inf
ROOT
ATOM      1  C   UNL     1       6.203  24.249  20.248  1.00  0.00     0.176 C 
ENDROOT
BRANCH   1   2
ATOM      2  C   UNL     1       7.495  24.896  19.669  1.00  0.00     0.171 C 
BRANCH   2   3
ATOM      3  C   UNL     1       7.563  26.432  19.841  1.00  0.00     0.190 C 
BRANCH   3   4
ATOM      4  O   UNL     1       7.106  26.824  21.107  1.00  0.00    -0.394 OA
ATOM      5  H   UNL     1       7.690  27.570  21.404  1.00  0.00     0.210 HD
ENDBRANCH   3   4
ENDBRANCH   2   3
BRANCH   2   6
ATOM      6  O   UNL     1       8.628  24.295  20.246  1.00  0.00    -0.388 OA
ATOM      7  H   UNL     1       8.385  23.367  20.501  1.00  0.00     0.211 HD
ENDBRANCH   2   6
ENDBRANCH   1   2
BRANCH   1   8
ATOM      8  C   UNL     1       6.470  22.937  21.027  1.00  0.00     0.171 C 
BRANCH   8   9
ATOM      9  C   UNL     1       5.255  21.994  20.981  1.00  0.00     0.190 C 
BRANCH   9  10
ATOM     10  O   UNL     1       4.135  22.609  21.555  1.00  0.00    -0.394 OA
ATOM     11  H   UNL     1       3.786  23.239  20.873  1.00  0.00     0.210 HD
ENDBRANCH   9  10
ENDBRANCH   8   9
BRANCH   8  12
ATOM     12  O   UNL     1       6.759  23.236  22.370  1.00  0.00    -0.388 OA
ATOM     13  H   UNL     1       5.991  22.913  22.910  1.00  0.00     0.211 HD
ENDBRANCH   8  12
ENDBRANCH   1   8
BRANCH   1  14
ATOM     14  O   UNL     1       5.286  23.998  19.211  1.00  0.00    -0.388 OA
ATOM     15  H   UNL     1       4.392  24.294  19.530  1.00  0.00     0.211 HD
ENDBRANCH   1  14
TORSDOF 9
ENDMDL
MODEL 3
REMARK VINA RESULT:    -3.847      4.900      6.316
REMARK INTER + INTRA:          -6.105
REMARK INTER:                  -5.445
REMARK INTRA:                  -0.660
REMARK UNBOUND:                -0.797
REMARK SMILES OC[C@@H](O)[C@@H](O)[C@@H](O)CO
REMARK SMILES IDX 5 1 3 2 2 3 1 4 4 6 7 8 9 9 10 10 8 12 6 14
REMARK H PARENT 1 5 4 7 10 11 8 13 6 15
REMARK Flexibility Score: inf
ROOT
ATOM      1  C   UNL     1      -2.639  14.711  17.868  1.00  0.00     0.176 C 
ENDROOT
BRANCH   1   2
ATOM      2  C   UNL     1      -2.303  14.918  19.373  1.00  0.00     0.171 C 
BRANCH   2   3
ATOM      3  C   UNL     1      -0.929  14.348  19.797  1.00  0.00     0.190 C 
BRANCH   3   4
ATOM      4  O   UNL     1       0.094  14.806  18.955  1.00  0.00    -0.394 OA
ATOM      5  H   UNL     1      -0.275  15.576  18.448  1.00  0.00     0.210 HD
ENDBRANCH   3   4
ENDBRANCH   2   3
BRANCH   2   6
ATOM      6  O   UNL     1      -2.378  16.285  19.694  1.00  0.00    -0.388 OA
ATOM      7  H   UNL     1      -3.164  16.416  20.286  1.00  0.00     0.211 HD
ENDBRANCH   2   6
ENDBRANCH   1   2
BRANCH   1   8
ATOM      8  C   UNL     1      -4.158  14.758  17.566  1.00  0.00     0.171 C 
BRANCH   8   9
ATOM      9  C   UNL     1      -4.449  15.478  16.238  1.00  0.00     0.190 C 
BRANCH   9  10
ATOM     10  O   UNL     1      -3.255  15.885  15.629  1.00  0.00    -0.394 OA
ATOM     11  H   UNL     1      -2.751  16.390  16.319  1.00  0.00     0.210 HD
ENDBRANCH   9  10
ENDBRANCH   8   9
BRANCH   8  12
ATOM     12  O   UNL     1      -4.824  15.434  18.602  1.00  0.00    -0.388 OA
ATOM     13  H   UNL     1      -4.728  16.406  18.421  1.00  0.00     0.211 HD
ENDBRANCH   8  12
ENDBRANCH   1   8
BRANCH   1  14
ATOM     14  O   UNL     1      -2.112  13.485  17.422  1.00  0.00    -0.388 OA
ATOM     15  H   UNL     1      -2.875  12.934  17.104  1.00  0.00     0.211 HD
ENDBRANCH   1  14
TORSDOF 9
ENDMDL
MODEL 4
REMARK VINA RESULT:    -3.802      4.819      6.713
REMARK INTER + INTRA:          -6.043
REMARK INTER:                  -5.308
REMARK INTRA:                  -0.736
REMARK UNBOUND:                -0.797
REMARK SMILES OC[C@@H](O)[C@@H](O)[C@@H](O)CO
REMARK SMILES IDX 5 1 3 2 2 3 1 4 4 6 7 8 9 9 10 10 8 12 6 14
REMARK H PARENT 1 5 4 7 10 11 8 13 6 15
REMARK Flexibility Score: inf
ROOT
ATOM      1  C   UNL     1      -2.672  15.348  18.564  1.00  0.00     0.176 C 
ENDROOT
BRANCH   1   2
ATOM      2  C   UNL     1      -4.172  15.360  18.150  1.00  0.00     0.171 C 
BRANCH   2   3
ATOM      3  C   UNL     1      -4.411  15.665  16.652  1.00  0.00     0.190 C 
BRANCH   3   4
ATOM      4  O   UNL     1      -3.215  15.602  15.923  1.00  0.00    -0.394 OA
ATOM      5  H   UNL     1      -2.497  15.940  16.519  1.00  0.00     0.210 HD
ENDBRANCH   3   4
ENDBRANCH   2   3
BRANCH   2   6
ATOM      6  O   UNL     1      -4.772  14.136  18.495  1.00  0.00    -0.388 OA
ATOM      7  H   UNL     1      -4.923  13.624  17.657  1.00  0.00     0.211 HD
ENDBRANCH   2   6
ENDBRANCH   1   2
BRANCH   1   8
ATOM      8  C   UNL     1      -2.109  13.923  18.791  1.00  0.00     0.171 C 
BRANCH   8   9
ATOM      9  C   UNL     1      -0.725  13.962  19.461  1.00  0.00     0.190 C 
BRANCH   9  10
ATOM     10  O   UNL     1       0.072  14.958  18.883  1.00  0.00    -0.394 OA
ATOM     11  H   UNL     1      -0.465  15.350  18.147  1.00  0.00     0.210 HD
ENDBRANCH   9  10
ENDBRANCH   8   9
BRANCH   8  12
ATOM     12  O   UNL     1      -1.996  13.260  17.557  1.00  0.00    -0.388 OA
ATOM     13  H   UNL     1      -1.315  13.750  17.026  1.00  0.00     0.211 HD
ENDBRANCH   8  12
ENDBRANCH   1   8
BRANCH   1  14
ATOM     14  O   UNL     1      -2.491  16.113  19.731  1.00  0.00    -0.388 OA
ATOM     15  H   UNL     1      -2.728  15.535  20.503  1.00  0.00     0.211 HD
ENDBRANCH   1  14
TORSDOF 9
ENDMDL
MODEL 5
REMARK VINA RESULT:    -3.789      4.712      5.773
REMARK INTER + INTRA:          -6.025
REMARK INTER:                  -5.376
REMARK INTRA:                  -0.649
REMARK UNBOUND:                -0.797
REMARK SMILES OC[C@@H](O)[C@@H](O)[C@@H](O)CO
REMARK SMILES IDX 5 1 3 2 2 3 1 4 4 6 7 8 9 9 10 10 8 12 6 14
REMARK H PARENT 1 5 4 7 10 11 8 13 6 15
REMARK Flexibility Score: inf
ROOT
ATOM      1  C   UNL     1      -1.989  14.148  17.943  1.00  0.00     0.176 C 
ENDROOT
BRANCH   1   2
ATOM      2  C   UNL     1      -0.874  13.814  18.976  1.00  0.00     0.171 C 
BRANCH   2   3
ATOM      3  C   UNL     1      -0.260  12.403  18.808  1.00  0.00     0.190 C 
BRANCH   3   4
ATOM      4  O   UNL     1      -0.188  12.037  17.457  1.00  0.00    -0.394 OA
ATOM      5  H   UNL     1      -0.816  12.629  16.965  1.00  0.00     0.210 HD
ENDBRANCH   3   4
ENDBRANCH   2   3
BRANCH   2   6
ATOM      6  O   UNL     1       0.137  14.789  18.919  1.00  0.00    -0.388 OA
ATOM      7  H   UNL     1      -0.295  15.666  18.741  1.00  0.00     0.211 HD
ENDBRANCH   2   6
ENDBRANCH   1   2
BRANCH   1   8
ATOM      8  C   UNL     1      -2.969  15.243  18.432  1.00  0.00     0.171 C 
BRANCH   8   9
ATOM      9  C   UNL     1      -3.949  15.662  17.322  1.00  0.00     0.190 C 
BRANCH   9  10
ATOM     10  O   UNL     1      -3.340  15.554  16.065  1.00  0.00    -0.394 OA
ATOM     11  H   UNL     1      -2.524  16.117  16.104  1.00  0.00     0.210 HD
ENDBRANCH   9  10
ENDBRANCH   8   9
BRANCH   8  12
ATOM     12  O   UNL     1      -2.245  16.374  18.845  1.00  0.00    -0.388 OA
ATOM     13  H   UNL     1      -2.870  17.145  18.816  1.00  0.00     0.211 HD
ENDBRANCH   8  12
ENDBRANCH   1   8
BRANCH   1  14
ATOM     14  O   UNL     1      -2.710  12.984  17.622  1.00  0.00    -0.388 OA
ATOM     15  H   UNL     1      -2.498  12.305  18.315  1.00  0.00     0.211 HD
ENDBRANCH   1  14
TORSDOF 9
ENDMDL
MODEL 6
REMARK VINA RESULT:    -3.762      4.904      6.269
REMARK INTER + INTRA:          -5.988
REMARK INTER:                  -5.460
REMARK INTRA:                  -0.528
REMARK UNBOUND:                -0.797
REMARK SMILES OC[C@@H](O)[C@@H](O)[C@@H](O)CO
REMARK SMILES IDX 5 1 3 2 2 3 1 4 4 6 7 8 9 9 10 10 8 12 6 14
REMARK H PARENT 1 5 4 7 10 11 8 13 6 15
REMARK Flexibility Score: inf
ROOT
ATOM      1  C   UNL     1      -2.898  15.097  18.669  1.00  0.00     0.176 C 
ENDROOT
BRANCH   1   2
ATOM      2  C   UNL     1      -1.660  14.308  18.153  1.00  0.00     0.171 C 
BRANCH   2   3
ATOM      3  C   UNL     1      -0.571  14.067  19.226  1.00  0.00     0.190 C 
BRANCH   3   4
ATOM      4  O   UNL     1       0.354  15.120  19.257  1.00  0.00    -0.394 OA
ATOM      5  H   UNL     1      -0.123  15.910  19.623  1.00  0.00     0.210 HD
ENDBRANCH   3   4
ENDBRANCH   2   3
BRANCH   2   6
ATOM      6  O   UNL     1      -2.072  13.082  17.601  1.00  0.00    -0.388 OA
ATOM      7  H   UNL     1      -1.263  12.607  17.276  1.00  0.00     0.211 HD
ENDBRANCH   2   6
ENDBRANCH   1   2
BRANCH   1   8
ATOM      8  C   UNL     1      -3.770  15.683  17.531  1.00  0.00     0.171 C 
BRANCH   8   9
ATOM      9  C   UNL     1      -5.200  15.115  17.565  1.00  0.00     0.190 C 
BRANCH   9  10
ATOM     10  O   UNL     1      -6.083  16.044  18.131  1.00  0.00    -0.394 OA
ATOM     11  H   UNL     1      -6.965  15.594  18.176  1.00  0.00     0.210 HD
ENDBRANCH   9  10
ENDBRANCH   8   9
BRANCH   8  12
ATOM     12  O   UNL     1      -3.191  15.377  16.288  1.00  0.00    -0.388 OA
ATOM     13  H   UNL     1      -2.299  14.982  16.474  1.00  0.00     0.211 HD
ENDBRANCH   8  12
ENDBRANCH   1   8
BRANCH   1  14
ATOM     14  O   UNL     1      -2.483  16.136  19.523  1.00  0.00    -0.388 OA
ATOM     15  H   UNL     1      -1.840  15.745  20.172  1.00  0.00     0.211 HD
ENDBRANCH   1  14
TORSDOF 9
ENDMDL
MODEL 7
REMARK VINA RESULT:    -3.717      4.379      6.597
REMARK INTER + INTRA:          -5.926
REMARK INTER:                  -5.430
REMARK INTRA:                  -0.496
REMARK UNBOUND:                -0.797
REMARK SMILES OC[C@@H](O)[C@@H](O)[C@@H](O)CO
REMARK SMILES IDX 5 1 3 2 2 3 1 4 4 6 7 8 9 9 10 10 8 12 6 14
REMARK H PARENT 1 5 4 7 10 11 8 13 6 15
REMARK Flexibility Score: inf
ROOT
ATOM      1  C   UNL     1      -1.443  13.038  18.608  1.00  0.00     0.176 C 
ENDROOT
BRANCH   1   2
ATOM      2  C   UNL     1      -1.240  14.578  18.694  1.00  0.00     0.171 C 
BRANCH   2   3
ATOM      3  C   UNL     1      -2.143  15.277  19.737  1.00  0.00     0.190 C 
BRANCH   3   4
ATOM      4  O   UNL     1      -1.871  16.651  19.807  1.00  0.00    -0.394 OA
ATOM      5  H   UNL     1      -1.561  16.836  20.732  1.00  0.00     0.210 HD
ENDBRANCH   3   4
ENDBRANCH   2   3
BRANCH   2   6
ATOM      6  O   UNL     1       0.111  14.867  18.955  1.00  0.00    -0.388 OA
ATOM      7  H   UNL     1       0.573  14.011  19.158  1.00  0.00     0.211 HD
ENDBRANCH   2   6
ENDBRANCH   1   2
BRANCH   1   8
ATOM      8  C   UNL     1      -0.116  12.251  18.465  1.00  0.00     0.171 C 
BRANCH   8   9
ATOM      9  C   UNL     1      -0.320  10.934  17.697  1.00  0.00     0.190 C 
BRANCH   9  10
ATOM     10  O   UNL     1      -0.148  11.137  16.322  1.00  0.00    -0.394 OA
ATOM     11  H   UNL     1      -0.871  10.626  15.874  1.00  0.00     0.210 HD
ENDBRANCH   9  10
ENDBRANCH   8   9
BRANCH   8  12
ATOM     12  O   UNL     1       0.397  11.956  19.740  1.00  0.00    -0.388 OA
ATOM     13  H   UNL     1       0.395  12.804  20.256  1.00  0.00     0.211 HD
ENDBRANCH   8  12
ENDBRANCH   1   8
BRANCH   1  14
ATOM     14  O   UNL     1      -2.291  12.725  17.530  1.00  0.00    -0.388 OA
ATOM     15  H   UNL     1      -2.260  13.491  16.899  1.00  0.00     0.211 HD
ENDBRANCH   1  14
TORSDOF 9
ENDMDL
MODEL 8
REMARK VINA RESULT:    -3.655      2.077      3.519
REMARK INTER + INTRA:          -5.841
REMARK INTER:                  -5.503
REMARK INTRA:                  -0.338
REMARK UNBOUND:                -0.797
REMARK SMILES OC[C@@H](O)[C@@H](O)[C@@H](O)CO
REMARK SMILES IDX 5 1 3 2 2 3 1 4 4 6 7 8 9 9 10 10 8 12 6 14
REMARK H PARENT 1 5 4 7 10 11 8 13 6 15
REMARK Flexibility Score: inf
ROOT
ATOM      1  C   UNL     1       3.009  18.986  21.392  1.00  0.00     0.176 C 
ENDROOT
BRANCH   1   2
ATOM      2  C   UNL     1       1.834  18.659  20.425  1.00  0.00     0.171 C 
BRANCH   2   3
ATOM      3  C   UNL     1       0.704  19.715  20.424  1.00  0.00     0.190 C 
BRANCH   3   4
ATOM      4  O   UNL     1      -0.294  19.391  19.494  1.00  0.00    -0.394 OA
ATOM      5  H   UNL     1      -0.731  18.560  19.820  1.00  0.00     0.210 HD
ENDBRANCH   3   4
ENDBRANCH   2   3
BRANCH   2   6
ATOM      6  O   UNL     1       2.327  18.479  19.121  1.00  0.00    -0.388 OA
ATOM      7  H   UNL     1       3.245  18.105  19.190  1.00  0.00     0.211 HD
ENDBRANCH   2   6
ENDBRANCH   1   2
BRANCH   1   8
ATOM      8  C   UNL     1       3.154  20.499  21.692  1.00  0.00     0.171 C 
BRANCH   8   9
ATOM      9  C   UNL     1       4.528  21.033  21.252  1.00  0.00     0.190 C 
BRANCH   9  10
ATOM     10  O   UNL     1       5.490  20.783  22.239  1.00  0.00    -0.394 OA
ATOM     11  H   UNL     1       5.176  19.983  22.734  1.00  0.00     0.210 HD
ENDBRANCH   9  10
ENDBRANCH   8   9
BRANCH   8  12
ATOM     12  O   UNL     1       3.002  20.723  23.070  1.00  0.00    -0.388 OA
ATOM     13  H   UNL     1       3.905  20.919  23.433  1.00  0.00     0.211 HD
ENDBRANCH   8  12
ENDBRANCH   1   8
BRANCH   1  14
ATOM     14  O   UNL     1       4.217  18.496  20.863  1.00  0.00    -0.388 OA
ATOM     15  H   UNL     1       4.558  19.178  20.226  1.00  0.00     0.211 HD
ENDBRANCH   1  14
TORSDOF 9
ENDMDL
MODEL 9
REMARK VINA RESULT:    -3.652      1.601      3.639
REMARK INTER + INTRA:          -5.836
REMARK INTER:                  -5.277
REMARK INTRA:                  -0.559
REMARK UNBOUND:                -0.797
REMARK SMILES OC[C@@H](O)[C@@H](O)[C@@H](O)CO
REMARK SMILES IDX 5 1 3 2 2 3 1 4 4 6 7 8 9 9 10 10 8 12 6 14
REMARK H PARENT 1 5 4 7 10 11 8 13 6 15
REMARK Flexibility Score: inf
ROOT
ATOM      1  C   UNL     1       3.051  18.769  20.060  1.00  0.00     0.176 C 
ENDROOT
BRANCH   1   2
ATOM      2  C   UNL     1       1.835  19.418  20.783  1.00  0.00     0.171 C 
BRANCH   2   3
ATOM      3  C   UNL     1       0.473  18.777  20.428  1.00  0.00     0.190 C 
BRANCH   3   4
ATOM      4  O   UNL     1      -0.259  19.589  19.550  1.00  0.00    -0.394 OA
ATOM      5  H   UNL     1      -0.021  19.302  18.629  1.00  0.00     0.210 HD
ENDBRANCH   3   4
ENDBRANCH   2   3
BRANCH   2   6
ATOM      6  O   UNL     1       2.035  19.386  22.175  1.00  0.00    -0.388 OA
ATOM      7  H   UNL     1       2.238  20.311  22.475  1.00  0.00     0.211 HD
ENDBRANCH   2   6
ENDBRANCH   1   2
BRANCH   1   8
ATOM      8  C   UNL     1       2.818  17.286  19.679  1.00  0.00     0.171 C 
BRANCH   8   9
ATOM      9  C   UNL     1       3.648  16.338  20.561  1.00  0.00     0.190 C 
BRANCH   9  10
ATOM     10  O   UNL     1       3.238  16.428  21.898  1.00  0.00    -0.394 OA
ATOM     11  H   UNL     1       4.065  16.539  22.434  1.00  0.00     0.210 HD
ENDBRANCH   9  10
ENDBRANCH   8   9
BRANCH   8  12
ATOM     12  O   UNL     1       3.177  17.084  18.335  1.00  0.00    -0.388 OA
ATOM     13  H   UNL     1       3.949  16.459  18.333  1.00  0.00     0.211 HD
ENDBRANCH   8  12
ENDBRANCH   1   8
BRANCH   1  14
ATOM     14  O   UNL     1       4.199  18.870  20.868  1.00  0.00    -0.388 OA
ATOM     15  H   UNL     1       4.151  18.140  21.540  1.00  0.00     0.211 HD
ENDBRANCH   1  14
TORSDOF 9
ENDMDL
