MODEL 1
REMARK VINA RESULT:    -7.894      0.000      0.000
REMARK INTER + INTRA:          -9.731
REMARK INTER:                  -9.047
REMARK INTRA:                  -0.683
REMARK UNBOUND:                -0.683
REMARK SMILES C=C(C)[C@@H]1CC[C@@]2(C(=O)[O-])CC[C@@]3(C)[C@H](CC[C@H]4[C@@]5(C)CC[C@H](O)C(C)(C)[C@H]5CC[C@]43C)[C@@H]12
REMARK SMILES IDX 7 1 6 2 33 3 11 4 5 5 15 6 4 7 12 8 16 9 13 10 17 11 31 12
REMARK SMILES IDX 14 13 18 14 30 15 32 16 19 17 29 18 21 19 20 20 28 21 22 22
REMARK SMILES IDX 25 23 23 24 26 25 27 26 8 27 9 28 10 29 2 30 3 31 1 32 24 33
REMARK H PARENT 24 34
REMARK Flexibility Score: inf
ROOT
ATOM      1  C   UNL     1      22.563 -21.781 -29.687  1.00  0.00     0.014 C 
ATOM      2  C   UNL     1      23.954 -21.818 -29.021  1.00  0.00     0.014 C 
ATOM      3  C   UNL     1      21.812 -20.595 -28.998  1.00  0.00     0.012 C 
ATOM      4  C   UNL     1      21.849 -23.142 -29.513  1.00  0.00     0.014 C 
ATOM      5  C   UNL     1      24.187 -20.432 -28.464  1.00  0.00     0.009 C 
ATOM      6  C   UNL     1      20.407 -20.903 -28.337  1.00  0.00     0.000 C 
ATOM      7  C   UNL     1      22.822 -19.912 -28.026  1.00  0.00     0.018 C 
ATOM      8  C   UNL     1      21.278 -23.375 -28.125  1.00  0.00     0.008 C 
ATOM      9  C   UNL     1      19.249 -20.491 -29.298  1.00  0.00     0.005 C 
ATOM     10  C   UNL     1      20.209 -22.323 -27.612  1.00  0.00    -0.024 C 
ATOM     11  C   UNL     1      18.683 -21.652 -30.088  1.00  0.00     0.005 C 
ATOM     12  C   UNL     1      18.648 -22.816 -27.706  1.00  0.00    -0.024 C 
ATOM     13  C   UNL     1      20.577 -22.133 -26.088  1.00  0.00     0.012 C 
ATOM     14  C   UNL     1      18.025 -22.725 -29.179  1.00  0.00     0.002 C 
ATOM     15  C   UNL     1      18.391 -24.260 -27.151  1.00  0.00     0.008 C 
ATOM     16  C   UNL     1      17.795 -21.875 -26.743  1.00  0.00     0.012 C 
ATOM     17  C   UNL     1      17.622 -24.073 -29.964  1.00  0.00    -0.026 C 
ATOM     18  C   UNL     1      17.000 -24.781 -27.518  1.00  0.00     0.005 C 
ATOM     19  C   UNL     1      18.847 -24.752 -30.627  1.00  0.00     0.010 C 
ATOM     20  C   UNL     1      16.653 -23.631 -31.118  1.00  0.00     0.012 C 
ATOM     21  C   UNL     1      16.879 -25.124 -29.028  1.00  0.00     0.003 C 
ATOM     22  C   UNL     1      18.500 -26.000 -31.461  1.00  0.00     0.033 C 
ATOM     23  C   UNL     1      17.145 -26.674 -29.338  1.00  0.00    -0.006 C 
ATOM     24  C   UNL     1      17.406 -26.917 -30.861  1.00  0.00     0.120 C 
ATOM     25  C   UNL     1      18.336 -27.305 -28.553  1.00  0.00     0.014 C 
ATOM     26  C   UNL     1      15.885 -27.497 -28.929  1.00  0.00     0.014 C 
ENDROOT
BRANCH   1  27
ATOM     27  C   UNL     1      22.766 -21.504 -31.175  1.00  0.00     0.048 C 
ATOM     28  O   UNL     1      21.807 -21.137 -31.913  1.00  0.00    -0.550 OA
ATOM     29  O   UNL     1      24.014 -21.687 -31.763  1.00  0.00    -0.550 OA
ENDBRANCH   1  27
BRANCH   7  30
ATOM     30  C   UNL     1      22.779 -18.373 -27.981  1.00  0.00    -0.077 C 
ATOM     31  C   UNL     1      21.815 -17.636 -27.051  1.00  0.00     0.039 C 
ATOM     32  C   UNL     1      23.460 -17.607 -28.861  1.00  0.00     0.008 C 
ENDBRANCH   7  30
BRANCH  24  33
ATOM     33  O   UNL     1      16.213 -26.763 -31.599  1.00  0.00    -0.393 OA
ATOM     34  H   UNL     1      15.715 -25.983 -31.233  1.00  0.00     0.210 HD
ENDBRANCH  24  33
TORSDOF 3
ENDMDL
MODEL 2
REMARK VINA RESULT:    -7.855      2.599      7.514
REMARK INTER + INTRA:          -9.686
REMARK INTER:                  -9.019
REMARK INTRA:                  -0.667
REMARK UNBOUND:                -0.683
REMARK SMILES C=C(C)[C@@H]1CC[C@@]2(C(=O)[O-])CC[C@@]3(C)[C@H](CC[C@H]4[C@@]5(C)CC[C@H](O)C(C)(C)[C@H]5CC[C@]43C)[C@@H]12
REMARK SMILES IDX 7 1 6 2 33 3 11 4 5 5 15 6 4 7 12 8 16 9 13 10 17 11 31 12
REMARK SMILES IDX 14 13 18 14 30 15 32 16 19 17 29 18 21 19 20 20 28 21 22 22
REMARK SMILES IDX 25 23 23 24 26 25 27 26 8 27 9 28 10 29 2 30 3 31 1 32 24 33
REMARK H PARENT 24 34
REMARK Flexibility Score: inf
ROOT
ATOM      1  C   UNL     1      19.285 -24.350 -28.350  1.00  0.00     0.014 C 
ATOM      2  C   UNL     1      18.852 -25.032 -29.663  1.00  0.00     0.014 C 
ATOM      3  C   UNL     1      18.219 -23.234 -28.098  1.00  0.00     0.012 C 
ATOM      4  C   UNL     1      20.726 -23.803 -28.479  1.00  0.00     0.014 C 
ATOM      5  C   UNL     1      17.374 -24.750 -29.812  1.00  0.00     0.009 C 
ATOM      6  C   UNL     1      18.742 -21.754 -27.895  1.00  0.00     0.000 C 
ATOM      7  C   UNL     1      17.140 -23.367 -29.216  1.00  0.00     0.018 C 
ATOM      8  C   UNL     1      20.837 -22.521 -29.287  1.00  0.00     0.008 C 
ATOM      9  C   UNL     1      18.814 -21.403 -26.377  1.00  0.00     0.005 C 
ATOM     10  C   UNL     1      20.010 -21.276 -28.760  1.00  0.00    -0.024 C 
ATOM     11  C   UNL     1      20.203 -21.548 -25.793  1.00  0.00     0.005 C 
ATOM     12  C   UNL     1      20.885 -20.155 -27.943  1.00  0.00    -0.024 C 
ATOM     13  C   UNL     1      19.460 -20.609 -30.081  1.00  0.00     0.012 C 
ATOM     14  C   UNL     1      21.223 -20.567 -26.433  1.00  0.00     0.002 C 
ATOM     15  C   UNL     1      22.221 -19.738 -28.651  1.00  0.00     0.008 C 
ATOM     16  C   UNL     1      20.028 -18.812 -27.917  1.00  0.00     0.012 C 
ATOM     17  C   UNL     1      22.749 -20.853 -26.001  1.00  0.00    -0.026 C 
ATOM     18  C   UNL     1      23.131 -18.921 -27.731  1.00  0.00     0.005 C 
ATOM     19  C   UNL     1      23.209 -22.279 -26.391  1.00  0.00     0.010 C 
ATOM     20  C   UNL     1      22.780 -20.766 -24.433  1.00  0.00     0.012 C 
ATOM     21  C   UNL     1      23.763 -19.786 -26.607  1.00  0.00     0.003 C 
ATOM     22  C   UNL     1      24.635 -22.630 -25.925  1.00  0.00     0.033 C 
ATOM     23  C   UNL     1      25.227 -20.321 -26.980  1.00  0.00    -0.006 C 
ATOM     24  C   UNL     1      25.671 -21.485 -26.033  1.00  0.00     0.120 C 
ATOM     25  C   UNL     1      25.387 -20.826 -28.447  1.00  0.00     0.014 C 
ATOM     26  C   UNL     1      26.250 -19.155 -26.819  1.00  0.00     0.014 C 
ENDROOT
BRANCH   1  27
ATOM     27  C   UNL     1      19.242 -25.401 -27.242  1.00  0.00     0.048 C 
ATOM     28  O   UNL     1      19.501 -26.616 -27.477  1.00  0.00    -0.550 OA
ATOM     29  O   UNL     1      18.878 -25.046 -25.946  1.00  0.00    -0.550 OA
ENDBRANCH   1  27
BRANCH   7  30
ATOM     30  C   UNL     1      15.679 -23.170 -28.771  1.00  0.00    -0.077 C 
ATOM     31  C   UNL     1      15.323 -22.953 -27.300  1.00  0.00     0.039 C 
ATOM     32  C   UNL     1      14.639 -23.342 -29.616  1.00  0.00     0.008 C 
ENDBRANCH   7  30
BRANCH  24  33
ATOM     33  O   UNL     1      25.956 -20.992 -24.742  1.00  0.00    -0.393 OA
ATOM     34  H   UNL     1      25.128 -20.584 -24.370  1.00  0.00     0.210 HD
ENDBRANCH  24  33
TORSDOF 3
ENDMDL
MODEL 3
REMARK VINA RESULT:    -7.627      2.408      7.409
REMARK INTER + INTRA:          -9.426
REMARK INTER:                  -8.784
REMARK INTRA:                  -0.641
REMARK UNBOUND:                -0.683
REMARK SMILES C=C(C)[C@@H]1CC[C@@]2(C(=O)[O-])CC[C@@]3(C)[C@H](CC[C@H]4[C@@]5(C)CC[C@H](O)C(C)(C)[C@H]5CC[C@]43C)[C@@H]12
REMARK SMILES IDX 7 1 6 2 33 3 11 4 5 5 15 6 4 7 12 8 16 9 13 10 17 11 31 12
REMARK SMILES IDX 14 13 18 14 30 15 32 16 19 17 29 18 21 19 20 20 28 21 22 22
REMARK SMILES IDX 25 23 23 24 26 25 27 26 8 27 9 28 10 29 2 30 3 31 1 32 24 33
REMARK H PARENT 24 34
REMARK Flexibility Score: inf
ROOT
ATOM      1  C   UNL     1      18.042 -24.582 -28.754  1.00  0.00     0.014 C 
ATOM      2  C   UNL     1      18.075 -26.116 -28.597  1.00  0.00     0.014 C 
ATOM      3  C   UNL     1      18.362 -24.319 -30.262  1.00  0.00     0.012 C 
ATOM      4  C   UNL     1      19.053 -23.923 -27.788  1.00  0.00     0.014 C 
ATOM      5  C   UNL     1      17.828 -26.682 -29.977  1.00  0.00     0.009 C 
ATOM      6  C   UNL     1      19.566 -23.348 -30.596  1.00  0.00     0.000 C 
ATOM      7  C   UNL     1      18.470 -25.709 -30.959  1.00  0.00     0.018 C 
ATOM      8  C   UNL     1      20.502 -24.027 -28.234  1.00  0.00     0.008 C 
ATOM      9  C   UNL     1      19.039 -21.915 -30.920  1.00  0.00     0.005 C 
ATOM     10  C   UNL     1      20.859 -23.392 -29.642  1.00  0.00    -0.024 C 
ATOM     11  C   UNL     1      19.123 -20.965 -29.744  1.00  0.00     0.005 C 
ATOM     12  C   UNL     1      21.588 -21.925 -29.577  1.00  0.00    -0.024 C 
ATOM     13  C   UNL     1      21.876 -24.424 -30.268  1.00  0.00     0.012 C 
ATOM     14  C   UNL     1      20.585 -20.711 -29.287  1.00  0.00     0.002 C 
ATOM     15  C   UNL     1      22.775 -21.838 -28.555  1.00  0.00     0.008 C 
ATOM     16  C   UNL     1      22.279 -21.677 -30.992  1.00  0.00     0.012 C 
ATOM     17  C   UNL     1      20.693 -19.893 -27.903  1.00  0.00    -0.026 C 
ATOM     18  C   UNL     1      23.232 -20.396 -28.322  1.00  0.00     0.005 C 
ATOM     19  C   UNL     1      19.991 -20.627 -26.734  1.00  0.00     0.010 C 
ATOM     20  C   UNL     1      19.924 -18.544 -28.134  1.00  0.00     0.012 C 
ATOM     21  C   UNL     1      22.200 -19.578 -27.499  1.00  0.00     0.003 C 
ATOM     22  C   UNL     1      19.994 -19.846 -25.407  1.00  0.00     0.033 C 
ATOM     23  C   UNL     1      22.531 -19.554 -25.931  1.00  0.00    -0.006 C 
ATOM     24  C   UNL     1      21.300 -19.076 -25.092  1.00  0.00     0.120 C 
ATOM     25  C   UNL     1      22.999 -20.919 -25.338  1.00  0.00     0.014 C 
ATOM     26  C   UNL     1      23.703 -18.557 -25.675  1.00  0.00     0.014 C 
ENDROOT
BRANCH   1  27
ATOM     27  C   UNL     1      16.631 -24.108 -28.408  1.00  0.00     0.048 C 
ATOM     28  O   UNL     1      15.748 -23.963 -29.301  1.00  0.00    -0.550 OA
ATOM     29  O   UNL     1      16.297 -23.788 -27.095  1.00  0.00    -0.550 OA
ENDBRANCH   1  27
BRANCH   7  30
ATOM     30  C   UNL     1      17.844 -25.810 -32.363  1.00  0.00    -0.077 C 
ATOM     31  C   UNL     1      16.387 -25.418 -32.609  1.00  0.00     0.039 C 
ATOM     32  C   UNL     1      18.485 -26.396 -33.397  1.00  0.00     0.008 C 
ENDBRANCH   7  30
BRANCH  24  33
ATOM     33  O   UNL     1      21.082 -17.694 -25.276  1.00  0.00    -0.393 OA
ATOM     34  H   UNL     1      21.061 -17.505 -26.252  1.00  0.00     0.210 HD
ENDBRANCH  24  33
TORSDOF 3
ENDMDL
MODEL 4
REMARK VINA RESULT:    -7.585      2.299      4.191
REMARK INTER + INTRA:          -9.377
REMARK INTER:                  -8.699
REMARK INTRA:                  -0.678
REMARK UNBOUND:                -0.683
REMARK SMILES C=C(C)[C@@H]1CC[C@@]2(C(=O)[O-])CC[C@@]3(C)[C@H](CC[C@H]4[C@@]5(C)CC[C@H](O)C(C)(C)[C@H]5CC[C@]43C)[C@@H]12
REMARK SMILES IDX 7 1 6 2 33 3 11 4 5 5 15 6 4 7 12 8 16 9 13 10 17 11 31 12
REMARK SMILES IDX 14 13 18 14 30 15 32 16 19 17 29 18 21 19 20 20 28 21 22 22
REMARK SMILES IDX 25 23 23 24 26 25 27 26 8 27 9 28 10 29 2 30 3 31 1 32 24 33
REMARK H PARENT 24 34
REMARK Flexibility Score: inf
ROOT
ATOM      1  C   UNL     1      20.304 -22.382 -29.005  1.00  0.00     0.014 C 
ATOM      2  C   UNL     1      21.652 -22.537 -28.272  1.00  0.00     0.014 C 
ATOM      3  C   UNL     1      19.214 -22.638 -27.914  1.00  0.00     0.012 C 
ATOM      4  C   UNL     1      20.225 -23.367 -30.195  1.00  0.00     0.014 C 
ATOM      5  C   UNL     1      21.361 -22.294 -26.808  1.00  0.00     0.009 C 
ATOM      6  C   UNL     1      18.131 -23.755 -28.208  1.00  0.00     0.000 C 
ATOM      7  C   UNL     1      19.957 -22.832 -26.557  1.00  0.00     0.018 C 
ATOM      8  C   UNL     1      19.945 -24.806 -29.796  1.00  0.00     0.008 C 
ATOM      9  C   UNL     1      16.812 -23.111 -28.736  1.00  0.00     0.005 C 
ATOM     10  C   UNL     1      18.602 -25.073 -28.997  1.00  0.00    -0.024 C 
ATOM     11  C   UNL     1      16.685 -23.155 -30.244  1.00  0.00     0.005 C 
ATOM     12  C   UNL     1      17.373 -25.691 -29.890  1.00  0.00    -0.024 C 
ATOM     13  C   UNL     1      19.018 -26.149 -27.918  1.00  0.00     0.012 C 
ATOM     14  C   UNL     1      16.616 -24.606 -30.793  1.00  0.00     0.002 C 
ATOM     15  C   UNL     1      17.782 -26.896 -30.806  1.00  0.00     0.008 C 
ATOM     16  C   UNL     1      16.318 -26.320 -28.874  1.00  0.00     0.012 C 
ATOM     17  C   UNL     1      16.714 -24.691 -32.400  1.00  0.00    -0.026 C 
ATOM     18  C   UNL     1      16.691 -27.247 -31.820  1.00  0.00     0.005 C 
ATOM     19  C   UNL     1      18.031 -24.080 -32.939  1.00  0.00     0.010 C 
ATOM     20  C   UNL     1      15.534 -23.815 -32.953  1.00  0.00     0.012 C 
ATOM     21  C   UNL     1      16.562 -26.180 -32.940  1.00  0.00     0.003 C 
ATOM     22  C   UNL     1      18.134 -24.062 -34.475  1.00  0.00     0.033 C 
ATOM     23  C   UNL     1      17.399 -26.553 -34.256  1.00  0.00    -0.006 C 
ATOM     24  C   UNL     1      17.574 -25.314 -35.194  1.00  0.00     0.120 C 
ATOM     25  C   UNL     1      18.818 -27.141 -33.987  1.00  0.00     0.014 C 
ATOM     26  C   UNL     1      16.629 -27.652 -35.051  1.00  0.00     0.014 C 
ENDROOT
BRANCH   1  27
ATOM     27  C   UNL     1      20.220 -20.950 -29.530  1.00  0.00     0.048 C 
ATOM     28  O   UNL     1      21.251 -20.227 -29.637  1.00  0.00    -0.550 OA
ATOM     29  O   UNL     1      18.990 -20.394 -29.871  1.00  0.00    -0.550 OA
ENDBRANCH   1  27
BRANCH   7  30
ATOM     30  C   UNL     1      19.300 -22.176 -25.328  1.00  0.00    -0.077 C 
ATOM     31  C   UNL     1      18.512 -23.006 -24.315  1.00  0.00     0.039 C 
ATOM     32  C   UNL     1      19.246 -20.835 -25.170  1.00  0.00     0.008 C 
ENDBRANCH   7  30
BRANCH  24  33
ATOM     33  O   UNL     1      16.351 -24.985 -35.816  1.00  0.00    -0.393 OA
ATOM     34  H   UNL     1      15.739 -24.607 -35.128  1.00  0.00     0.210 HD
ENDBRANCH  24  33
TORSDOF 3
ENDMDL
MODEL 5
REMARK VINA RESULT:    -7.551      1.686      7.266
REMARK INTER + INTRA:          -9.338
REMARK INTER:                  -8.744
REMARK INTRA:                  -0.593
REMARK UNBOUND:                -0.683
REMARK SMILES C=C(C)[C@@H]1CC[C@@]2(C(=O)[O-])CC[C@@]3(C)[C@H](CC[C@H]4[C@@]5(C)CC[C@H](O)C(C)(C)[C@H]5CC[C@]43C)[C@@H]12
REMARK SMILES IDX 7 1 6 2 33 3 11 4 5 5 15 6 4 7 12 8 16 9 13 10 17 11 31 12
REMARK SMILES IDX 14 13 18 14 30 15 32 16 19 17 29 18 21 19 20 20 28 21 22 22
REMARK SMILES IDX 25 23 23 24 26 25 27 26 8 27 9 28 10 29 2 30 3 31 1 32 24 33
REMARK H PARENT 24 34
REMARK Flexibility Score: inf
ROOT
ATOM      1  C   UNL     1      17.846 -23.991 -30.582  1.00  0.00     0.014 C 
ATOM      2  C   UNL     1      16.353 -24.022 -30.967  1.00  0.00     0.014 C 
ATOM      3  C   UNL     1      17.985 -25.007 -29.402  1.00  0.00     0.012 C 
ATOM      4  C   UNL     1      18.272 -22.552 -30.207  1.00  0.00     0.014 C 
ATOM      5  C   UNL     1      15.825 -25.353 -30.480  1.00  0.00     0.009 C 
ATOM      6  C   UNL     1      18.634 -24.482 -28.057  1.00  0.00     0.000 C 
ATOM      7  C   UNL     1      16.591 -25.676 -29.203  1.00  0.00     0.018 C 
ATOM      8  C   UNL     1      17.815 -22.105 -28.829  1.00  0.00     0.008 C 
ATOM      9  C   UNL     1      20.141 -24.879 -27.986  1.00  0.00     0.005 C 
ATOM     10  C   UNL     1      18.309 -22.976 -27.600  1.00  0.00    -0.024 C 
ATOM     11  C   UNL     1      21.075 -23.762 -28.402  1.00  0.00     0.005 C 
ATOM     12  C   UNL     1      19.562 -22.338 -26.756  1.00  0.00    -0.024 C 
ATOM     13  C   UNL     1      17.049 -23.028 -26.650  1.00  0.00     0.012 C 
ATOM     14  C   UNL     1      20.987 -22.530 -27.461  1.00  0.00     0.002 C 
ATOM     15  C   UNL     1      19.393 -20.821 -26.394  1.00  0.00     0.008 C 
ATOM     16  C   UNL     1      19.602 -23.070 -25.341  1.00  0.00     0.012 C 
ATOM     17  C   UNL     1      21.792 -21.245 -28.007  1.00  0.00    -0.026 C 
ATOM     18  C   UNL     1      20.690 -20.204 -25.869  1.00  0.00     0.005 C 
ATOM     19  C   UNL     1      21.277 -20.777 -29.391  1.00  0.00     0.010 C 
ATOM     20  C   UNL     1      23.279 -21.713 -28.198  1.00  0.00     0.012 C 
ATOM     21  C   UNL     1      21.752 -20.024 -26.988  1.00  0.00     0.003 C 
ATOM     22  C   UNL     1      22.071 -19.603 -29.994  1.00  0.00     0.033 C 
ATOM     23  C   UNL     1      21.738 -18.555 -27.630  1.00  0.00    -0.006 C 
ATOM     24  C   UNL     1      22.517 -18.515 -28.986  1.00  0.00     0.120 C 
ATOM     25  C   UNL     1      20.318 -17.965 -27.889  1.00  0.00     0.014 C 
ATOM     26  C   UNL     1      22.435 -17.565 -26.646  1.00  0.00     0.014 C 
ENDROOT
BRANCH   1  27
ATOM     27  C   UNL     1      18.650 -24.454 -31.795  1.00  0.00     0.048 C 
ATOM     28  O   UNL     1      19.278 -25.551 -31.789  1.00  0.00    -0.550 OA
ATOM     29  O   UNL     1      18.739 -23.654 -32.931  1.00  0.00    -0.550 OA
ENDBRANCH   1  27
BRANCH   7  30
ATOM     30  C   UNL     1      16.604 -27.187 -28.905  1.00  0.00    -0.077 C 
ATOM     31  C   UNL     1      17.881 -27.892 -28.450  1.00  0.00     0.039 C 
ATOM     32  C   UNL     1      15.550 -27.985 -29.183  1.00  0.00     0.008 C 
ENDBRANCH   7  30
BRANCH  24  33
ATOM     33  O   UNL     1      23.906 -18.628 -28.763  1.00  0.00    -0.393 OA
ATOM     34  H   UNL     1      24.173 -19.575 -28.913  1.00  0.00     0.210 HD
ENDBRANCH  24  33
TORSDOF 3
ENDMDL
MODEL 6
REMARK VINA RESULT:    -7.183      2.456      6.564
REMARK INTER + INTRA:          -8.916
REMARK INTER:                  -8.244
REMARK INTRA:                  -0.672
REMARK UNBOUND:                -0.683
REMARK SMILES C=C(C)[C@@H]1CC[C@@]2(C(=O)[O-])CC[C@@]3(C)[C@H](CC[C@H]4[C@@]5(C)CC[C@H](O)C(C)(C)[C@H]5CC[C@]43C)[C@@H]12
REMARK SMILES IDX 7 1 6 2 33 3 11 4 5 5 15 6 4 7 12 8 16 9 13 10 17 11 31 12
REMARK SMILES IDX 14 13 18 14 30 15 32 16 19 17 29 18 21 19 20 20 28 21 22 22
REMARK SMILES IDX 25 23 23 24 26 25 27 26 8 27 9 28 10 29 2 30 3 31 1 32 24 33
REMARK H PARENT 24 34
REMARK Flexibility Score: inf
ROOT
ATOM      1  C   UNL     1      18.645 -23.585 -27.070  1.00  0.00     0.014 C 
ATOM      2  C   UNL     1      17.335 -23.497 -26.261  1.00  0.00     0.014 C 
ATOM      3  C   UNL     1      19.784 -23.297 -26.038  1.00  0.00     0.012 C 
ATOM      4  C   UNL     1      18.615 -22.583 -28.248  1.00  0.00     0.014 C 
ATOM      5  C   UNL     1      17.719 -23.745 -24.819  1.00  0.00     0.009 C 
ATOM      6  C   UNL     1      20.800 -22.132 -26.377  1.00  0.00     0.000 C 
ATOM      7  C   UNL     1      19.111 -23.152 -24.639  1.00  0.00     0.018 C 
ATOM      8  C   UNL     1      18.857 -21.138 -27.844  1.00  0.00     0.008 C 
ATOM      9  C   UNL     1      22.113 -22.714 -26.988  1.00  0.00     0.005 C 
ATOM     10  C   UNL     1      20.231 -20.825 -27.118  1.00  0.00    -0.024 C 
ATOM     11  C   UNL     1      22.152 -22.645 -28.500  1.00  0.00     0.005 C 
ATOM     12  C   UNL     1      21.381 -20.145 -28.070  1.00  0.00    -0.024 C 
ATOM     13  C   UNL     1      19.833 -19.782 -26.002  1.00  0.00     0.012 C 
ATOM     14  C   UNL     1      22.129 -21.185 -29.030  1.00  0.00     0.002 C 
ATOM     15  C   UNL     1      20.871 -18.947 -28.944  1.00  0.00     0.008 C 
ATOM     16  C   UNL     1      22.465 -19.485 -27.106  1.00  0.00     0.012 C 
ATOM     17  C   UNL     1      21.937 -21.085 -30.627  1.00  0.00    -0.026 C 
ATOM     18  C   UNL     1      21.887 -18.537 -30.011  1.00  0.00     0.005 C 
ATOM     19  C   UNL     1      20.617 -21.744 -31.100  1.00  0.00     0.010 C 
ATOM     20  C   UNL     1      23.119 -21.903 -31.259  1.00  0.00     0.012 C 
ATOM     21  C   UNL     1      21.996 -19.584 -31.153  1.00  0.00     0.003 C 
ATOM     22  C   UNL     1      20.428 -21.747 -32.629  1.00  0.00     0.033 C 
ATOM     23  C   UNL     1      21.071 -19.230 -32.414  1.00  0.00    -0.006 C 
ATOM     24  C   UNL     1      20.894 -20.464 -33.359  1.00  0.00     0.120 C 
ATOM     25  C   UNL     1      19.646 -18.706 -32.056  1.00  0.00     0.014 C 
ATOM     26  C   UNL     1      21.748 -18.090 -33.235  1.00  0.00     0.014 C 
ENDROOT
BRANCH   1  27
ATOM     27  C   UNL     1      18.757 -25.006 -27.621  1.00  0.00     0.048 C 
ATOM     28  O   UNL     1      19.878 -25.577 -27.745  1.00  0.00    -0.550 OA
ATOM     29  O   UNL     1      17.620 -25.694 -28.035  1.00  0.00    -0.550 OA
ENDBRANCH   1  27
BRANCH   7  30
ATOM     30  C   UNL     1      19.863 -23.795 -23.459  1.00  0.00    -0.077 C 
ATOM     31  C   UNL     1      21.119 -23.148 -22.875  1.00  0.00     0.039 C 
ATOM     32  C   UNL     1      19.556 -25.025 -22.994  1.00  0.00     0.008 C 
ENDBRANCH   7  30
BRANCH  24  33
ATOM     33  O   UNL     1      22.092 -20.733 -34.054  1.00  0.00    -0.393 OA
ATOM     34  H   UNL     1      21.890 -21.356 -34.802  1.00  0.00     0.210 HD
ENDBRANCH  24  33
TORSDOF 3
ENDMDL
MODEL 7
REMARK VINA RESULT:    -7.133      2.732      4.272
REMARK INTER + INTRA:          -8.859
REMARK INTER:                  -8.180
REMARK INTRA:                  -0.679
REMARK UNBOUND:                -0.683
REMARK SMILES C=C(C)[C@@H]1CC[C@@]2(C(=O)[O-])CC[C@@]3(C)[C@H](CC[C@H]4[C@@]5(C)CC[C@H](O)C(C)(C)[C@H]5CC[C@]43C)[C@@H]12
REMARK SMILES IDX 7 1 6 2 33 3 11 4 5 5 15 6 4 7 12 8 16 9 13 10 17 11 31 12
REMARK SMILES IDX 14 13 18 14 30 15 32 16 19 17 29 18 21 19 20 20 28 21 22 22
REMARK SMILES IDX 25 23 23 24 26 25 27 26 8 27 9 28 10 29 2 30 3 31 1 32 24 33
REMARK H PARENT 24 34
REMARK Flexibility Score: inf
ROOT
ATOM      1  C   UNL     1      22.310 -20.669 -25.023  1.00  0.00     0.014 C 
ATOM      2  C   UNL     1      22.268 -19.402 -24.144  1.00  0.00     0.014 C 
ATOM      3  C   UNL     1      23.082 -20.246 -26.314  1.00  0.00     0.012 C 
ATOM      4  C   UNL     1      20.875 -21.173 -25.304  1.00  0.00     0.014 C 
ATOM      5  C   UNL     1      23.419 -18.537 -24.607  1.00  0.00     0.009 C 
ATOM      6  C   UNL     1      22.370 -20.490 -27.707  1.00  0.00     0.000 C 
ATOM      7  C   UNL     1      23.558 -18.776 -26.106  1.00  0.00     0.018 C 
ATOM      8  C   UNL     1      20.123 -20.365 -26.347  1.00  0.00     0.008 C 
ATOM      9  C   UNL     1      22.893 -21.805 -28.364  1.00  0.00     0.005 C 
ATOM     10  C   UNL     1      20.779 -20.280 -27.788  1.00  0.00    -0.024 C 
ATOM     11  C   UNL     1      21.978 -22.991 -28.142  1.00  0.00     0.005 C 
ATOM     12  C   UNL     1      20.115 -21.269 -28.914  1.00  0.00    -0.024 C 
ATOM     13  C   UNL     1      20.519 -18.786 -28.227  1.00  0.00     0.012 C 
ATOM     14  C   UNL     1      20.582 -22.797 -28.795  1.00  0.00     0.002 C 
ATOM     15  C   UNL     1      18.548 -21.236 -28.961  1.00  0.00     0.008 C 
ATOM     16  C   UNL     1      20.555 -20.721 -30.345  1.00  0.00     0.012 C 
ATOM     17  C   UNL     1      19.516 -23.932 -28.383  1.00  0.00    -0.026 C 
ATOM     18  C   UNL     1      17.971 -22.369 -29.812  1.00  0.00     0.005 C 
ATOM     19  C   UNL     1      19.280 -23.985 -26.853  1.00  0.00     0.010 C 
ATOM     20  C   UNL     1      20.157 -25.303 -28.803  1.00  0.00     0.012 C 
ATOM     21  C   UNL     1      18.120 -23.755 -29.127  1.00  0.00     0.003 C 
ATOM     22  C   UNL     1      18.331 -25.111 -26.401  1.00  0.00     0.033 C 
ATOM     23  C   UNL     1      16.812 -24.190 -28.308  1.00  0.00    -0.006 C 
ATOM     24  C   UNL     1      17.116 -25.368 -27.326  1.00  0.00     0.120 C 
ATOM     25  C   UNL     1      16.147 -23.049 -27.479  1.00  0.00     0.014 C 
ATOM     26  C   UNL     1      15.722 -24.673 -29.314  1.00  0.00     0.014 C 
ENDROOT
BRANCH   1  27
ATOM     27  C   UNL     1      23.080 -21.743 -24.256  1.00  0.00     0.048 C 
ATOM     28  O   UNL     1      24.135 -22.258 -24.726  1.00  0.00    -0.550 OA
ATOM     29  O   UNL     1      22.611 -22.208 -23.030  1.00  0.00    -0.550 OA
ENDBRANCH   1  27
BRANCH   7  30
ATOM     30  C   UNL     1      24.975 -18.446 -26.612  1.00  0.00    -0.077 C 
ATOM     31  C   UNL     1      26.078 -19.505 -26.619  1.00  0.00     0.039 C 
ATOM     32  C   UNL     1      25.357 -17.187 -26.916  1.00  0.00     0.008 C 
ENDBRANCH   7  30
BRANCH  24  33
ATOM     33  O   UNL     1      17.320 -26.568 -28.039  1.00  0.00    -0.393 OA
ATOM     34  H   UNL     1      18.027 -26.413 -28.722  1.00  0.00     0.210 HD
ENDBRANCH  24  33
TORSDOF 3
ENDMDL
MODEL 8
REMARK VINA RESULT:    -7.133      2.560      7.188
REMARK INTER + INTRA:          -8.858
REMARK INTER:                  -8.178
REMARK INTRA:                  -0.681
REMARK UNBOUND:                -0.683
REMARK SMILES C=C(C)[C@@H]1CC[C@@]2(C(=O)[O-])CC[C@@]3(C)[C@H](CC[C@H]4[C@@]5(C)CC[C@H](O)C(C)(C)[C@H]5CC[C@]43C)[C@@H]12
REMARK SMILES IDX 7 1 6 2 33 3 11 4 5 5 15 6 4 7 12 8 16 9 13 10 17 11 31 12
REMARK SMILES IDX 14 13 18 14 30 15 32 16 19 17 29 18 21 19 20 20 28 21 22 22
REMARK SMILES IDX 25 23 23 24 26 25 27 26 8 27 9 28 10 29 2 30 3 31 1 32 24 33
REMARK H PARENT 24 34
REMARK Flexibility Score: inf
ROOT
ATOM      1  C   UNL     1      16.736 -23.311 -32.651  1.00  0.00     0.014 C 
ATOM      2  C   UNL     1      15.278 -23.259 -33.151  1.00  0.00     0.014 C 
ATOM      3  C   UNL     1      17.160 -24.810 -32.780  1.00  0.00     0.012 C 
ATOM      4  C   UNL     1      16.827 -22.769 -31.205  1.00  0.00     0.014 C 
ATOM      5  C   UNL     1      15.100 -24.469 -34.040  1.00  0.00     0.009 C 
ATOM      6  C   UNL     1      17.722 -25.526 -31.484  1.00  0.00     0.000 C 
ATOM      7  C   UNL     1      15.973 -25.569 -33.446  1.00  0.00     0.018 C 
ATOM      8  C   UNL     1      16.334 -23.738 -30.144  1.00  0.00     0.008 C 
ATOM      9  C   UNL     1      19.282 -25.547 -31.506  1.00  0.00     0.005 C 
ATOM     10  C   UNL     1      17.071 -25.140 -30.067  1.00  0.00    -0.024 C 
ATOM     11  C   UNL     1      19.909 -24.444 -30.680  1.00  0.00     0.005 C 
ATOM     12  C   UNL     1      18.172 -25.281 -28.860  1.00  0.00    -0.024 C 
ATOM     13  C   UNL     1      15.899 -26.161 -29.789  1.00  0.00     0.012 C 
ATOM     14  C   UNL     1      19.572 -24.566 -29.169  1.00  0.00     0.002 C 
ATOM     15  C   UNL     1      17.665 -24.785 -27.461  1.00  0.00     0.008 C 
ATOM     16  C   UNL     1      18.442 -26.836 -28.643  1.00  0.00     0.012 C 
ATOM     17  C   UNL     1      20.028 -23.286 -28.303  1.00  0.00    -0.026 C 
ATOM     18  C   UNL     1      18.801 -24.668 -26.443  1.00  0.00     0.005 C 
ATOM     19  C   UNL     1      19.360 -21.978 -28.796  1.00  0.00     0.010 C 
ATOM     20  C   UNL     1      21.574 -23.134 -28.533  1.00  0.00     0.012 C 
ATOM     21  C   UNL     1      19.743 -23.471 -26.748  1.00  0.00     0.003 C 
ATOM     22  C   UNL     1      19.829 -20.713 -28.053  1.00  0.00     0.033 C 
ATOM     23  C   UNL     1      19.356 -22.149 -25.928  1.00  0.00    -0.006 C 
ATOM     24  C   UNL     1      20.047 -20.880 -26.529  1.00  0.00     0.120 C 
ATOM     25  C   UNL     1      17.828 -21.853 -25.843  1.00  0.00     0.014 C 
ATOM     26  C   UNL     1      19.841 -22.306 -24.454  1.00  0.00     0.014 C 
ENDROOT
BRANCH   1  27
ATOM     27  C   UNL     1      17.576 -22.428 -33.573  1.00  0.00     0.048 C 
ATOM     28  O   UNL     1      18.483 -22.917 -34.305  1.00  0.00    -0.550 OA
ATOM     29  O   UNL     1      17.383 -21.050 -33.599  1.00  0.00    -0.550 OA
ENDBRANCH   1  27
BRANCH   7  30
ATOM     30  C   UNL     1      16.354 -26.631 -34.495  1.00  0.00    -0.077 C 
ATOM     31  C   UNL     1      17.677 -26.552 -35.255  1.00  0.00     0.039 C 
ATOM     32  C   UNL     1      15.484 -27.578 -34.910  1.00  0.00     0.008 C 
ENDBRANCH   7  30
BRANCH  24  33
ATOM     33  O   UNL     1      21.431 -20.893 -26.256  1.00  0.00    -0.393 OA
ATOM     34  H   UNL     1      21.694 -21.818 -26.001  1.00  0.00     0.210 HD
ENDBRANCH  24  33
TORSDOF 3
ENDMDL
MODEL 9
REMARK VINA RESULT:    -7.031      2.944      5.038
REMARK INTER + INTRA:          -8.742
REMARK INTER:                  -8.148
REMARK INTRA:                  -0.594
REMARK UNBOUND:                -0.683
REMARK SMILES C=C(C)[C@@H]1CC[C@@]2(C(=O)[O-])CC[C@@]3(C)[C@H](CC[C@H]4[C@@]5(C)CC[C@H](O)C(C)(C)[C@H]5CC[C@]43C)[C@@H]12
REMARK SMILES IDX 7 1 6 2 33 3 11 4 5 5 15 6 4 7 12 8 16 9 13 10 17 11 31 12
REMARK SMILES IDX 14 13 18 14 30 15 32 16 19 17 29 18 21 19 20 20 28 21 22 22
REMARK SMILES IDX 25 23 23 24 26 25 27 26 8 27 9 28 10 29 2 30 3 31 1 32 24 33
REMARK H PARENT 24 34
REMARK Flexibility Score: inf
ROOT
ATOM      1  C   UNL     1      18.517 -23.503 -26.283  1.00  0.00     0.014 C 
ATOM      2  C   UNL     1      17.988 -22.635 -25.123  1.00  0.00     0.014 C 
ATOM      3  C   UNL     1      20.002 -23.058 -26.483  1.00  0.00     0.012 C 
ATOM      4  C   UNL     1      17.642 -23.305 -27.543  1.00  0.00     0.014 C 
ATOM      5  C   UNL     1      19.207 -22.190 -24.346  1.00  0.00     0.009 C 
ATOM      6  C   UNL     1      20.438 -22.590 -27.931  1.00  0.00     0.000 C 
ATOM      7  C   UNL     1      20.326 -22.018 -25.368  1.00  0.00     0.018 C 
ATOM      8  C   UNL     1      17.899 -22.003 -28.282  1.00  0.00     0.008 C 
ATOM      9  C   UNL     1      21.153 -23.752 -28.688  1.00  0.00     0.005 C 
ATOM     10  C   UNL     1      19.375 -21.765 -28.809  1.00  0.00    -0.024 C 
ATOM     11  C   UNL     1      20.242 -24.498 -29.640  1.00  0.00     0.005 C 
ATOM     12  C   UNL     1      19.595 -22.045 -30.410  1.00  0.00    -0.024 C 
ATOM     13  C   UNL     1      19.623 -20.230 -28.537  1.00  0.00     0.012 C 
ATOM     14  C   UNL     1      19.714 -23.597 -30.789  1.00  0.00     0.002 C 
ATOM     15  C   UNL     1      18.509 -21.394 -31.335  1.00  0.00     0.008 C 
ATOM     16  C   UNL     1      20.949 -21.321 -30.835  1.00  0.00     0.012 C 
ATOM     17  C   UNL     1      18.566 -24.296 -31.678  1.00  0.00    -0.026 C 
ATOM     18  C   UNL     1      18.589 -21.913 -32.772  1.00  0.00     0.005 C 
ATOM     19  C   UNL     1      17.332 -24.695 -30.832  1.00  0.00     0.010 C 
ATOM     20  C   UNL     1      19.196 -25.621 -32.237  1.00  0.00     0.012 C 
ATOM     21  C   UNL     1      18.100 -23.382 -32.895  1.00  0.00     0.003 C 
ATOM     22  C   UNL     1      16.242 -25.443 -31.623  1.00  0.00     0.033 C 
ATOM     23  C   UNL     1      16.559 -23.492 -33.324  1.00  0.00    -0.006 C 
ATOM     24  C   UNL     1      15.992 -24.927 -33.062  1.00  0.00     0.120 C 
ATOM     25  C   UNL     1      15.607 -22.478 -32.619  1.00  0.00     0.014 C 
ATOM     26  C   UNL     1      16.435 -23.200 -34.851  1.00  0.00     0.014 C 
ENDROOT
BRANCH   1  27
ATOM     27  C   UNL     1      18.443 -24.964 -25.842  1.00  0.00     0.048 C 
ATOM     28  O   UNL     1      17.907 -25.295 -24.746  1.00  0.00    -0.550 OA
ATOM     29  O   UNL     1      19.002 -25.968 -26.629  1.00  0.00    -0.550 OA
ENDBRANCH   1  27
BRANCH   7  30
ATOM     30  C   UNL     1      21.719 -22.133 -24.721  1.00  0.00    -0.077 C 
ATOM     31  C   UNL     1      21.879 -22.534 -23.254  1.00  0.00     0.039 C 
ATOM     32  C   UNL     1      22.842 -21.732 -25.354  1.00  0.00     0.008 C 
ENDBRANCH   7  30
BRANCH  24  33
ATOM     33  O   UNL     1      16.528 -25.848 -33.986  1.00  0.00    -0.393 OA
ATOM     34  H   UNL     1      15.860 -26.570 -34.135  1.00  0.00     0.210 HD
ENDBRANCH  24  33
TORSDOF 3
ENDMDL
