MODEL 1
REMARK VINA RESULT:    -3.591      0.000      0.000
REMARK INTER + INTRA:          -4.601
REMARK INTER:                  -4.431
REMARK INTRA:                  -0.170
REMARK UNBOUND:                -0.170
REMARK SMILES CCCCCC(=O)[O-]
REMARK SMILES IDX 4 1 5 2 6 3 7 4 8 5 3 6 2 7 1 8
REMARK H PARENT
REMARK Flexibility Score: inf
ROOT
ATOM      1  C   UNL     1      -9.288 -11.115  14.284  1.00  0.00     0.006 C 
ENDROOT
BRANCH   1   2
ATOM      2  C   UNL     1      -7.979 -10.458  13.818  1.00  0.00     0.053 C 
BRANCH   2   3
ATOM      3  C   UNL     1      -6.798 -10.947  14.599  1.00  0.00     0.041 C 
ATOM      4  O   UNL     1      -6.837 -10.979  15.857  1.00  0.00    -0.550 OA
ATOM      5  O   UNL     1      -5.641 -11.339  13.937  1.00  0.00    -0.550 OA
ENDBRANCH   2   3
ENDBRANCH   1   2
BRANCH   1   6
ATOM      6  C   UNL     1      -9.344 -12.639  14.067  1.00  0.00     0.000 C 
BRANCH   6   7
ATOM      7  C   UNL     1      -9.763 -13.404  15.331  1.00  0.00    -0.003 C 
ATOM      8  C   UNL     1     -10.990 -12.768  15.978  1.00  0.00     0.004 C 
ENDBRANCH   6   7
ENDBRANCH   1   6
TORSDOF 4
ENDMDL
MODEL 2
REMARK VINA RESULT:    -3.504      1.284      1.727
REMARK INTER + INTRA:          -4.493
REMARK INTER:                  -4.407
REMARK INTRA:                  -0.086
REMARK UNBOUND:                -0.170
REMARK SMILES CCCCCC(=O)[O-]
REMARK SMILES IDX 4 1 5 2 6 3 7 4 8 5 3 6 2 7 1 8
REMARK H PARENT
REMARK Flexibility Score: inf
ROOT
ATOM      1  C   UNL     1      -9.045 -11.346  14.816  1.00  0.00     0.006 C 
ENDROOT
BRANCH   1   2
ATOM      2  C   UNL     1      -7.559 -10.954  14.804  1.00  0.00     0.053 C 
BRANCH   2   3
ATOM      3  C   UNL     1      -6.794 -11.694  13.750  1.00  0.00     0.041 C 
ATOM      4  O   UNL     1      -5.546 -11.553  13.655  1.00  0.00    -0.550 OA
ATOM      5  O   UNL     1      -7.464 -12.516  12.853  1.00  0.00    -0.550 OA
ENDBRANCH   2   3
ENDBRANCH   1   2
BRANCH   1   6
ATOM      6  C   UNL     1      -9.405 -12.431  15.848  1.00  0.00     0.000 C 
BRANCH   6   7
ATOM      7  C   UNL     1     -10.846 -12.941  15.698  1.00  0.00    -0.003 C 
ATOM      8  C   UNL     1     -10.883 -14.272  14.953  1.00  0.00     0.004 C 
ENDBRANCH   6   7
ENDBRANCH   1   6
TORSDOF 4
ENDMDL
MODEL 3
REMARK VINA RESULT:    -3.430      5.278      6.706
REMARK INTER + INTRA:          -4.402
REMARK INTER:                  -4.244
REMARK INTRA:                  -0.158
REMARK UNBOUND:                -0.170
REMARK SMILES CCCCCC(=O)[O-]
REMARK SMILES IDX 4 1 5 2 6 3 7 4 8 5 3 6 2 7 1 8
REMARK H PARENT
REMARK Flexibility Score: inf
ROOT
ATOM      1  C   UNL     1     -13.247 -14.253  14.168  1.00  0.00     0.006 C 
ENDROOT
BRANCH   1   2
ATOM      2  C   UNL     1     -14.585 -14.117  13.426  1.00  0.00     0.053 C 
BRANCH   2   3
ATOM      3  C   UNL     1     -15.050 -12.695  13.365  1.00  0.00     0.041 C 
ATOM      4  O   UNL     1     -14.418 -11.849  12.681  1.00  0.00    -0.550 OA
ATOM      5  O   UNL     1     -16.167 -12.297  14.091  1.00  0.00    -0.550 OA
ENDBRANCH   2   3
ENDBRANCH   1   2
BRANCH   1   6
ATOM      6  C   UNL     1     -13.206 -13.541  15.534  1.00  0.00     0.000 C 
BRANCH   6   7
ATOM      7  C   UNL     1     -11.820 -12.970  15.864  1.00  0.00    -0.003 C 
ATOM      8  C   UNL     1     -10.718 -13.760  15.165  1.00  0.00     0.004 C 
ENDBRANCH   6   7
ENDBRANCH   1   6
TORSDOF 4
ENDMDL
MODEL 4
REMARK VINA RESULT:    -3.369      2.124      3.034
REMARK INTER + INTRA:          -4.326
REMARK INTER:                  -4.093
REMARK INTRA:                  -0.233
REMARK UNBOUND:                -0.170
REMARK SMILES CCCCCC(=O)[O-]
REMARK SMILES IDX 4 1 5 2 6 3 7 4 8 5 3 6 2 7 1 8
REMARK H PARENT
REMARK Flexibility Score: inf
ROOT
ATOM      1  C   UNL     1     -11.025 -12.765  15.870  1.00  0.00     0.006 C 
ENDROOT
BRANCH   1   2
ATOM      2  C   UNL     1      -9.490 -12.703  15.899  1.00  0.00     0.053 C 
BRANCH   2   3
ATOM      3  C   UNL     1      -8.929 -12.114  14.642  1.00  0.00     0.041 C 
ATOM      4  O   UNL     1      -7.982 -12.684  14.040  1.00  0.00    -0.550 OA
ATOM      5  O   UNL     1      -9.434 -10.916  14.150  1.00  0.00    -0.550 OA
ENDBRANCH   2   3
ENDBRANCH   1   2
BRANCH   1   6
ATOM      6  C   UNL     1     -11.597 -13.938  15.052  1.00  0.00     0.000 C 
BRANCH   6   7
ATOM      7  C   UNL     1     -12.685 -13.498  14.062  1.00  0.00    -0.003 C 
ATOM      8  C   UNL     1     -12.791 -11.976  14.002  1.00  0.00     0.004 C 
ENDBRANCH   6   7
ENDBRANCH   1   6
TORSDOF 4
ENDMDL
MODEL 5
REMARK VINA RESULT:    -3.365      6.654      8.001
REMARK INTER + INTRA:          -4.321
REMARK INTER:                  -4.145
REMARK INTRA:                  -0.176
REMARK UNBOUND:                -0.170
REMARK SMILES CCCCCC(=O)[O-]
REMARK SMILES IDX 4 1 5 2 6 3 7 4 8 5 3 6 2 7 1 8
REMARK H PARENT
REMARK Flexibility Score: inf
ROOT
ATOM      1  C   UNL     1     -14.876 -13.190  13.188  1.00  0.00     0.006 C 
ENDROOT
BRANCH   1   2
ATOM      2  C   UNL     1     -16.232 -12.765  13.773  1.00  0.00     0.053 C 
BRANCH   2   3
ATOM      3  C   UNL     1     -16.795 -13.803  14.694  1.00  0.00     0.041 C 
ATOM      4  O   UNL     1     -16.469 -13.818  15.910  1.00  0.00    -0.550 OA
ATOM      5  O   UNL     1     -17.658 -14.775  14.202  1.00  0.00    -0.550 OA
ENDBRANCH   2   3
ENDBRANCH   1   2
BRANCH   1   6
ATOM      6  C   UNL     1     -13.733 -12.191  13.449  1.00  0.00     0.000 C 
BRANCH   6   7
ATOM      7  C   UNL     1     -12.549 -12.824  14.195  1.00  0.00    -0.003 C 
ATOM      8  C   UNL     1     -12.895 -14.228  14.684  1.00  0.00     0.004 C 
ENDBRANCH   6   7
ENDBRANCH   1   6
TORSDOF 4
ENDMDL
MODEL 6
REMARK VINA RESULT:    -3.337      4.620      5.967
REMARK INTER + INTRA:          -4.287
REMARK INTER:                  -4.208
REMARK INTRA:                  -0.079
REMARK UNBOUND:                -0.170
REMARK SMILES CCCCCC(=O)[O-]
REMARK SMILES IDX 4 1 5 2 6 3 7 4 8 5 3 6 2 7 1 8
REMARK H PARENT
REMARK Flexibility Score: inf
ROOT
ATOM      1  C   UNL     1     -11.894 -13.892  15.009  1.00  0.00     0.006 C 
ENDROOT
BRANCH   1   2
ATOM      2  C   UNL     1     -13.428 -13.980  15.020  1.00  0.00     0.053 C 
BRANCH   2   3
ATOM      3  C   UNL     1     -14.018 -13.644  13.685  1.00  0.00     0.041 C 
ATOM      4  O   UNL     1     -14.019 -12.455  13.272  1.00  0.00    -0.550 OA
ATOM      5  O   UNL     1     -14.595 -14.642  12.909  1.00  0.00    -0.550 OA
ENDBRANCH   2   3
ENDBRANCH   1   2
BRANCH   1   6
ATOM      6  C   UNL     1     -11.313 -12.842  15.974  1.00  0.00     0.000 C 
BRANCH   6   7
ATOM      7  C   UNL     1      -9.789 -12.701  15.852  1.00  0.00    -0.003 C 
ATOM      8  C   UNL     1      -9.415 -11.721  14.743  1.00  0.00     0.004 C 
ENDBRANCH   6   7
ENDBRANCH   1   6
TORSDOF 4
ENDMDL
MODEL 7
REMARK VINA RESULT:    -3.335      3.720      5.006
REMARK INTER + INTRA:          -4.284
REMARK INTER:                  -4.133
REMARK INTRA:                  -0.151
REMARK UNBOUND:                -0.170
REMARK SMILES CCCCCC(=O)[O-]
REMARK SMILES IDX 4 1 5 2 6 3 7 4 8 5 3 6 2 7 1 8
REMARK H PARENT
REMARK Flexibility Score: inf
ROOT
ATOM      1  C   UNL     1     -10.834 -12.795  15.880  1.00  0.00     0.006 C 
ENDROOT
BRANCH   1   2
ATOM      2  C   UNL     1     -11.207 -13.857  14.834  1.00  0.00     0.053 C 
BRANCH   2   3
ATOM      3  C   UNL     1     -12.492 -13.530  14.136  1.00  0.00     0.041 C 
ATOM      4  O   UNL     1     -13.406 -14.391  14.052  1.00  0.00    -0.550 OA
ATOM      5  O   UNL     1     -12.666 -12.281  13.552  1.00  0.00    -0.550 OA
ENDBRANCH   2   3
ENDBRANCH   1   2
BRANCH   1   6
ATOM      6  C   UNL     1      -9.452 -12.153  15.664  1.00  0.00     0.000 C 
BRANCH   6   7
ATOM      7  C   UNL     1      -9.226 -11.700  14.214  1.00  0.00    -0.003 C 
ATOM      8  C   UNL     1      -8.727 -10.259  14.159  1.00  0.00     0.004 C 
ENDBRANCH   6   7
ENDBRANCH   1   6
TORSDOF 4
ENDMDL
MODEL 8
REMARK VINA RESULT:    -3.320      6.374      7.955
REMARK INTER + INTRA:          -4.266
REMARK INTER:                  -4.106
REMARK INTRA:                  -0.160
REMARK UNBOUND:                -0.170
REMARK SMILES CCCCCC(=O)[O-]
REMARK SMILES IDX 4 1 5 2 6 3 7 4 8 5 3 6 2 7 1 8
REMARK H PARENT
REMARK Flexibility Score: inf
ROOT
ATOM      1  C   UNL     1     -14.649 -13.303  16.371  1.00  0.00     0.006 C 
ENDROOT
BRANCH   1   2
ATOM      2  C   UNL     1     -16.132 -13.673  16.216  1.00  0.00     0.053 C 
BRANCH   2   3
ATOM      3  C   UNL     1     -16.595 -13.553  14.796  1.00  0.00     0.041 C 
ATOM      4  O   UNL     1     -16.565 -12.439  14.211  1.00  0.00    -0.550 OA
ATOM      5  O   UNL     1     -17.088 -14.668  14.129  1.00  0.00    -0.550 OA
ENDBRANCH   2   3
ENDBRANCH   1   2
BRANCH   1   6
ATOM      6  C   UNL     1     -13.743 -13.837  15.246  1.00  0.00     0.000 C 
BRANCH   6   7
ATOM      7  C   UNL     1     -12.640 -12.845  14.849  1.00  0.00    -0.003 C 
ATOM      8  C   UNL     1     -13.063 -12.003  13.649  1.00  0.00     0.004 C 
ENDBRANCH   6   7
ENDBRANCH   1   6
TORSDOF 4
ENDMDL
MODEL 9
REMARK VINA RESULT:    -3.290      5.508      6.611
REMARK INTER + INTRA:          -4.229
REMARK INTER:                  -4.079
REMARK INTRA:                  -0.149
REMARK UNBOUND:                -0.170
REMARK SMILES CCCCCC(=O)[O-]
REMARK SMILES IDX 4 1 5 2 6 3 7 4 8 5 3 6 2 7 1 8
REMARK H PARENT
REMARK Flexibility Score: inf
ROOT
ATOM      1  C   UNL     1     -13.080 -11.624  13.655  1.00  0.00     0.006 C 
ENDROOT
BRANCH   1   2
ATOM      2  C   UNL     1     -14.286 -12.004  12.781  1.00  0.00     0.053 C 
BRANCH   2   3
ATOM      3  C   UNL     1     -15.318 -12.767  13.552  1.00  0.00     0.041 C 
ATOM      4  O   UNL     1     -15.775 -13.850  13.102  1.00  0.00    -0.550 OA
ATOM      5  O   UNL     1     -15.800 -12.264  14.755  1.00  0.00    -0.550 OA
ENDBRANCH   2   3
ENDBRANCH   1   2
BRANCH   1   6
ATOM      6  C   UNL     1     -12.222 -12.821  14.104  1.00  0.00     0.000 C 
BRANCH   6   7
ATOM      7  C   UNL     1     -11.988 -12.849  15.621  1.00  0.00    -0.003 C 
ATOM      8  C   UNL     1     -10.506 -12.700  15.952  1.00  0.00     0.004 C 
ENDBRANCH   6   7
ENDBRANCH   1   6
TORSDOF 4
ENDMDL
