MODEL 1
REMARK VINA RESULT:    -4.321      0.000      0.000
REMARK INTER + INTRA:          -5.023
REMARK INTER:                  -5.205
REMARK INTRA:                   0.182
REMARK UNBOUND:                 0.182
REMARK SMILES CC[C@H](C)[C@H]([NH3+])C(=O)[O-]
REMARK SMILES IDX 3 1 4 2 5 3 6 4 7 8 8 9 9 10 2 11 1 12
REMARK H PARENT 6 5 6 6 6 7
REMARK Flexibility Score: inf
ROOT
ATOM      1  C   UNL     1       7.994  25.090  34.759  1.00  0.00     0.050 C 
ATOM      2  C   UNL     1       7.066  23.875  34.583  1.00  0.00     0.014 C 
ENDROOT
BRANCH   1   3
ATOM      3  C   UNL     1       9.273  24.939  33.867  1.00  0.00     0.230 C 
BRANCH   3   4
ATOM      4  N   UNL     1      10.143  26.125  33.912  1.00  0.00    -0.350 N 
ATOM      5  H   UNL     1      10.712  26.173  33.035  1.00  0.00     0.345 HD
ATOM      6  H   UNL     1      10.806  26.062  34.716  1.00  0.00     0.345 HD
ATOM      7  H   UNL     1       9.584  27.004  33.993  1.00  0.00     0.345 HD
ENDBRANCH   3   4
BRANCH   3   8
ATOM      8  C   UNL     1       8.928  24.566  32.443  1.00  0.00     0.099 C 
ATOM      9  O   UNL     1       9.731  23.875  31.763  1.00  0.00    -0.544 OA
ATOM     10  O   UNL     1       7.745  25.005  31.856  1.00  0.00    -0.544 OA
ENDBRANCH   3   8
ENDBRANCH   1   3
BRANCH   1  11
ATOM     11  C   UNL     1       8.262  25.315  36.269  1.00  0.00     0.006 C 
ATOM     12  C   UNL     1       9.129  24.230  36.908  1.00  0.00     0.004 C 
ENDBRANCH   1  11
TORSDOF 4
ENDMDL
MODEL 2
REMARK VINA RESULT:    -4.259      2.856      4.106
REMARK INTER + INTRA:          -4.949
REMARK INTER:                  -4.942
REMARK INTRA:                  -0.007
REMARK UNBOUND:                 0.182
REMARK SMILES CC[C@H](C)[C@H]([NH3+])C(=O)[O-]
REMARK SMILES IDX 3 1 4 2 5 3 6 4 7 8 8 9 9 10 2 11 1 12
REMARK H PARENT 6 5 6 6 6 7
REMARK Flexibility Score: inf
ROOT
ATOM      1  C   UNL     1       8.387  25.206  33.698  1.00  0.00     0.050 C 
ATOM      2  C   UNL     1       9.819  25.695  33.977  1.00  0.00     0.014 C 
ENDROOT
BRANCH   1   3
ATOM      3  C   UNL     1       7.946  24.151  34.768  1.00  0.00     0.230 C 
BRANCH   3   4
ATOM      4  N   UNL     1       6.501  23.876  34.739  1.00  0.00    -0.350 N 
ATOM      5  H   UNL     1       6.206  23.460  35.652  1.00  0.00     0.345 HD
ATOM      6  H   UNL     1       6.275  23.186  33.988  1.00  0.00     0.345 HD
ATOM      7  H   UNL     1       5.951  24.750  34.580  1.00  0.00     0.345 HD
ENDBRANCH   3   4
BRANCH   3   8
ATOM      8  C   UNL     1       8.403  24.532  36.158  1.00  0.00     0.099 C 
ATOM      9  O   UNL     1       7.813  25.452  36.782  1.00  0.00    -0.544 OA
ATOM     10  O   UNL     1       9.493  23.902  36.750  1.00  0.00    -0.544 OA
ENDBRANCH   3   8
ENDBRANCH   1   3
BRANCH   1  11
ATOM     11  C   UNL     1       8.283  24.738  32.223  1.00  0.00     0.006 C 
ATOM     12  C   UNL     1       9.460  23.875  31.769  1.00  0.00     0.004 C 
ENDBRANCH   1  11
TORSDOF 4
ENDMDL
MODEL 3
REMARK VINA RESULT:    -3.779      2.565      3.763
REMARK INTER + INTRA:          -4.370
REMARK INTER:                  -4.410
REMARK INTRA:                   0.040
REMARK UNBOUND:                 0.182
REMARK SMILES CC[C@H](C)[C@H]([NH3+])C(=O)[O-]
REMARK SMILES IDX 3 1 4 2 5 3 6 4 7 8 8 9 9 10 2 11 1 12
REMARK H PARENT 6 5 6 6 6 7
REMARK Flexibility Score: inf
ROOT
ATOM      1  C   UNL     1       8.346  24.052  33.827  1.00  0.00     0.050 C 
ATOM      2  C   UNL     1       6.925  23.876  33.263  1.00  0.00     0.014 C 
ENDROOT
BRANCH   1   3
ATOM      3  C   UNL     1       8.444  25.366  34.673  1.00  0.00     0.230 C 
BRANCH   3   4
ATOM      4  N   UNL     1       9.714  26.081  34.473  1.00  0.00    -0.350 N 
ATOM      5  H   UNL     1       9.518  27.058  34.154  1.00  0.00     0.345 HD
ATOM      6  H   UNL     1      10.284  25.615  33.732  1.00  0.00     0.345 HD
ATOM      7  H   UNL     1      10.269  26.127  35.357  1.00  0.00     0.345 HD
ENDBRANCH   3   4
BRANCH   3   8
ATOM      8  C   UNL     1       8.184  25.113  36.141  1.00  0.00     0.099 C 
ATOM      9  O   UNL     1       7.001  25.010  36.560  1.00  0.00    -0.544 OA
ATOM     10  O   UNL     1       9.235  25.024  37.048  1.00  0.00    -0.544 OA
ENDBRANCH   3   8
ENDBRANCH   1   3
BRANCH   1  11
ATOM     11  C   UNL     1       9.374  23.928  32.673  1.00  0.00     0.006 C 
ATOM     12  C   UNL     1       9.039  24.791  31.457  1.00  0.00     0.004 C 
ENDBRANCH   1  11
TORSDOF 4
ENDMDL
MODEL 4
REMARK VINA RESULT:    -1.695     14.301     14.835
REMARK INTER + INTRA:          -1.860
REMARK INTER:                  -1.990
REMARK INTRA:                   0.130
REMARK UNBOUND:                 0.182
REMARK SMILES CC[C@H](C)[C@H]([NH3+])C(=O)[O-]
REMARK SMILES IDX 3 1 4 2 5 3 6 4 7 8 8 9 9 10 2 11 1 12
REMARK H PARENT 6 5 6 6 6 7
REMARK Flexibility Score: inf
ROOT
ATOM      1  C   UNL     1       9.884  38.829  35.158  1.00  0.00     0.050 C 
ATOM      2  C   UNL     1      10.205  38.072  33.858  1.00  0.00     0.014 C 
ENDROOT
BRANCH   1   3
ATOM      3  C   UNL     1       9.186  40.196  34.842  1.00  0.00     0.230 C 
BRANCH   3   4
ATOM      4  N   UNL     1       8.777  40.923  36.054  1.00  0.00    -0.350 N 
ATOM      5  H   UNL     1       9.099  41.916  35.990  1.00  0.00     0.345 HD
ATOM      6  H   UNL     1       9.220  40.500  36.901  1.00  0.00     0.345 HD
ATOM      7  H   UNL     1       7.739  40.917  36.169  1.00  0.00     0.345 HD
ENDBRANCH   3   4
BRANCH   3   8
ATOM      8  C   UNL     1       8.026  40.029  33.886  1.00  0.00     0.099 C 
ATOM      9  O   UNL     1       6.868  39.824  34.335  1.00  0.00    -0.544 OA
ATOM     10  O   UNL     1       8.223  40.065  32.510  1.00  0.00    -0.544 OA
ENDBRANCH   3   8
ENDBRANCH   1   3
BRANCH   1  11
ATOM     11  C   UNL     1      11.166  38.925  36.025  1.00  0.00     0.006 C 
ATOM     12  C   UNL     1      11.588  37.594  36.647  1.00  0.00     0.004 C 
ENDBRANCH   1  11
TORSDOF 4
ENDMDL
MODEL 5
REMARK VINA RESULT:    -1.420     14.850     15.420
REMARK INTER + INTRA:          -1.529
REMARK INTER:                  -2.155
REMARK INTRA:                   0.626
REMARK UNBOUND:                 0.182
REMARK SMILES CC[C@H](C)[C@H]([NH3+])C(=O)[O-]
REMARK SMILES IDX 3 1 4 2 5 3 6 4 7 8 8 9 9 10 2 11 1 12
REMARK H PARENT 6 5 6 6 6 7
REMARK Flexibility Score: inf
ROOT
ATOM      1  C   UNL     1       9.455  39.889  34.047  1.00  0.00     0.050 C 
ATOM      2  C   UNL     1       9.762  41.396  34.105  1.00  0.00     0.014 C 
ENDROOT
BRANCH   1   3
ATOM      3  C   UNL     1       7.964  39.646  33.631  1.00  0.00     0.230 C 
BRANCH   3   4
ATOM      4  N   UNL     1       7.625  40.260  32.337  1.00  0.00    -0.350 N 
ATOM      5  H   UNL     1       7.996  41.238  32.308  1.00  0.00     0.345 HD
ATOM      6  H   UNL     1       6.589  40.310  32.216  1.00  0.00     0.345 HD
ATOM      7  H   UNL     1       8.040  39.724  31.542  1.00  0.00     0.345 HD
ENDBRANCH   3   4
BRANCH   3   8
ATOM      8  C   UNL     1       6.999  40.077  34.711  1.00  0.00     0.099 C 
ATOM      9  O   UNL     1       7.327  40.984  35.520  1.00  0.00    -0.544 OA
ATOM     10  O   UNL     1       5.759  39.461  34.849  1.00  0.00    -0.544 OA
ENDBRANCH   3   8
ENDBRANCH   1   3
BRANCH   1  11
ATOM     11  C   UNL     1       9.887  39.226  35.380  1.00  0.00     0.006 C 
ATOM     12  C   UNL     1      10.827  38.035  35.198  1.00  0.00     0.004 C 
ENDBRANCH   1  11
TORSDOF 4
ENDMDL
