MODEL 1
REMARK VINA RESULT:    -3.737      0.000      0.000
REMARK INTER + INTRA:          -3.737
REMARK INTER:                  -3.737
REMARK INTRA:                   0.000
REMARK UNBOUND:                 0.000
REMARK SMILES CC1(C)[C@H]2CC[C@]1(C)C(=O)C2
REMARK SMILES IDX 1 1 2 2 4 3 5 4 6 5 7 6 9 7 10 8 11 9 8 10 3 11
REMARK H PARENT
REMARK Flexibility Score: inf
ROOT
ATOM      1  C   UNL     1     -16.877   1.681  33.025  1.00  0.00     0.012 C 
ATOM      2  C   UNL     1     -17.532   0.300  32.725  1.00  0.00    -0.020 C 
ATOM      3  C   UNL     1     -19.070   0.287  32.905  1.00  0.00     0.003 C 
ATOM      4  C   UNL     1     -19.551   1.273  31.805  1.00  0.00     0.005 C 
ATOM      5  C   UNL     1     -18.557   1.012  30.645  1.00  0.00     0.015 C 
ATOM      6  C   UNL     1     -17.630  -0.079  31.232  1.00  0.00     0.032 C 
ATOM      7  C   UNL     1     -18.492  -1.314  31.314  1.00  0.00     0.139 C 
ATOM      8  O   UNL     1     -18.458  -2.267  30.550  1.00  0.00    -0.299 OA
ATOM      9  C   UNL     1     -19.478  -1.136  32.428  1.00  0.00     0.080 C 
ATOM     10  C   UNL     1     -16.303  -0.265  30.487  1.00  0.00     0.020 C 
ATOM     11  C   UNL     1     -16.790  -0.744  33.616  1.00  0.00     0.012 C 
ENDROOT
TORSDOF 0
ENDMDL
MODEL 2
REMARK VINA RESULT:    -3.709      1.471      2.375
REMARK INTER + INTRA:          -3.709
REMARK INTER:                  -3.709
REMARK INTRA:                   0.000
REMARK UNBOUND:                 0.000
REMARK SMILES CC1(C)[C@H]2CC[C@]1(C)C(=O)C2
REMARK SMILES IDX 1 1 2 2 4 3 5 4 6 5 7 6 9 7 10 8 11 9 8 10 3 11
REMARK H PARENT
REMARK Flexibility Score: inf
ROOT
ATOM      1  C   UNL     1     -19.207   1.820  31.786  1.00  0.00     0.012 C 
ATOM      2  C   UNL     1     -17.899   1.126  32.271  1.00  0.00    -0.020 C 
ATOM      3  C   UNL     1     -18.144  -0.091  33.196  1.00  0.00     0.003 C 
ATOM      4  C   UNL     1     -18.875  -1.091  32.259  1.00  0.00     0.005 C 
ATOM      5  C   UNL     1     -18.193  -0.845  30.889  1.00  0.00     0.015 C 
ATOM      6  C   UNL     1     -17.170   0.269  31.215  1.00  0.00     0.032 C 
ATOM      7  C   UNL     1     -16.128  -0.404  32.074  1.00  0.00     0.139 C 
ATOM      8  O   UNL     1     -15.016  -0.758  31.709  1.00  0.00    -0.299 OA
ATOM      9  C   UNL     1     -16.718  -0.666  33.425  1.00  0.00     0.080 C 
ATOM     10  C   UNL     1     -16.619   1.014  29.993  1.00  0.00     0.020 C 
ATOM     11  C   UNL     1     -17.024   2.241  32.924  1.00  0.00     0.012 C 
ENDROOT
TORSDOF 0
ENDMDL
MODEL 3
REMARK VINA RESULT:    -3.655      9.288     10.628
REMARK INTER + INTRA:          -3.655
REMARK INTER:                  -3.655
REMARK INTRA:                   0.000
REMARK UNBOUND:                 0.000
REMARK SMILES CC1(C)[C@H]2CC[C@]1(C)C(=O)C2
REMARK SMILES IDX 1 1 2 2 4 3 5 4 6 5 7 6 9 7 10 8 11 9 8 10 3 11
REMARK H PARENT
REMARK Flexibility Score: inf
ROOT
ATOM      1  C   UNL     1     -20.808  -2.867  19.984  1.00  0.00     0.012 C 
ATOM      2  C   UNL     1     -20.185  -3.337  21.332  1.00  0.00    -0.020 C 
ATOM      3  C   UNL     1     -18.871  -2.605  21.701  1.00  0.00     0.003 C 
ATOM      4  C   UNL     1     -19.340  -1.137  21.898  1.00  0.00     0.005 C 
ATOM      5  C   UNL     1     -20.744  -1.304  22.532  1.00  0.00     0.015 C 
ATOM      6  C   UNL     1     -20.903  -2.842  22.606  1.00  0.00     0.032 C 
ATOM      7  C   UNL     1     -19.923  -3.279  23.667  1.00  0.00     0.139 C 
ATOM      8  O   UNL     1     -20.200  -3.600  24.812  1.00  0.00    -0.299 OA
ATOM      9  C   UNL     1     -18.536  -3.153  23.117  1.00  0.00     0.080 C 
ATOM     10  C   UNL     1     -22.341  -3.330  22.813  1.00  0.00     0.020 C 
ATOM     11  C   UNL     1     -20.030  -4.886  21.232  1.00  0.00     0.012 C 
ENDROOT
TORSDOF 0
ENDMDL
MODEL 4
REMARK VINA RESULT:    -3.607      1.420      2.450
REMARK INTER + INTRA:          -3.607
REMARK INTER:                  -3.607
REMARK INTRA:                   0.000
REMARK UNBOUND:                 0.000
REMARK SMILES CC1(C)[C@H]2CC[C@]1(C)C(=O)C2
REMARK SMILES IDX 1 1 2 2 4 3 5 4 6 5 7 6 9 7 10 8 11 9 8 10 3 11
REMARK H PARENT
REMARK Flexibility Score: inf
ROOT
ATOM      1  C   UNL     1     -16.385  -0.632  33.492  1.00  0.00     0.012 C 
ATOM      2  C   UNL     1     -16.898  -0.416  32.037  1.00  0.00    -0.020 C 
ATOM      3  C   UNL     1     -18.062  -1.356  31.639  1.00  0.00     0.003 C 
ATOM      4  C   UNL     1     -19.201  -0.915  32.599  1.00  0.00     0.005 C 
ATOM      5  C   UNL     1     -18.987   0.615  32.712  1.00  0.00     0.015 C 
ATOM      6  C   UNL     1     -17.750   0.852  31.813  1.00  0.00     0.032 C 
ATOM      7  C   UNL     1     -18.242   0.612  30.408  1.00  0.00     0.139 C 
ATOM      8  O   UNL     1     -18.503   1.474  29.581  1.00  0.00    -0.299 OA
ATOM      9  C   UNL     1     -18.463  -0.857  30.223  1.00  0.00     0.080 C 
ATOM     10  C   UNL     1     -17.044   2.196  32.032  1.00  0.00     0.020 C 
ATOM     11  C   UNL     1     -15.651  -0.536  31.107  1.00  0.00     0.012 C 
ENDROOT
TORSDOF 0
ENDMDL
MODEL 5
REMARK VINA RESULT:    -3.597      0.949      2.831
REMARK INTER + INTRA:          -3.597
REMARK INTER:                  -3.597
REMARK INTRA:                   0.000
REMARK UNBOUND:                 0.000
REMARK SMILES CC1(C)[C@H]2CC[C@]1(C)C(=O)C2
REMARK SMILES IDX 1 1 2 2 4 3 5 4 6 5 7 6 9 7 10 8 11 9 8 10 3 11
REMARK H PARENT
REMARK Flexibility Score: inf
ROOT
ATOM      1  C   UNL     1     -18.135   2.089  33.206  1.00  0.00     0.012 C 
ATOM      2  C   UNL     1     -17.978   1.096  32.016  1.00  0.00    -0.020 C 
ATOM      3  C   UNL     1     -16.512   0.688  31.730  1.00  0.00     0.003 C 
ATOM      4  C   UNL     1     -16.112  -0.076  33.023  1.00  0.00     0.005 C 
ATOM      5  C   UNL     1     -17.421  -0.807  33.414  1.00  0.00     0.015 C 
ATOM      6  C   UNL     1     -18.403  -0.360  32.304  1.00  0.00     0.032 C 
ATOM      7  C   UNL     1     -17.910  -1.047  31.054  1.00  0.00     0.139 C 
ATOM      8  O   UNL     1     -18.407  -2.035  30.535  1.00  0.00    -0.299 OA
ATOM      9  C   UNL     1     -16.644  -0.383  30.611  1.00  0.00     0.080 C 
ATOM     10  C   UNL     1     -19.884  -0.588  32.627  1.00  0.00     0.020 C 
ATOM     11  C   UNL     1     -18.693   1.753  30.794  1.00  0.00     0.012 C 
ENDROOT
TORSDOF 0
ENDMDL
MODEL 6
REMARK VINA RESULT:    -3.597      5.867      7.151
REMARK INTER + INTRA:          -3.597
REMARK INTER:                  -3.597
REMARK INTRA:                   0.000
REMARK UNBOUND:                 0.000
REMARK SMILES CC1(C)[C@H]2CC[C@]1(C)C(=O)C2
REMARK SMILES IDX 1 1 2 2 4 3 5 4 6 5 7 6 9 7 10 8 11 9 8 10 3 11
REMARK H PARENT
REMARK Flexibility Score: inf
ROOT
ATOM      1  C   UNL     1     -13.663   2.505  27.909  1.00  0.00     0.012 C 
ATOM      2  C   UNL     1     -14.859   3.463  28.193  1.00  0.00    -0.020 C 
ATOM      3  C   UNL     1     -14.431   4.870  28.677  1.00  0.00     0.003 C 
ATOM      4  C   UNL     1     -13.669   5.437  27.448  1.00  0.00     0.005 C 
ATOM      5  C   UNL     1     -14.463   4.859  26.249  1.00  0.00     0.015 C 
ATOM      6  C   UNL     1     -15.569   4.029  26.944  1.00  0.00     0.032 C 
ATOM      7  C   UNL     1     -16.477   5.052  27.580  1.00  0.00     0.139 C 
ATOM      8  O   UNL     1     -17.569   5.403  27.159  1.00  0.00    -0.299 OA
ATOM      9  C   UNL     1     -15.774   5.649  28.759  1.00  0.00     0.080 C 
ATOM     10  C   UNL     1     -16.273   3.011  26.039  1.00  0.00     0.020 C 
ATOM     11  C   UNL     1     -15.796   2.716  29.192  1.00  0.00     0.012 C 
ENDROOT
TORSDOF 0
ENDMDL
MODEL 7
REMARK VINA RESULT:    -3.596      1.809      3.290
REMARK INTER + INTRA:          -3.596
REMARK INTER:                  -3.596
REMARK INTRA:                   0.000
REMARK UNBOUND:                 0.000
REMARK SMILES CC1(C)[C@H]2CC[C@]1(C)C(=O)C2
REMARK SMILES IDX 1 1 2 2 4 3 5 4 6 5 7 6 9 7 10 8 11 9 8 10 3 11
REMARK H PARENT
REMARK Flexibility Score: inf
ROOT
ATOM      1  C   UNL     1     -19.086  -1.189  29.478  1.00  0.00     0.012 C 
ATOM      2  C   UNL     1     -19.046  -0.888  31.006  1.00  0.00    -0.020 C 
ATOM      3  C   UNL     1     -17.710  -1.279  31.685  1.00  0.00     0.003 C 
ATOM      4  C   UNL     1     -16.689  -0.328  31.002  1.00  0.00     0.005 C 
ATOM      5  C   UNL     1     -17.505   0.975  30.804  1.00  0.00     0.015 C 
ATOM      6  C   UNL     1     -18.889   0.599  31.388  1.00  0.00     0.032 C 
ATOM      7  C   UNL     1     -18.661   0.483  32.875  1.00  0.00     0.139 C 
ATOM      8  O   UNL     1     -18.980   1.309  33.717  1.00  0.00    -0.299 OA
ATOM      9  C   UNL     1     -17.880  -0.766  33.143  1.00  0.00     0.080 C 
ATOM     10  C   UNL     1     -20.034   1.533  30.980  1.00  0.00     0.020 C 
ATOM     11  C   UNL     1     -20.291  -1.593  31.628  1.00  0.00     0.012 C 
ENDROOT
TORSDOF 0
ENDMDL
MODEL 8
REMARK VINA RESULT:    -3.575      1.510      2.579
REMARK INTER + INTRA:          -3.575
REMARK INTER:                  -3.575
REMARK INTRA:                   0.000
REMARK UNBOUND:                 0.000
REMARK SMILES CC1(C)[C@H]2CC[C@]1(C)C(=O)C2
REMARK SMILES IDX 1 1 2 2 4 3 5 4 6 5 7 6 9 7 10 8 11 9 8 10 3 11
REMARK H PARENT
REMARK Flexibility Score: inf
ROOT
ATOM      1  C   UNL     1     -19.288   2.612  31.416  1.00  0.00     0.012 C 
ATOM      2  C   UNL     1     -19.072   1.293  32.217  1.00  0.00    -0.020 C 
ATOM      3  C   UNL     1     -19.322   0.010  31.386  1.00  0.00     0.003 C 
ATOM      4  C   UNL     1     -18.208   0.080  30.305  1.00  0.00     0.005 C 
ATOM      5  C   UNL     1     -17.015   0.701  31.075  1.00  0.00     0.015 C 
ATOM      6  C   UNL     1     -17.600   0.916  32.492  1.00  0.00     0.032 C 
ATOM      7  C   UNL     1     -17.769  -0.474  33.054  1.00  0.00     0.139 C 
ATOM      8  O   UNL     1     -17.041  -1.010  33.876  1.00  0.00    -0.299 OA
ATOM      9  C   UNL     1     -18.919  -1.135  32.358  1.00  0.00     0.080 C 
ATOM     10  C   UNL     1     -16.802   1.879  33.377  1.00  0.00     0.020 C 
ATOM     11  C   UNL     1     -19.966   1.398  33.490  1.00  0.00     0.012 C 
ENDROOT
TORSDOF 0
ENDMDL
MODEL 9
REMARK VINA RESULT:    -3.520      1.583      2.705
REMARK INTER + INTRA:          -3.520
REMARK INTER:                  -3.520
REMARK INTRA:                   0.000
REMARK UNBOUND:                 0.000
REMARK SMILES CC1(C)[C@H]2CC[C@]1(C)C(=O)C2
REMARK SMILES IDX 1 1 2 2 4 3 5 4 6 5 7 6 9 7 10 8 11 9 8 10 3 11
REMARK H PARENT
REMARK Flexibility Score: inf
ROOT
ATOM      1  C   UNL     1     -18.961   0.688  29.069  1.00  0.00     0.012 C 
ATOM      2  C   UNL     1     -18.880   0.519  30.615  1.00  0.00    -0.020 C 
ATOM      3  C   UNL     1     -20.139  -0.132  31.239  1.00  0.00     0.003 C 
ATOM      4  C   UNL     1     -20.130  -1.557  30.619  1.00  0.00     0.005 C 
ATOM      5  C   UNL     1     -18.619  -1.891  30.540  1.00  0.00     0.015 C 
ATOM      6  C   UNL     1     -17.958  -0.614  31.113  1.00  0.00     0.032 C 
ATOM      7  C   UNL     1     -18.302  -0.629  32.582  1.00  0.00     0.139 C 
ATOM      8  O   UNL     1     -17.549  -0.939  33.493  1.00  0.00    -0.299 OA
ATOM      9  C   UNL     1     -19.755  -0.303  32.736  1.00  0.00     0.080 C 
ATOM     10  C   UNL     1     -16.465  -0.467  30.799  1.00  0.00     0.020 C 
ATOM     11  C   UNL     1     -18.552   1.929  31.198  1.00  0.00     0.012 C 
ENDROOT
TORSDOF 0
ENDMDL
