MODEL 1
REMARK VINA RESULT:    -3.295      0.000      0.000
REMARK INTER + INTRA:          -3.915
REMARK INTER:                  -3.873
REMARK INTRA:                  -0.042
REMARK UNBOUND:                -0.042
REMARK SMILES CCCCC(=O)[O-]
REMARK SMILES IDX 4 1 5 2 6 3 7 4 3 5 2 6 1 7
REMARK H PARENT
REMARK Flexibility Score: inf
ROOT
ATOM      1  C   UNL     1       7.748  57.044  18.092  1.00  0.00     0.053 C 
ENDROOT
BRANCH   1   2
ATOM      2  C   UNL     1       7.920  58.471  18.505  1.00  0.00     0.041 C 
ATOM      3  O   UNL     1       7.215  58.951  19.433  1.00  0.00    -0.550 OA
ATOM      4  O   UNL     1       8.891  59.258  17.900  1.00  0.00    -0.550 OA
ENDBRANCH   1   2
BRANCH   1   5
ATOM      5  C   UNL     1       6.635  56.918  17.047  1.00  0.00     0.006 C 
BRANCH   5   6
ATOM      6  C   UNL     1       5.468  56.083  17.585  1.00  0.00    -0.003 C 
ATOM      7  C   UNL     1       4.436  55.811  16.494  1.00  0.00     0.004 C 
ENDBRANCH   5   6
ENDBRANCH   1   5
TORSDOF 3
ENDMDL
MODEL 2
REMARK VINA RESULT:    -3.254      3.188      3.980
REMARK INTER + INTRA:          -3.866
REMARK INTER:                  -3.808
REMARK INTRA:                  -0.058
REMARK UNBOUND:                -0.042
REMARK SMILES CCCCC(=O)[O-]
REMARK SMILES IDX 4 1 5 2 6 3 7 4 3 5 2 6 1 7
REMARK H PARENT
REMARK Flexibility Score: inf
ROOT
ATOM      1  C   UNL     1      10.088  59.376  17.562  1.00  0.00     0.053 C 
ENDROOT
BRANCH   1   2
ATOM      2  C   UNL     1      10.734  60.406  16.691  1.00  0.00     0.041 C 
ATOM      3  O   UNL     1      11.731  61.052  17.107  1.00  0.00    -0.550 OA
ATOM      4  O   UNL     1      10.265  60.619  15.401  1.00  0.00    -0.550 OA
ENDBRANCH   1   2
BRANCH   1   5
ATOM      5  C   UNL     1       9.247  58.412  16.719  1.00  0.00     0.006 C 
BRANCH   5   6
ATOM      6  C   UNL     1       7.983  57.984  17.472  1.00  0.00    -0.003 C 
ATOM      7  C   UNL     1       7.825  58.765  18.774  1.00  0.00     0.004 C 
ENDBRANCH   5   6
ENDBRANCH   1   5
TORSDOF 3
ENDMDL
MODEL 3
REMARK VINA RESULT:    -3.232      3.612      4.596
REMARK INTER + INTRA:          -3.840
REMARK INTER:                  -3.765
REMARK INTRA:                  -0.075
REMARK UNBOUND:                -0.042
REMARK SMILES CCCCC(=O)[O-]
REMARK SMILES IDX 4 1 5 2 6 3 7 4 3 5 2 6 1 7
REMARK H PARENT
REMARK Flexibility Score: inf
ROOT
ATOM      1  C   UNL     1       3.286  55.845  17.469  1.00  0.00     0.053 C 
ENDROOT
BRANCH   1   2
ATOM      2  C   UNL     1       4.422  55.915  16.499  1.00  0.00     0.041 C 
ATOM      3  O   UNL     1       5.317  56.792  16.633  1.00  0.00    -0.550 OA
ATOM      4  O   UNL     1       4.520  54.983  15.474  1.00  0.00    -0.550 OA
ENDBRANCH   1   2
BRANCH   1   5
ATOM      5  C   UNL     1       3.231  57.115  18.323  1.00  0.00     0.006 C 
BRANCH   5   6
ATOM      6  C   UNL     1       1.969  57.929  18.016  1.00  0.00    -0.003 C 
ATOM      7  C   UNL     1       0.890  57.056  17.382  1.00  0.00     0.004 C 
ENDBRANCH   5   6
ENDBRANCH   1   5
TORSDOF 3
ENDMDL
MODEL 4
REMARK VINA RESULT:    -3.229      4.112      5.352
REMARK INTER + INTRA:          -3.836
REMARK INTER:                  -3.735
REMARK INTRA:                  -0.101
REMARK UNBOUND:                -0.042
REMARK SMILES CCCCC(=O)[O-]
REMARK SMILES IDX 4 1 5 2 6 3 7 4 3 5 2 6 1 7
REMARK H PARENT
REMARK Flexibility Score: inf
ROOT
ATOM      1  C   UNL     1       2.616  55.139  15.788  1.00  0.00     0.053 C 
ENDROOT
BRANCH   1   2
ATOM      2  C   UNL     1       3.968  55.217  16.423  1.00  0.00     0.041 C 
ATOM      3  O   UNL     1       4.604  56.304  16.427  1.00  0.00    -0.550 OA
ATOM      4  O   UNL     1       4.506  54.102  17.053  1.00  0.00    -0.550 OA
ENDBRANCH   1   2
BRANCH   1   5
ATOM      5  C   UNL     1       1.518  55.209  16.854  1.00  0.00     0.006 C 
BRANCH   5   6
ATOM      6  C   UNL     1       0.828  56.577  16.843  1.00  0.00    -0.003 C 
ATOM      7  C   UNL     1       1.431  57.507  17.892  1.00  0.00     0.004 C 
ENDBRANCH   5   6
ENDBRANCH   1   5
TORSDOF 3
ENDMDL
MODEL 5
REMARK VINA RESULT:    -3.225      4.011      5.231
REMARK INTER + INTRA:          -3.832
REMARK INTER:                  -3.742
REMARK INTRA:                  -0.089
REMARK UNBOUND:                -0.042
REMARK SMILES CCCCC(=O)[O-]
REMARK SMILES IDX 4 1 5 2 6 3 7 4 3 5 2 6 1 7
REMARK H PARENT
REMARK Flexibility Score: inf
ROOT
ATOM      1  C   UNL     1       2.711  55.194  15.778  1.00  0.00     0.053 C 
ENDROOT
BRANCH   1   2
ATOM      2  C   UNL     1       4.042  55.214  16.458  1.00  0.00     0.041 C 
ATOM      3  O   UNL     1       4.486  54.173  17.013  1.00  0.00    -0.550 OA
ATOM      4  O   UNL     1       4.816  56.367  16.439  1.00  0.00    -0.550 OA
ENDBRANCH   1   2
BRANCH   1   5
ATOM      5  C   UNL     1       1.580  55.195  16.810  1.00  0.00     0.006 C 
BRANCH   5   6
ATOM      6  C   UNL     1       0.851  56.543  16.826  1.00  0.00    -0.003 C 
ATOM      7  C   UNL     1       1.434  57.472  17.887  1.00  0.00     0.004 C 
ENDBRANCH   5   6
ENDBRANCH   1   5
TORSDOF 3
ENDMDL
MODEL 6
REMARK VINA RESULT:    -3.190      8.481      9.802
REMARK INTER + INTRA:          -3.791
REMARK INTER:                  -3.699
REMARK INTRA:                  -0.092
REMARK UNBOUND:                -0.042
REMARK SMILES CCCCC(=O)[O-]
REMARK SMILES IDX 4 1 5 2 6 3 7 4 3 5 2 6 1 7
REMARK H PARENT
REMARK Flexibility Score: inf
ROOT
ATOM      1  C   UNL     1      -2.640  55.808  17.802  1.00  0.00     0.053 C 
ENDROOT
BRANCH   1   2
ATOM      2  C   UNL     1      -3.580  56.956  17.989  1.00  0.00     0.041 C 
ATOM      3  O   UNL     1      -3.560  57.929  17.189  1.00  0.00    -0.550 OA
ATOM      4  O   UNL     1      -4.513  56.930  19.018  1.00  0.00    -0.550 OA
ENDBRANCH   1   2
BRANCH   1   5
ATOM      5  C   UNL     1      -1.375  56.008  18.641  1.00  0.00     0.006 C 
BRANCH   5   6
ATOM      6  C   UNL     1      -0.115  55.861  17.781  1.00  0.00    -0.003 C 
ATOM      7  C   UNL     1       0.031  57.032  16.813  1.00  0.00     0.004 C 
ENDBRANCH   5   6
ENDBRANCH   1   5
TORSDOF 3
ENDMDL
MODEL 7
REMARK VINA RESULT:    -3.113      2.720      4.096
REMARK INTER + INTRA:          -3.700
REMARK INTER:                  -3.601
REMARK INTRA:                  -0.099
REMARK UNBOUND:                -0.042
REMARK SMILES CCCCC(=O)[O-]
REMARK SMILES IDX 4 1 5 2 6 3 7 4 3 5 2 6 1 7
REMARK H PARENT
REMARK Flexibility Score: inf
ROOT
ATOM      1  C   UNL     1       5.105  55.855  17.569  1.00  0.00     0.053 C 
ENDROOT
BRANCH   1   2
ATOM      2  C   UNL     1       3.812  56.559  17.832  1.00  0.00     0.041 C 
ATOM      3  O   UNL     1       3.766  57.513  18.652  1.00  0.00    -0.550 OA
ATOM      4  O   UNL     1       2.667  56.193  17.136  1.00  0.00    -0.550 OA
ENDBRANCH   1   2
BRANCH   1   5
ATOM      5  C   UNL     1       6.156  56.840  17.050  1.00  0.00     0.006 C 
BRANCH   5   6
ATOM      6  C   UNL     1       7.372  56.889  17.982  1.00  0.00    -0.003 C 
ATOM      7  C   UNL     1       7.450  58.224  18.717  1.00  0.00     0.004 C 
ENDBRANCH   5   6
ENDBRANCH   1   5
TORSDOF 3
ENDMDL
MODEL 8
REMARK VINA RESULT:    -3.073      5.084      5.818
REMARK INTER + INTRA:          -3.653
REMARK INTER:                  -3.517
REMARK INTRA:                  -0.137
REMARK UNBOUND:                -0.042
REMARK SMILES CCCCC(=O)[O-]
REMARK SMILES IDX 4 1 5 2 6 3 7 4 3 5 2 6 1 7
REMARK H PARENT
REMARK Flexibility Score: inf
ROOT
ATOM      1  C   UNL     1       2.852  56.881  18.306  1.00  0.00     0.053 C 
ENDROOT
BRANCH   1   2
ATOM      2  C   UNL     1       2.569  55.678  19.148  1.00  0.00     0.041 C 
ATOM      3  O   UNL     1       1.963  55.801  20.246  1.00  0.00    -0.550 OA
ATOM      4  O   UNL     1       2.931  54.414  18.700  1.00  0.00    -0.550 OA
ENDBRANCH   1   2
BRANCH   1   5
ATOM      5  C   UNL     1       1.547  57.589  17.927  1.00  0.00     0.006 C 
BRANCH   5   6
ATOM      6  C   UNL     1       0.715  56.732  16.967  1.00  0.00    -0.003 C 
ATOM      7  C   UNL     1      -0.687  56.490  17.519  1.00  0.00     0.004 C 
ENDBRANCH   5   6
ENDBRANCH   1   5
TORSDOF 3
ENDMDL
MODEL 9
REMARK VINA RESULT:    -3.053      6.159      7.429
REMARK INTER + INTRA:          -3.630
REMARK INTER:                  -3.536
REMARK INTRA:                  -0.093
REMARK UNBOUND:                -0.042
REMARK SMILES CCCCC(=O)[O-]
REMARK SMILES IDX 4 1 5 2 6 3 7 4 3 5 2 6 1 7
REMARK H PARENT
REMARK Flexibility Score: inf
ROOT
ATOM      1  C   UNL     1      -0.346  55.986  19.405  1.00  0.00     0.053 C 
ENDROOT
BRANCH   1   2
ATOM      2  C   UNL     1       0.341  55.058  20.354  1.00  0.00     0.041 C 
ATOM      3  O   UNL     1      -0.322  54.193  20.986  1.00  0.00    -0.550 OA
ATOM      4  O   UNL     1       1.720  55.114  20.506  1.00  0.00    -0.550 OA
ENDBRANCH   1   2
BRANCH   1   5
ATOM      5  C   UNL     1      -0.054  55.584  17.956  1.00  0.00     0.006 C 
BRANCH   5   6
ATOM      6  C   UNL     1       0.356  56.802  17.120  1.00  0.00    -0.003 C 
ATOM      7  C   UNL     1       1.439  57.614  17.824  1.00  0.00     0.004 C 
ENDBRANCH   5   6
ENDBRANCH   1   5
TORSDOF 3
ENDMDL
