MODEL 1
REMARK VINA RESULT:    -3.581      0.000      0.000
REMARK INTER + INTRA:          -3.800
REMARK INTER:                  -3.791
REMARK INTRA:                  -0.010
REMARK UNBOUND:                -0.010
REMARK SMILES O=Cc1ccccc1
REMARK SMILES IDX 6 1 5 2 4 3 3 4 8 5 7 6 2 7 1 8
REMARK H PARENT
REMARK Flexibility Score: inf
ROOT
ATOM      1  C   UNL     1      18.424 -42.515  26.462  1.00  0.00     0.000 A 
ATOM      2  C   UNL     1      18.273 -41.323  27.176  1.00  0.00     0.001 A 
ATOM      3  C   UNL     1      18.268 -40.098  26.500  1.00  0.00     0.011 A 
ATOM      4  C   UNL     1      18.415 -40.058  25.104  1.00  0.00     0.014 A 
ATOM      5  C   UNL     1      18.567 -41.262  24.394  1.00  0.00     0.011 A 
ATOM      6  C   UNL     1      18.570 -42.485  25.074  1.00  0.00     0.001 A 
ENDROOT
BRANCH   4   7
ATOM      7  C   UNL     1      18.408 -38.758  24.408  1.00  0.00     0.260 C 
ATOM      8  O   UNL     1      17.395 -38.010  24.439  1.00  0.00    -0.298 OA
ENDBRANCH   4   7
TORSDOF 1
ENDMDL
MODEL 2
REMARK VINA RESULT:    -3.519      3.786      5.224
REMARK INTER + INTRA:          -3.734
REMARK INTER:                  -3.725
REMARK INTRA:                  -0.010
REMARK UNBOUND:                -0.010
REMARK SMILES O=Cc1ccccc1
REMARK SMILES IDX 6 1 5 2 4 3 3 4 8 5 7 6 2 7 1 8
REMARK H PARENT
REMARK Flexibility Score: inf
ROOT
ATOM      1  C   UNL     1      18.643 -42.535  25.813  1.00  0.00     0.000 A 
ATOM      2  C   UNL     1      18.203 -43.767  25.322  1.00  0.00     0.001 A 
ATOM      3  C   UNL     1      17.437 -44.611  26.134  1.00  0.00     0.011 A 
ATOM      4  C   UNL     1      17.107 -44.227  27.443  1.00  0.00     0.014 A 
ATOM      5  C   UNL     1      17.554 -42.986  27.930  1.00  0.00     0.011 A 
ATOM      6  C   UNL     1      18.319 -42.144  27.115  1.00  0.00     0.001 A 
ENDROOT
BRANCH   4   7
ATOM      7  C   UNL     1      16.298 -45.129  28.285  1.00  0.00     0.260 C 
ATOM      8  O   UNL     1      16.730 -45.545  29.393  1.00  0.00    -0.298 OA
ENDBRANCH   4   7
TORSDOF 1
ENDMDL
MODEL 3
REMARK VINA RESULT:    -3.464      3.780      4.952
REMARK INTER + INTRA:          -3.676
REMARK INTER:                  -3.666
REMARK INTRA:                  -0.010
REMARK UNBOUND:                -0.010
REMARK SMILES O=Cc1ccccc1
REMARK SMILES IDX 6 1 5 2 4 3 3 4 8 5 7 6 2 7 1 8
REMARK H PARENT
REMARK Flexibility Score: inf
ROOT
ATOM      1  C   UNL     1      18.623 -42.514  25.839  1.00  0.00     0.000 A 
ATOM      2  C   UNL     1      18.253 -42.101  27.121  1.00  0.00     0.001 A 
ATOM      3  C   UNL     1      17.505 -42.953  27.943  1.00  0.00     0.011 A 
ATOM      4  C   UNL     1      17.124 -44.224  27.485  1.00  0.00     0.014 A 
ATOM      5  C   UNL     1      17.500 -44.631  26.193  1.00  0.00     0.011 A 
ATOM      6  C   UNL     1      18.248 -43.777  25.375  1.00  0.00     0.001 A 
ENDROOT
BRANCH   4   7
ATOM      7  C   UNL     1      16.336 -45.109  28.364  1.00  0.00     0.260 C 
ATOM      8  O   UNL     1      16.793 -45.499  29.471  1.00  0.00    -0.298 OA
ENDBRANCH   4   7
TORSDOF 1
ENDMDL
MODEL 4
REMARK VINA RESULT:    -3.464      1.719      2.297
REMARK INTER + INTRA:          -3.676
REMARK INTER:                  -3.667
REMARK INTRA:                  -0.009
REMARK UNBOUND:                -0.010
REMARK SMILES O=Cc1ccccc1
REMARK SMILES IDX 6 1 5 2 4 3 3 4 8 5 7 6 2 7 1 8
REMARK H PARENT
REMARK Flexibility Score: inf
ROOT
ATOM      1  C   UNL     1      16.930 -43.969  25.752  1.00  0.00     0.000 A 
ATOM      2  C   UNL     1      18.283 -43.777  25.462  1.00  0.00     0.001 A 
ATOM      3  C   UNL     1      18.750 -42.507  25.103  1.00  0.00     0.011 A 
ATOM      4  C   UNL     1      17.863 -41.421  25.031  1.00  0.00     0.014 A 
ATOM      5  C   UNL     1      16.503 -41.623  25.323  1.00  0.00     0.011 A 
ATOM      6  C   UNL     1      16.041 -42.894  25.683  1.00  0.00     0.001 A 
ENDROOT
BRANCH   4   7
ATOM      7  C   UNL     1      18.372 -40.090  24.651  1.00  0.00     0.260 C 
ATOM      8  O   UNL     1      18.646 -39.225  25.524  1.00  0.00    -0.298 OA
ENDBRANCH   4   7
TORSDOF 1
ENDMDL
MODEL 5
REMARK VINA RESULT:    -3.463      6.885      8.021
REMARK INTER + INTRA:          -3.675
REMARK INTER:                  -3.666
REMARK INTRA:                  -0.009
REMARK UNBOUND:                -0.010
REMARK SMILES O=Cc1ccccc1
REMARK SMILES IDX 6 1 5 2 4 3 3 4 8 5 7 6 2 7 1 8
REMARK H PARENT
REMARK Flexibility Score: inf
ROOT
ATOM      1  C   UNL     1      16.505 -45.209  28.474  1.00  0.00     0.000 A 
ATOM      2  C   UNL     1      15.146 -45.287  28.791  1.00  0.00     0.001 A 
ATOM      3  C   UNL     1      14.735 -45.238  30.128  1.00  0.00     0.011 A 
ATOM      4  C   UNL     1      15.682 -45.111  31.157  1.00  0.00     0.014 A 
ATOM      5  C   UNL     1      17.047 -45.035  30.829  1.00  0.00     0.011 A 
ATOM      6  C   UNL     1      17.454 -45.083  29.491  1.00  0.00     0.001 A 
ENDROOT
BRANCH   4   7
ATOM      7  C   UNL     1      15.231 -45.061  32.560  1.00  0.00     0.260 C 
ATOM      8  O   UNL     1      15.246 -46.091  33.285  1.00  0.00    -0.298 OA
ENDBRANCH   4   7
TORSDOF 1
ENDMDL
MODEL 6
REMARK VINA RESULT:    -3.459      2.049      3.236
REMARK INTER + INTRA:          -3.671
REMARK INTER:                  -3.662
REMARK INTRA:                  -0.009
REMARK UNBOUND:                -0.010
REMARK SMILES O=Cc1ccccc1
REMARK SMILES IDX 6 1 5 2 4 3 3 4 8 5 7 6 2 7 1 8
REMARK H PARENT
REMARK Flexibility Score: inf
ROOT
ATOM      1  C   UNL     1      18.446 -41.001  24.185  1.00  0.00     0.000 A 
ATOM      2  C   UNL     1      18.544 -42.130  25.002  1.00  0.00     0.001 A 
ATOM      3  C   UNL     1      18.511 -41.992  26.395  1.00  0.00     0.011 A 
ATOM      4  C   UNL     1      18.379 -40.722  26.978  1.00  0.00     0.014 A 
ATOM      5  C   UNL     1      18.281 -39.591  26.149  1.00  0.00     0.011 A 
ATOM      6  C   UNL     1      18.314 -39.733  24.757  1.00  0.00     0.001 A 
ENDROOT
BRANCH   4   7
ATOM      7  C   UNL     1      18.345 -40.595  28.447  1.00  0.00     0.260 C 
ATOM      8  O   UNL     1      19.332 -40.139  29.083  1.00  0.00    -0.298 OA
ENDBRANCH   4   7
TORSDOF 1
ENDMDL
MODEL 7
REMARK VINA RESULT:    -3.450      6.896      8.010
REMARK INTER + INTRA:          -3.661
REMARK INTER:                  -3.652
REMARK INTRA:                  -0.009
REMARK UNBOUND:                -0.010
REMARK SMILES O=Cc1ccccc1
REMARK SMILES IDX 6 1 5 2 4 3 3 4 8 5 7 6 2 7 1 8
REMARK H PARENT
REMARK Flexibility Score: inf
ROOT
ATOM      1  C   UNL     1      16.527 -45.192  28.527  1.00  0.00     0.000 A 
ATOM      2  C   UNL     1      17.484 -45.100  29.540  1.00  0.00     0.001 A 
ATOM      3  C   UNL     1      17.084 -45.055  30.880  1.00  0.00     0.011 A 
ATOM      4  C   UNL     1      15.721 -45.100  31.214  1.00  0.00     0.014 A 
ATOM      5  C   UNL     1      14.764 -45.191  30.188  1.00  0.00     0.011 A 
ATOM      6  C   UNL     1      15.169 -45.237  28.849  1.00  0.00     0.001 A 
ENDROOT
BRANCH   4   7
ATOM      7  C   UNL     1      15.316 -45.051  32.632  1.00  0.00     0.260 C 
ATOM      8  O   UNL     1      15.305 -46.092  33.341  1.00  0.00    -0.298 OA
ENDBRANCH   4   7
TORSDOF 1
ENDMDL
MODEL 8
REMARK VINA RESULT:    -3.442      2.353      3.715
REMARK INTER + INTRA:          -3.653
REMARK INTER:                  -3.642
REMARK INTRA:                  -0.011
REMARK UNBOUND:                -0.010
REMARK SMILES O=Cc1ccccc1
REMARK SMILES IDX 6 1 5 2 4 3 3 4 8 5 7 6 2 7 1 8
REMARK H PARENT
REMARK Flexibility Score: inf
ROOT
ATOM      1  C   UNL     1      18.363 -39.160  25.611  1.00  0.00     0.000 A 
ATOM      2  C   UNL     1      18.374 -39.801  24.370  1.00  0.00     0.001 A 
ATOM      3  C   UNL     1      18.365 -41.199  24.303  1.00  0.00     0.011 A 
ATOM      4  C   UNL     1      18.345 -41.964  25.480  1.00  0.00     0.014 A 
ATOM      5  C   UNL     1      18.335 -41.311  26.725  1.00  0.00     0.011 A 
ATOM      6  C   UNL     1      18.343 -39.913  26.787  1.00  0.00     0.001 A 
ENDROOT
BRANCH   4   7
ATOM      7  C   UNL     1      18.336 -43.437  25.391  1.00  0.00     0.260 C 
ATOM      8  O   UNL     1      17.612 -44.129  26.155  1.00  0.00    -0.298 OA
ENDBRANCH   4   7
TORSDOF 1
ENDMDL
MODEL 9
REMARK VINA RESULT:    -3.404      3.127      3.978
REMARK INTER + INTRA:          -3.613
REMARK INTER:                  -3.603
REMARK INTRA:                  -0.010
REMARK UNBOUND:                -0.010
REMARK SMILES O=Cc1ccccc1
REMARK SMILES IDX 6 1 5 2 4 3 3 4 8 5 7 6 2 7 1 8
REMARK H PARENT
REMARK Flexibility Score: inf
ROOT
ATOM      1  C   UNL     1      17.503 -44.642  25.887  1.00  0.00     0.000 A 
ATOM      2  C   UNL     1      18.263 -43.581  25.388  1.00  0.00     0.001 A 
ATOM      3  C   UNL     1      18.591 -42.503  26.217  1.00  0.00     0.011 A 
ATOM      4  C   UNL     1      18.159 -42.479  27.553  1.00  0.00     0.014 A 
ATOM      5  C   UNL     1      17.394 -43.551  28.048  1.00  0.00     0.011 A 
ATOM      6  C   UNL     1      17.070 -44.627  27.215  1.00  0.00     0.001 A 
ENDROOT
BRANCH   4   7
ATOM      7  C   UNL     1      18.514 -41.335  28.414  1.00  0.00     0.260 C 
ATOM      8  O   UNL     1      19.195 -41.496  29.461  1.00  0.00    -0.298 OA
ENDBRANCH   4   7
TORSDOF 1
ENDMDL
