MODEL 1
REMARK VINA RESULT:    -3.756      0.000      0.000
REMARK INTER + INTRA:          -6.041
REMARK INTER:                  -5.513
REMARK INTRA:                  -0.528
REMARK UNBOUND:                -0.528
REMARK SMILES O=C([O-])CCCCCCCC(=O)[O-]
REMARK SMILES IDX 7 1 6 2 5 3 4 4 2 5 1 6 3 7 8 8 9 9 10 10 11 11 12 12 13 13
REMARK H PARENT
REMARK Flexibility Score: inf
ROOT
ATOM      1  C   UNL     1      -8.161  16.623 -14.617  1.00  0.00     0.000 C 
ENDROOT
BRANCH   1   2
ATOM      2  C   UNL     1      -8.849  16.623 -13.243  1.00  0.00     0.000 C 
BRANCH   2   3
ATOM      3  C   UNL     1      -8.597  17.923 -12.458  1.00  0.00     0.006 C 
BRANCH   3   4
ATOM      4  C   UNL     1      -8.244  19.097 -13.382  1.00  0.00     0.053 C 
BRANCH   4   5
ATOM      5  C   UNL     1      -6.884  19.649 -13.084  1.00  0.00     0.041 C 
ATOM      6  O   UNL     1      -6.758  20.666 -12.352  1.00  0.00    -0.550 OA
ATOM      7  O   UNL     1      -5.756  19.056 -13.639  1.00  0.00    -0.550 OA
ENDBRANCH   4   5
ENDBRANCH   3   4
ENDBRANCH   2   3
ENDBRANCH   1   2
BRANCH   1   8
ATOM      8  C   UNL     1      -7.851  15.203 -15.125  1.00  0.00     0.000 C 
BRANCH   8   9
ATOM      9  C   UNL     1      -8.475  14.111 -14.241  1.00  0.00     0.006 C 
BRANCH   9  10
ATOM     10  C   UNL     1      -7.517  12.937 -13.992  1.00  0.00     0.053 C 
BRANCH  10  11
ATOM     11  C   UNL     1      -6.518  13.295 -12.937  1.00  0.00     0.041 C 
ATOM     12  O   UNL     1      -5.324  12.907 -13.039  1.00  0.00    -0.550 OA
ATOM     13  O   UNL     1      -6.916  14.013 -11.817  1.00  0.00    -0.550 OA
ENDBRANCH  10  11
ENDBRANCH   9  10
ENDBRANCH   8   9
ENDBRANCH   1   8
TORSDOF 8
ENDMDL
MODEL 2
REMARK VINA RESULT:    -3.686      1.933      5.145
REMARK INTER + INTRA:          -5.938
REMARK INTER:                  -5.239
REMARK INTRA:                  -0.699
REMARK UNBOUND:                -0.528
REMARK SMILES O=C([O-])CCCCCCCC(=O)[O-]
REMARK SMILES IDX 7 1 6 2 5 3 4 4 2 5 1 6 3 7 8 8 9 9 10 10 11 11 12 12 13 13
REMARK H PARENT
REMARK Flexibility Score: inf
ROOT
ATOM      1  C   UNL     1      -5.024  16.494 -14.930  1.00  0.00     0.000 C 
ENDROOT
BRANCH   1   2
ATOM      2  C   UNL     1      -6.024  15.342 -14.749  1.00  0.00     0.000 C 
BRANCH   2   3
ATOM      3  C   UNL     1      -7.453  15.840 -14.466  1.00  0.00     0.006 C 
BRANCH   3   4
ATOM      4  C   UNL     1      -8.161  14.989 -13.403  1.00  0.00     0.053 C 
BRANCH   4   5
ATOM      5  C   UNL     1      -7.539  15.158 -12.051  1.00  0.00     0.041 C 
ATOM      6  O   UNL     1      -7.360  16.310 -11.574  1.00  0.00    -0.550 OA
ATOM      7  O   UNL     1      -7.131  14.043 -11.329  1.00  0.00    -0.550 OA
ENDBRANCH   4   5
ENDBRANCH   3   4
ENDBRANCH   2   3
ENDBRANCH   1   2
BRANCH   1   8
ATOM      8  C   UNL     1      -5.323  17.690 -14.007  1.00  0.00     0.000 C 
BRANCH   8   9
ATOM      9  C   UNL     1      -5.451  19.013 -14.779  1.00  0.00     0.006 C 
BRANCH   9  10
ATOM     10  C   UNL     1      -6.881  19.573 -14.754  1.00  0.00     0.053 C 
BRANCH  10  11
ATOM     11  C   UNL     1      -7.363  19.709 -13.345  1.00  0.00     0.041 C 
ATOM     12  O   UNL     1      -6.742  20.442 -12.531  1.00  0.00    -0.550 OA
ATOM     13  O   UNL     1      -8.470  18.988 -12.916  1.00  0.00    -0.550 OA
ENDBRANCH  10  11
ENDBRANCH   9  10
ENDBRANCH   8   9
ENDBRANCH   1   8
TORSDOF 8
ENDMDL
MODEL 3
REMARK VINA RESULT:    -3.649      2.263      5.091
REMARK INTER + INTRA:          -5.883
REMARK INTER:                  -5.245
REMARK INTRA:                  -0.639
REMARK UNBOUND:                -0.528
REMARK SMILES O=C([O-])CCCCCCCC(=O)[O-]
REMARK SMILES IDX 7 1 6 2 5 3 4 4 2 5 1 6 3 7 8 8 9 9 10 10 11 11 12 12 13 13
REMARK H PARENT
REMARK Flexibility Score: inf
ROOT
ATOM      1  C   UNL     1      -5.513  17.300 -14.103  1.00  0.00     0.000 C 
ENDROOT
BRANCH   1   2
ATOM      2  C   UNL     1      -4.904  16.285 -15.083  1.00  0.00     0.000 C 
BRANCH   2   3
ATOM      3  C   UNL     1      -5.405  14.851 -14.834  1.00  0.00     0.006 C 
BRANCH   3   4
ATOM      4  C   UNL     1      -6.856  14.824 -14.335  1.00  0.00     0.053 C 
BRANCH   4   5
ATOM      5  C   UNL     1      -7.067  13.764 -13.298  1.00  0.00     0.041 C 
ATOM      6  O   UNL     1      -7.455  12.614 -13.636  1.00  0.00    -0.550 OA
ATOM      7  O   UNL     1      -6.863  14.054 -11.955  1.00  0.00    -0.550 OA
ENDBRANCH   4   5
ENDBRANCH   3   4
ENDBRANCH   2   3
ENDBRANCH   1   2
BRANCH   1   8
ATOM      8  C   UNL     1      -6.245  18.450 -14.818  1.00  0.00     0.000 C 
BRANCH   8   9
ATOM      9  C   UNL     1      -7.773  18.356 -14.675  1.00  0.00     0.006 C 
BRANCH   9  10
ATOM     10  C   UNL     1      -8.254  18.705 -13.259  1.00  0.00     0.053 C 
BRANCH  10  11
ATOM     11  C   UNL     1      -8.694  17.470 -12.539  1.00  0.00     0.041 C 
ATOM     12  O   UNL     1      -8.111  17.112 -11.481  1.00  0.00    -0.550 OA
ATOM     13  O   UNL     1      -9.714  16.686 -13.061  1.00  0.00    -0.550 OA
ENDBRANCH  10  11
ENDBRANCH   9  10
ENDBRANCH   8   9
ENDBRANCH   1   8
TORSDOF 8
ENDMDL
MODEL 4
REMARK VINA RESULT:    -3.614      2.317      3.048
REMARK INTER + INTRA:          -5.833
REMARK INTER:                  -5.168
REMARK INTRA:                  -0.665
REMARK UNBOUND:                -0.528
REMARK SMILES O=C([O-])CCCCCCCC(=O)[O-]
REMARK SMILES IDX 7 1 6 2 5 3 4 4 2 5 1 6 3 7 8 8 9 9 10 10 11 11 12 12 13 13
REMARK H PARENT
REMARK Flexibility Score: inf
ROOT
ATOM      1  C   UNL     1      -5.648  16.213 -14.393  1.00  0.00     0.000 C 
ENDROOT
BRANCH   1   2
ATOM      2  C   UNL     1      -5.404  17.727 -14.294  1.00  0.00     0.000 C 
BRANCH   2   3
ATOM      3  C   UNL     1      -6.521  18.549 -14.961  1.00  0.00     0.006 C 
BRANCH   3   4
ATOM      4  C   UNL     1      -7.120  19.592 -14.007  1.00  0.00     0.053 C 
BRANCH   4   5
ATOM      5  C   UNL     1      -6.077  20.531 -13.484  1.00  0.00     0.041 C 
ATOM      6  O   UNL     1      -5.298  21.122 -14.279  1.00  0.00    -0.550 OA
ATOM      7  O   UNL     1      -5.946  20.732 -12.116  1.00  0.00    -0.550 OA
ENDBRANCH   4   5
ENDBRANCH   3   4
ENDBRANCH   2   3
ENDBRANCH   1   2
BRANCH   1   8
ATOM      8  C   UNL     1      -7.100  15.870 -14.774  1.00  0.00     0.000 C 
BRANCH   8   9
ATOM      9  C   UNL     1      -7.720  14.815 -13.844  1.00  0.00     0.006 C 
BRANCH   9  10
ATOM     10  C   UNL     1      -7.809  15.291 -12.388  1.00  0.00     0.053 C 
BRANCH  10  11
ATOM     11  C   UNL     1      -8.680  16.503 -12.287  1.00  0.00     0.041 C 
ATOM     12  O   UNL     1      -8.300  17.504 -11.625  1.00  0.00    -0.550 OA
ATOM     13  O   UNL     1      -9.934  16.509 -12.884  1.00  0.00    -0.550 OA
ENDBRANCH  10  11
ENDBRANCH   9  10
ENDBRANCH   8   9
ENDBRANCH   1   8
TORSDOF 8
ENDMDL
MODEL 5
REMARK VINA RESULT:    -3.609      0.875      5.642
REMARK INTER + INTRA:          -5.825
REMARK INTER:                  -5.334
REMARK INTRA:                  -0.491
REMARK UNBOUND:                -0.528
REMARK SMILES O=C([O-])CCCCCCCC(=O)[O-]
REMARK SMILES IDX 7 1 6 2 5 3 4 4 2 5 1 6 3 7 8 8 9 9 10 10 11 11 12 12 13 13
REMARK H PARENT
REMARK Flexibility Score: inf
ROOT
ATOM      1  C   UNL     1      -7.014  16.803 -13.956  1.00  0.00     0.000 C 
ENDROOT
BRANCH   1   2
ATOM      2  C   UNL     1      -7.277  15.632 -14.915  1.00  0.00     0.000 C 
BRANCH   2   3
ATOM      3  C   UNL     1      -8.245  14.592 -14.324  1.00  0.00     0.006 C 
BRANCH   3   4
ATOM      4  C   UNL     1      -7.536  13.277 -13.972  1.00  0.00     0.053 C 
BRANCH   4   5
ATOM      5  C   UNL     1      -6.608  13.440 -12.808  1.00  0.00     0.041 C 
ATOM      6  O   UNL     1      -7.004  14.010 -11.756  1.00  0.00    -0.550 OA
ATOM      7  O   UNL     1      -5.298  12.988 -12.894  1.00  0.00    -0.550 OA
ENDBRANCH   4   5
ENDBRANCH   3   4
ENDBRANCH   2   3
ENDBRANCH   1   2
BRANCH   1   8
ATOM      8  C   UNL     1      -8.278  17.242 -13.195  1.00  0.00     0.000 C 
BRANCH   8   9
ATOM      9  C   UNL     1      -8.340  18.762 -12.980  1.00  0.00     0.006 C 
BRANCH   9  10
ATOM     10  C   UNL     1      -7.640  19.545 -14.100  1.00  0.00     0.053 C 
BRANCH  10  11
ATOM     11  C   UNL     1      -6.550  20.401 -13.536  1.00  0.00     0.041 C 
ATOM     12  O   UNL     1      -5.712  20.945 -14.301  1.00  0.00    -0.550 OA
ATOM     13  O   UNL     1      -6.431  20.558 -12.161  1.00  0.00    -0.550 OA
ENDBRANCH  10  11
ENDBRANCH   9  10
ENDBRANCH   8   9
ENDBRANCH   1   8
TORSDOF 8
ENDMDL
MODEL 6
REMARK VINA RESULT:    -3.604      2.308      3.161
REMARK INTER + INTRA:          -5.817
REMARK INTER:                  -5.027
REMARK INTRA:                  -0.791
REMARK UNBOUND:                -0.528
REMARK SMILES O=C([O-])CCCCCCCC(=O)[O-]
REMARK SMILES IDX 7 1 6 2 5 3 4 4 2 5 1 6 3 7 8 8 9 9 10 10 11 11 12 12 13 13
REMARK H PARENT
REMARK Flexibility Score: inf
ROOT
ATOM      1  C   UNL     1      -6.402  15.480 -15.125  1.00  0.00     0.000 C 
ENDROOT
BRANCH   1   2
ATOM      2  C   UNL     1      -5.075  16.204 -14.846  1.00  0.00     0.000 C 
BRANCH   2   3
ATOM      3  C   UNL     1      -5.272  17.516 -14.066  1.00  0.00     0.006 C 
BRANCH   3   4
ATOM      4  C   UNL     1      -5.941  18.601 -14.922  1.00  0.00     0.053 C 
BRANCH   4   5
ATOM      5  C   UNL     1      -6.775  19.528 -14.092  1.00  0.00     0.041 C 
ATOM      6  O   UNL     1      -6.317  20.006 -13.020  1.00  0.00    -0.550 OA
ATOM      7  O   UNL     1      -8.070  19.841 -14.487  1.00  0.00    -0.550 OA
ENDBRANCH   4   5
ENDBRANCH   3   4
ENDBRANCH   2   3
ENDBRANCH   1   2
BRANCH   1   8
ATOM      8  C   UNL     1      -6.648  14.301 -14.166  1.00  0.00     0.000 C 
BRANCH   8   9
ATOM      9  C   UNL     1      -7.961  14.443 -13.382  1.00  0.00     0.006 C 
BRANCH   9  10
ATOM     10  C   UNL     1      -7.847  15.433 -12.214  1.00  0.00     0.053 C 
BRANCH  10  11
ATOM     11  C   UNL     1      -8.606  16.686 -12.517  1.00  0.00     0.041 C 
ATOM     12  O   UNL     1      -9.332  16.754 -13.544  1.00  0.00    -0.550 OA
ATOM     13  O   UNL     1      -8.473  17.796 -11.693  1.00  0.00    -0.550 OA
ENDBRANCH  10  11
ENDBRANCH   9  10
ENDBRANCH   8   9
ENDBRANCH   1   8
TORSDOF 8
ENDMDL
MODEL 7
REMARK VINA RESULT:    -3.594      1.525      2.376
REMARK INTER + INTRA:          -5.803
REMARK INTER:                  -5.307
REMARK INTRA:                  -0.497
REMARK UNBOUND:                -0.528
REMARK SMILES O=C([O-])CCCCCCCC(=O)[O-]
REMARK SMILES IDX 7 1 6 2 5 3 4 4 2 5 1 6 3 7 8 8 9 9 10 10 11 11 12 12 13 13
REMARK H PARENT
REMARK Flexibility Score: inf
ROOT
ATOM      1  C   UNL     1      -7.463  17.187 -14.844  1.00  0.00     0.000 C 
ENDROOT
BRANCH   1   2
ATOM      2  C   UNL     1      -5.946  17.405 -14.735  1.00  0.00     0.000 C 
BRANCH   2   3
ATOM      3  C   UNL     1      -5.533  18.852 -15.060  1.00  0.00     0.006 C 
BRANCH   3   4
ATOM      4  C   UNL     1      -4.972  19.582 -13.832  1.00  0.00     0.053 C 
BRANCH   4   5
ATOM      5  C   UNL     1      -5.973  20.528 -13.242  1.00  0.00     0.041 C 
ATOM      6  O   UNL     1      -5.875  20.886 -12.038  1.00  0.00    -0.550 OA
ATOM      7  O   UNL     1      -7.030  20.992 -14.014  1.00  0.00    -0.550 OA
ENDBRANCH   4   5
ENDBRANCH   3   4
ENDBRANCH   2   3
ENDBRANCH   1   2
BRANCH   1   8
ATOM      8  C   UNL     1      -8.212  17.574 -13.555  1.00  0.00     0.000 C 
BRANCH   8   9
ATOM      9  C   UNL     1      -8.671  16.348 -12.750  1.00  0.00     0.006 C 
BRANCH   9  10
ATOM     10  C   UNL     1      -8.197  15.025 -13.368  1.00  0.00     0.053 C 
BRANCH  10  11
ATOM     11  C   UNL     1      -7.234  14.337 -12.454  1.00  0.00     0.041 C 
ATOM     12  O   UNL     1      -6.385  13.531 -12.918  1.00  0.00    -0.550 OA
ATOM     13  O   UNL     1      -7.305  14.548 -11.082  1.00  0.00    -0.550 OA
ENDBRANCH  10  11
ENDBRANCH   9  10
ENDBRANCH   8   9
ENDBRANCH   1   8
TORSDOF 8
ENDMDL
MODEL 8
REMARK VINA RESULT:    -3.581      1.412      4.912
REMARK INTER + INTRA:          -5.784
REMARK INTER:                  -5.187
REMARK INTRA:                  -0.597
REMARK UNBOUND:                -0.528
REMARK SMILES O=C([O-])CCCCCCCC(=O)[O-]
REMARK SMILES IDX 7 1 6 2 5 3 4 4 2 5 1 6 3 7 8 8 9 9 10 10 11 11 12 12 13 13
REMARK H PARENT
REMARK Flexibility Score: inf
ROOT
ATOM      1  C   UNL     1      -8.633  17.728 -12.145  1.00  0.00     0.000 C 
ENDROOT
BRANCH   1   2
ATOM      2  C   UNL     1      -9.005  16.399 -12.820  1.00  0.00     0.000 C 
BRANCH   2   3
ATOM      3  C   UNL     1      -7.930  15.316 -12.622  1.00  0.00     0.006 C 
BRANCH   3   4
ATOM      4  C   UNL     1      -7.632  14.554 -13.921  1.00  0.00     0.053 C 
BRANCH   4   5
ATOM      5  C   UNL     1      -6.393  13.720 -13.804  1.00  0.00     0.041 C 
ATOM      6  O   UNL     1      -5.955  13.389 -12.670  1.00  0.00    -0.550 OA
ATOM      7  O   UNL     1      -5.707  13.330 -14.947  1.00  0.00    -0.550 OA
ENDBRANCH   4   5
ENDBRANCH   3   4
ENDBRANCH   2   3
ENDBRANCH   1   2
BRANCH   1   8
ATOM      8  C   UNL     1      -8.255  18.824 -13.158  1.00  0.00     0.000 C 
BRANCH   8   9
ATOM      9  C   UNL     1      -7.866  18.250 -14.530  1.00  0.00     0.006 C 
BRANCH   9  10
ATOM     10  C   UNL     1      -6.462  18.683 -14.974  1.00  0.00     0.053 C 
BRANCH  10  11
ATOM     11  C   UNL     1      -5.468  18.422 -13.887  1.00  0.00     0.041 C 
ATOM     12  O   UNL     1      -5.198  17.240 -13.546  1.00  0.00    -0.550 OA
ATOM     13  O   UNL     1      -4.876  19.484 -13.216  1.00  0.00    -0.550 OA
ENDBRANCH  10  11
ENDBRANCH   9  10
ENDBRANCH   8   9
ENDBRANCH   1   8
TORSDOF 8
ENDMDL
MODEL 9
REMARK VINA RESULT:    -3.512      1.402      5.469
REMARK INTER + INTRA:          -5.683
REMARK INTER:                  -5.212
REMARK INTRA:                  -0.471
REMARK UNBOUND:                -0.528
REMARK SMILES O=C([O-])CCCCCCCC(=O)[O-]
REMARK SMILES IDX 7 1 6 2 5 3 4 4 2 5 1 6 3 7 8 8 9 9 10 10 11 11 12 12 13 13
REMARK H PARENT
REMARK Flexibility Score: inf
ROOT
ATOM      1  C   UNL     1      -7.909  16.267 -12.415  1.00  0.00     0.000 C 
ENDROOT
BRANCH   1   2
ATOM      2  C   UNL     1      -7.673  14.751 -12.334  1.00  0.00     0.000 C 
BRANCH   2   3
ATOM      3  C   UNL     1      -8.002  14.031 -13.655  1.00  0.00     0.006 C 
BRANCH   3   4
ATOM      4  C   UNL     1      -7.023  12.886 -13.948  1.00  0.00     0.053 C 
BRANCH   4   5
ATOM      5  C   UNL     1      -5.601  13.298 -13.716  1.00  0.00     0.041 C 
ATOM      6  O   UNL     1      -4.903  12.709 -12.848  1.00  0.00    -0.550 OA
ATOM      7  O   UNL     1      -5.055  14.350 -14.440  1.00  0.00    -0.550 OA
ENDBRANCH   4   5
ENDBRANCH   3   4
ENDBRANCH   2   3
ENDBRANCH   1   2
BRANCH   1   8
ATOM      8  C   UNL     1      -8.453  16.710 -13.785  1.00  0.00     0.000 C 
BRANCH   8   9
ATOM      9  C   UNL     1      -7.352  17.253 -14.710  1.00  0.00     0.006 C 
BRANCH   9  10
ATOM     10  C   UNL     1      -6.484  18.321 -14.029  1.00  0.00     0.053 C 
BRANCH  10  11
ATOM     11  C   UNL     1      -7.296  19.543 -13.734  1.00  0.00     0.041 C 
ATOM     12  O   UNL     1      -7.342  20.005 -12.564  1.00  0.00    -0.550 OA
ATOM     13  O   UNL     1      -8.043  20.141 -14.741  1.00  0.00    -0.550 OA
ENDBRANCH  10  11
ENDBRANCH   9  10
ENDBRANCH   8   9
ENDBRANCH   1   8
TORSDOF 8
ENDMDL
