MODEL 1
REMARK VINA RESULT:    -6.054      0.000      0.000
REMARK INTER + INTRA:          -6.054
REMARK INTER:                  -6.054
REMARK INTRA:                   0.000
REMARK UNBOUND:                 0.000
REMARK SMILES CC1=CC(=O)[C@@H]2C[C@H]1C2(C)C
REMARK SMILES IDX 1 1 2 2 3 3 4 4 5 5 6 6 7 7 8 8 9 9 10 10 11 11
REMARK H PARENT
REMARK Flexibility Score: inf
ROOT
ATOM      1  C   UNL     1      25.603 -14.379  28.724  1.00  0.00     0.040 C 
ATOM      2  C   UNL     1      26.672 -13.363  28.975  1.00  0.00    -0.066 C 
ATOM      3  C   UNL     1      27.402 -13.373  30.125  1.00  0.00     0.047 C 
ATOM      4  C   UNL     1      28.465 -12.323  30.243  1.00  0.00     0.159 C 
ATOM      5  O   UNL     1      29.232 -12.252  31.239  1.00  0.00    -0.295 OA
ATOM      6  C   UNL     1      28.556 -11.347  29.069  1.00  0.00     0.067 C 
ATOM      7  C   UNL     1      27.088 -10.953  28.791  1.00  0.00     0.021 C 
ATOM      8  C   UNL     1      26.990 -12.249  27.955  1.00  0.00     0.022 C 
ATOM      9  C   UNL     1      28.529 -12.162  27.745  1.00  0.00    -0.019 C 
ATOM     10  C   UNL     1      28.909 -11.300  26.514  1.00  0.00     0.012 C 
ATOM     11  C   UNL     1      29.337 -13.490  27.678  1.00  0.00     0.012 C 
ENDROOT
TORSDOF 0
ENDMDL
MODEL 2
REMARK VINA RESULT:    -5.926      1.106      1.283
REMARK INTER + INTRA:          -5.926
REMARK INTER:                  -5.926
REMARK INTRA:                   0.000
REMARK UNBOUND:                 0.000
REMARK SMILES CC1=CC(=O)[C@@H]2C[C@H]1C2(C)C
REMARK SMILES IDX 1 1 2 2 3 3 4 4 5 5 6 6 7 7 8 8 9 9 10 10 11 11
REMARK H PARENT
REMARK Flexibility Score: inf
ROOT
ATOM      1  C   UNL     1      26.717 -14.035  30.588  1.00  0.00     0.040 C 
ATOM      2  C   UNL     1      27.533 -12.957  29.949  1.00  0.00    -0.066 C 
ATOM      3  C   UNL     1      28.546 -12.342  30.622  1.00  0.00     0.047 C 
ATOM      4  C   UNL     1      29.310 -11.300  29.862  1.00  0.00     0.159 C 
ATOM      5  O   UNL     1      30.292 -10.690  30.359  1.00  0.00    -0.295 OA
ATOM      6  C   UNL     1      28.815 -11.033  28.440  1.00  0.00     0.067 C 
ATOM      7  C   UNL     1      27.280 -10.933  28.585  1.00  0.00     0.021 C 
ATOM      8  C   UNL     1      27.260 -12.477  28.508  1.00  0.00     0.022 C 
ATOM      9  C   UNL     1      28.602 -12.398  27.725  1.00  0.00    -0.019 C 
ATOM     10  C   UNL     1      28.387 -12.237  26.198  1.00  0.00     0.012 C 
ATOM     11  C   UNL     1      29.653 -13.522  27.952  1.00  0.00     0.012 C 
ENDROOT
TORSDOF 0
ENDMDL
MODEL 3
REMARK VINA RESULT:    -5.822      1.819      3.028
REMARK INTER + INTRA:          -5.822
REMARK INTER:                  -5.822
REMARK INTRA:                   0.000
REMARK UNBOUND:                 0.000
REMARK SMILES CC1=CC(=O)[C@@H]2C[C@H]1C2(C)C
REMARK SMILES IDX 1 1 2 2 3 3 4 4 5 5 6 6 7 7 8 8 9 9 10 10 11 11
REMARK H PARENT
REMARK Flexibility Score: inf
ROOT
ATOM      1  C   UNL     1      25.650 -14.113  28.356  1.00  0.00     0.040 C 
ATOM      2  C   UNL     1      26.880 -13.265  28.285  1.00  0.00    -0.066 C 
ATOM      3  C   UNL     1      27.368 -12.824  27.092  1.00  0.00     0.047 C 
ATOM      4  C   UNL     1      28.589 -11.956  27.155  1.00  0.00     0.159 C 
ATOM      5  O   UNL     1      29.111 -11.454  26.126  1.00  0.00    -0.295 OA
ATOM      6  C   UNL     1      29.152 -11.721  28.557  1.00  0.00     0.067 C 
ATOM      7  C   UNL     1      29.148 -13.122  29.207  1.00  0.00     0.021 C 
ATOM      8  C   UNL     1      27.665 -12.863  29.551  1.00  0.00     0.022 C 
ATOM      9  C   UNL     1      27.979 -11.340  29.505  1.00  0.00    -0.019 C 
ATOM     10  C   UNL     1      28.475 -10.797  30.870  1.00  0.00     0.012 C 
ATOM     11  C   UNL     1      26.880 -10.379  28.969  1.00  0.00     0.012 C 
ENDROOT
TORSDOF 0
ENDMDL
MODEL 4
REMARK VINA RESULT:    -5.773      1.584      2.885
REMARK INTER + INTRA:          -5.773
REMARK INTER:                  -5.773
REMARK INTRA:                   0.000
REMARK UNBOUND:                 0.000
REMARK SMILES CC1=CC(=O)[C@@H]2C[C@H]1C2(C)C
REMARK SMILES IDX 1 1 2 2 3 3 4 4 5 5 6 6 7 7 8 8 9 9 10 10 11 11
REMARK H PARENT
REMARK Flexibility Score: inf
ROOT
ATOM      1  C   UNL     1      28.664 -11.460  25.757  1.00  0.00     0.040 C 
ATOM      2  C   UNL     1      28.251 -11.685  27.176  1.00  0.00    -0.066 C 
ATOM      3  C   UNL     1      27.517 -12.775  27.536  1.00  0.00     0.047 C 
ATOM      4  C   UNL     1      27.193 -12.905  28.994  1.00  0.00     0.159 C 
ATOM      5  O   UNL     1      26.556 -13.886  29.456  1.00  0.00    -0.295 OA
ATOM      6  C   UNL     1      27.694 -11.763  29.879  1.00  0.00     0.067 C 
ATOM      7  C   UNL     1      27.315 -10.485  29.099  1.00  0.00     0.021 C 
ATOM      8  C   UNL     1      28.620 -10.691  28.298  1.00  0.00     0.022 C 
ATOM      9  C   UNL     1      29.179 -11.473  29.521  1.00  0.00    -0.019 C 
ATOM     10  C   UNL     1      29.865 -10.542  30.554  1.00  0.00     0.012 C 
ATOM     11  C   UNL     1      30.123 -12.680  29.252  1.00  0.00     0.012 C 
ENDROOT
TORSDOF 0
ENDMDL
MODEL 5
REMARK VINA RESULT:    -5.726      1.323      2.901
REMARK INTER + INTRA:          -5.726
REMARK INTER:                  -5.726
REMARK INTRA:                   0.000
REMARK UNBOUND:                 0.000
REMARK SMILES CC1=CC(=O)[C@@H]2C[C@H]1C2(C)C
REMARK SMILES IDX 1 1 2 2 3 3 4 4 5 5 6 6 7 7 8 8 9 9 10 10 11 11
REMARK H PARENT
REMARK Flexibility Score: inf
ROOT
ATOM      1  C   UNL     1      27.214  -9.877  30.621  1.00  0.00     0.040 C 
ATOM      2  C   UNL     1      27.725 -11.024  29.808  1.00  0.00    -0.066 C 
ATOM      3  C   UNL     1      28.973 -11.532  30.006  1.00  0.00     0.047 C 
ATOM      4  C   UNL     1      29.356 -12.701  29.150  1.00  0.00     0.159 C 
ATOM      5  O   UNL     1      30.466 -13.283  29.264  1.00  0.00    -0.295 OA
ATOM      6  C   UNL     1      28.304 -13.138  28.130  1.00  0.00     0.067 C 
ATOM      7  C   UNL     1      27.826 -11.816  27.489  1.00  0.00     0.021 C 
ATOM      8  C   UNL     1      26.874 -11.676  28.698  1.00  0.00     0.022 C 
ATOM      9  C   UNL     1      26.926 -13.223  28.846  1.00  0.00    -0.019 C 
ATOM     10  C   UNL     1      25.854 -13.936  27.981  1.00  0.00     0.012 C 
ATOM     11  C   UNL     1      26.874 -13.827  30.279  1.00  0.00     0.012 C 
ENDROOT
TORSDOF 0
ENDMDL
MODEL 6
REMARK VINA RESULT:    -5.721      1.733      2.979
REMARK INTER + INTRA:          -5.721
REMARK INTER:                  -5.721
REMARK INTRA:                   0.000
REMARK UNBOUND:                 0.000
REMARK SMILES CC1=CC(=O)[C@@H]2C[C@H]1C2(C)C
REMARK SMILES IDX 1 1 2 2 3 3 4 4 5 5 6 6 7 7 8 8 9 9 10 10 11 11
REMARK H PARENT
REMARK Flexibility Score: inf
ROOT
ATOM      1  C   UNL     1      29.061 -12.936  31.374  1.00  0.00     0.040 C 
ATOM      2  C   UNL     1      28.394 -13.024  30.038  1.00  0.00    -0.066 C 
ATOM      3  C   UNL     1      27.151 -13.565  29.901  1.00  0.00     0.047 C 
ATOM      4  C   UNL     1      26.578 -13.567  28.516  1.00  0.00     0.159 C 
ATOM      5  O   UNL     1      25.424 -14.002  28.266  1.00  0.00    -0.295 OA
ATOM      6  C   UNL     1      27.492 -13.000  27.428  1.00  0.00     0.067 C 
ATOM      7  C   UNL     1      28.865 -13.648  27.713  1.00  0.00     0.021 C 
ATOM      8  C   UNL     1      29.083 -12.524  28.750  1.00  0.00     0.022 C 
ATOM      9  C   UNL     1      28.086 -11.654  27.933  1.00  0.00    -0.019 C 
ATOM     10  C   UNL     1      28.786 -10.858  26.802  1.00  0.00     0.012 C 
ATOM     11  C   UNL     1      27.154 -10.680  28.708  1.00  0.00     0.012 C 
ENDROOT
TORSDOF 0
ENDMDL
MODEL 7
REMARK VINA RESULT:    -5.643      1.750      3.070
REMARK INTER + INTRA:          -5.643
REMARK INTER:                  -5.643
REMARK INTRA:                   0.000
REMARK UNBOUND:                 0.000
REMARK SMILES CC1=CC(=O)[C@@H]2C[C@H]1C2(C)C
REMARK SMILES IDX 1 1 2 2 3 3 4 4 5 5 6 6 7 7 8 8 9 9 10 10 11 11
REMARK H PARENT
REMARK Flexibility Score: inf
ROOT
ATOM      1  C   UNL     1      31.084 -12.340  29.424  1.00  0.00     0.040 C 
ATOM      2  C   UNL     1      29.632 -12.161  29.112  1.00  0.00    -0.066 C 
ATOM      3  C   UNL     1      28.994 -10.984  29.363  1.00  0.00     0.047 C 
ATOM      4  C   UNL     1      27.547 -10.919  28.976  1.00  0.00     0.159 C 
ATOM      5  O   UNL     1      26.859  -9.875  29.120  1.00  0.00    -0.295 OA
ATOM      6  C   UNL     1      26.968 -12.208  28.392  1.00  0.00     0.067 C 
ATOM      7  C   UNL     1      27.480 -13.316  29.337  1.00  0.00     0.021 C 
ATOM      8  C   UNL     1      28.784 -13.300  28.508  1.00  0.00     0.022 C 
ATOM      9  C   UNL     1      27.951 -12.749  27.315  1.00  0.00    -0.019 C 
ATOM     10  C   UNL     1      27.325 -13.880  26.460  1.00  0.00     0.012 C 
ATOM     11  C   UNL     1      28.628 -11.730  26.354  1.00  0.00     0.012 C 
ENDROOT
TORSDOF 0
ENDMDL
MODEL 8
REMARK VINA RESULT:    -5.486      1.853      3.428
REMARK INTER + INTRA:          -5.486
REMARK INTER:                  -5.486
REMARK INTRA:                   0.000
REMARK UNBOUND:                 0.000
REMARK SMILES CC1=CC(=O)[C@@H]2C[C@H]1C2(C)C
REMARK SMILES IDX 1 1 2 2 3 3 4 4 5 5 6 6 7 7 8 8 9 9 10 10 11 11
REMARK H PARENT
REMARK Flexibility Score: inf
ROOT
ATOM      1  C   UNL     1      31.073 -12.503  31.358  1.00  0.00     0.040 C 
ATOM      2  C   UNL     1      29.670 -12.725  30.890  1.00  0.00    -0.066 C 
ATOM      3  C   UNL     1      28.812 -13.528  31.579  1.00  0.00     0.047 C 
ATOM      4  C   UNL     1      27.424 -13.645  31.026  1.00  0.00     0.159 C 
ATOM      5  O   UNL     1      26.529 -14.325  31.593  1.00  0.00    -0.295 OA
ATOM      6  C   UNL     1      27.170 -12.878  29.727  1.00  0.00     0.067 C 
ATOM      7  C   UNL     1      28.397 -13.206  28.848  1.00  0.00     0.021 C 
ATOM      8  C   UNL     1      29.129 -12.071  29.600  1.00  0.00     0.022 C 
ATOM      9  C   UNL     1      27.737 -11.438  29.884  1.00  0.00    -0.019 C 
ATOM     10  C   UNL     1      27.274 -10.495  28.744  1.00  0.00     0.012 C 
ATOM     11  C   UNL     1      27.525 -10.705  31.239  1.00  0.00     0.012 C 
ENDROOT
TORSDOF 0
ENDMDL
