MODEL 1
REMARK VINA RESULT:    -5.373      0.000      0.000
REMARK INTER + INTRA:          -8.453
REMARK INTER:                  -8.201
REMARK INTRA:                  -0.252
REMARK UNBOUND:                -0.252
REMARK SMILES CC1=CCC[C@@H](C)C(=O)C[C@@H](C(C)C)C(=O)C1
REMARK SMILES IDX 8 1 9 2 6 3 7 4 5 5 4 6 3 7 2 8 1 9 10 11 11 12 15 13 16 14
REMARK SMILES IDX 17 15 12 17 13 18 14 19
REMARK H PARENT
REMARK Flexibility Score: 70.00
ROOT
ATOM      1  C   UNL     1      28.407 -22.065  19.207  1.00  0.00     0.136 C 
ATOM      2  O   UNL     1      29.617 -21.980  19.372  1.00  0.00    -0.299 OA
ENDROOT
BRANCH   1   3
ATOM      3  C   UNL     1      27.661 -23.295  19.703  1.00  0.00     0.053 C 
ATOM      4  C   UNL     1      28.625 -24.462  19.968  1.00  0.00     0.016 C 
BRANCH   3   5
ATOM      5  C   UNL     1      26.516 -23.723  18.754  1.00  0.00     0.015 C 
BRANCH   5   6
ATOM      6  C   UNL     1      25.182 -24.017  19.474  1.00  0.00     0.028 C 
BRANCH   6   7
ATOM      7  C   UNL     1      23.970 -23.597  18.691  1.00  0.00    -0.028 C 
ATOM      8  C   UNL     1      23.568 -22.321  18.453  1.00  0.00    -0.070 CG0
ATOM      9  C   UNL     1      22.429 -22.143  17.477  1.00  0.00     0.039 C 
ATOM     10  G   UNL     1      24.046 -21.084  19.214  1.00  0.00     0.000 G0
ENDBRANCH   6   7
ENDBRANCH   5   6
ENDBRANCH   3   5
ENDBRANCH   1   3
BRANCH   1  11
ATOM     11  C   UNL     1      27.695 -20.921  18.530  1.00  0.00     0.087 C 
BRANCH  11  12
ATOM     12  C   UNL     1      26.545 -20.274  19.354  1.00  0.00     0.066 C 
BRANCH  12  13
ATOM     13  C   UNL     1      25.202 -20.310  18.620  1.00  0.00     0.140 C 
ATOM     14  O   UNL     1      25.028 -19.610  17.633  1.00  0.00    -0.299 OA
BRANCH  13  15
ATOM     15  C   UNL     1      24.032 -21.076  19.208  1.00  0.00     0.106 CG0
ATOM     16  G   UNL     1      23.557 -22.324  18.465  1.00  0.00     0.000 G0
ENDBRANCH  13  15
ENDBRANCH  12  13
BRANCH  12  17
ATOM     17  C   UNL     1      26.916 -18.807  19.759  1.00  0.00    -0.006 C 
ATOM     18  C   UNL     1      28.371 -18.696  20.256  1.00  0.00     0.008 C 
ATOM     19  C   UNL     1      25.979 -18.248  20.845  1.00  0.00     0.008 C 
ENDBRANCH  12  17
ENDBRANCH  11  12
ENDBRANCH   1  11
TORSDOF 1
ENDMDL
MODEL 2
REMARK VINA RESULT:    -4.941      1.861      4.162
REMARK INTER + INTRA:          -7.793
REMARK INTER:                  -7.424
REMARK INTRA:                  -0.369
REMARK UNBOUND:                -0.252
REMARK SMILES CC1=CCC[C@@H](C)C(=O)C[C@@H](C(C)C)C(=O)C1
REMARK SMILES IDX 8 1 9 2 6 3 7 4 5 5 4 6 3 7 2 8 1 9 10 11 11 12 15 13 16 14
REMARK SMILES IDX 17 15 12 17 13 18 14 19
REMARK H PARENT
REMARK Flexibility Score: 70.00
ROOT
ATOM      1  C   UNL     1      27.923 -22.833  19.493  1.00  0.00     0.136 C 
ATOM      2  O   UNL     1      29.083 -23.155  19.716  1.00  0.00    -0.299 OA
ENDROOT
BRANCH   1   3
ATOM      3  C   UNL     1      27.627 -21.524  18.776  1.00  0.00     0.053 C 
ATOM      4  C   UNL     1      28.915 -20.728  18.513  1.00  0.00     0.016 C 
BRANCH   3   5
ATOM      5  C   UNL     1      26.579 -20.659  19.518  1.00  0.00     0.015 C 
BRANCH   5   6
ATOM      6  C   UNL     1      25.391 -20.220  18.636  1.00  0.00     0.028 C 
BRANCH   6   7
ATOM      7  C   UNL     1      24.063 -20.284  19.338  1.00  0.00    -0.028 C 
ATOM      8  C   UNL     1      23.305 -21.395  19.524  1.00  0.00    -0.070 CG0
ATOM      9  C   UNL     1      22.104 -21.248  20.428  1.00  0.00     0.039 C 
ATOM     10  G   UNL     1      23.460 -22.713  18.765  1.00  0.00     0.000 G0
ENDBRANCH   6   7
ENDBRANCH   5   6
ENDBRANCH   3   5
ENDBRANCH   1   3
BRANCH   1  11
ATOM     11  C   UNL     1      26.824 -23.771  19.925  1.00  0.00     0.087 C 
BRANCH  11  12
ATOM     12  C   UNL     1      25.731 -24.050  18.855  1.00  0.00     0.066 C 
BRANCH  12  13
ATOM     13  C   UNL     1      24.314 -23.811  19.384  1.00  0.00     0.140 C 
ATOM     14  O   UNL     1      23.833 -24.576  20.207  1.00  0.00    -0.299 OA
BRANCH  13  15
ATOM     15  C   UNL     1      23.442 -22.733  18.768  1.00  0.00     0.106 CG0
ATOM     16  G   UNL     1      23.309 -21.411  19.523  1.00  0.00     0.000 G0
ENDBRANCH  13  15
ENDBRANCH  12  13
BRANCH  12  17
ATOM     17  C   UNL     1      25.872 -25.504  18.289  1.00  0.00    -0.006 C 
ATOM     18  C   UNL     1      27.318 -25.815  17.853  1.00  0.00     0.008 C 
ATOM     19  C   UNL     1      24.930 -25.760  17.099  1.00  0.00     0.008 C 
ENDBRANCH  12  17
ENDBRANCH  11  12
ENDBRANCH   1  11
TORSDOF 1
ENDMDL
MODEL 3
REMARK VINA RESULT:    -4.925      1.812      4.242
REMARK INTER + INTRA:          -7.769
REMARK INTER:                  -7.737
REMARK INTRA:                  -0.033
REMARK UNBOUND:                -0.252
REMARK SMILES CC1=CCC[C@@H](C)C(=O)C[C@@H](C(C)C)C(=O)C1
REMARK SMILES IDX 8 1 9 2 6 3 7 4 5 5 4 6 3 7 2 8 1 9 10 11 11 12 15 13 16 14
REMARK SMILES IDX 17 15 12 17 13 18 14 19
REMARK H PARENT
REMARK Flexibility Score: 70.00
ROOT
ATOM      1  C   UNL     1      26.070 -24.344  18.968  1.00  0.00     0.136 C 
ATOM      2  O   UNL     1      25.712 -25.456  18.601  1.00  0.00    -0.299 OA
ENDROOT
BRANCH   1   3
ATOM      3  C   UNL     1      27.537 -23.953  18.873  1.00  0.00     0.053 C 
ATOM      4  C   UNL     1      28.454 -25.138  19.216  1.00  0.00     0.016 C 
BRANCH   3   5
ATOM      5  C   UNL     1      27.883 -22.713  19.733  1.00  0.00     0.015 C 
BRANCH   5   6
ATOM      6  C   UNL     1      28.198 -21.447  18.908  1.00  0.00     0.028 C 
BRANCH   6   7
ATOM      7  C   UNL     1      27.875 -20.166  19.624  1.00  0.00    -0.028 C 
ATOM      8  C   UNL     1      26.663 -19.554  19.670  1.00  0.00    -0.070 CG0
ATOM      9  C   UNL     1      26.535 -18.381  20.613  1.00  0.00     0.039 C 
ATOM     10  G   UNL     1      25.490 -19.836  18.731  1.00  0.00     0.000 G0
ENDBRANCH   6   7
ENDBRANCH   5   6
ENDBRANCH   3   5
ENDBRANCH   1   3
BRANCH   1  11
ATOM     11  C   UNL     1      25.024 -23.390  19.486  1.00  0.00     0.087 C 
BRANCH  11  12
ATOM     12  C   UNL     1      24.569 -22.294  18.481  1.00  0.00     0.066 C 
BRANCH  12  13
ATOM     13  C   UNL     1      24.492 -20.904  19.120  1.00  0.00     0.140 C 
ATOM     14  O   UNL     1      23.551 -20.618  19.846  1.00  0.00    -0.299 OA
BRANCH  13  15
ATOM     15  C   UNL     1      25.483 -19.826  18.722  1.00  0.00     0.106 CG0
ATOM     16  G   UNL     1      26.653 -19.555  19.668  1.00  0.00     0.000 G0
ENDBRANCH  13  15
ENDBRANCH  12  13
BRANCH  12  17
ATOM     17  C   UNL     1      23.198 -22.679  17.828  1.00  0.00    -0.006 C 
ATOM     18  C   UNL     1      23.266 -24.038  17.104  1.00  0.00     0.008 C 
ATOM     19  C   UNL     1      22.708 -21.613  16.832  1.00  0.00     0.008 C 
ENDBRANCH  12  17
ENDBRANCH  11  12
ENDBRANCH   1  11
TORSDOF 1
ENDMDL
MODEL 4
REMARK VINA RESULT:    -4.921      2.471      4.630
REMARK INTER + INTRA:          -7.762
REMARK INTER:                  -7.651
REMARK INTRA:                  -0.111
REMARK UNBOUND:                -0.252
REMARK SMILES CC1=CCC[C@@H](C)C(=O)C[C@@H](C(C)C)C(=O)C1
REMARK SMILES IDX 8 1 9 2 6 3 7 4 5 5 4 6 3 7 2 8 1 9 10 11 11 12 15 13 16 14
REMARK SMILES IDX 17 15 12 17 13 18 14 19
REMARK H PARENT
REMARK Flexibility Score: 70.00
ROOT
ATOM      1  C   UNL     1      22.663 -20.608  20.492  1.00  0.00     0.136 C 
ATOM      2  O   UNL     1      22.386 -19.799  21.367  1.00  0.00    -0.299 OA
ENDROOT
BRANCH   1   3
ATOM      3  C   UNL     1      21.923 -21.937  20.430  1.00  0.00     0.053 C 
ATOM      4  C   UNL     1      20.407 -21.725  20.300  1.00  0.00     0.016 C 
BRANCH   3   5
ATOM      5  C   UNL     1      22.256 -22.863  21.625  1.00  0.00     0.015 C 
BRANCH   5   6
ATOM      6  C   UNL     1      23.373 -23.887  21.331  1.00  0.00     0.028 C 
BRANCH   6   7
ATOM      7  C   UNL     1      23.370 -24.393  19.916  1.00  0.00    -0.028 C 
ATOM      8  C   UNL     1      24.408 -24.341  19.042  1.00  0.00    -0.070 CG0
ATOM      9  C   UNL     1      24.232 -25.087  17.740  1.00  0.00     0.039 C 
ATOM     10  G   UNL     1      25.647 -23.457  19.186  1.00  0.00     0.000 G0
ENDBRANCH   6   7
ENDBRANCH   5   6
ENDBRANCH   3   5
ENDBRANCH   1   3
BRANCH   1  11
ATOM     11  C   UNL     1      23.725 -20.241  19.486  1.00  0.00     0.087 C 
BRANCH  11  12
ATOM     12  C   UNL     1      24.163 -21.389  18.533  1.00  0.00     0.066 C 
BRANCH  12  13
ATOM     13  C   UNL     1      25.526 -21.979  18.908  1.00  0.00     0.140 C 
ATOM     14  O   UNL     1      26.527 -21.279  18.861  1.00  0.00    -0.299 OA
BRANCH  13  15
ATOM     15  C   UNL     1      25.667 -23.466  19.172  1.00  0.00     0.106 CG0
ATOM     16  G   UNL     1      24.413 -24.331  19.042  1.00  0.00     0.000 G0
ENDBRANCH  13  15
ENDBRANCH  12  13
BRANCH  12  17
ATOM     17  C   UNL     1      24.163 -20.901  17.045  1.00  0.00    -0.006 C 
ATOM     18  C   UNL     1      24.100 -19.364  16.943  1.00  0.00     0.008 C 
ATOM     19  C   UNL     1      22.997 -21.498  16.237  1.00  0.00     0.008 C 
ENDBRANCH  12  17
ENDBRANCH  11  12
ENDBRANCH   1  11
TORSDOF 1
ENDMDL
MODEL 5
REMARK VINA RESULT:    -4.897      3.409      7.332
REMARK INTER + INTRA:          -7.726
REMARK INTER:                  -7.469
REMARK INTRA:                  -0.257
REMARK UNBOUND:                -0.252
REMARK SMILES CC1=CCC[C@@H](C)C(=O)C[C@@H](C(C)C)C(=O)C1
REMARK SMILES IDX 8 1 9 2 6 3 7 4 5 5 4 6 3 7 2 8 1 9 10 11 11 12 15 13 16 14
REMARK SMILES IDX 17 15 12 17 13 18 14 19
REMARK H PARENT
REMARK Flexibility Score: 70.00
ROOT
ATOM      1  C   UNL     1      18.615 -21.747  17.771  1.00  0.00     0.136 C 
ATOM      2  O   UNL     1      17.450 -21.755  17.395  1.00  0.00    -0.299 OA
ENDROOT
BRANCH   1   3
ATOM      3  C   UNL     1      18.938 -22.003  19.236  1.00  0.00     0.053 C 
ATOM      4  C   UNL     1      17.731 -21.695  20.135  1.00  0.00     0.016 C 
BRANCH   3   5
ATOM      5  C   UNL     1      20.198 -21.239  19.713  1.00  0.00     0.015 C 
BRANCH   5   6
ATOM      6  C   UNL     1      21.284 -22.147  20.328  1.00  0.00     0.028 C 
BRANCH   6   7
ATOM      7  C   UNL     1      22.686 -21.678  20.056  1.00  0.00    -0.028 C 
ATOM      8  C   UNL     1      23.369 -21.820  18.890  1.00  0.00    -0.070 CG0
ATOM      9  C   UNL     1      24.691 -21.097  18.790  1.00  0.00     0.039 C 
ATOM     10  G   UNL     1      23.002 -22.781  17.759  1.00  0.00     0.000 G0
ENDBRANCH   6   7
ENDBRANCH   5   6
ENDBRANCH   3   5
ENDBRANCH   1   3
BRANCH   1  11
ATOM     11  C   UNL     1      19.696 -21.501  16.749  1.00  0.00     0.087 C 
BRANCH  11  12
ATOM     12  C   UNL     1      20.674 -22.688  16.517  1.00  0.00     0.066 C 
BRANCH  12  13
ATOM     13  C   UNL     1      22.143 -22.269  16.620  1.00  0.00     0.140 C 
ATOM     14  O   UNL     1      22.659 -21.628  15.717  1.00  0.00    -0.299 OA
BRANCH  13  15
ATOM     15  C   UNL     1      23.007 -22.791  17.753  1.00  0.00     0.106 CG0
ATOM     16  G   UNL     1      23.369 -21.818  18.875  1.00  0.00     0.000 G0
ENDBRANCH  13  15
ENDBRANCH  12  13
BRANCH  12  17
ATOM     17  C   UNL     1      20.390 -23.375  15.139  1.00  0.00    -0.006 C 
ATOM     18  C   UNL     1      18.904 -23.754  14.979  1.00  0.00     0.008 C 
ATOM     19  C   UNL     1      21.247 -24.637  14.930  1.00  0.00     0.008 C 
ENDBRANCH  12  17
ENDBRANCH  11  12
ENDBRANCH   1  11
TORSDOF 1
ENDMDL
MODEL 6
REMARK VINA RESULT:    -4.859      2.791      4.846
REMARK INTER + INTRA:          -7.667
REMARK INTER:                  -7.559
REMARK INTRA:                  -0.108
REMARK UNBOUND:                -0.252
REMARK SMILES CC1=CCC[C@@H](C)C(=O)C[C@@H](C(C)C)C(=O)C1
REMARK SMILES IDX 8 1 9 2 6 3 7 4 5 5 4 6 3 7 2 8 1 9 10 11 11 12 15 13 16 14
REMARK SMILES IDX 17 15 12 17 13 18 14 19
REMARK H PARENT
REMARK Flexibility Score: 70.00
ROOT
ATOM      1  C   UNL     1      24.044 -20.092  19.751  1.00  0.00     0.136 C 
ATOM      2  O   UNL     1      24.175 -19.001  20.290  1.00  0.00    -0.299 OA
ENDROOT
BRANCH   1   3
ATOM      3  C   UNL     1      24.781 -20.387  18.452  1.00  0.00     0.053 C 
ATOM      4  C   UNL     1      26.302 -20.423  18.670  1.00  0.00     0.016 C 
BRANCH   3   5
ATOM      5  C   UNL     1      24.404 -19.406  17.315  1.00  0.00     0.015 C 
BRANCH   5   6
ATOM      6  C   UNL     1      23.363 -19.967  16.324  1.00  0.00     0.028 C 
BRANCH   6   7
ATOM      7  C   UNL     1      23.396 -21.465  16.198  1.00  0.00    -0.028 C 
ATOM      8  C   UNL     1      22.386 -22.320  16.503  1.00  0.00    -0.070 CG0
ATOM      9  C   UNL     1      22.584 -23.765  16.111  1.00  0.00     0.039 C 
ATOM     10  G   UNL     1      21.164 -21.982  17.357  1.00  0.00     0.000 G0
ENDBRANCH   6   7
ENDBRANCH   5   6
ENDBRANCH   3   5
ENDBRANCH   1   3
BRANCH   1  11
ATOM     11  C   UNL     1      23.164 -21.119  20.417  1.00  0.00     0.087 C 
BRANCH  11  12
ATOM     12  C   UNL     1      22.685 -22.280  19.499  1.00  0.00     0.066 C 
BRANCH  12  13
ATOM     13  C   UNL     1      21.315 -22.009  18.872  1.00  0.00     0.140 C 
ATOM     14  O   UNL     1      20.322 -21.943  19.582  1.00  0.00    -0.299 OA
BRANCH  13  15
ATOM     15  C   UNL     1      21.156 -21.993  17.363  1.00  0.00     0.106 CG0
ATOM     16  G   UNL     1      22.384 -22.330  16.518  1.00  0.00     0.000 G0
ENDBRANCH  13  15
ENDBRANCH  12  13
BRANCH  12  17
ATOM     17  C   UNL     1      22.676 -23.635  20.284  1.00  0.00    -0.006 C 
ATOM     18  C   UNL     1      22.625 -23.417  21.809  1.00  0.00     0.008 C 
ATOM     19  C   UNL     1      23.898 -24.510  19.950  1.00  0.00     0.008 C 
ENDBRANCH  12  17
ENDBRANCH  11  12
ENDBRANCH   1  11
TORSDOF 1
ENDMDL
MODEL 7
REMARK VINA RESULT:    -4.820      3.119      4.164
REMARK INTER + INTRA:          -7.608
REMARK INTER:                  -7.989
REMARK INTRA:                   0.382
REMARK UNBOUND:                -0.252
REMARK SMILES CC1=CCC[C@@H](C)C(=O)C[C@@H](C(C)C)C(=O)C1
REMARK SMILES IDX 8 1 9 2 6 3 7 4 5 5 4 6 3 7 2 8 1 9 10 11 11 12 15 13 16 14
REMARK SMILES IDX 17 15 12 17 13 18 14 19
REMARK H PARENT
REMARK Flexibility Score: 70.00
ROOT
ATOM      1  C   UNL     1      22.782 -22.573  20.408  1.00  0.00     0.136 C 
ATOM      2  O   UNL     1      21.863 -22.078  21.048  1.00  0.00    -0.299 OA
ENDROOT
BRANCH   1   3
ATOM      3  C   UNL     1      22.879 -24.085  20.272  1.00  0.00     0.053 C 
ATOM      4  C   UNL     1      22.313 -24.794  21.512  1.00  0.00     0.016 C 
BRANCH   3   5
ATOM      5  C   UNL     1      24.318 -24.566  19.963  1.00  0.00     0.015 C 
BRANCH   5   6
ATOM      6  C   UNL     1      24.736 -24.383  18.488  1.00  0.00     0.028 C 
BRANCH   6   7
ATOM      7  C   UNL     1      23.706 -24.866  17.506  1.00  0.00    -0.028 C 
ATOM      8  C   UNL     1      23.118 -24.126  16.530  1.00  0.00    -0.070 CG0
ATOM      9  C   UNL     1      22.257 -24.877  15.541  1.00  0.00     0.039 C 
ATOM     10  G   UNL     1      23.110 -22.599  16.456  1.00  0.00     0.000 G0
ENDBRANCH   6   7
ENDBRANCH   5   6
ENDBRANCH   3   5
ENDBRANCH   1   3
BRANCH   1  11
ATOM     11  C   UNL     1      23.780 -21.649  19.757  1.00  0.00     0.087 C 
BRANCH  11  12
ATOM     12  C   UNL     1      23.272 -20.915  18.483  1.00  0.00     0.066 C 
BRANCH  12  13
ATOM     13  C   UNL     1      22.439 -21.823  17.573  1.00  0.00     0.140 C 
ATOM     14  O   UNL     1      21.266 -22.042  17.839  1.00  0.00    -0.299 OA
BRANCH  13  15
ATOM     15  C   UNL     1      23.103 -22.587  16.444  1.00  0.00     0.106 CG0
ATOM     16  G   UNL     1      23.102 -24.114  16.524  1.00  0.00     0.000 G0
ENDBRANCH  13  15
ENDBRANCH  12  13
BRANCH  12  17
ATOM     17  C   UNL     1      24.471 -20.290  17.692  1.00  0.00    -0.006 C 
ATOM     18  C   UNL     1      25.421 -19.501  18.614  1.00  0.00     0.008 C 
ATOM     19  C   UNL     1      24.000 -19.362  16.557  1.00  0.00     0.008 C 
ENDBRANCH  12  17
ENDBRANCH  11  12
ENDBRANCH   1  11
TORSDOF 1
ENDMDL
MODEL 8
REMARK VINA RESULT:    -4.751      1.804      4.103
REMARK INTER + INTRA:          -7.503
REMARK INTER:                  -7.279
REMARK INTRA:                  -0.223
REMARK UNBOUND:                -0.252
REMARK SMILES CC1=CCC[C@@H](C)C(=O)C[C@@H](C(C)C)C(=O)C1
REMARK SMILES IDX 8 1 9 2 6 3 7 4 5 5 4 6 3 7 2 8 1 9 10 11 11 12 15 13 16 14
REMARK SMILES IDX 17 15 12 17 13 18 14 19
REMARK H PARENT
REMARK Flexibility Score: 70.00
ROOT
ATOM      1  C   UNL     1      24.337 -20.063  17.390  1.00  0.00     0.136 C 
ATOM      2  O   UNL     1      24.334 -18.839  17.361  1.00  0.00    -0.299 OA
ENDROOT
BRANCH   1   3
ATOM      3  C   UNL     1      23.969 -20.848  16.140  1.00  0.00     0.053 C 
ATOM      4  C   UNL     1      24.275 -20.045  14.866  1.00  0.00     0.016 C 
BRANCH   3   5
ATOM      5  C   UNL     1      22.500 -21.336  16.151  1.00  0.00     0.015 C 
BRANCH   5   6
ATOM      6  C   UNL     1      22.232 -22.494  17.137  1.00  0.00     0.028 C 
BRANCH   6   7
ATOM      7  C   UNL     1      23.100 -23.699  16.901  1.00  0.00    -0.028 C 
ATOM      8  C   UNL     1      23.921 -24.288  17.809  1.00  0.00    -0.070 CG0
ATOM      9  C   UNL     1      24.545 -25.602  17.401  1.00  0.00     0.039 C 
ATOM     10  G   UNL     1      24.399 -23.655  19.116  1.00  0.00     0.000 G0
ENDBRANCH   6   7
ENDBRANCH   5   6
ENDBRANCH   3   5
ENDBRANCH   1   3
BRANCH   1  11
ATOM     11  C   UNL     1      24.731 -20.748  18.674  1.00  0.00     0.087 C 
BRANCH  11  12
ATOM     12  C   UNL     1      26.018 -21.618  18.594  1.00  0.00     0.066 C 
BRANCH  12  13
ATOM     13  C   UNL     1      25.801 -23.040  19.117  1.00  0.00     0.140 C 
ATOM     14  O   UNL     1      26.763 -23.736  19.410  1.00  0.00    -0.299 OA
BRANCH  13  15
ATOM     15  C   UNL     1      24.412 -23.651  19.111  1.00  0.00     0.106 CG0
ATOM     16  G   UNL     1      23.920 -24.280  17.808  1.00  0.00     0.000 G0
ENDBRANCH  13  15
ENDBRANCH  12  13
BRANCH  12  17
ATOM     17  C   UNL     1      27.200 -20.924  19.353  1.00  0.00    -0.006 C 
ATOM     18  C   UNL     1      26.872 -19.462  19.716  1.00  0.00     0.008 C 
ATOM     19  C   UNL     1      28.508 -20.951  18.542  1.00  0.00     0.008 C 
ENDBRANCH  12  17
ENDBRANCH  11  12
ENDBRANCH   1  11
TORSDOF 1
ENDMDL
MODEL 9
REMARK VINA RESULT:    -4.628      2.879      4.808
REMARK INTER + INTRA:          -7.315
REMARK INTER:                  -7.405
REMARK INTRA:                   0.090
REMARK UNBOUND:                -0.252
REMARK SMILES CC1=CCC[C@@H](C)C(=O)C[C@@H](C(C)C)C(=O)C1
REMARK SMILES IDX 8 1 9 2 6 3 7 4 5 5 4 6 3 7 2 8 1 9 10 11 11 12 15 13 16 14
REMARK SMILES IDX 17 15 12 17 13 18 14 19
REMARK H PARENT
REMARK Flexibility Score: 70.00
ROOT
ATOM      1  C   UNL     1      23.672 -23.843  19.600  1.00  0.00     0.136 C 
ATOM      2  O   UNL     1      24.707 -24.497  19.631  1.00  0.00    -0.299 OA
ENDROOT
BRANCH   1   3
ATOM      3  C   UNL     1      23.033 -23.378  20.900  1.00  0.00     0.053 C 
ATOM      4  C   UNL     1      23.244 -24.404  22.024  1.00  0.00     0.016 C 
BRANCH   3   5
ATOM      5  C   UNL     1      21.533 -23.030  20.737  1.00  0.00     0.015 C 
BRANCH   5   6
ATOM      6  C   UNL     1      21.248 -21.516  20.641  1.00  0.00     0.028 C 
BRANCH   6   7
ATOM      7  C   UNL     1      22.355 -20.659  21.188  1.00  0.00    -0.028 C 
ATOM      8  C   UNL     1      23.225 -19.910  20.461  1.00  0.00    -0.070 CG0
ATOM      9  C   UNL     1      24.126 -18.980  21.238  1.00  0.00     0.039 C 
ATOM     10  G   UNL     1      23.487 -20.059  18.963  1.00  0.00     0.000 G0
ENDBRANCH   6   7
ENDBRANCH   5   6
ENDBRANCH   3   5
ENDBRANCH   1   3
BRANCH   1  11
ATOM     11  C   UNL     1      23.081 -23.503  18.255  1.00  0.00     0.087 C 
BRANCH  11  12
ATOM     12  C   UNL     1      23.729 -22.288  17.532  1.00  0.00     0.066 C 
BRANCH  12  13
ATOM     13  C   UNL     1      24.319 -21.268  18.509  1.00  0.00     0.140 C 
ATOM     14  O   UNL     1      25.401 -21.484  19.037  1.00  0.00    -0.299 OA
BRANCH  13  15
ATOM     15  C   UNL     1      23.495 -20.076  18.957  1.00  0.00     0.106 CG0
ATOM     16  G   UNL     1      23.233 -19.917  20.455  1.00  0.00     0.000 G0
ENDBRANCH  13  15
ENDBRANCH  12  13
BRANCH  12  17
ATOM     17  C   UNL     1      22.698 -21.603  16.573  1.00  0.00    -0.006 C 
ATOM     18  C   UNL     1      21.701 -22.618  15.978  1.00  0.00     0.008 C 
ATOM     19  C   UNL     1      23.385 -20.851  15.419  1.00  0.00     0.008 C 
ENDBRANCH  12  17
ENDBRANCH  11  12
ENDBRANCH   1  11
TORSDOF 1
ENDMDL
