MODEL 1
REMARK VINA RESULT:    -4.002      0.000      0.000
REMARK INTER + INTRA:          -4.752
REMARK INTER:                  -4.704
REMARK INTRA:                  -0.048
REMARK UNBOUND:                -0.048
REMARK SMILES CCCCC(=O)[O-]
REMARK SMILES IDX 4 1 5 2 6 3 7 4 3 5 2 6 1 7
REMARK H PARENT
REMARK Flexibility Score: inf
ROOT
ATOM      1  C   UNL     1     -21.375   0.551   8.784  1.00  0.00     0.053 C 
ENDROOT
BRANCH   1   2
ATOM      2  C   UNL     1     -22.027   1.575   9.657  1.00  0.00     0.041 C 
ATOM      3  O   UNL     1     -22.494   2.632   9.155  1.00  0.00    -0.550 OA
ATOM      4  O   UNL     1     -22.077   1.386  11.032  1.00  0.00    -0.550 OA
ENDBRANCH   1   2
BRANCH   1   5
ATOM      5  C   UNL     1     -21.095   1.131   7.394  1.00  0.00     0.006 C 
BRANCH   5   6
ATOM      6  C   UNL     1     -21.055   0.025   6.334  1.00  0.00    -0.003 C 
ATOM      7  C   UNL     1     -21.057  -1.357   6.980  1.00  0.00     0.004 C 
ENDBRANCH   5   6
ENDBRANCH   1   5
TORSDOF 3
ENDMDL
MODEL 2
REMARK VINA RESULT:    -3.939      2.639      3.416
REMARK INTER + INTRA:          -4.678
REMARK INTER:                  -4.634
REMARK INTRA:                  -0.044
REMARK UNBOUND:                -0.048
REMARK SMILES CCCCC(=O)[O-]
REMARK SMILES IDX 4 1 5 2 6 3 7 4 3 5 2 6 1 7
REMARK H PARENT
REMARK Flexibility Score: inf
ROOT
ATOM      1  C   UNL     1     -21.097  -0.683   8.662  1.00  0.00     0.053 C 
ENDROOT
BRANCH   1   2
ATOM      2  C   UNL     1     -20.611  -1.849   9.463  1.00  0.00     0.041 C 
ATOM      3  O   UNL     1     -20.624  -1.803  10.721  1.00  0.00    -0.550 OA
ATOM      4  O   UNL     1     -20.098  -2.969   8.820  1.00  0.00    -0.550 OA
ENDBRANCH   1   2
BRANCH   1   5
ATOM      5  C   UNL     1     -21.157  -1.043   7.174  1.00  0.00     0.006 C 
BRANCH   5   6
ATOM      6  C   UNL     1     -21.213   0.219   6.306  1.00  0.00    -0.003 C 
ATOM      7  C   UNL     1     -21.106   1.480   7.158  1.00  0.00     0.004 C 
ENDBRANCH   5   6
ENDBRANCH   1   5
TORSDOF 3
ENDMDL
MODEL 3
REMARK VINA RESULT:    -3.311      2.711      3.988
REMARK INTER + INTRA:          -3.940
REMARK INTER:                  -3.920
REMARK INTRA:                  -0.021
REMARK UNBOUND:                -0.048
REMARK SMILES CCCCC(=O)[O-]
REMARK SMILES IDX 4 1 5 2 6 3 7 4 3 5 2 6 1 7
REMARK H PARENT
REMARK Flexibility Score: inf
ROOT
ATOM      1  C   UNL     1     -21.245   0.945   7.442  1.00  0.00     0.053 C 
ENDROOT
BRANCH   1   2
ATOM      2  C   UNL     1     -20.892  -0.265   6.638  1.00  0.00     0.041 C 
ATOM      3  O   UNL     1     -20.133  -0.163   5.640  1.00  0.00    -0.550 OA
ATOM      4  O   UNL     1     -21.441  -1.499   6.963  1.00  0.00    -0.550 OA
ENDBRANCH   1   2
BRANCH   1   5
ATOM      5  C   UNL     1     -21.374   0.585   8.926  1.00  0.00     0.006 C 
BRANCH   5   6
ATOM      6  C   UNL     1     -22.098   1.692   9.699  1.00  0.00    -0.003 C 
ATOM      7  C   UNL     1     -22.054   1.435  11.202  1.00  0.00     0.004 C 
ENDBRANCH   5   6
ENDBRANCH   1   5
TORSDOF 3
ENDMDL
MODEL 4
REMARK VINA RESULT:    -3.265      2.753      4.143
REMARK INTER + INTRA:          -3.886
REMARK INTER:                  -3.862
REMARK INTRA:                  -0.024
REMARK UNBOUND:                -0.048
REMARK SMILES CCCCC(=O)[O-]
REMARK SMILES IDX 4 1 5 2 6 3 7 4 3 5 2 6 1 7
REMARK H PARENT
REMARK Flexibility Score: inf
ROOT
ATOM      1  C   UNL     1     -21.129   0.841   7.537  1.00  0.00     0.053 C 
ENDROOT
BRANCH   1   2
ATOM      2  C   UNL     1     -20.844  -0.403   6.757  1.00  0.00     0.041 C 
ATOM      3  O   UNL     1     -21.250  -1.519   7.173  1.00  0.00    -0.550 OA
ATOM      4  O   UNL     1     -20.087  -0.335   5.594  1.00  0.00    -0.550 OA
ENDBRANCH   1   2
BRANCH   1   5
ATOM      5  C   UNL     1     -21.407   0.502   9.005  1.00  0.00     0.006 C 
BRANCH   5   6
ATOM      6  C   UNL     1     -22.100   1.669   9.717  1.00  0.00    -0.003 C 
ATOM      7  C   UNL     1     -22.070   1.487  11.231  1.00  0.00     0.004 C 
ENDBRANCH   5   6
ENDBRANCH   1   5
TORSDOF 3
ENDMDL
MODEL 5
REMARK VINA RESULT:    -3.263      1.771      2.444
REMARK INTER + INTRA:          -3.884
REMARK INTER:                  -3.842
REMARK INTRA:                  -0.042
REMARK UNBOUND:                -0.048
REMARK SMILES CCCCC(=O)[O-]
REMARK SMILES IDX 4 1 5 2 6 3 7 4 3 5 2 6 1 7
REMARK H PARENT
REMARK Flexibility Score: inf
ROOT
ATOM      1  C   UNL     1     -21.357   0.269   8.886  1.00  0.00     0.053 C 
ENDROOT
BRANCH   1   2
ATOM      2  C   UNL     1     -21.585   1.549   8.146  1.00  0.00     0.041 C 
ATOM      3  O   UNL     1     -21.115   1.704   6.989  1.00  0.00    -0.550 OA
ATOM      4  O   UNL     1     -22.277   2.589   8.754  1.00  0.00    -0.550 OA
ENDBRANCH   1   2
BRANCH   1   5
ATOM      5  C   UNL     1     -21.057  -0.870   7.907  1.00  0.00     0.006 C 
BRANCH   5   6
ATOM      6  C   UNL     1     -20.595  -2.128   8.651  1.00  0.00    -0.003 C 
ATOM      7  C   UNL     1     -20.547  -1.890  10.157  1.00  0.00     0.004 C 
ENDBRANCH   5   6
ENDBRANCH   1   5
TORSDOF 3
ENDMDL
MODEL 6
REMARK VINA RESULT:    -3.184      2.580      3.505
REMARK INTER + INTRA:          -3.791
REMARK INTER:                  -3.739
REMARK INTRA:                  -0.052
REMARK UNBOUND:                -0.048
REMARK SMILES CCCCC(=O)[O-]
REMARK SMILES IDX 4 1 5 2 6 3 7 4 3 5 2 6 1 7
REMARK H PARENT
REMARK Flexibility Score: inf
ROOT
ATOM      1  C   UNL     1     -21.269  -0.509   8.047  1.00  0.00     0.053 C 
ENDROOT
BRANCH   1   2
ATOM      2  C   UNL     1     -20.963   0.421   6.916  1.00  0.00     0.041 C 
ATOM      3  O   UNL     1     -20.437  -0.018   5.859  1.00  0.00    -0.550 OA
ATOM      4  O   UNL     1     -21.213   1.781   7.047  1.00  0.00    -0.550 OA
ENDBRANCH   1   2
BRANCH   1   5
ATOM      5  C   UNL     1     -20.769  -1.922   7.730  1.00  0.00     0.006 C 
BRANCH   5   6
ATOM      6  C   UNL     1     -20.346  -2.655   9.007  1.00  0.00    -0.003 C 
ATOM      7  C   UNL     1     -20.567  -1.785  10.241  1.00  0.00     0.004 C 
ENDBRANCH   5   6
ENDBRANCH   1   5
TORSDOF 3
ENDMDL
MODEL 7
REMARK VINA RESULT:    -2.166      2.296      4.176
REMARK INTER + INTRA:          -2.594
REMARK INTER:                  -2.530
REMARK INTRA:                  -0.064
REMARK UNBOUND:                -0.048
REMARK SMILES CCCCC(=O)[O-]
REMARK SMILES IDX 4 1 5 2 6 3 7 4 3 5 2 6 1 7
REMARK H PARENT
REMARK Flexibility Score: inf
ROOT
ATOM      1  C   UNL     1     -21.906   1.797   9.601  1.00  0.00     0.053 C 
ENDROOT
BRANCH   1   2
ATOM      2  C   UNL     1     -21.415   0.716   8.691  1.00  0.00     0.041 C 
ATOM      3  O   UNL     1     -21.130  -0.420   9.153  1.00  0.00    -0.550 OA
ATOM      4  O   UNL     1     -21.225   0.978   7.340  1.00  0.00    -0.550 OA
ENDBRANCH   1   2
BRANCH   1   5
ATOM      5  C   UNL     1     -22.505   1.194  10.876  1.00  0.00     0.006 C 
BRANCH   5   6
ATOM      6  C   UNL     1     -21.680   1.582  12.108  1.00  0.00    -0.003 C 
ATOM      7  C   UNL     1     -21.664   0.457  13.137  1.00  0.00     0.004 C 
ENDBRANCH   5   6
ENDBRANCH   1   5
TORSDOF 3
ENDMDL
MODEL 8
REMARK VINA RESULT:    -2.061     16.720     17.787
REMARK INTER + INTRA:          -2.471
REMARK INTER:                  -2.605
REMARK INTRA:                   0.134
REMARK UNBOUND:                -0.048
REMARK SMILES CCCCC(=O)[O-]
REMARK SMILES IDX 4 1 5 2 6 3 7 4 3 5 2 6 1 7
REMARK H PARENT
REMARK Flexibility Score: inf
ROOT
ATOM      1  C   UNL     1     -28.250  -8.134  -3.637  1.00  0.00     0.053 C 
ENDROOT
BRANCH   1   2
ATOM      2  C   UNL     1     -27.669  -9.512  -3.657  1.00  0.00     0.041 C 
ATOM      3  O   UNL     1     -27.403 -10.103  -2.578  1.00  0.00    -0.550 OA
ATOM      4  O   UNL     1     -27.376 -10.125  -4.869  1.00  0.00    -0.550 OA
ENDBRANCH   1   2
BRANCH   1   5
ATOM      5  C   UNL     1     -28.750  -7.742  -5.031  1.00  0.00     0.006 C 
BRANCH   5   6
ATOM      6  C   UNL     1     -30.274  -7.872  -5.125  1.00  0.00    -0.003 C 
ATOM      7  C   UNL     1     -30.719  -9.314  -4.901  1.00  0.00     0.004 C 
ENDBRANCH   5   6
ENDBRANCH   1   5
TORSDOF 3
ENDMDL
MODEL 9
REMARK VINA RESULT:    -1.976      2.451      3.821
REMARK INTER + INTRA:          -2.371
REMARK INTER:                  -2.450
REMARK INTRA:                   0.079
REMARK UNBOUND:                -0.048
REMARK SMILES CCCCC(=O)[O-]
REMARK SMILES IDX 4 1 5 2 6 3 7 4 3 5 2 6 1 7
REMARK H PARENT
REMARK Flexibility Score: inf
ROOT
ATOM      1  C   UNL     1     -22.172   1.501   9.405  1.00  0.00     0.053 C 
ENDROOT
BRANCH   1   2
ATOM      2  C   UNL     1     -21.353   0.778   8.383  1.00  0.00     0.041 C 
ATOM      3  O   UNL     1     -20.977   1.371   7.338  1.00  0.00    -0.550 OA
ATOM      4  O   UNL     1     -21.044  -0.564   8.563  1.00  0.00    -0.550 OA
ENDBRANCH   1   2
BRANCH   1   5
ATOM      5  C   UNL     1     -21.724   2.961   9.516  1.00  0.00     0.006 C 
BRANCH   5   6
ATOM      6  C   UNL     1     -22.576   3.867   8.620  1.00  0.00    -0.003 C 
ATOM      7  C   UNL     1     -22.132   5.323   8.727  1.00  0.00     0.004 C 
ENDBRANCH   5   6
ENDBRANCH   1   5
TORSDOF 3
ENDMDL
