MODEL 1
REMARK VINA RESULT:    -4.019      0.000      0.000
REMARK INTER + INTRA:          -5.561
REMARK INTER:                  -5.076
REMARK INTRA:                  -0.485
REMARK UNBOUND:                -0.485
REMARK SMILES CC(C)=CCCC(C)=CCO
REMARK SMILES IDX 7 1 9 2 8 3 6 4 5 5 4 6 1 7 2 8 3 9 10 10 11 11
REMARK H PARENT 11 12
REMARK Flexibility Score: inf
ROOT
ATOM      1  C   UNL     1       3.695 -11.877 -30.855  1.00  0.00    -0.075 C 
ATOM      2  C   UNL     1       2.630 -12.704 -30.939  1.00  0.00    -0.000 C 
ATOM      3  C   UNL     1       4.779 -11.875 -31.908  1.00  0.00     0.039 C 
ENDROOT
BRANCH   1   4
ATOM      4  C   UNL     1       3.802 -10.923 -29.683  1.00  0.00     0.034 C 
BRANCH   4   5
ATOM      5  C   UNL     1       2.478 -10.815 -28.912  1.00  0.00     0.032 C 
BRANCH   5   6
ATOM      6  C   UNL     1       2.660 -11.108 -27.442  1.00  0.00    -0.028 C 
ATOM      7  C   UNL     1       2.336 -12.285 -25.310  1.00  0.00     0.039 C 
ATOM      8  C   UNL     1       2.101 -12.153 -26.793  1.00  0.00    -0.080 C 
ATOM      9  C   UNL     1       1.271 -13.192 -27.510  1.00  0.00     0.039 C 
ENDBRANCH   5   6
ENDBRANCH   4   5
ENDBRANCH   1   4
BRANCH   2  10
ATOM     10  C   UNL     1       2.419 -13.691 -32.054  1.00  0.00     0.183 C 
BRANCH  10  11
ATOM     11  O   UNL     1       2.928 -14.942 -31.683  1.00  0.00    -0.392 OA
ATOM     12  H   UNL     1       2.859 -15.517 -32.489  1.00  0.00     0.210 HD
ENDBRANCH  10  11
ENDBRANCH   2  10
TORSDOF 5
ENDMDL
MODEL 2
REMARK VINA RESULT:    -4.005      3.094      4.464
REMARK INTER + INTRA:          -5.544
REMARK INTER:                  -4.902
REMARK INTRA:                  -0.642
REMARK UNBOUND:                -0.485
REMARK SMILES CC(C)=CCCC(C)=CCO
REMARK SMILES IDX 7 1 9 2 8 3 6 4 5 5 4 6 1 7 2 8 3 9 10 10 11 11
REMARK H PARENT 11 12
REMARK Flexibility Score: inf
ROOT
ATOM      1  C   UNL     1       1.764 -12.009 -33.849  1.00  0.00    -0.075 C 
ATOM      2  C   UNL     1       2.365 -12.809 -34.758  1.00  0.00    -0.000 C 
ATOM      3  C   UNL     1       1.820 -10.504 -33.959  1.00  0.00     0.039 C 
ENDROOT
BRANCH   1   4
ATOM      4  C   UNL     1       1.007 -12.638 -32.697  1.00  0.00     0.034 C 
BRANCH   4   5
ATOM      5  C   UNL     1       1.956 -13.238 -31.649  1.00  0.00     0.032 C 
BRANCH   5   6
ATOM      6  C   UNL     1       2.576 -12.171 -30.778  1.00  0.00    -0.028 C 
ATOM      7  C   UNL     1       4.341 -10.702 -29.906  1.00  0.00     0.039 C 
ATOM      8  C   UNL     1       3.853 -11.741 -30.883  1.00  0.00    -0.080 C 
ATOM      9  C   UNL     1       4.787 -12.255 -31.953  1.00  0.00     0.039 C 
ENDBRANCH   5   6
ENDBRANCH   4   5
ENDBRANCH   1   4
BRANCH   2  10
ATOM     10  C   UNL     1       3.142 -12.298 -35.940  1.00  0.00     0.183 C 
BRANCH  10  11
ATOM     11  O   UNL     1       2.765 -12.995 -37.094  1.00  0.00    -0.392 OA
ATOM     12  H   UNL     1       2.529 -12.306 -37.767  1.00  0.00     0.210 HD
ENDBRANCH  10  11
ENDBRANCH   2  10
TORSDOF 5
ENDMDL
MODEL 3
REMARK VINA RESULT:    -3.968      3.082      5.148
REMARK INTER + INTRA:          -5.496
REMARK INTER:                  -4.917
REMARK INTRA:                  -0.580
REMARK UNBOUND:                -0.485
REMARK SMILES CC(C)=CCCC(C)=CCO
REMARK SMILES IDX 7 1 9 2 8 3 6 4 5 5 4 6 1 7 2 8 3 9 10 10 11 11
REMARK H PARENT 11 12
REMARK Flexibility Score: inf
ROOT
ATOM      1  C   UNL     1       3.608 -12.081 -30.755  1.00  0.00    -0.075 C 
ATOM      2  C   UNL     1       3.900 -10.997 -30.003  1.00  0.00    -0.000 C 
ATOM      3  C   UNL     1       4.444 -12.460 -31.955  1.00  0.00     0.039 C 
ENDROOT
BRANCH   1   4
ATOM      4  C   UNL     1       2.419 -12.943 -30.381  1.00  0.00     0.034 C 
BRANCH   4   5
ATOM      5  C   UNL     1       1.553 -13.285 -31.603  1.00  0.00     0.032 C 
BRANCH   5   6
ATOM      6  C   UNL     1       0.810 -12.075 -32.118  1.00  0.00    -0.028 C 
ATOM      7  C   UNL     1       0.126 -10.355 -33.733  1.00  0.00     0.039 C 
ATOM      8  C   UNL     1       0.891 -11.606 -33.383  1.00  0.00    -0.080 C 
ATOM      9  C   UNL     1       1.701 -12.306 -34.448  1.00  0.00     0.039 C 
ENDBRANCH   5   6
ENDBRANCH   4   5
ENDBRANCH   1   4
BRANCH   2  10
ATOM     10  C   UNL     1       5.052 -10.071 -30.279  1.00  0.00     0.183 C 
BRANCH  10  11
ATOM     11  O   UNL     1       5.676  -9.718 -29.076  1.00  0.00    -0.392 OA
ATOM     12  H   UNL     1       5.446  -8.766 -28.916  1.00  0.00     0.210 HD
ENDBRANCH  10  11
ENDBRANCH   2  10
TORSDOF 5
ENDMDL
MODEL 4
REMARK VINA RESULT:    -3.964      2.889      4.161
REMARK INTER + INTRA:          -5.491
REMARK INTER:                  -4.878
REMARK INTRA:                  -0.613
REMARK UNBOUND:                -0.485
REMARK SMILES CC(C)=CCCC(C)=CCO
REMARK SMILES IDX 7 1 9 2 8 3 6 4 5 5 4 6 1 7 2 8 3 9 10 10 11 11
REMARK H PARENT 11 12
REMARK Flexibility Score: inf
ROOT
ATOM      1  C   UNL     1       3.817 -11.147 -33.920  1.00  0.00    -0.075 C 
ATOM      2  C   UNL     1       4.597 -11.744 -34.848  1.00  0.00    -0.000 C 
ATOM      3  C   UNL     1       2.333 -10.962 -34.135  1.00  0.00     0.039 C 
ENDROOT
BRANCH   1   4
ATOM      4  C   UNL     1       4.443 -10.659 -32.630  1.00  0.00     0.034 C 
BRANCH   4   5
ATOM      5  C   UNL     1       4.708 -11.813 -31.651  1.00  0.00     0.032 C 
BRANCH   5   6
ATOM      6  C   UNL     1       3.653 -11.884 -30.572  1.00  0.00    -0.028 C 
ATOM      7  C   UNL     1       1.606 -12.652 -29.453  1.00  0.00     0.039 C 
ATOM      8  C   UNL     1       2.604 -12.736 -30.579  1.00  0.00    -0.080 C 
ATOM      9  C   UNL     1       2.418 -13.771 -31.663  1.00  0.00     0.039 C 
ENDBRANCH   5   6
ENDBRANCH   4   5
ENDBRANCH   1   4
BRANCH   2  10
ATOM     10  C   UNL     1       4.087 -12.266 -36.163  1.00  0.00     0.183 C 
BRANCH  10  11
ATOM     11  O   UNL     1       5.124 -12.278 -37.104  1.00  0.00    -0.392 OA
ATOM     12  H   UNL     1       5.243 -11.336 -37.394  1.00  0.00     0.210 HD
ENDBRANCH  10  11
ENDBRANCH   2  10
TORSDOF 5
ENDMDL
MODEL 5
REMARK VINA RESULT:    -3.940      2.605      6.007
REMARK INTER + INTRA:          -5.462
REMARK INTER:                  -4.980
REMARK INTRA:                  -0.482
REMARK UNBOUND:                -0.485
REMARK SMILES CC(C)=CCCC(C)=CCO
REMARK SMILES IDX 7 1 9 2 8 3 6 4 5 5 4 6 1 7 2 8 3 9 10 10 11 11
REMARK H PARENT 11 12
REMARK Flexibility Score: inf
ROOT
ATOM      1  C   UNL     1       3.446 -12.873 -31.400  1.00  0.00    -0.075 C 
ATOM      2  C   UNL     1       2.999 -12.240 -30.294  1.00  0.00    -0.000 C 
ATOM      3  C   UNL     1       2.703 -14.045 -31.996  1.00  0.00     0.039 C 
ENDROOT
BRANCH   1   4
ATOM      4  C   UNL     1       4.719 -12.390 -32.065  1.00  0.00     0.034 C 
BRANCH   4   5
ATOM      5  C   UNL     1       4.479 -11.135 -32.917  1.00  0.00     0.032 C 
BRANCH   5   6
ATOM      6  C   UNL     1       5.118 -11.253 -34.280  1.00  0.00    -0.028 C 
ATOM      7  C   UNL     1       5.307 -11.889 -36.646  1.00  0.00     0.039 C 
ATOM      8  C   UNL     1       4.520 -11.796 -35.364  1.00  0.00    -0.080 C 
ATOM      9  C   UNL     1       3.092 -12.289 -35.329  1.00  0.00     0.039 C 
ENDBRANCH   5   6
ENDBRANCH   4   5
ENDBRANCH   1   4
BRANCH   2  10
ATOM     10  C   UNL     1       1.751 -12.631 -29.551  1.00  0.00     0.183 C 
BRANCH  10  11
ATOM     11  O   UNL     1       2.090 -13.342 -28.394  1.00  0.00    -0.392 OA
ATOM     12  H   UNL     1       2.810 -13.972 -28.660  1.00  0.00     0.210 HD
ENDBRANCH  10  11
ENDBRANCH   2  10
TORSDOF 5
ENDMDL
MODEL 6
REMARK VINA RESULT:    -3.940      2.444      3.813
REMARK INTER + INTRA:          -5.461
REMARK INTER:                  -4.772
REMARK INTRA:                  -0.689
REMARK UNBOUND:                -0.485
REMARK SMILES CC(C)=CCCC(C)=CCO
REMARK SMILES IDX 7 1 9 2 8 3 6 4 5 5 4 6 1 7 2 8 3 9 10 10 11 11
REMARK H PARENT 11 12
REMARK Flexibility Score: inf
ROOT
ATOM      1  C   UNL     1       3.335 -11.586 -34.038  1.00  0.00    -0.075 C 
ATOM      2  C   UNL     1       2.439 -12.594 -34.120  1.00  0.00    -0.000 C 
ATOM      3  C   UNL     1       2.931 -10.148 -34.261  1.00  0.00     0.039 C 
ENDROOT
BRANCH   1   4
ATOM      4  C   UNL     1       4.779 -11.905 -33.705  1.00  0.00     0.034 C 
BRANCH   4   5
ATOM      5  C   UNL     1       4.914 -12.574 -32.329  1.00  0.00     0.032 C 
BRANCH   5   6
ATOM      6  C   UNL     1       4.569 -11.623 -31.207  1.00  0.00    -0.028 C 
ATOM      7  C   UNL     1       3.253 -10.687 -29.356  1.00  0.00     0.039 C 
ATOM      8  C   UNL     1       3.491 -11.747 -30.400  1.00  0.00    -0.080 C 
ATOM      9  C   UNL     1       2.542 -12.917 -30.503  1.00  0.00     0.039 C 
ENDBRANCH   5   6
ENDBRANCH   4   5
ENDBRANCH   1   4
BRANCH   2  10
ATOM     10  C   UNL     1       0.984 -12.397 -34.444  1.00  0.00     0.183 C 
BRANCH  10  11
ATOM     11  O   UNL     1       0.215 -12.546 -33.283  1.00  0.00    -0.392 OA
ATOM     12  H   UNL     1       0.756 -12.165 -32.544  1.00  0.00     0.210 HD
ENDBRANCH  10  11
ENDBRANCH   2  10
TORSDOF 5
ENDMDL
MODEL 7
REMARK VINA RESULT:    -3.911      1.149      1.966
REMARK INTER + INTRA:          -5.425
REMARK INTER:                  -5.040
REMARK INTRA:                  -0.385
REMARK UNBOUND:                -0.485
REMARK SMILES CC(C)=CCCC(C)=CCO
REMARK SMILES IDX 7 1 9 2 8 3 6 4 5 5 4 6 1 7 2 8 3 9 10 10 11 11
REMARK H PARENT 11 12
REMARK Flexibility Score: inf
ROOT
ATOM      1  C   UNL     1       2.256 -12.277 -29.852  1.00  0.00    -0.075 C 
ATOM      2  C   UNL     1       1.785 -13.201 -30.719  1.00  0.00    -0.000 C 
ATOM      3  C   UNL     1       3.602 -11.620 -30.050  1.00  0.00     0.039 C 
ENDROOT
BRANCH   1   4
ATOM      4  C   UNL     1       1.410 -11.884 -28.658  1.00  0.00     0.034 C 
BRANCH   4   5
ATOM      5  C   UNL     1       1.223 -13.053 -27.680  1.00  0.00     0.032 C 
BRANCH   5   6
ATOM      6  C   UNL     1       2.345 -13.122 -26.670  1.00  0.00    -0.028 C 
ATOM      7  C   UNL     1       3.500 -12.728 -24.538  1.00  0.00     0.039 C 
ATOM      8  C   UNL     1       2.278 -12.627 -25.414  1.00  0.00    -0.080 C 
ATOM      9  C   UNL     1       1.017 -12.002 -24.864  1.00  0.00     0.039 C 
ENDBRANCH   5   6
ENDBRANCH   4   5
ENDBRANCH   1   4
BRANCH   2  10
ATOM     10  C   UNL     1       2.536 -13.668 -31.935  1.00  0.00     0.183 C 
BRANCH  10  11
ATOM     11  O   UNL     1       2.931 -15.000 -31.766  1.00  0.00    -0.392 OA
ATOM     12  H   UNL     1       3.249 -15.076 -30.829  1.00  0.00     0.210 HD
ENDBRANCH  10  11
ENDBRANCH   2  10
TORSDOF 5
ENDMDL
MODEL 8
REMARK VINA RESULT:    -3.903      2.022      2.593
REMARK INTER + INTRA:          -5.414
REMARK INTER:                  -4.779
REMARK INTRA:                  -0.636
REMARK UNBOUND:                -0.485
REMARK SMILES CC(C)=CCCC(C)=CCO
REMARK SMILES IDX 7 1 9 2 8 3 6 4 5 5 4 6 1 7 2 8 3 9 10 10 11 11
REMARK H PARENT 11 12
REMARK Flexibility Score: inf
ROOT
ATOM      1  C   UNL     1       3.253 -12.613 -32.373  1.00  0.00    -0.075 C 
ATOM      2  C   UNL     1       2.800 -11.983 -33.479  1.00  0.00    -0.000 C 
ATOM      3  C   UNL     1       2.866 -14.040 -32.061  1.00  0.00     0.039 C 
ENDROOT
BRANCH   1   4
ATOM      4  C   UNL     1       4.178 -11.875 -31.427  1.00  0.00     0.034 C 
BRANCH   4   5
ATOM      5  C   UNL     1       3.399 -11.062 -30.383  1.00  0.00     0.032 C 
BRANCH   5   6
ATOM      6  C   UNL     1       3.024 -11.903 -29.185  1.00  0.00    -0.028 C 
ATOM      7  C   UNL     1       1.544 -13.097 -27.631  1.00  0.00     0.039 C 
ATOM      8  C   UNL     1       1.767 -12.302 -28.892  1.00  0.00    -0.080 C 
ATOM      9  C   UNL     1       0.595 -11.995 -29.794  1.00  0.00     0.039 C 
ENDBRANCH   5   6
ENDBRANCH   4   5
ENDBRANCH   1   4
BRANCH   2  10
ATOM     10  C   UNL     1       1.879 -12.615 -34.486  1.00  0.00     0.183 C 
BRANCH  10  11
ATOM     11  O   UNL     1       0.550 -12.295 -34.180  1.00  0.00    -0.392 OA
ATOM     12  H   UNL     1       0.467 -12.381 -33.195  1.00  0.00     0.210 HD
ENDBRANCH  10  11
ENDBRANCH   2  10
TORSDOF 5
ENDMDL
MODEL 9
REMARK VINA RESULT:    -3.828      3.717      5.026
REMARK INTER + INTRA:          -5.320
REMARK INTER:                  -4.717
REMARK INTRA:                  -0.603
REMARK UNBOUND:                -0.485
REMARK SMILES CC(C)=CCCC(C)=CCO
REMARK SMILES IDX 7 1 9 2 8 3 6 4 5 5 4 6 1 7 2 8 3 9 10 10 11 11
REMARK H PARENT 11 12
REMARK Flexibility Score: inf
ROOT
ATOM      1  C   UNL     1       0.809 -12.363 -32.392  1.00  0.00    -0.075 C 
ATOM      2  C   UNL     1       0.088 -11.425 -31.738  1.00  0.00    -0.000 C 
ATOM      3  C   UNL     1       1.031 -12.291 -33.884  1.00  0.00     0.039 C 
ENDROOT
BRANCH   1   4
ATOM      4  C   UNL     1       1.417 -13.508 -31.609  1.00  0.00     0.034 C 
BRANCH   4   5
ATOM      5  C   UNL     1       2.939 -13.587 -31.798  1.00  0.00     0.032 C 
BRANCH   5   6
ATOM      6  C   UNL     1       3.639 -12.387 -31.205  1.00  0.00    -0.028 C 
ATOM      7  C   UNL     1       5.194 -10.488 -31.116  1.00  0.00     0.039 C 
ATOM      8  C   UNL     1       4.542 -11.625 -31.860  1.00  0.00    -0.080 C 
ATOM      9  C   UNL     1       4.896 -11.866 -33.309  1.00  0.00     0.039 C 
ENDBRANCH   5   6
ENDBRANCH   4   5
ENDBRANCH   1   4
BRANCH   2  10
ATOM     10  C   UNL     1      -0.561 -10.247 -32.410  1.00  0.00     0.183 C 
BRANCH  10  11
ATOM     11  O   UNL     1      -1.945 -10.442 -32.477  1.00  0.00    -0.392 OA
ATOM     12  H   UNL     1      -2.153 -10.617 -33.432  1.00  0.00     0.210 HD
ENDBRANCH  10  11
ENDBRANCH   2  10
TORSDOF 5
ENDMDL
