MODEL 1
REMARK VINA RESULT:     9.836      0.000      0.000
REMARK INTER + INTRA:           9.836
REMARK INTER:                   9.836
REMARK INTRA:                   0.000
REMARK UNBOUND:                 0.000
REMARK SMILES C=C1CCC[C@]2(C)C=C3OC(=O)C(C)=C3C[C@H]12
REMARK SMILES IDX 14 1 13 2 15 3 16 4 17 5 2 6 1 7 3 8 4 9 5 10 6 11 8 12 9 13
REMARK SMILES IDX 10 14 11 15 12 16 7 17
REMARK H PARENT
REMARK Flexibility Score: inf
ROOT
ATOM      1  C   UNL     1      -6.137  28.215  21.282  1.00  0.00     0.053 C 
ATOM      2  C   UNL     1      -4.851  28.269  20.520  1.00  0.00     0.041 C 
ATOM      3  C   UNL     1      -4.650  28.867  19.348  1.00  0.00     0.005 C 
ATOM      4  C   UNL     1      -5.623  29.600  18.486  1.00  0.00     0.049 C 
ATOM      5  C   UNL     1      -4.851  30.495  17.481  1.00  0.00     0.029 C 
ATOM      6  C   UNL     1      -5.827  31.066  16.467  1.00  0.00    -0.073 C 
ATOM      7  C   UNL     1      -6.364  32.283  16.649  1.00  0.00     0.008 C 
ATOM      8  C   UNL     1      -6.306  30.181  15.339  1.00  0.00     0.031 C 
ATOM      9  C   UNL     1      -5.133  29.470  14.660  1.00  0.00     0.005 C 
ATOM     10  C   UNL     1      -4.207  28.781  15.675  1.00  0.00     0.012 C 
ATOM     11  C   UNL     1      -3.661  29.755  16.755  1.00  0.00    -0.004 C 
ATOM     12  C   UNL     1      -2.815  28.946  17.734  1.00  0.00     0.027 C 
ATOM     13  C   UNL     1      -3.315  28.538  18.896  1.00  0.00     0.131 C 
ATOM     14  O   UNL     1      -2.674  27.738  19.829  1.00  0.00    -0.423 OA
ATOM     15  C   UNL     1      -3.612  27.555  20.837  1.00  0.00     0.339 C 
ATOM     16  O   UNL     1      -3.410  26.858  21.867  1.00  0.00    -0.246 OA
ATOM     17  C   UNL     1      -2.723  30.803  16.110  1.00  0.00     0.016 C 
ENDROOT
TORSDOF 0
ENDMDL
