MODEL 1
REMARK VINA RESULT:    -4.051      0.000      0.000
REMARK INTER + INTRA:          -4.558
REMARK INTER:                  -4.524
REMARK INTRA:                  -0.034
REMARK UNBOUND:                -0.034
REMARK SMILES CCCC(=O)[O-]
REMARK SMILES IDX 3 1 4 2 5 3 6 4 2 5 1 6
REMARK H PARENT
REMARK Flexibility Score: inf
ROOT
ATOM      1  C   UNL     1      -9.384  -3.796  -8.541  1.00  0.00     0.052 C 
ENDROOT
BRANCH   1   2
ATOM      2  C   UNL     1     -10.578  -2.939  -8.818  1.00  0.00     0.041 C 
ATOM      3  O   UNL     1     -10.479  -1.944  -9.583  1.00  0.00    -0.550 OA
ATOM      4  O   UNL     1     -11.812  -3.267  -8.271  1.00  0.00    -0.550 OA
ENDBRANCH   1   2
BRANCH   1   5
ATOM      5  C   UNL     1      -8.107  -3.113  -9.037  1.00  0.00     0.003 C 
ATOM      6  C   UNL     1      -7.406  -2.366  -7.905  1.00  0.00     0.004 C 
ENDBRANCH   1   5
TORSDOF 2
ENDMDL
MODEL 2
REMARK VINA RESULT:    -4.009      0.075      1.322
REMARK INTER + INTRA:          -4.512
REMARK INTER:                  -4.473
REMARK INTRA:                  -0.040
REMARK UNBOUND:                -0.034
REMARK SMILES CCCC(=O)[O-]
REMARK SMILES IDX 3 1 4 2 5 3 6 4 2 5 1 6
REMARK H PARENT
REMARK Flexibility Score: inf
ROOT
ATOM      1  C   UNL     1      -9.394  -3.772  -8.492  1.00  0.00     0.052 C 
ENDROOT
BRANCH   1   2
ATOM      2  C   UNL     1     -10.619  -2.969  -8.793  1.00  0.00     0.041 C 
ATOM      3  O   UNL     1     -11.728  -3.291  -8.291  1.00  0.00    -0.550 OA
ATOM      4  O   UNL     1     -10.528  -1.833  -9.588  1.00  0.00    -0.550 OA
ENDBRANCH   1   2
BRANCH   1   5
ATOM      5  C   UNL     1      -8.145  -3.065  -9.025  1.00  0.00     0.003 C 
ATOM      6  C   UNL     1      -7.398  -2.346  -7.905  1.00  0.00     0.004 C 
ENDBRANCH   1   5
TORSDOF 2
ENDMDL
MODEL 3
REMARK VINA RESULT:    -3.904      1.230      1.808
REMARK INTER + INTRA:          -4.394
REMARK INTER:                  -4.364
REMARK INTRA:                  -0.030
REMARK UNBOUND:                -0.034
REMARK SMILES CCCC(=O)[O-]
REMARK SMILES IDX 3 1 4 2 5 3 6 4 2 5 1 6
REMARK H PARENT
REMARK Flexibility Score: inf
ROOT
ATOM      1  C   UNL     1      -8.625  -3.284  -8.715  1.00  0.00     0.052 C 
ENDROOT
BRANCH   1   2
ATOM      2  C   UNL     1      -9.951  -2.766  -9.173  1.00  0.00     0.041 C 
ATOM      3  O   UNL     1     -10.015  -1.936 -10.117  1.00  0.00    -0.550 OA
ATOM      4  O   UNL     1     -11.121  -3.237  -8.590  1.00  0.00    -0.550 OA
ENDBRANCH   1   2
BRANCH   1   5
ATOM      5  C   UNL     1      -8.753  -4.730  -8.229  1.00  0.00     0.003 C 
ATOM      6  C   UNL     1      -8.133  -5.704  -9.227  1.00  0.00     0.004 C 
ENDBRANCH   1   5
TORSDOF 2
ENDMDL
MODEL 4
REMARK VINA RESULT:    -3.810      2.649      3.036
REMARK INTER + INTRA:          -4.290
REMARK INTER:                  -4.280
REMARK INTRA:                  -0.009
REMARK UNBOUND:                -0.034
REMARK SMILES CCCC(=O)[O-]
REMARK SMILES IDX 3 1 4 2 5 3 6 4 2 5 1 6
REMARK H PARENT
REMARK Flexibility Score: inf
ROOT
ATOM      1  C   UNL     1      -8.357  -3.763  -9.684  1.00  0.00     0.052 C 
ENDROOT
BRANCH   1   2
ATOM      2  C   UNL     1      -8.392  -5.122  -9.060  1.00  0.00     0.041 C 
ATOM      3  O   UNL     1      -8.941  -5.290  -7.940  1.00  0.00    -0.550 OA
ATOM      4  O   UNL     1      -7.863  -6.213  -9.738  1.00  0.00    -0.550 OA
ENDBRANCH   1   2
BRANCH   1   5
ATOM      5  C   UNL     1      -8.644  -2.684  -8.636  1.00  0.00     0.003 C 
ATOM      6  C   UNL     1      -7.365  -2.254  -7.923  1.00  0.00     0.004 C 
ENDBRANCH   1   5
TORSDOF 2
ENDMDL
MODEL 5
REMARK VINA RESULT:    -3.794     11.786     12.387
REMARK INTER + INTRA:          -4.272
REMARK INTER:                  -4.261
REMARK INTRA:                  -0.011
REMARK UNBOUND:                -0.034
REMARK SMILES CCCC(=O)[O-]
REMARK SMILES IDX 3 1 4 2 5 3 6 4 2 5 1 6
REMARK H PARENT
REMARK Flexibility Score: inf
ROOT
ATOM      1  C   UNL     1      -7.237 -14.642  -4.467  1.00  0.00     0.052 C 
ENDROOT
BRANCH   1   2
ATOM      2  C   UNL     1      -7.346 -13.215  -4.901  1.00  0.00     0.041 C 
ATOM      3  O   UNL     1      -6.394 -12.417  -4.697  1.00  0.00    -0.550 OA
ATOM      4  O   UNL     1      -8.480 -12.778  -5.575  1.00  0.00    -0.550 OA
ENDBRANCH   1   2
BRANCH   1   5
ATOM      5  C   UNL     1      -6.636 -14.731  -3.061  1.00  0.00     0.003 C 
ATOM      6  C   UNL     1      -6.213 -16.160  -2.732  1.00  0.00     0.004 C 
ENDBRANCH   1   5
TORSDOF 2
ENDMDL
MODEL 6
REMARK VINA RESULT:    -3.661     11.769     12.121
REMARK INTER + INTRA:          -4.123
REMARK INTER:                  -4.057
REMARK INTRA:                  -0.066
REMARK UNBOUND:                -0.034
REMARK SMILES CCCC(=O)[O-]
REMARK SMILES IDX 3 1 4 2 5 3 6 4 2 5 1 6
REMARK H PARENT
REMARK Flexibility Score: inf
ROOT
ATOM      1  C   UNL     1      -8.311 -13.373  -5.546  1.00  0.00     0.052 C 
ENDROOT
BRANCH   1   2
ATOM      2  C   UNL     1      -8.455 -14.835  -5.823  1.00  0.00     0.041 C 
ATOM      3  O   UNL     1      -7.605 -15.432  -6.534  1.00  0.00    -0.550 OA
ATOM      4  O   UNL     1      -9.503 -15.550  -5.256  1.00  0.00    -0.550 OA
ENDBRANCH   1   2
BRANCH   1   5
ATOM      5  C   UNL     1      -6.908 -13.064  -5.013  1.00  0.00     0.003 C 
ATOM      6  C   UNL     1      -6.764 -13.499  -3.558  1.00  0.00     0.004 C 
ENDBRANCH   1   5
TORSDOF 2
ENDMDL
MODEL 7
REMARK VINA RESULT:    -3.627     13.458     14.122
REMARK INTER + INTRA:          -4.086
REMARK INTER:                  -4.077
REMARK INTRA:                  -0.008
REMARK UNBOUND:                -0.034
REMARK SMILES CCCC(=O)[O-]
REMARK SMILES IDX 3 1 4 2 5 3 6 4 2 5 1 6
REMARK H PARENT
REMARK Flexibility Score: inf
ROOT
ATOM      1  C   UNL     1      -6.530 -14.628  -2.946  1.00  0.00     0.052 C 
ENDROOT
BRANCH   1   2
ATOM      2  C   UNL     1      -6.369 -16.077  -2.618  1.00  0.00     0.041 C 
ATOM      3  O   UNL     1      -7.203 -16.920  -3.041  1.00  0.00    -0.550 OA
ATOM      4  O   UNL     1      -5.270 -16.507  -1.884  1.00  0.00    -0.550 OA
ENDBRANCH   1   2
BRANCH   1   5
ATOM      5  C   UNL     1      -7.040 -14.457  -4.380  1.00  0.00     0.003 C 
ATOM      6  C   UNL     1      -6.920 -13.006  -4.838  1.00  0.00     0.004 C 
ENDBRANCH   1   5
TORSDOF 2
ENDMDL
MODEL 8
REMARK VINA RESULT:    -3.604     13.542     14.153
REMARK INTER + INTRA:          -4.060
REMARK INTER:                  -4.021
REMARK INTRA:                  -0.039
REMARK UNBOUND:                -0.034
REMARK SMILES CCCC(=O)[O-]
REMARK SMILES IDX 3 1 4 2 5 3 6 4 2 5 1 6
REMARK H PARENT
REMARK Flexibility Score: inf
ROOT
ATOM      1  C   UNL     1      -6.521 -15.971  -4.041  1.00  0.00     0.052 C 
ENDROOT
BRANCH   1   2
ATOM      2  C   UNL     1      -7.921 -16.477  -4.186  1.00  0.00     0.041 C 
ATOM      3  O   UNL     1      -8.778 -15.798  -4.809  1.00  0.00    -0.550 OA
ATOM      4  O   UNL     1      -8.267 -17.722  -3.675  1.00  0.00    -0.550 OA
ENDBRANCH   1   2
BRANCH   1   5
ATOM      5  C   UNL     1      -6.316 -15.351  -2.656  1.00  0.00     0.003 C 
ATOM      6  C   UNL     1      -6.462 -13.833  -2.705  1.00  0.00     0.004 C 
ENDBRANCH   1   5
TORSDOF 2
ENDMDL
MODEL 9
REMARK VINA RESULT:    -3.547     14.190     14.737
REMARK INTER + INTRA:          -3.996
REMARK INTER:                  -3.959
REMARK INTRA:                  -0.037
REMARK UNBOUND:                -0.034
REMARK SMILES CCCC(=O)[O-]
REMARK SMILES IDX 3 1 4 2 5 3 6 4 2 5 1 6
REMARK H PARENT
REMARK Flexibility Score: inf
ROOT
ATOM      1  C   UNL     1      -6.740 -16.552  -3.223  1.00  0.00     0.052 C 
ENDROOT
BRANCH   1   2
ATOM      2  C   UNL     1      -6.517 -16.330  -4.685  1.00  0.00     0.041 C 
ATOM      3  O   UNL     1      -6.873 -15.250  -5.223  1.00  0.00    -0.550 OA
ATOM      4  O   UNL     1      -5.869 -17.297  -5.444  1.00  0.00    -0.550 OA
ENDBRANCH   1   2
BRANCH   1   5
ATOM      5  C   UNL     1      -5.873 -15.597  -2.397  1.00  0.00     0.003 C 
ATOM      6  C   UNL     1      -4.615 -16.294  -1.889  1.00  0.00     0.004 C 
ENDBRANCH   1   5
TORSDOF 2
ENDMDL
