MODEL 1
REMARK VINA RESULT:    -3.363      0.000      0.000
REMARK INTER + INTRA:          -5.811
REMARK INTER:                  -5.132
REMARK INTRA:                  -0.678
REMARK UNBOUND:                -0.678
REMARK SMILES CCCCCCCCCCC(=O)[O-]
REMARK SMILES IDX 7 1 8 2 9 3 10 4 11 5 12 6 13 7 6 8 5 9 4 10 3 11 2 12 1 13
REMARK H PARENT
REMARK Flexibility Score: inf
ROOT
ATOM      1  C   UNL     1       6.439  -0.043  46.106  1.00  0.00     0.000 C 
ENDROOT
BRANCH   1   2
ATOM      2  C   UNL     1       6.246   0.361  44.637  1.00  0.00     0.000 C 
BRANCH   2   3
ATOM      3  C   UNL     1       5.248   1.516  44.465  1.00  0.00     0.006 C 
BRANCH   3   4
ATOM      4  C   UNL     1       5.928   2.739  43.843  1.00  0.00     0.053 C 
BRANCH   4   5
ATOM      5  C   UNL     1       6.541   3.596  44.905  1.00  0.00     0.041 C 
ATOM      6  O   UNL     1       7.718   4.023  44.775  1.00  0.00    -0.550 OA
ATOM      7  O   UNL     1       5.830   3.882  46.064  1.00  0.00    -0.550 OA
ENDBRANCH   4   5
ENDBRANCH   3   4
ENDBRANCH   2   3
ENDBRANCH   1   2
BRANCH   1   8
ATOM      8  C   UNL     1       7.916  -0.053  46.529  1.00  0.00     0.000 C 
BRANCH   8   9
ATOM      9  C   UNL     1       8.791   0.660  45.491  1.00  0.00    -0.000 C 
BRANCH   9  10
ATOM     10  C   UNL     1      10.125  -0.077  45.296  1.00  0.00    -0.000 C 
BRANCH  10  11
ATOM     11  C   UNL     1      11.214   0.403  46.267  1.00  0.00    -0.000 C 
BRANCH  11  12
ATOM     12  C   UNL     1      12.609  -0.122  45.897  1.00  0.00    -0.003 C 
ATOM     13  C   UNL     1      12.639  -0.634  44.459  1.00  0.00     0.004 C 
ENDBRANCH  11  12
ENDBRANCH  10  11
ENDBRANCH   9  10
ENDBRANCH   8   9
ENDBRANCH   1   8
TORSDOF 9
ENDMDL
MODEL 2
REMARK VINA RESULT:    -3.314     10.519     12.197
REMARK INTER + INTRA:          -5.736
REMARK INTER:                  -4.900
REMARK INTRA:                  -0.836
REMARK UNBOUND:                -0.678
REMARK SMILES CCCCCCCCCCC(=O)[O-]
REMARK SMILES IDX 7 1 8 2 9 3 10 4 11 5 12 6 13 7 6 8 5 9 4 10 3 11 2 12 1 13
REMARK H PARENT
REMARK Flexibility Score: inf
ROOT
ATOM      1  C   UNL     1      14.940   2.697  38.715  1.00  0.00     0.000 C 
ENDROOT
BRANCH   1   2
ATOM      2  C   UNL     1      16.188   3.592  38.702  1.00  0.00     0.000 C 
BRANCH   2   3
ATOM      3  C   UNL     1      16.526   4.119  37.300  1.00  0.00     0.006 C 
BRANCH   3   4
ATOM      4  C   UNL     1      15.267   4.616  36.583  1.00  0.00     0.053 C 
BRANCH   4   5
ATOM      5  C   UNL     1      15.633   5.495  35.429  1.00  0.00     0.041 C 
ATOM      6  O   UNL     1      15.814   6.728  35.604  1.00  0.00    -0.550 OA
ATOM      7  O   UNL     1      15.725   4.961  34.150  1.00  0.00    -0.550 OA
ENDBRANCH   4   5
ENDBRANCH   3   4
ENDBRANCH   2   3
ENDBRANCH   1   2
BRANCH   1   8
ATOM      8  C   UNL     1      15.261   1.227  38.407  1.00  0.00     0.000 C 
BRANCH   8   9
ATOM      9  C   UNL     1      14.366   0.690  37.284  1.00  0.00    -0.000 C 
BRANCH   9  10
ATOM     10  C   UNL     1      15.205   0.036  36.176  1.00  0.00    -0.000 C 
BRANCH  10  11
ATOM     11  C   UNL     1      15.873   1.066  35.252  1.00  0.00    -0.000 C 
BRANCH  11  12
ATOM     12  C   UNL     1      15.683   0.737  33.765  1.00  0.00    -0.003 C 
ATOM     13  C   UNL     1      14.512  -0.222  33.560  1.00  0.00     0.004 C 
ENDBRANCH  11  12
ENDBRANCH  10  11
ENDBRANCH   9  10
ENDBRANCH   8   9
ENDBRANCH   1   8
TORSDOF 9
ENDMDL
MODEL 3
REMARK VINA RESULT:    -3.310     10.294     12.680
REMARK INTER + INTRA:          -5.730
REMARK INTER:                  -4.435
REMARK INTRA:                  -1.295
REMARK UNBOUND:                -0.678
REMARK SMILES CCCCCCCCCCC(=O)[O-]
REMARK SMILES IDX 7 1 8 2 9 3 10 4 11 5 12 6 13 7 6 8 5 9 4 10 3 11 2 12 1 13
REMARK H PARENT
REMARK Flexibility Score: inf
ROOT
ATOM      1  C   UNL     1      18.048   0.555  37.481  1.00  0.00     0.000 C 
ENDROOT
BRANCH   1   2
ATOM      2  C   UNL     1      17.085  -0.520  36.956  1.00  0.00     0.000 C 
BRANCH   2   3
ATOM      3  C   UNL     1      16.778  -0.362  35.460  1.00  0.00     0.006 C 
BRANCH   3   4
ATOM      4  C   UNL     1      15.267  -0.296  35.214  1.00  0.00     0.053 C 
BRANCH   4   5
ATOM      5  C   UNL     1      14.981   0.266  33.857  1.00  0.00     0.041 C 
ATOM      6  O   UNL     1      15.768   1.099  33.336  1.00  0.00    -0.550 OA
ATOM      7  O   UNL     1      13.818  -0.093  33.188  1.00  0.00    -0.550 OA
ENDBRANCH   4   5
ENDBRANCH   3   4
ENDBRANCH   2   3
ENDBRANCH   1   2
BRANCH   1   8
ATOM      8  C   UNL     1      18.005   1.846  36.650  1.00  0.00     0.000 C 
BRANCH   8   9
ATOM      9  C   UNL     1      17.206   2.939  37.370  1.00  0.00    -0.000 C 
BRANCH   9  10
ATOM     10  C   UNL     1      15.865   3.195  36.666  1.00  0.00    -0.000 C 
BRANCH  10  11
ATOM     11  C   UNL     1      14.665   3.089  37.620  1.00  0.00    -0.000 C 
BRANCH  11  12
ATOM     12  C   UNL     1      14.788   1.909  38.595  1.00  0.00    -0.003 C 
ATOM     13  C   UNL     1      13.778   0.813  38.260  1.00  0.00     0.004 C 
ENDBRANCH  11  12
ENDBRANCH  10  11
ENDBRANCH   9  10
ENDBRANCH   8   9
ENDBRANCH   1   8
TORSDOF 9
ENDMDL
MODEL 4
REMARK VINA RESULT:    -3.309     10.767     12.482
REMARK INTER + INTRA:          -5.728
REMARK INTER:                  -4.757
REMARK INTRA:                  -0.971
REMARK UNBOUND:                -0.678
REMARK SMILES CCCCCCCCCCC(=O)[O-]
REMARK SMILES IDX 7 1 8 2 9 3 10 4 11 5 12 6 13 7 6 8 5 9 4 10 3 11 2 12 1 13
REMARK H PARENT
REMARK Flexibility Score: inf
ROOT
ATOM      1  C   UNL     1      14.348   1.298  37.756  1.00  0.00     0.000 C 
ENDROOT
BRANCH   1   2
ATOM      2  C   UNL     1      14.796   0.270  36.707  1.00  0.00     0.000 C 
BRANCH   2   3
ATOM      3  C   UNL     1      16.050   0.714  35.939  1.00  0.00     0.006 C 
BRANCH   3   4
ATOM      4  C   UNL     1      15.689   1.178  34.525  1.00  0.00     0.053 C 
BRANCH   4   5
ATOM      5  C   UNL     1      15.320   0.009  33.667  1.00  0.00     0.041 C 
ATOM      6  O   UNL     1      16.206  -0.793  33.272  1.00  0.00    -0.550 OA
ATOM      7  O   UNL     1      14.003  -0.167  33.262  1.00  0.00    -0.550 OA
ENDBRANCH   4   5
ENDBRANCH   3   4
ENDBRANCH   2   3
ENDBRANCH   1   2
BRANCH   1   8
ATOM      8  C   UNL     1      15.486   1.721  38.697  1.00  0.00     0.000 C 
BRANCH   8   9
ATOM      9  C   UNL     1      15.354   3.197  39.093  1.00  0.00    -0.000 C 
BRANCH   9  10
ATOM     10  C   UNL     1      16.565   4.008  38.609  1.00  0.00    -0.000 C 
BRANCH  10  11
ATOM     11  C   UNL     1      16.657   4.078  37.077  1.00  0.00    -0.000 C 
BRANCH  11  12
ATOM     12  C   UNL     1      15.380   4.636  36.433  1.00  0.00    -0.003 C 
ATOM     13  C   UNL     1      15.618   6.032  35.862  1.00  0.00     0.004 C 
ENDBRANCH  11  12
ENDBRANCH  10  11
ENDBRANCH   9  10
ENDBRANCH   8   9
ENDBRANCH   1   8
TORSDOF 9
ENDMDL
MODEL 5
REMARK VINA RESULT:    -3.283      3.114      5.705
REMARK INTER + INTRA:          -5.689
REMARK INTER:                  -4.721
REMARK INTRA:                  -0.968
REMARK UNBOUND:                -0.678
REMARK SMILES CCCCCCCCCCC(=O)[O-]
REMARK SMILES IDX 7 1 8 2 9 3 10 4 11 5 12 6 13 7 6 8 5 9 4 10 3 11 2 12 1 13
REMARK H PARENT
REMARK Flexibility Score: inf
ROOT
ATOM      1  C   UNL     1       7.814  -0.126  46.276  1.00  0.00     0.000 C 
ENDROOT
BRANCH   1   2
ATOM      2  C   UNL     1       8.906   0.437  45.353  1.00  0.00     0.000 C 
BRANCH   2   3
ATOM      3  C   UNL     1      10.275   0.531  46.043  1.00  0.00     0.006 C 
BRANCH   3   4
ATOM      4  C   UNL     1      11.330  -0.274  45.278  1.00  0.00     0.053 C 
BRANCH   4   5
ATOM      5  C   UNL     1      11.689  -1.516  46.030  1.00  0.00     0.041 C 
ATOM      6  O   UNL     1      12.607  -2.269  45.611  1.00  0.00    -0.550 OA
ATOM      7  O   UNL     1      10.976  -1.871  47.169  1.00  0.00    -0.550 OA
ENDBRANCH   4   5
ENDBRANCH   3   4
ENDBRANCH   2   3
ENDBRANCH   1   2
BRANCH   1   8
ATOM      8  C   UNL     1       6.403   0.320  45.865  1.00  0.00     0.000 C 
BRANCH   8   9
ATOM      9  C   UNL     1       6.386   0.835  44.421  1.00  0.00    -0.000 C 
BRANCH   9  10
ATOM     10  C   UNL     1       5.401   2.003  44.263  1.00  0.00    -0.000 C 
BRANCH  10  11
ATOM     11  C   UNL     1       5.826   3.247  45.059  1.00  0.00    -0.000 C 
BRANCH  11  12
ATOM     12  C   UNL     1       7.193   3.790  44.623  1.00  0.00    -0.003 C 
ATOM     13  C   UNL     1       8.125   3.959  45.821  1.00  0.00     0.004 C 
ENDBRANCH  11  12
ENDBRANCH  10  11
ENDBRANCH   9  10
ENDBRANCH   8   9
ENDBRANCH   1   8
TORSDOF 9
ENDMDL
MODEL 6
REMARK VINA RESULT:    -3.264      9.400     10.357
REMARK INTER + INTRA:          -5.659
REMARK INTER:                  -4.913
REMARK INTRA:                  -0.746
REMARK UNBOUND:                -0.678
REMARK SMILES CCCCCCCCCCC(=O)[O-]
REMARK SMILES IDX 7 1 8 2 9 3 10 4 11 5 12 6 13 7 6 8 5 9 4 10 3 11 2 12 1 13
REMARK H PARENT
REMARK Flexibility Score: inf
ROOT
ATOM      1  C   UNL     1      16.630   3.184  41.459  1.00  0.00     0.000 C 
ENDROOT
BRANCH   1   2
ATOM      2  C   UNL     1      16.268   1.919  40.667  1.00  0.00     0.000 C 
BRANCH   2   3
ATOM      3  C   UNL     1      15.649   2.232  39.297  1.00  0.00     0.006 C 
BRANCH   3   4
ATOM      4  C   UNL     1      15.865   1.074  38.320  1.00  0.00     0.053 C 
BRANCH   4   5
ATOM      5  C   UNL     1      14.598   0.762  37.587  1.00  0.00     0.041 C 
ATOM      6  O   UNL     1      13.496   0.771  38.195  1.00  0.00    -0.550 OA
ATOM      7  O   UNL     1      14.641   0.411  36.244  1.00  0.00    -0.550 OA
ENDBRANCH   4   5
ENDBRANCH   3   4
ENDBRANCH   2   3
ENDBRANCH   1   2
BRANCH   1   8
ATOM      8  C   UNL     1      16.777   2.920  42.965  1.00  0.00     0.000 C 
BRANCH   8   9
ATOM      9  C   UNL     1      17.108   1.448  43.237  1.00  0.00    -0.000 C 
BRANCH   9  10
ATOM     10  C   UNL     1      18.328   1.319  44.161  1.00  0.00    -0.000 C 
BRANCH  10  11
ATOM     11  C   UNL     1      19.558   0.743  43.442  1.00  0.00    -0.000 C 
BRANCH  11  12
ATOM     12  C   UNL     1      20.361   1.815  42.693  1.00  0.00    -0.003 C 
ATOM     13  C   UNL     1      20.397   1.528  41.194  1.00  0.00     0.004 C 
ENDBRANCH  11  12
ENDBRANCH  10  11
ENDBRANCH   9  10
ENDBRANCH   8   9
ENDBRANCH   1   8
TORSDOF 9
ENDMDL
MODEL 7
REMARK VINA RESULT:    -3.258      1.467      2.329
REMARK INTER + INTRA:          -5.651
REMARK INTER:                  -5.207
REMARK INTRA:                  -0.444
REMARK UNBOUND:                -0.678
REMARK SMILES CCCCCCCCCCC(=O)[O-]
REMARK SMILES IDX 7 1 8 2 9 3 10 4 11 5 12 6 13 7 6 8 5 9 4 10 3 11 2 12 1 13
REMARK H PARENT
REMARK Flexibility Score: inf
ROOT
ATOM      1  C   UNL     1       8.212  -1.343  46.654  1.00  0.00     0.000 C 
ENDROOT
BRANCH   1   2
ATOM      2  C   UNL     1       7.662   0.091  46.606  1.00  0.00     0.000 C 
BRANCH   2   3
ATOM      3  C   UNL     1       6.544   0.263  45.567  1.00  0.00     0.006 C 
BRANCH   3   4
ATOM      4  C   UNL     1       6.982   1.206  44.443  1.00  0.00     0.053 C 
BRANCH   4   5
ATOM      5  C   UNL     1       5.888   2.173  44.115  1.00  0.00     0.041 C 
ATOM      6  O   UNL     1       4.689   1.791  44.095  1.00  0.00    -0.550 OA
ATOM      7  O   UNL     1       6.198   3.486  43.781  1.00  0.00    -0.550 OA
ENDBRANCH   4   5
ENDBRANCH   3   4
ENDBRANCH   2   3
ENDBRANCH   1   2
BRANCH   1   8
ATOM      8  C   UNL     1       9.746  -1.393  46.576  1.00  0.00     0.000 C 
BRANCH   8   9
ATOM      9  C   UNL     1      10.281  -0.359  45.579  1.00  0.00    -0.000 C 
BRANCH   9  10
ATOM     10  C   UNL     1      11.813  -0.274  45.641  1.00  0.00    -0.000 C 
BRANCH  10  11
ATOM     11  C   UNL     1      12.481  -0.624  44.303  1.00  0.00    -0.000 C 
BRANCH  11  12
ATOM     12  C   UNL     1      14.009  -0.720  44.412  1.00  0.00    -0.003 C 
ATOM     13  C   UNL     1      14.572   0.419  45.258  1.00  0.00     0.004 C 
ENDBRANCH  11  12
ENDBRANCH  10  11
ENDBRANCH   9  10
ENDBRANCH   8   9
ENDBRANCH   1   8
TORSDOF 9
ENDMDL
MODEL 8
REMARK VINA RESULT:    -3.242      3.161      5.439
REMARK INTER + INTRA:          -5.626
REMARK INTER:                  -4.464
REMARK INTRA:                  -1.162
REMARK UNBOUND:                -0.678
REMARK SMILES CCCCCCCCCCC(=O)[O-]
REMARK SMILES IDX 7 1 8 2 9 3 10 4 11 5 12 6 13 7 6 8 5 9 4 10 3 11 2 12 1 13
REMARK H PARENT
REMARK Flexibility Score: inf
ROOT
ATOM      1  C   UNL     1       8.176   1.681  45.979  1.00  0.00     0.000 C 
ENDROOT
BRANCH   1   2
ATOM      2  C   UNL     1       9.523   1.045  46.354  1.00  0.00     0.000 C 
BRANCH   2   3
ATOM      3  C   UNL     1      10.052   0.093  45.270  1.00  0.00     0.006 C 
BRANCH   3   4
ATOM      4  C   UNL     1      11.173  -0.793  45.820  1.00  0.00     0.053 C 
BRANCH   4   5
ATOM      5  C   UNL     1      12.506  -0.310  45.342  1.00  0.00     0.041 C 
ATOM      6  O   UNL     1      13.156   0.530  46.018  1.00  0.00    -0.550 OA
ATOM      7  O   UNL     1      13.009  -0.750  44.123  1.00  0.00    -0.550 OA
ENDBRANCH   4   5
ENDBRANCH   3   4
ENDBRANCH   2   3
ENDBRANCH   1   2
BRANCH   1   8
ATOM      8  C   UNL     1       7.666   1.222  44.605  1.00  0.00     0.000 C 
BRANCH   8   9
ATOM      9  C   UNL     1       6.221   0.717  44.694  1.00  0.00    -0.000 C 
BRANCH   9  10
ATOM     10  C   UNL     1       5.937   0.102  46.073  1.00  0.00    -0.000 C 
BRANCH  10  11
ATOM     11  C   UNL     1       6.180  -1.415  46.107  1.00  0.00    -0.000 C 
BRANCH  11  12
ATOM     12  C   UNL     1       7.180  -1.828  47.196  1.00  0.00    -0.003 C 
ATOM     13  C   UNL     1       8.150  -2.888  46.677  1.00  0.00     0.004 C 
ENDBRANCH  11  12
ENDBRANCH  10  11
ENDBRANCH   9  10
ENDBRANCH   8   9
ENDBRANCH   1   8
TORSDOF 9
ENDMDL
MODEL 9
REMARK VINA RESULT:    -3.236      9.441     12.526
REMARK INTER + INTRA:          -5.617
REMARK INTER:                  -4.437
REMARK INTRA:                  -1.180
REMARK UNBOUND:                -0.678
REMARK SMILES CCCCCCCCCCC(=O)[O-]
REMARK SMILES IDX 7 1 8 2 9 3 10 4 11 5 12 6 13 7 6 8 5 9 4 10 3 11 2 12 1 13
REMARK H PARENT
REMARK Flexibility Score: inf
ROOT
ATOM      1  C   UNL     1      19.711   0.513  41.050  1.00  0.00     0.000 C 
ENDROOT
BRANCH   1   2
ATOM      2  C   UNL     1      19.976  -0.942  41.463  1.00  0.00     0.000 C 
BRANCH   2   3
ATOM      3  C   UNL     1      19.044  -1.419  42.587  1.00  0.00     0.006 C 
BRANCH   3   4
ATOM      4  C   UNL     1      19.760  -1.390  43.941  1.00  0.00     0.053 C 
BRANCH   4   5
ATOM      5  C   UNL     1      20.130  -2.776  44.368  1.00  0.00     0.041 C 
ATOM      6  O   UNL     1      19.248  -3.563  44.800  1.00  0.00    -0.550 OA
ATOM      7  O   UNL     1      21.458  -3.181  44.337  1.00  0.00    -0.550 OA
ENDBRANCH   4   5
ENDBRANCH   3   4
ENDBRANCH   2   3
ENDBRANCH   1   2
BRANCH   1   8
ATOM      8  C   UNL     1      20.763   1.487  41.603  1.00  0.00     0.000 C 
BRANCH   8   9
ATOM      9  C   UNL     1      20.304   2.097  42.933  1.00  0.00    -0.000 C 
BRANCH   9  10
ATOM     10  C   UNL     1      18.855   2.597  42.839  1.00  0.00    -0.000 C 
BRANCH  10  11
ATOM     11  C   UNL     1      17.939   1.963  43.898  1.00  0.00    -0.000 C 
BRANCH  11  12
ATOM     12  C   UNL     1      16.694   1.306  43.286  1.00  0.00    -0.003 C 
ATOM     13  C   UNL     1      16.020   0.370  44.286  1.00  0.00     0.004 C 
ENDBRANCH  11  12
ENDBRANCH  10  11
ENDBRANCH   9  10
ENDBRANCH   8   9
ENDBRANCH   1   8
TORSDOF 9
ENDMDL
