MODEL 1
REMARK VINA RESULT:    -7.034      0.000      0.000
REMARK INTER + INTRA:         -10.950
REMARK INTER:                 -10.118
REMARK INTRA:                  -0.833
REMARK UNBOUND:                -0.833
REMARK SMILES O=c1cc(-c2ccc(O)c(O)c2)oc2cc(O[C@@H]3O[C@@H](CO)[C@@H](O)[C@@H](O)[C@H]3O)cc(O)c12
REMARK SMILES IDX 17 1 16 2 4 3 3 4 13 5 2 6 14 7 1 8 32 9 15 10 30 11 29 12
REMARK SMILES IDX 5 13 6 14 7 15 8 16 12 17 10 18 9 19 11 21 31 23 18 25 27 26
REMARK SMILES IDX 19 27 25 28 20 29 23 30 28 31 26 33 21 35 22 36 24 38
REMARK H PARENT 9 20 11 22 31 24 28 32 26 34 22 37 24 39
REMARK Flexibility Score: inf
ROOT
ATOM      1  O   UNL     1      18.698  41.191  75.361  1.00  0.00    -0.462 OA
ENDROOT
BRANCH   1   2
ATOM      2  C   UNL     1      18.342  42.493  74.985  1.00  0.00     0.130 A 
ATOM      3  C   UNL     1      15.028  45.880  74.345  1.00  0.00     0.138 A 
ATOM      4  C   UNL     1      15.935  46.731  73.704  1.00  0.00     0.100 A 
ATOM      5  O   UNL     1      15.444  44.702  74.805  1.00  0.00    -0.456 OA
ATOM      6  C   UNL     1      17.268  46.331  73.554  1.00  0.00     0.197 A 
ATOM      7  C   UNL     1      16.701  44.271  74.688  1.00  0.00     0.146 A 
ATOM      8  O   UNL     1      18.078  47.104  72.970  1.00  0.00    -0.289 OA
ATOM      9  C   UNL     1      17.673  45.070  74.039  1.00  0.00     0.107 A 
ATOM     10  C   UNL     1      17.040  43.006  75.175  1.00  0.00     0.094 A 
ATOM     11  C   UNL     1      18.989  44.566  73.886  1.00  0.00     0.134 A 
ATOM     12  C   UNL     1      19.304  43.279  74.342  1.00  0.00     0.093 A 
BRANCH   3  13
ATOM     13  C   UNL     1      13.608  46.257  74.540  1.00  0.00     0.021 A 
ATOM     14  C   UNL     1      13.110  47.391  73.880  1.00  0.00     0.016 A 
ATOM     15  C   UNL     1      11.800  47.818  74.092  1.00  0.00     0.051 A 
ATOM     16  C   UNL     1      10.962  47.113  74.969  1.00  0.00     0.157 A 
ATOM     17  C   UNL     1      12.777  45.573  75.446  1.00  0.00     0.062 A 
ATOM     18  C   UNL     1      11.457  45.996  75.662  1.00  0.00     0.158 A 
BRANCH  16  19
ATOM     19  O   UNL     1       9.644  47.520  75.151  1.00  0.00    -0.504 OA
ATOM     20  H   UNL     1       9.022  46.997  75.756  1.00  0.00     0.293 HD
ENDBRANCH  16  19
BRANCH  18  21
ATOM     21  O   UNL     1      10.654  45.294  76.564  1.00  0.00    -0.504 OA
ATOM     22  H   UNL     1       9.960  44.630  76.255  1.00  0.00     0.293 HD
ENDBRANCH  18  21
ENDBRANCH   3  13
BRANCH  11  23
ATOM     23  O   UNL     1      19.979  45.328  73.263  1.00  0.00    -0.507 OA
ATOM     24  H   UNL     1      20.748  44.890  72.766  1.00  0.00     0.293 HD
ENDBRANCH  11  23
ENDBRANCH   1   2
BRANCH   1  25
ATOM     25  C   UNL     1      19.629  40.851  76.393  1.00  0.00     0.339 C 
ATOM     26  C   UNL     1      19.026  41.184  77.771  1.00  0.00     0.214 C 
ATOM     27  O   UNL     1      20.036  39.488  76.299  1.00  0.00    -0.332 OA
ATOM     28  C   UNL     1      17.885  40.202  78.118  1.00  0.00     0.180 C 
ATOM     29  C   UNL     1      18.929  38.606  76.465  1.00  0.00     0.179 C 
ATOM     30  C   UNL     1      18.326  38.742  77.886  1.00  0.00     0.177 C 
BRANCH  26  31
ATOM     31  O   UNL     1      20.044  41.133  78.739  1.00  0.00    -0.384 OA
ATOM     32  H   UNL     1      19.760  40.477  79.431  1.00  0.00     0.211 HD
ENDBRANCH  26  31
BRANCH  28  33
ATOM     33  O   UNL     1      17.494  40.389  79.452  1.00  0.00    -0.387 OA
ATOM     34  H   UNL     1      18.263  40.805  79.917  1.00  0.00     0.211 HD
ENDBRANCH  28  33
BRANCH  29  35
ATOM     35  C   UNL     1      19.408  37.167  76.220  1.00  0.00     0.191 C 
BRANCH  35  36
ATOM     36  O   UNL     1      19.340  36.862  74.849  1.00  0.00    -0.394 OA
ATOM     37  H   UNL     1      20.166  37.247  74.449  1.00  0.00     0.210 HD
ENDBRANCH  35  36
ENDBRANCH  29  35
BRANCH  30  38
ATOM     38  O   UNL     1      19.282  38.363  78.845  1.00  0.00    -0.387 OA
ATOM     39  H   UNL     1      20.168  38.657  78.489  1.00  0.00     0.211 HD
ENDBRANCH  30  38
ENDBRANCH   1  25
TORSDOF 11
ENDMDL
MODEL 2
REMARK VINA RESULT:    -6.547      1.919      8.736
REMARK INTER + INTRA:         -10.250
REMARK INTER:                  -9.522
REMARK INTRA:                  -0.728
REMARK UNBOUND:                -0.833
REMARK SMILES O=c1cc(-c2ccc(O)c(O)c2)oc2cc(O[C@@H]3O[C@@H](CO)[C@@H](O)[C@@H](O)[C@H]3O)cc(O)c12
REMARK SMILES IDX 17 1 16 2 4 3 3 4 13 5 2 6 14 7 1 8 32 9 15 10 30 11 29 12
REMARK SMILES IDX 5 13 6 14 7 15 8 16 12 17 10 18 9 19 11 21 31 23 18 25 27 26
REMARK SMILES IDX 19 27 25 28 20 29 23 30 28 31 26 33 21 35 22 36 24 38
REMARK H PARENT 9 20 11 22 31 24 28 32 26 34 22 37 24 39
REMARK Flexibility Score: inf
ROOT
ATOM      1  O   UNL     1      14.377  48.127  75.259  1.00  0.00    -0.462 OA
ENDROOT
BRANCH   1   2
ATOM      2  C   UNL     1      15.383  47.327  74.703  1.00  0.00     0.130 A 
ATOM      3  C   UNL     1      17.735  43.171  74.456  1.00  0.00     0.138 A 
ATOM      4  C   UNL     1      18.720  43.709  73.621  1.00  0.00     0.100 A 
ATOM      5  O   UNL     1      16.722  43.937  74.855  1.00  0.00    -0.456 OA
ATOM      6  C   UNL     1      18.627  45.046  73.217  1.00  0.00     0.197 A 
ATOM      7  C   UNL     1      16.584  45.215  74.501  1.00  0.00     0.146 A 
ATOM      8  O   UNL     1      19.523  45.524  72.466  1.00  0.00    -0.289 OA
ATOM      9  C   UNL     1      17.548  45.834  73.669  1.00  0.00     0.107 A 
ATOM     10  C   UNL     1      15.503  45.951  74.993  1.00  0.00     0.094 A 
ATOM     11  C   UNL     1      17.403  47.207  73.349  1.00  0.00     0.134 A 
ATOM     12  C   UNL     1      16.336  47.942  73.883  1.00  0.00     0.093 A 
BRANCH   3  13
ATOM     13  C   UNL     1      17.780  41.760  74.906  1.00  0.00     0.021 A 
ATOM     14  C   UNL     1      18.788  41.363  75.799  1.00  0.00     0.016 A 
ATOM     15  C   UNL     1      18.904  40.031  76.191  1.00  0.00     0.051 A 
ATOM     16  C   UNL     1      18.010  39.069  75.697  1.00  0.00     0.157 A 
ATOM     17  C   UNL     1      16.906  40.788  74.385  1.00  0.00     0.062 A 
ATOM     18  C   UNL     1      17.017  39.446  74.777  1.00  0.00     0.158 A 
BRANCH  16  19
ATOM     19  O   UNL     1      18.106  37.746  76.118  1.00  0.00    -0.504 OA
ATOM     20  H   UNL     1      18.130  37.521  77.106  1.00  0.00     0.293 HD
ENDBRANCH  16  19
BRANCH  18  21
ATOM     21  O   UNL     1      16.133  38.504  74.246  1.00  0.00    -0.504 OA
ATOM     22  H   UNL     1      16.297  38.061  73.354  1.00  0.00     0.293 HD
ENDBRANCH  18  21
ENDBRANCH   3  13
BRANCH  11  23
ATOM     23  O   UNL     1      18.325  47.851  72.522  1.00  0.00    -0.507 OA
ATOM     24  H   UNL     1      18.028  48.362  71.697  1.00  0.00     0.293 HD
ENDBRANCH  11  23
ENDBRANCH   1   2
BRANCH   1  25
ATOM     25  C   UNL     1      13.117  48.421  74.646  1.00  0.00     0.339 C 
ATOM     26  C   UNL     1      12.509  47.133  74.059  1.00  0.00     0.214 C 
ATOM     27  O   UNL     1      12.233  49.066  75.559  1.00  0.00    -0.332 OA
ATOM     28  C   UNL     1      12.034  46.191  75.187  1.00  0.00     0.180 C 
ATOM     29  C   UNL     1      11.939  48.228  76.673  1.00  0.00     0.179 C 
ATOM     30  C   UNL     1      11.180  46.955  76.219  1.00  0.00     0.177 C 
BRANCH  26  31
ATOM     31  O   UNL     1      11.442  47.478  73.210  1.00  0.00    -0.384 OA
ATOM     32  H   UNL     1      11.790  48.136  72.551  1.00  0.00     0.211 HD
ENDBRANCH  26  31
BRANCH  28  33
ATOM     33  O   UNL     1      11.302  45.130  74.636  1.00  0.00    -0.387 OA
ATOM     34  H   UNL     1      11.358  44.380  75.281  1.00  0.00     0.211 HD
ENDBRANCH  28  33
BRANCH  29  35
ATOM     35  C   UNL     1      11.094  49.027  77.678  1.00  0.00     0.191 C 
BRANCH  35  36
ATOM     36  O   UNL     1      10.111  48.199  78.248  1.00  0.00    -0.394 OA
ATOM     37  H   UNL     1      10.110  47.369  77.699  1.00  0.00     0.210 HD
ENDBRANCH  35  36
ENDBRANCH  29  35
BRANCH  30  38
ATOM     38  O   UNL     1       9.943  47.315  75.658  1.00  0.00    -0.387 OA
ATOM     39  H   UNL     1       9.871  48.308  75.750  1.00  0.00     0.211 HD
ENDBRANCH  30  38
ENDBRANCH   1  25
TORSDOF 11
ENDMDL
MODEL 3
REMARK VINA RESULT:    -6.510      1.899      3.001
REMARK INTER + INTRA:         -10.198
REMARK INTER:                  -9.273
REMARK INTRA:                  -0.925
REMARK UNBOUND:                -0.833
REMARK SMILES O=c1cc(-c2ccc(O)c(O)c2)oc2cc(O[C@@H]3O[C@@H](CO)[C@@H](O)[C@@H](O)[C@H]3O)cc(O)c12
REMARK SMILES IDX 17 1 16 2 4 3 3 4 13 5 2 6 14 7 1 8 32 9 15 10 30 11 29 12
REMARK SMILES IDX 5 13 6 14 7 15 8 16 12 17 10 18 9 19 11 21 31 23 18 25 27 26
REMARK SMILES IDX 19 27 25 28 20 29 23 30 28 31 26 33 21 35 22 36 24 38
REMARK H PARENT 9 20 11 22 31 24 28 32 26 34 22 37 24 39
REMARK Flexibility Score: inf
ROOT
ATOM      1  O   UNL     1      18.184  41.523  74.992  1.00  0.00    -0.462 OA
ENDROOT
BRANCH   1   2
ATOM      2  C   UNL     1      17.936  42.898  75.083  1.00  0.00     0.130 A 
ATOM      3  C   UNL     1      15.110  46.677  74.309  1.00  0.00     0.138 A 
ATOM      4  C   UNL     1      16.114  47.579  74.679  1.00  0.00     0.100 A 
ATOM      5  O   UNL     1      15.350  45.369  74.364  1.00  0.00    -0.456 OA
ATOM      6  C   UNL     1      17.357  47.092  75.101  1.00  0.00     0.197 A 
ATOM      7  C   UNL     1      16.515  44.851  74.758  1.00  0.00     0.146 A 
ATOM      8  O   UNL     1      18.258  47.915  75.429  1.00  0.00    -0.289 OA
ATOM      9  C   UNL     1      17.583  45.701  75.134  1.00  0.00     0.107 A 
ATOM     10  C   UNL     1      16.686  43.465  74.754  1.00  0.00     0.094 A 
ATOM     11  C   UNL     1      18.825  45.125  75.500  1.00  0.00     0.134 A 
ATOM     12  C   UNL     1      18.994  43.735  75.453  1.00  0.00     0.093 A 
BRANCH   3  13
ATOM     13  C   UNL     1      13.773  47.137  73.865  1.00  0.00     0.021 A 
ATOM     14  C   UNL     1      12.642  46.742  74.596  1.00  0.00     0.016 A 
ATOM     15  C   UNL     1      11.363  47.096  74.170  1.00  0.00     0.051 A 
ATOM     16  C   UNL     1      11.193  47.856  73.003  1.00  0.00     0.157 A 
ATOM     17  C   UNL     1      13.599  47.868  72.676  1.00  0.00     0.062 A 
ATOM     18  C   UNL     1      12.314  48.229  72.243  1.00  0.00     0.158 A 
BRANCH  16  19
ATOM     19  O   UNL     1       9.917  48.239  72.600  1.00  0.00    -0.504 OA
ATOM     20  H   UNL     1       9.727  49.198  72.336  1.00  0.00     0.293 HD
ENDBRANCH  16  19
BRANCH  18  21
ATOM     21  O   UNL     1      12.172  48.959  71.061  1.00  0.00    -0.504 OA
ATOM     22  H   UNL     1      11.892  49.929  71.064  1.00  0.00     0.293 HD
ENDBRANCH  18  21
ENDBRANCH   3  13
BRANCH  11  23
ATOM     23  O   UNL     1      19.899  45.928  75.889  1.00  0.00    -0.507 OA
ATOM     24  H   UNL     1      19.928  46.917  75.665  1.00  0.00     0.293 HD
ENDBRANCH  11  23
ENDBRANCH   1   2
BRANCH   1  25
ATOM     25  C   UNL     1      17.367  40.493  75.559  1.00  0.00     0.339 C 
ATOM     26  C   UNL     1      17.161  39.365  74.531  1.00  0.00     0.214 C 
ATOM     27  O   UNL     1      17.914  40.011  76.784  1.00  0.00    -0.332 OA
ATOM     28  C   UNL     1      18.469  38.571  74.322  1.00  0.00     0.180 C 
ATOM     29  C   UNL     1      19.196  39.424  76.582  1.00  0.00     0.179 C 
ATOM     30  C   UNL     1      19.092  38.173  75.676  1.00  0.00     0.177 C 
BRANCH  26  31
ATOM     31  O   UNL     1      16.128  38.522  74.979  1.00  0.00    -0.384 OA
ATOM     32  H   UNL     1      15.269  38.931  74.693  1.00  0.00     0.211 HD
ENDBRANCH  26  31
BRANCH  28  33
ATOM     33  O   UNL     1      18.208  37.430  73.549  1.00  0.00    -0.387 OA
ATOM     34  H   UNL     1      18.945  36.792  73.728  1.00  0.00     0.211 HD
ENDBRANCH  28  33
BRANCH  29  35
ATOM     35  C   UNL     1      19.784  39.049  77.951  1.00  0.00     0.191 C 
BRANCH  35  36
ATOM     36  O   UNL     1      18.750  38.852  78.884  1.00  0.00    -0.394 OA
ATOM     37  H   UNL     1      19.204  38.653  79.747  1.00  0.00     0.210 HD
ENDBRANCH  35  36
ENDBRANCH  29  35
BRANCH  30  38
ATOM     38  O   UNL     1      18.305  37.194  76.307  1.00  0.00    -0.387 OA
ATOM     39  H   UNL     1      18.354  36.380  75.730  1.00  0.00     0.211 HD
ENDBRANCH  30  38
ENDBRANCH   1  25
TORSDOF 11
ENDMDL
MODEL 4
REMARK VINA RESULT:    -6.384      1.624      2.049
REMARK INTER + INTRA:         -10.015
REMARK INTER:                  -9.301
REMARK INTRA:                  -0.714
REMARK UNBOUND:                -0.833
REMARK SMILES O=c1cc(-c2ccc(O)c(O)c2)oc2cc(O[C@@H]3O[C@@H](CO)[C@@H](O)[C@@H](O)[C@H]3O)cc(O)c12
REMARK SMILES IDX 17 1 16 2 4 3 3 4 13 5 2 6 14 7 1 8 32 9 15 10 30 11 29 12
REMARK SMILES IDX 5 13 6 14 7 15 8 16 12 17 10 18 9 19 11 21 31 23 18 25 27 26
REMARK SMILES IDX 19 27 25 28 20 29 23 30 28 31 26 33 21 35 22 36 24 38
REMARK H PARENT 9 20 11 22 31 24 28 32 26 34 22 37 24 39
REMARK Flexibility Score: inf
ROOT
ATOM      1  O   UNL     1      18.516  42.058  75.727  1.00  0.00    -0.462 OA
ENDROOT
BRANCH   1   2
ATOM      2  C   UNL     1      18.220  43.423  75.618  1.00  0.00     0.130 A 
ATOM      3  C   UNL     1      15.239  46.950  74.375  1.00  0.00     0.138 A 
ATOM      4  C   UNL     1      16.219  47.929  74.574  1.00  0.00     0.100 A 
ATOM      5  O   UNL     1      15.528  45.673  74.619  1.00  0.00    -0.456 OA
ATOM      6  C   UNL     1      17.490  47.551  75.025  1.00  0.00     0.197 A 
ATOM      7  C   UNL     1      16.720  45.258  75.048  1.00  0.00     0.146 A 
ATOM      8  O   UNL     1      18.368  48.443  75.197  1.00  0.00    -0.289 OA
ATOM      9  C   UNL     1      17.767  46.189  75.259  1.00  0.00     0.107 A 
ATOM     10  C   UNL     1      16.941  43.893  75.248  1.00  0.00     0.094 A 
ATOM     11  C   UNL     1      19.038  45.715  75.668  1.00  0.00     0.134 A 
ATOM     12  C   UNL     1      19.256  44.340  75.825  1.00  0.00     0.093 A 
BRANCH   3  13
ATOM     13  C   UNL     1      13.875  47.294  73.909  1.00  0.00     0.021 A 
ATOM     14  C   UNL     1      12.773  46.906  74.688  1.00  0.00     0.016 A 
ATOM     15  C   UNL     1      11.473  47.149  74.249  1.00  0.00     0.051 A 
ATOM     16  C   UNL     1      11.252  47.791  73.021  1.00  0.00     0.157 A 
ATOM     17  C   UNL     1      13.650  47.904  72.662  1.00  0.00     0.062 A 
ATOM     18  C   UNL     1      12.345  48.155  72.216  1.00  0.00     0.158 A 
BRANCH  16  19
ATOM     19  O   UNL     1       9.954  48.066  72.603  1.00  0.00    -0.504 OA
ATOM     20  H   UNL     1       9.662  49.019  72.420  1.00  0.00     0.293 HD
ENDBRANCH  16  19
BRANCH  18  21
ATOM     21  O   UNL     1      12.152  48.767  70.976  1.00  0.00    -0.504 OA
ATOM     22  H   UNL     1      12.773  49.485  70.633  1.00  0.00     0.293 HD
ENDBRANCH  18  21
ENDBRANCH   3  13
BRANCH  11  23
ATOM     23  O   UNL     1      20.092  46.601  75.898  1.00  0.00    -0.507 OA
ATOM     24  H   UNL     1      20.033  47.318  76.613  1.00  0.00     0.293 HD
ENDBRANCH  11  23
ENDBRANCH   1   2
BRANCH   1  25
ATOM     25  C   UNL     1      19.477  41.486  76.620  1.00  0.00     0.339 C 
ATOM     26  C   UNL     1      18.955  41.559  78.066  1.00  0.00     0.214 C 
ATOM     27  O   UNL     1      19.815  40.155  76.236  1.00  0.00    -0.332 OA
ATOM     28  C   UNL     1      17.787  40.570  78.276  1.00  0.00     0.180 C 
ATOM     29  C   UNL     1      18.677  39.299  76.287  1.00  0.00     0.179 C 
ATOM     30  C   UNL     1      18.149  39.171  77.738  1.00  0.00     0.177 C 
BRANCH  26  31
ATOM     31  O   UNL     1      20.013  41.280  78.949  1.00  0.00    -0.384 OA
ATOM     32  H   UNL     1      20.806  41.048  78.395  1.00  0.00     0.211 HD
ENDBRANCH  26  31
BRANCH  28  33
ATOM     33  O   UNL     1      17.468  40.502  79.640  1.00  0.00    -0.387 OA
ATOM     34  H   UNL     1      16.479  40.496  79.699  1.00  0.00     0.211 HD
ENDBRANCH  28  33
BRANCH  29  35
ATOM     35  C   UNL     1      19.077  37.920  75.737  1.00  0.00     0.191 C 
BRANCH  35  36
ATOM     36  O   UNL     1      18.537  37.737  74.452  1.00  0.00    -0.394 OA
ATOM     37  H   UNL     1      19.199  38.135  73.825  1.00  0.00     0.210 HD
ENDBRANCH  35  36
ENDBRANCH  29  35
BRANCH  30  38
ATOM     38  O   UNL     1      19.130  38.574  78.549  1.00  0.00    -0.387 OA
ATOM     39  H   UNL     1      19.907  39.201  78.555  1.00  0.00     0.211 HD
ENDBRANCH  30  38
ENDBRANCH   1  25
TORSDOF 11
ENDMDL
MODEL 5
REMARK VINA RESULT:    -6.040      7.467     11.159
REMARK INTER + INTRA:          -9.522
REMARK INTER:                  -8.509
REMARK INTRA:                  -1.012
REMARK UNBOUND:                -0.833
REMARK SMILES O=c1cc(-c2ccc(O)c(O)c2)oc2cc(O[C@@H]3O[C@@H](CO)[C@@H](O)[C@@H](O)[C@H]3O)cc(O)c12
REMARK SMILES IDX 17 1 16 2 4 3 3 4 13 5 2 6 14 7 1 8 32 9 15 10 30 11 29 12
REMARK SMILES IDX 5 13 6 14 7 15 8 16 12 17 10 18 9 19 11 21 31 23 18 25 27 26
REMARK SMILES IDX 19 27 25 28 20 29 23 30 28 31 26 33 21 35 22 36 24 38
REMARK H PARENT 9 20 11 22 31 24 28 32 26 34 22 37 24 39
REMARK Flexibility Score: inf
ROOT
ATOM      1  O   UNL     1      11.162  49.025  71.365  1.00  0.00    -0.462 OA
ENDROOT
BRANCH   1   2
ATOM      2  C   UNL     1      10.040  48.859  70.542  1.00  0.00     0.130 A 
ATOM      3  C   UNL     1       6.002  46.553  69.429  1.00  0.00     0.138 A 
ATOM      4  C   UNL     1       5.881  47.228  68.210  1.00  0.00     0.100 A 
ATOM      5  O   UNL     1       7.017  46.839  70.241  1.00  0.00    -0.456 OA
ATOM      6  C   UNL     1       6.831  48.196  67.861  1.00  0.00     0.197 A 
ATOM      7  C   UNL     1       7.949  47.750  69.959  1.00  0.00     0.146 A 
ATOM      8  O   UNL     1       6.716  48.797  66.756  1.00  0.00    -0.289 OA
ATOM      9  C   UNL     1       7.902  48.465  68.737  1.00  0.00     0.107 A 
ATOM     10  C   UNL     1       8.996  47.963  70.859  1.00  0.00     0.094 A 
ATOM     11  C   UNL     1       8.933  49.391  68.441  1.00  0.00     0.134 A 
ATOM     12  C   UNL     1       9.997  49.564  69.336  1.00  0.00     0.093 A 
BRANCH   3  13
ATOM     13  C   UNL     1       5.020  45.527  69.853  1.00  0.00     0.021 A 
ATOM     14  C   UNL     1       4.257  44.871  68.873  1.00  0.00     0.016 A 
ATOM     15  C   UNL     1       3.275  43.951  69.237  1.00  0.00     0.051 A 
ATOM     16  C   UNL     1       3.040  43.667  70.591  1.00  0.00     0.157 A 
ATOM     17  C   UNL     1       4.759  45.267  71.210  1.00  0.00     0.062 A 
ATOM     18  C   UNL     1       3.774  44.340  71.582  1.00  0.00     0.158 A 
BRANCH  16  19
ATOM     19  O   UNL     1       2.085  42.721  70.949  1.00  0.00    -0.504 OA
ATOM     20  H   UNL     1       1.132  43.001  71.148  1.00  0.00     0.293 HD
ENDBRANCH  16  19
BRANCH  18  21
ATOM     21  O   UNL     1       3.540  44.099  72.938  1.00  0.00    -0.504 OA
ATOM     22  H   UNL     1       3.516  43.164  73.317  1.00  0.00     0.293 HD
ENDBRANCH  18  21
ENDBRANCH   3  13
BRANCH  11  23
ATOM     23  O   UNL     1       8.917  50.125  67.253  1.00  0.00    -0.507 OA
ATOM     24  H   UNL     1       9.763  50.535  66.875  1.00  0.00     0.293 HD
ENDBRANCH  11  23
ENDBRANCH   1   2
BRANCH   1  25
ATOM     25  C   UNL     1      12.161  48.032  71.615  1.00  0.00     0.339 C 
ATOM     26  C   UNL     1      13.529  48.708  71.821  1.00  0.00     0.214 C 
ATOM     27  O   UNL     1      11.802  47.198  72.713  1.00  0.00    -0.332 OA
ATOM     28  C   UNL     1      13.569  49.459  73.170  1.00  0.00     0.180 C 
ATOM     29  C   UNL     1      11.691  47.950  73.918  1.00  0.00     0.179 C 
ATOM     30  C   UNL     1      13.058  48.560  74.314  1.00  0.00     0.177 C 
BRANCH  26  31
ATOM     31  O   UNL     1      14.537  47.729  71.762  1.00  0.00    -0.384 OA
ATOM     32  H   UNL     1      14.086  46.842  71.753  1.00  0.00     0.211 HD
ENDBRANCH  26  31
BRANCH  28  33
ATOM     33  O   UNL     1      14.879  49.887  73.432  1.00  0.00    -0.387 OA
ATOM     34  H   UNL     1      15.344  49.925  72.558  1.00  0.00     0.211 HD
ENDBRANCH  28  33
BRANCH  29  35
ATOM     35  C   UNL     1      11.174  47.022  75.029  1.00  0.00     0.191 C 
BRANCH  35  36
ATOM     36  O   UNL     1      11.512  45.688  74.740  1.00  0.00    -0.394 OA
ATOM     37  H   UNL     1      11.903  45.324  75.580  1.00  0.00     0.210 HD
ENDBRANCH  35  36
ENDBRANCH  29  35
BRANCH  30  38
ATOM     38  O   UNL     1      13.979  47.531  74.575  1.00  0.00    -0.387 OA
ATOM     39  H   UNL     1      13.552  46.685  74.257  1.00  0.00     0.211 HD
ENDBRANCH  30  38
ENDBRANCH   1  25
TORSDOF 11
ENDMDL
MODEL 6
REMARK VINA RESULT:    -5.916      1.968      2.592
REMARK INTER + INTRA:          -9.343
REMARK INTER:                  -8.423
REMARK INTRA:                  -0.920
REMARK UNBOUND:                -0.833
REMARK SMILES O=c1cc(-c2ccc(O)c(O)c2)oc2cc(O[C@@H]3O[C@@H](CO)[C@@H](O)[C@@H](O)[C@H]3O)cc(O)c12
REMARK SMILES IDX 17 1 16 2 4 3 3 4 13 5 2 6 14 7 1 8 32 9 15 10 30 11 29 12
REMARK SMILES IDX 5 13 6 14 7 15 8 16 12 17 10 18 9 19 11 21 31 23 18 25 27 26
REMARK SMILES IDX 19 27 25 28 20 29 23 30 28 31 26 33 21 35 22 36 24 38
REMARK H PARENT 9 20 11 22 31 24 28 32 26 34 22 37 24 39
REMARK Flexibility Score: inf
ROOT
ATOM      1  O   UNL     1      17.241  42.456  75.998  1.00  0.00    -0.462 OA
ENDROOT
BRANCH   1   2
ATOM      2  C   UNL     1      17.088  43.775  75.554  1.00  0.00     0.130 A 
ATOM      3  C   UNL     1      14.424  47.216  73.573  1.00  0.00     0.138 A 
ATOM      4  C   UNL     1      15.516  48.085  73.469  1.00  0.00     0.100 A 
ATOM      5  O   UNL     1      14.589  46.016  74.125  1.00  0.00    -0.456 OA
ATOM      6  C   UNL     1      16.768  47.679  73.946  1.00  0.00     0.197 A 
ATOM      7  C   UNL     1      15.758  45.579  74.595  1.00  0.00     0.146 A 
ATOM      8  O   UNL     1      17.748  48.469  73.843  1.00  0.00    -0.289 OA
ATOM      9  C   UNL     1      16.912  46.396  74.512  1.00  0.00     0.107 A 
ATOM     10  C   UNL     1      15.844  44.291  75.131  1.00  0.00     0.094 A 
ATOM     11  C   UNL     1      18.151  45.887  74.974  1.00  0.00     0.134 A 
ATOM     12  C   UNL     1      18.230  44.579  75.471  1.00  0.00     0.093 A 
BRANCH   3  13
ATOM     13  C   UNL     1      13.074  47.598  73.094  1.00  0.00     0.021 A 
ATOM     14  C   UNL     1      11.991  47.526  73.984  1.00  0.00     0.016 A 
ATOM     15  C   UNL     1      10.697  47.809  73.553  1.00  0.00     0.051 A 
ATOM     16  C   UNL     1      10.463  48.175  72.218  1.00  0.00     0.157 A 
ATOM     17  C   UNL     1      12.832  47.930  71.749  1.00  0.00     0.062 A 
ATOM     18  C   UNL     1      11.532  48.219  71.308  1.00  0.00     0.158 A 
BRANCH  16  19
ATOM     19  O   UNL     1       9.175  48.494  71.799  1.00  0.00    -0.504 OA
ATOM     20  H   UNL     1       8.453  47.783  71.764  1.00  0.00     0.293 HD
ENDBRANCH  16  19
BRANCH  18  21
ATOM     21  O   UNL     1      11.323  48.550  69.968  1.00  0.00    -0.504 OA
ATOM     22  H   UNL     1      10.850  49.400  69.695  1.00  0.00     0.293 HD
ENDBRANCH  18  21
ENDBRANCH   3  13
BRANCH  11  23
ATOM     23  O   UNL     1      19.309  46.665  74.921  1.00  0.00    -0.507 OA
ATOM     24  H   UNL     1      20.226  46.241  74.831  1.00  0.00     0.293 HD
ENDBRANCH  11  23
ENDBRANCH   1   2
BRANCH   1  25
ATOM     25  C   UNL     1      18.430  41.670  75.869  1.00  0.00     0.339 C 
ATOM     26  C   UNL     1      18.815  41.076  77.237  1.00  0.00     0.214 C 
ATOM     27  O   UNL     1      18.283  40.665  74.869  1.00  0.00    -0.332 OA
ATOM     28  C   UNL     1      17.819  39.971  77.652  1.00  0.00     0.180 C 
ATOM     29  C   UNL     1      17.245  39.749  75.205  1.00  0.00     0.179 C 
ATOM     30  C   UNL     1      17.595  38.972  76.499  1.00  0.00     0.177 C 
BRANCH  26  31
ATOM     31  O   UNL     1      20.125  40.569  77.163  1.00  0.00    -0.384 OA
ATOM     32  H   UNL     1      20.210  39.869  77.863  1.00  0.00     0.211 HD
ENDBRANCH  26  31
BRANCH  28  33
ATOM     33  O   UNL     1      18.301  39.306  78.789  1.00  0.00    -0.387 OA
ATOM     34  H   UNL     1      17.706  39.559  79.539  1.00  0.00     0.211 HD
ENDBRANCH  28  33
BRANCH  29  35
ATOM     35  C   UNL     1      17.050  38.777  74.031  1.00  0.00     0.191 C 
BRANCH  35  36
ATOM     36  O   UNL     1      18.298  38.358  73.538  1.00  0.00    -0.394 OA
ATOM     37  H   UNL     1      18.335  38.682  72.597  1.00  0.00     0.210 HD
ENDBRANCH  35  36
ENDBRANCH  29  35
BRANCH  30  38
ATOM     38  O   UNL     1      18.751  38.200  76.290  1.00  0.00    -0.387 OA
ATOM     39  H   UNL     1      19.181  38.557  75.463  1.00  0.00     0.211 HD
ENDBRANCH  30  38
ENDBRANCH   1  25
TORSDOF 11
ENDMDL
MODEL 7
REMARK VINA RESULT:    -5.233      2.833      4.145
REMARK INTER + INTRA:          -8.360
REMARK INTER:                  -7.681
REMARK INTRA:                  -0.679
REMARK UNBOUND:                -0.833
REMARK SMILES O=c1cc(-c2ccc(O)c(O)c2)oc2cc(O[C@@H]3O[C@@H](CO)[C@@H](O)[C@@H](O)[C@H]3O)cc(O)c12
REMARK SMILES IDX 17 1 16 2 4 3 3 4 13 5 2 6 14 7 1 8 32 9 15 10 30 11 29 12
REMARK SMILES IDX 5 13 6 14 7 15 8 16 12 17 10 18 9 19 11 21 31 23 18 25 27 26
REMARK SMILES IDX 19 27 25 28 20 29 23 30 28 31 26 33 21 35 22 36 24 38
REMARK H PARENT 9 20 11 22 31 24 28 32 26 34 22 37 24 39
REMARK Flexibility Score: inf
ROOT
ATOM      1  O   UNL     1      16.589  43.856  75.088  1.00  0.00    -0.462 OA
ENDROOT
BRANCH   1   2
ATOM      2  C   UNL     1      16.102  45.143  74.825  1.00  0.00     0.130 A 
ATOM      3  C   UNL     1      12.949  48.046  72.705  1.00  0.00     0.138 A 
ATOM      4  C   UNL     1      13.674  49.189  73.057  1.00  0.00     0.100 A 
ATOM      5  O   UNL     1      13.382  46.848  73.091  1.00  0.00    -0.456 OA
ATOM      6  C   UNL     1      14.847  49.057  73.810  1.00  0.00     0.197 A 
ATOM      7  C   UNL     1      14.492  46.665  73.808  1.00  0.00     0.146 A 
ATOM      8  O   UNL     1      15.497  50.096  74.119  1.00  0.00    -0.289 OA
ATOM      9  C   UNL     1      15.287  47.773  74.190  1.00  0.00     0.107 A 
ATOM     10  C   UNL     1      14.886  45.367  74.142  1.00  0.00     0.094 A 
ATOM     11  C   UNL     1      16.486  47.545  74.909  1.00  0.00     0.134 A 
ATOM     12  C   UNL     1      16.890  46.235  75.202  1.00  0.00     0.093 A 
BRANCH   3  13
ATOM     13  C   UNL     1      11.696  48.128  71.918  1.00  0.00     0.021 A 
ATOM     14  C   UNL     1      10.471  48.224  72.598  1.00  0.00     0.016 A 
ATOM     15  C   UNL     1       9.268  48.233  71.896  1.00  0.00     0.051 A 
ATOM     16  C   UNL     1       9.268  48.150  70.495  1.00  0.00     0.157 A 
ATOM     17  C   UNL     1      11.692  48.009  70.516  1.00  0.00     0.062 A 
ATOM     18  C   UNL     1      10.484  48.020  69.803  1.00  0.00     0.158 A 
BRANCH  16  19
ATOM     19  O   UNL     1       8.067  48.197  69.794  1.00  0.00    -0.504 OA
ATOM     20  H   UNL     1       7.451  47.393  69.772  1.00  0.00     0.293 HD
ENDBRANCH  16  19
BRANCH  18  21
ATOM     21  O   UNL     1      10.511  47.905  68.412  1.00  0.00    -0.504 OA
ATOM     22  H   UNL     1      11.110  48.483  67.840  1.00  0.00     0.293 HD
ENDBRANCH  18  21
ENDBRANCH   3  13
BRANCH  11  23
ATOM     23  O   UNL     1      17.291  48.611  75.315  1.00  0.00    -0.507 OA
ATOM     24  H   UNL     1      18.126  48.460  75.871  1.00  0.00     0.293 HD
ENDBRANCH  11  23
ENDBRANCH   1   2
BRANCH   1  25
ATOM     25  C   UNL     1      17.829  43.325  74.609  1.00  0.00     0.339 C 
ATOM     26  C   UNL     1      18.843  43.244  75.764  1.00  0.00     0.214 C 
ATOM     27  O   UNL     1      17.641  42.066  73.968  1.00  0.00    -0.332 OA
ATOM     28  C   UNL     1      18.452  42.128  76.757  1.00  0.00     0.180 C 
ATOM     29  C   UNL     1      17.126  41.095  74.875  1.00  0.00     0.179 C 
ATOM     30  C   UNL     1      18.139  40.814  76.013  1.00  0.00     0.177 C 
BRANCH  26  31
ATOM     31  O   UNL     1      20.124  43.014  75.231  1.00  0.00    -0.384 OA
ATOM     32  H   UNL     1      20.433  43.868  74.827  1.00  0.00     0.211 HD
ENDBRANCH  26  31
BRANCH  28  33
ATOM     33  O   UNL     1      19.490  41.933  77.679  1.00  0.00    -0.387 OA
ATOM     34  H   UNL     1      19.072  41.590  78.509  1.00  0.00     0.211 HD
ENDBRANCH  28  33
BRANCH  29  35
ATOM     35  C   UNL     1      16.823  39.807  74.095  1.00  0.00     0.191 C 
BRANCH  35  36
ATOM     36  O   UNL     1      16.184  38.875  74.931  1.00  0.00    -0.394 OA
ATOM     37  H   UNL     1      15.595  39.412  75.528  1.00  0.00     0.210 HD
ENDBRANCH  35  36
ENDBRANCH  29  35
BRANCH  30  38
ATOM     38  O   UNL     1      19.316  40.266  75.475  1.00  0.00    -0.387 OA
ATOM     39  H   UNL     1      19.038  39.459  74.955  1.00  0.00     0.211 HD
ENDBRANCH  30  38
ENDBRANCH   1  25
TORSDOF 11
ENDMDL
MODEL 8
REMARK VINA RESULT:    -5.059      2.690      9.379
REMARK INTER + INTRA:          -8.110
REMARK INTER:                  -7.151
REMARK INTRA:                  -0.959
REMARK UNBOUND:                -0.833
REMARK SMILES O=c1cc(-c2ccc(O)c(O)c2)oc2cc(O[C@@H]3O[C@@H](CO)[C@@H](O)[C@@H](O)[C@H]3O)cc(O)c12
REMARK SMILES IDX 17 1 16 2 4 3 3 4 13 5 2 6 14 7 1 8 32 9 15 10 30 11 29 12
REMARK SMILES IDX 5 13 6 14 7 15 8 16 12 17 10 18 9 19 11 21 31 23 18 25 27 26
REMARK SMILES IDX 19 27 25 28 20 29 23 30 28 31 26 33 21 35 22 36 24 38
REMARK H PARENT 9 20 11 22 31 24 28 32 26 34 22 37 24 39
REMARK Flexibility Score: inf
ROOT
ATOM      1  O   UNL     1      17.233  46.503  74.356  1.00  0.00    -0.462 OA
ENDROOT
BRANCH   1   2
ATOM      2  C   UNL     1      17.890  45.690  75.288  1.00  0.00     0.130 A 
ATOM      3  C   UNL     1      19.062  41.354  76.931  1.00  0.00     0.138 A 
ATOM      4  C   UNL     1      19.612  41.882  78.104  1.00  0.00     0.100 A 
ATOM      5  O   UNL     1      18.566  42.178  76.010  1.00  0.00    -0.456 OA
ATOM      6  C   UNL     1      19.631  43.269  78.294  1.00  0.00     0.197 A 
ATOM      7  C   UNL     1      18.558  43.505  76.139  1.00  0.00     0.146 A 
ATOM      8  O   UNL     1      20.125  43.735  79.360  1.00  0.00    -0.289 OA
ATOM      9  C   UNL     1      19.084  44.112  77.306  1.00  0.00     0.107 A 
ATOM     10  C   UNL     1      17.988  44.290  75.133  1.00  0.00     0.094 A 
ATOM     11  C   UNL     1      19.017  45.522  77.439  1.00  0.00     0.134 A 
ATOM     12  C   UNL     1      18.406  46.292  76.440  1.00  0.00     0.093 A 
BRANCH   3  13
ATOM     13  C   UNL     1      19.025  39.895  76.674  1.00  0.00     0.021 A 
ATOM     14  C   UNL     1      19.459  39.017  77.679  1.00  0.00     0.016 A 
ATOM     15  C   UNL     1      19.505  37.643  77.451  1.00  0.00     0.051 A 
ATOM     16  C   UNL     1      19.113  37.121  76.208  1.00  0.00     0.157 A 
ATOM     17  C   UNL     1      18.667  39.373  75.418  1.00  0.00     0.062 A 
ATOM     18  C   UNL     1      18.708  37.991  75.182  1.00  0.00     0.158 A 
BRANCH  16  19
ATOM     19  O   UNL     1      19.124  35.747  75.995  1.00  0.00    -0.504 OA
ATOM     20  H   UNL     1      18.410  35.307  75.426  1.00  0.00     0.293 HD
ENDBRANCH  16  19
BRANCH  18  21
ATOM     21  O   UNL     1      18.342  37.501  73.926  1.00  0.00    -0.504 OA
ATOM     22  H   UNL     1      17.918  38.092  73.226  1.00  0.00     0.293 HD
ENDBRANCH  18  21
ENDBRANCH   3  13
BRANCH  11  23
ATOM     23  O   UNL     1      19.535  46.160  78.567  1.00  0.00    -0.507 OA
ATOM     24  H   UNL     1      19.377  47.147  78.735  1.00  0.00     0.293 HD
ENDBRANCH  11  23
ENDBRANCH   1   2
BRANCH   1  25
ATOM     25  C   UNL     1      17.042  47.917  74.478  1.00  0.00     0.339 C 
ATOM     26  C   UNL     1      17.970  48.656  73.496  1.00  0.00     0.214 C 
ATOM     27  O   UNL     1      15.674  48.273  74.298  1.00  0.00    -0.332 OA
ATOM     28  C   UNL     1      17.494  48.456  72.040  1.00  0.00     0.180 C 
ATOM     29  C   UNL     1      15.218  47.930  72.993  1.00  0.00     0.179 C 
ATOM     30  C   UNL     1      15.983  48.735  71.913  1.00  0.00     0.177 C 
BRANCH  26  31
ATOM     31  O   UNL     1      17.996  50.021  73.832  1.00  0.00    -0.384 OA
ATOM     32  H   UNL     1      18.458  50.100  74.709  1.00  0.00     0.211 HD
ENDBRANCH  26  31
BRANCH  28  33
ATOM     33  O   UNL     1      18.221  49.300  71.187  1.00  0.00    -0.387 OA
ATOM     34  H   UNL     1      17.662  49.438  70.381  1.00  0.00     0.211 HD
ENDBRANCH  28  33
BRANCH  29  35
ATOM     35  C   UNL     1      13.710  48.216  72.909  1.00  0.00     0.191 C 
BRANCH  35  36
ATOM     36  O   UNL     1      13.355  48.558  71.593  1.00  0.00    -0.394 OA
ATOM     37  H   UNL     1      14.177  48.412  71.049  1.00  0.00     0.210 HD
ENDBRANCH  35  36
ENDBRANCH  29  35
BRANCH  30  38
ATOM     38  O   UNL     1      15.724  50.107  72.073  1.00  0.00    -0.387 OA
ATOM     39  H   UNL     1      14.733  50.215  72.011  1.00  0.00     0.211 HD
ENDBRANCH  30  38
ENDBRANCH   1  25
TORSDOF 11
ENDMDL
