MODEL 1
REMARK VINA RESULT:    -2.211      0.000      0.000
REMARK INTER + INTRA:          -2.211
REMARK INTER:                  -2.211
REMARK INTRA:                   0.000
REMARK UNBOUND:                 0.000
REMARK SMILES c1cc[nH]c1
REMARK SMILES IDX 1 1 5 2 4 3 3 4 2 5
REMARK H PARENT 4 6
REMARK Flexibility Score: inf
ROOT
ATOM      1  C   UNL     1     131.872 134.955 136.264  1.00  0.00     0.019 A 
ATOM      2  C   UNL     1     132.585 134.927 137.445  1.00  0.00     0.082 A 
ATOM      3  N   UNL     1     133.442 133.891 137.440  1.00  0.00    -0.368 N 
ATOM      4  C   UNL     1     133.286 133.253 136.266  1.00  0.00     0.082 A 
ATOM      5  C   UNL     1     132.319 133.886 135.512  1.00  0.00     0.019 A 
ATOM      6  H   UNL     1     134.106 133.630 138.204  1.00  0.00     0.165 HD
ENDROOT
TORSDOF 0
ENDMDL
MODEL 2
REMARK VINA RESULT:    -2.207      5.574      6.134
REMARK INTER + INTRA:          -2.207
REMARK INTER:                  -2.207
REMARK INTRA:                   0.000
REMARK UNBOUND:                 0.000
REMARK SMILES c1cc[nH]c1
REMARK SMILES IDX 1 1 5 2 4 3 3 4 2 5
REMARK H PARENT 4 6
REMARK Flexibility Score: inf
ROOT
ATOM      1  C   UNL     1     133.834 140.379 135.498  1.00  0.00     0.019 A 
ATOM      2  C   UNL     1     133.203 139.372 136.199  1.00  0.00     0.082 A 
ATOM      3  N   UNL     1     133.832 139.161 137.368  1.00  0.00    -0.368 N 
ATOM      4  C   UNL     1     134.862 140.025 137.425  1.00  0.00     0.082 A 
ATOM      5  C   UNL     1     134.894 140.796 136.281  1.00  0.00     0.019 A 
ATOM      6  H   UNL     1     133.571 138.460 138.097  1.00  0.00     0.165 HD
ENDROOT
TORSDOF 0
ENDMDL
MODEL 3
REMARK VINA RESULT:    -2.199      8.272      8.604
REMARK INTER + INTRA:          -2.199
REMARK INTER:                  -2.199
REMARK INTRA:                   0.000
REMARK UNBOUND:                 0.000
REMARK SMILES c1cc[nH]c1
REMARK SMILES IDX 1 1 5 2 4 3 3 4 2 5
REMARK H PARENT 4 6
REMARK Flexibility Score: inf
ROOT
ATOM      1  C   UNL     1     140.816 137.760 136.301  1.00  0.00     0.019 A 
ATOM      2  C   UNL     1     140.055 137.733 137.452  1.00  0.00     0.082 A 
ATOM      3  N   UNL     1     139.147 138.724 137.426  1.00  0.00    -0.368 N 
ATOM      4  C   UNL     1     139.318 139.387 136.268  1.00  0.00     0.082 A 
ATOM      5  C   UNL     1     140.346 138.816 135.546  1.00  0.00     0.019 A 
ATOM      6  H   UNL     1     138.440 138.938 138.165  1.00  0.00     0.165 HD
ENDROOT
TORSDOF 0
ENDMDL
MODEL 4
REMARK VINA RESULT:    -2.165      5.805      6.317
REMARK INTER + INTRA:          -2.165
REMARK INTER:                  -2.165
REMARK INTRA:                   0.000
REMARK UNBOUND:                 0.000
REMARK SMILES c1cc[nH]c1
REMARK SMILES IDX 1 1 5 2 4 3 3 4 2 5
REMARK H PARENT 4 6
REMARK Flexibility Score: inf
ROOT
ATOM      1  C   UNL     1     137.729 131.899 136.154  1.00  0.00     0.019 A 
ATOM      2  C   UNL     1     138.800 132.335 135.402  1.00  0.00     0.082 A 
ATOM      3  N   UNL     1     139.502 133.252 136.090  1.00  0.00    -0.368 N 
ATOM      4  C   UNL     1     138.891 133.409 137.278  1.00  0.00     0.082 A 
ATOM      5  C   UNL     1     137.787 132.585 137.352  1.00  0.00     0.019 A 
ATOM      6  H   UNL     1     140.361 133.750 135.765  1.00  0.00     0.165 HD
ENDROOT
TORSDOF 0
ENDMDL
MODEL 5
REMARK VINA RESULT:    -2.146     13.544     13.994
REMARK INTER + INTRA:          -2.146
REMARK INTER:                  -2.146
REMARK INTRA:                   0.000
REMARK UNBOUND:                 0.000
REMARK SMILES c1cc[nH]c1
REMARK SMILES IDX 1 1 5 2 4 3 3 4 2 5
REMARK H PARENT 4 6
REMARK Flexibility Score: inf
ROOT
ATOM      1  C   UNL     1     128.877 126.863 148.918  1.00  0.00     0.019 A 
ATOM      2  C   UNL     1     129.732 125.901 148.420  1.00  0.00     0.082 A 
ATOM      3  N   UNL     1     130.532 126.438 147.482  1.00  0.00    -0.368 N 
ATOM      4  C   UNL     1     130.198 127.737 147.374  1.00  0.00     0.082 A 
ATOM      5  C   UNL     1     129.174 128.035 148.250  1.00  0.00     0.019 A 
ATOM      6  H   UNL     1     131.274 125.942 146.941  1.00  0.00     0.165 HD
ENDROOT
TORSDOF 0
ENDMDL
MODEL 6
REMARK VINA RESULT:    -2.143      5.565      6.228
REMARK INTER + INTRA:          -2.143
REMARK INTER:                  -2.143
REMARK INTRA:                   0.000
REMARK UNBOUND:                 0.000
REMARK SMILES c1cc[nH]c1
REMARK SMILES IDX 1 1 5 2 4 3 3 4 2 5
REMARK H PARENT 4 6
REMARK Flexibility Score: inf
ROOT
ATOM      1  C   UNL     1     138.688 132.281 135.452  1.00  0.00     0.019 A 
ATOM      2  C   UNL     1     137.691 131.897 136.326  1.00  0.00     0.082 A 
ATOM      3  N   UNL     1     137.776 132.612 137.462  1.00  0.00    -0.368 N 
ATOM      4  C   UNL     1     138.818 133.451 137.326  1.00  0.00     0.082 A 
ATOM      5  C   UNL     1     139.408 133.272 136.091  1.00  0.00     0.019 A 
ATOM      6  H   UNL     1     137.149 132.531 138.294  1.00  0.00     0.165 HD
ENDROOT
TORSDOF 0
ENDMDL
MODEL 7
REMARK VINA RESULT:    -2.102     14.456     15.461
REMARK INTER + INTRA:          -2.102
REMARK INTER:                  -2.102
REMARK INTRA:                   0.000
REMARK UNBOUND:                 0.000
REMARK SMILES c1cc[nH]c1
REMARK SMILES IDX 1 1 5 2 4 3 3 4 2 5
REMARK H PARENT 4 6
REMARK Flexibility Score: inf
ROOT
ATOM      1  C   UNL     1     128.236 143.215 147.912  1.00  0.00     0.019 A 
ATOM      2  C   UNL     1     127.696 142.173 147.186  1.00  0.00     0.082 A 
ATOM      3  N   UNL     1     126.396 142.021 147.496  1.00  0.00    -0.368 N 
ATOM      4  C   UNL     1     126.097 142.956 148.416  1.00  0.00     0.082 A 
ATOM      5  C   UNL     1     127.216 143.714 148.698  1.00  0.00     0.019 A 
ATOM      6  H   UNL     1     125.742 141.311 147.098  1.00  0.00     0.165 HD
ENDROOT
TORSDOF 0
ENDMDL
MODEL 8
REMARK VINA RESULT:    -2.100      5.681      6.207
REMARK INTER + INTRA:          -2.100
REMARK INTER:                  -2.100
REMARK INTRA:                   0.000
REMARK UNBOUND:                 0.000
REMARK SMILES c1cc[nH]c1
REMARK SMILES IDX 1 1 5 2 4 3 3 4 2 5
REMARK H PARENT 4 6
REMARK Flexibility Score: inf
ROOT
ATOM      1  C   UNL     1     133.133 139.380 136.155  1.00  0.00     0.019 A 
ATOM      2  C   UNL     1     133.802 140.339 135.422  1.00  0.00     0.082 A 
ATOM      3  N   UNL     1     134.862 140.791 136.115  1.00  0.00    -0.368 N 
ATOM      4  C   UNL     1     134.880 140.130 137.287  1.00  0.00     0.082 A 
ATOM      5  C   UNL     1     133.821 139.247 137.345  1.00  0.00     0.019 A 
ATOM      6  H   UNL     1     135.544 141.518 135.803  1.00  0.00     0.165 HD
ENDROOT
TORSDOF 0
ENDMDL
MODEL 9
REMARK VINA RESULT:    -1.976      8.289      8.397
REMARK INTER + INTRA:          -1.976
REMARK INTER:                  -1.976
REMARK INTRA:                   0.000
REMARK UNBOUND:                 0.000
REMARK SMILES c1cc[nH]c1
REMARK SMILES IDX 1 1 5 2 4 3 3 4 2 5
REMARK H PARENT 4 6
REMARK Flexibility Score: inf
ROOT
ATOM      1  C   UNL     1     138.190 139.009 134.099  1.00  0.00     0.019 A 
ATOM      2  C   UNL     1     138.216 140.117 134.921  1.00  0.00     0.082 A 
ATOM      3  N   UNL     1     139.338 140.114 135.662  1.00  0.00    -0.368 N 
ATOM      4  C   UNL     1     140.033 139.013 135.324  1.00  0.00     0.082 A 
ATOM      5  C   UNL     1     139.350 138.304 134.357  1.00  0.00     0.019 A 
ATOM      6  H   UNL     1     139.618 140.831 136.368  1.00  0.00     0.165 HD
ENDROOT
TORSDOF 0
ENDMDL
