MODEL 1
REMARK VINA RESULT:    -7.564      0.000      0.000
REMARK INTER + INTRA:          -8.936
REMARK INTER:                  -9.112
REMARK INTRA:                   0.176
REMARK UNBOUND:                 0.176
REMARK SMILES Oc1cc(O)c2c(c1)O[C@@H](c1ccc(O)c(O)c1)[C@H](O)C2
REMARK SMILES IDX 21 1 19 2 10 3 9 4 7 5 8 6 2 7 3 8 4 9 6 10 20 11 11 13
REMARK SMILES IDX 18 14 12 15 16 16 13 17 14 18 17 19 15 21 5 23 1 25
REMARK H PARENT 20 12 17 20 15 22 5 24 1 26
REMARK Flexibility Score: inf
ROOT
ATOM      1  C   UNL     1      15.046 -40.851  -3.137  1.00  0.00     0.079 C 
ATOM      2  C   UNL     1      16.358 -40.142  -3.519  1.00  0.00     0.164 C 
ATOM      3  C   UNL     1      16.520 -38.862  -2.678  1.00  0.00     0.232 C 
ATOM      4  O   UNL     1      16.462 -39.177  -1.286  1.00  0.00    -0.482 OA
ATOM      5  C   UNL     1      15.613 -40.164  -0.774  1.00  0.00     0.131 A 
ATOM      6  C   UNL     1      15.481 -40.304   0.611  1.00  0.00     0.093 A 
ATOM      7  C   UNL     1      14.636 -41.284   1.143  1.00  0.00     0.122 A 
ATOM      8  C   UNL     1      13.920 -42.125   0.286  1.00  0.00     0.092 A 
ATOM      9  C   UNL     1      14.049 -41.997  -1.106  1.00  0.00     0.126 A 
ATOM     10  C   UNL     1      14.914 -41.025  -1.643  1.00  0.00     0.039 A 
ENDROOT
BRANCH   2  11
ATOM     11  O   UNL     1      16.341 -39.813  -4.884  1.00  0.00    -0.389 OA
ATOM     12  H   UNL     1      16.625 -40.627  -5.377  1.00  0.00     0.211 HD
ENDBRANCH   2  11
BRANCH   3  13
ATOM     13  C   UNL     1      17.827 -38.169  -2.988  1.00  0.00    -0.001 A 
ATOM     14  C   UNL     1      18.111 -36.911  -2.432  1.00  0.00     0.057 A 
ATOM     15  C   UNL     1      18.751 -38.752  -3.872  1.00  0.00     0.012 A 
ATOM     16  C   UNL     1      19.310 -36.251  -2.739  1.00  0.00     0.157 A 
ATOM     17  C   UNL     1      19.946 -38.096  -4.177  1.00  0.00     0.050 A 
ATOM     18  C   UNL     1      20.232 -36.848  -3.614  1.00  0.00     0.157 A 
BRANCH  16  19
ATOM     19  O   UNL     1      19.586 -35.005  -2.178  1.00  0.00    -0.504 OA
ATOM     20  H   UNL     1      20.010 -34.916  -1.263  1.00  0.00     0.293 HD
ENDBRANCH  16  19
BRANCH  18  21
ATOM     21  O   UNL     1      21.433 -36.218  -3.937  1.00  0.00    -0.504 OA
ATOM     22  H   UNL     1      21.893 -35.578  -3.301  1.00  0.00     0.293 HD
ENDBRANCH  18  21
ENDBRANCH   3  13
BRANCH   9  23
ATOM     23  O   UNL     1      13.319 -42.832  -1.952  1.00  0.00    -0.507 OA
ATOM     24  H   UNL     1      12.453 -42.528  -2.382  1.00  0.00     0.293 HD
ENDBRANCH   9  23
BRANCH   7  25
ATOM     25  O   UNL     1      14.496 -41.429   2.522  1.00  0.00    -0.508 OA
ATOM     26  H   UNL     1      15.291 -41.355   3.145  1.00  0.00     0.293 HD
ENDBRANCH   7  25
TORSDOF 6
ENDMDL
MODEL 2
REMARK VINA RESULT:    -6.949      1.950      2.567
REMARK INTER + INTRA:          -8.196
REMARK INTER:                  -7.827
REMARK INTRA:                  -0.369
REMARK UNBOUND:                 0.176
REMARK SMILES Oc1cc(O)c2c(c1)O[C@@H](c1ccc(O)c(O)c1)[C@H](O)C2
REMARK SMILES IDX 21 1 19 2 10 3 9 4 7 5 8 6 2 7 3 8 4 9 6 10 20 11 11 13
REMARK SMILES IDX 18 14 12 15 16 16 13 17 14 18 17 19 15 21 5 23 1 25
REMARK H PARENT 20 12 17 20 15 22 5 24 1 26
REMARK Flexibility Score: inf
ROOT
ATOM      1  C   UNL     1      17.084 -39.651  -4.026  1.00  0.00     0.079 C 
ATOM      2  C   UNL     1      18.558 -39.294  -3.762  1.00  0.00     0.164 C 
ATOM      3  C   UNL     1      18.636 -38.107  -2.782  1.00  0.00     0.232 C 
ATOM      4  O   UNL     1      17.932 -38.416  -1.578  1.00  0.00    -0.482 OA
ATOM      5  C   UNL     1      16.749 -39.162  -1.570  1.00  0.00     0.131 A 
ATOM      6  C   UNL     1      16.022 -39.283  -0.382  1.00  0.00     0.093 A 
ATOM      7  C   UNL     1      14.835 -40.024  -0.354  1.00  0.00     0.122 A 
ATOM      8  C   UNL     1      14.374 -40.644  -1.520  1.00  0.00     0.092 A 
ATOM      9  C   UNL     1      15.099 -40.535  -2.717  1.00  0.00     0.126 A 
ATOM     10  C   UNL     1      16.303 -39.806  -2.742  1.00  0.00     0.039 A 
ENDROOT
BRANCH   2  11
ATOM     11  O   UNL     1      19.188 -38.952  -4.970  1.00  0.00    -0.389 OA
ATOM     12  H   UNL     1      20.092 -39.364  -4.946  1.00  0.00     0.211 HD
ENDBRANCH   2  11
BRANCH   3  13
ATOM     13  C   UNL     1      20.072 -37.765  -2.456  1.00  0.00    -0.001 A 
ATOM     14  C   UNL     1      20.610 -36.527  -2.844  1.00  0.00     0.057 A 
ATOM     15  C   UNL     1      20.897 -38.697  -1.805  1.00  0.00     0.012 A 
ATOM     16  C   UNL     1      21.950 -36.215  -2.570  1.00  0.00     0.157 A 
ATOM     17  C   UNL     1      22.232 -38.387  -1.530  1.00  0.00     0.050 A 
ATOM     18  C   UNL     1      22.763 -37.150  -1.907  1.00  0.00     0.157 A 
BRANCH  16  19
ATOM     19  O   UNL     1      22.474 -34.982  -2.954  1.00  0.00    -0.504 OA
ATOM     20  H   UNL     1      23.473 -34.833  -3.041  1.00  0.00     0.293 HD
ENDBRANCH  16  19
BRANCH  18  21
ATOM     21  O   UNL     1      24.098 -36.869  -1.619  1.00  0.00    -0.504 OA
ATOM     22  H   UNL     1      24.817 -37.581  -1.652  1.00  0.00     0.293 HD
ENDBRANCH  18  21
ENDBRANCH   3  13
BRANCH   9  23
ATOM     23  O   UNL     1      14.623 -41.145  -3.877  1.00  0.00    -0.507 OA
ATOM     24  H   UNL     1      14.521 -40.632  -4.744  1.00  0.00     0.293 HD
ENDBRANCH   9  23
BRANCH   7  25
ATOM     25  O   UNL     1      14.102 -40.148   0.825  1.00  0.00    -0.508 OA
ATOM     26  H   UNL     1      13.107 -39.963   0.851  1.00  0.00     0.293 HD
ENDBRANCH   7  25
TORSDOF 6
ENDMDL
MODEL 3
REMARK VINA RESULT:    -6.835      2.100      3.805
REMARK INTER + INTRA:          -8.057
REMARK INTER:                  -7.696
REMARK INTRA:                  -0.362
REMARK UNBOUND:                 0.176
REMARK SMILES Oc1cc(O)c2c(c1)O[C@@H](c1ccc(O)c(O)c1)[C@H](O)C2
REMARK SMILES IDX 21 1 19 2 10 3 9 4 7 5 8 6 2 7 3 8 4 9 6 10 20 11 11 13
REMARK SMILES IDX 18 14 12 15 16 16 13 17 14 18 17 19 15 21 5 23 1 25
REMARK H PARENT 20 12 17 20 15 22 5 24 1 26
REMARK Flexibility Score: inf
ROOT
ATOM      1  C   UNL     1      17.292 -39.791  -0.258  1.00  0.00     0.079 C 
ATOM      2  C   UNL     1      18.372 -38.719  -0.492  1.00  0.00     0.164 C 
ATOM      3  C   UNL     1      19.181 -39.065  -1.756  1.00  0.00     0.232 C 
ATOM      4  O   UNL     1      18.307 -39.204  -2.878  1.00  0.00    -0.482 OA
ATOM      5  C   UNL     1      17.032 -39.771  -2.770  1.00  0.00     0.131 A 
ATOM      6  C   UNL     1      16.298 -40.031  -3.931  1.00  0.00     0.093 A 
ATOM      7  C   UNL     1      15.022 -40.600  -3.845  1.00  0.00     0.122 A 
ATOM      8  C   UNL     1      14.481 -40.909  -2.594  1.00  0.00     0.092 A 
ATOM      9  C   UNL     1      15.206 -40.646  -1.421  1.00  0.00     0.126 A 
ATOM     10  C   UNL     1      16.482 -40.056  -1.505  1.00  0.00     0.039 A 
ENDROOT
BRANCH   2  11
ATOM     11  O   UNL     1      19.231 -38.659   0.618  1.00  0.00    -0.389 OA
ATOM     12  H   UNL     1      18.928 -37.892   1.171  1.00  0.00     0.211 HD
ENDBRANCH   2  11
BRANCH   3  13
ATOM     13  C   UNL     1      20.216 -38.002  -2.048  1.00  0.00    -0.001 A 
ATOM     14  C   UNL     1      21.584 -38.292  -1.920  1.00  0.00     0.057 A 
ATOM     15  C   UNL     1      19.820 -36.701  -2.403  1.00  0.00     0.012 A 
ATOM     16  C   UNL     1      22.548 -37.302  -2.163  1.00  0.00     0.157 A 
ATOM     17  C   UNL     1      20.779 -35.714  -2.646  1.00  0.00     0.050 A 
ATOM     18  C   UNL     1      22.142 -36.007  -2.529  1.00  0.00     0.157 A 
BRANCH  16  19
ATOM     19  O   UNL     1      23.903 -37.599  -2.038  1.00  0.00    -0.504 OA
ATOM     20  H   UNL     1      24.367 -37.601  -1.137  1.00  0.00     0.293 HD
ENDBRANCH  16  19
BRANCH  18  21
ATOM     21  O   UNL     1      23.075 -35.002  -2.777  1.00  0.00    -0.504 OA
ATOM     22  H   UNL     1      23.874 -34.848  -2.174  1.00  0.00     0.293 HD
ENDBRANCH  18  21
ENDBRANCH   3  13
BRANCH   9  23
ATOM     23  O   UNL     1      14.663 -40.971  -0.179  1.00  0.00    -0.507 OA
ATOM     24  H   UNL     1      14.855 -41.859   0.269  1.00  0.00     0.293 HD
ENDBRANCH   9  23
BRANCH   7  25
ATOM     25  O   UNL     1      14.283 -40.865  -4.997  1.00  0.00    -0.508 OA
ATOM     26  H   UNL     1      14.175 -40.173  -5.727  1.00  0.00     0.293 HD
ENDBRANCH   7  25
TORSDOF 6
ENDMDL
MODEL 4
REMARK VINA RESULT:    -6.823      2.881      4.756
REMARK INTER + INTRA:          -8.043
REMARK INTER:                  -7.734
REMARK INTRA:                  -0.309
REMARK UNBOUND:                 0.176
REMARK SMILES Oc1cc(O)c2c(c1)O[C@@H](c1ccc(O)c(O)c1)[C@H](O)C2
REMARK SMILES IDX 21 1 19 2 10 3 9 4 7 5 8 6 2 7 3 8 4 9 6 10 20 11 11 13
REMARK SMILES IDX 18 14 12 15 16 16 13 17 14 18 17 19 15 21 5 23 1 25
REMARK H PARENT 20 12 17 20 15 22 5 24 1 26
REMARK Flexibility Score: inf
ROOT
ATOM      1  C   UNL     1      19.408 -38.465  -4.633  1.00  0.00     0.079 C 
ATOM      2  C   UNL     1      20.805 -38.328  -4.000  1.00  0.00     0.164 C 
ATOM      3  C   UNL     1      20.729 -37.402  -2.771  1.00  0.00     0.232 C 
ATOM      4  O   UNL     1      19.762 -37.895  -1.842  1.00  0.00    -0.482 OA
ATOM      5  C   UNL     1      18.567 -38.498  -2.251  1.00  0.00     0.131 A 
ATOM      6  C   UNL     1      17.592 -38.802  -1.297  1.00  0.00     0.093 A 
ATOM      7  C   UNL     1      16.390 -39.405  -1.686  1.00  0.00     0.122 A 
ATOM      8  C   UNL     1      16.164 -39.701  -3.033  1.00  0.00     0.092 A 
ATOM      9  C   UNL     1      17.139 -39.405  -3.999  1.00  0.00     0.126 A 
ATOM     10  C   UNL     1      18.357 -38.818  -3.607  1.00  0.00     0.039 A 
ENDROOT
BRANCH   2  11
ATOM     11  O   UNL     1      21.702 -37.796  -4.940  1.00  0.00    -0.389 OA
ATOM     12  H   UNL     1      21.597 -36.809  -4.907  1.00  0.00     0.211 HD
ENDBRANCH   2  11
BRANCH   3  13
ATOM     13  C   UNL     1      22.074 -37.290  -2.092  1.00  0.00    -0.001 A 
ATOM     14  C   UNL     1      22.874 -36.152  -2.288  1.00  0.00     0.057 A 
ATOM     15  C   UNL     1      22.560 -38.340  -1.295  1.00  0.00     0.012 A 
ATOM     16  C   UNL     1      24.136 -36.055  -1.682  1.00  0.00     0.157 A 
ATOM     17  C   UNL     1      23.816 -38.244  -0.690  1.00  0.00     0.050 A 
ATOM     18  C   UNL     1      24.607 -37.106  -0.878  1.00  0.00     0.157 A 
BRANCH  16  19
ATOM     19  O   UNL     1      24.921 -34.920  -1.878  1.00  0.00    -0.504 OA
ATOM     20  H   UNL     1      24.602 -34.146  -2.449  1.00  0.00     0.293 HD
ENDBRANCH  16  19
BRANCH  18  21
ATOM     21  O   UNL     1      25.856 -37.039  -0.261  1.00  0.00    -0.504 OA
ATOM     22  H   UNL     1      26.719 -37.054  -0.790  1.00  0.00     0.293 HD
ENDBRANCH  18  21
ENDBRANCH   3  13
BRANCH   9  23
ATOM     23  O   UNL     1      16.898 -39.693  -5.342  1.00  0.00    -0.507 OA
ATOM     24  H   UNL     1      17.555 -40.228  -5.897  1.00  0.00     0.293 HD
ENDBRANCH   9  23
BRANCH   7  25
ATOM     25  O   UNL     1      15.411 -39.709  -0.742  1.00  0.00    -0.508 OA
ATOM     26  H   UNL     1      15.652 -39.964   0.208  1.00  0.00     0.293 HD
ENDBRANCH   7  25
TORSDOF 6
ENDMDL
MODEL 5
REMARK VINA RESULT:    -6.794      3.619      7.758
REMARK INTER + INTRA:          -8.008
REMARK INTER:                  -7.637
REMARK INTRA:                  -0.371
REMARK UNBOUND:                 0.176
REMARK SMILES Oc1cc(O)c2c(c1)O[C@@H](c1ccc(O)c(O)c1)[C@H](O)C2
REMARK SMILES IDX 21 1 19 2 10 3 9 4 7 5 8 6 2 7 3 8 4 9 6 10 20 11 11 13
REMARK SMILES IDX 18 14 12 15 16 16 13 17 14 18 17 19 15 21 5 23 1 25
REMARK H PARENT 20 12 17 20 15 22 5 24 1 26
REMARK Flexibility Score: inf
ROOT
ATOM      1  C   UNL     1      22.234 -39.493  -0.181  1.00  0.00     0.079 C 
ATOM      2  C   UNL     1      21.102 -39.828  -1.169  1.00  0.00     0.164 C 
ATOM      3  C   UNL     1      20.348 -38.540  -1.550  1.00  0.00     0.232 C 
ATOM      4  O   UNL     1      21.259 -37.575  -2.080  1.00  0.00    -0.482 OA
ATOM      5  C   UNL     1      22.560 -37.422  -1.590  1.00  0.00     0.131 A 
ATOM      6  C   UNL     1      23.338 -36.351  -2.036  1.00  0.00     0.093 A 
ATOM      7  C   UNL     1      24.642 -36.179  -1.557  1.00  0.00     0.122 A 
ATOM      8  C   UNL     1      25.167 -37.082  -0.628  1.00  0.00     0.092 A 
ATOM      9  C   UNL     1      24.396 -38.166  -0.178  1.00  0.00     0.126 A 
ATOM     10  C   UNL     1      23.091 -38.351  -0.674  1.00  0.00     0.039 A 
ENDROOT
BRANCH   2  11
ATOM     11  O   UNL     1      20.211 -40.741  -0.580  1.00  0.00    -0.389 OA
ATOM     12  H   UNL     1      20.544 -40.910   0.341  1.00  0.00     0.211 HD
ENDBRANCH   2  11
BRANCH   3  13
ATOM     13  C   UNL     1      19.262 -38.824  -2.563  1.00  0.00    -0.001 A 
ATOM     14  C   UNL     1      19.598 -39.190  -3.876  1.00  0.00     0.057 A 
ATOM     15  C   UNL     1      17.908 -38.679  -2.216  1.00  0.00     0.012 A 
ATOM     16  C   UNL     1      18.595 -39.428  -4.828  1.00  0.00     0.157 A 
ATOM     17  C   UNL     1      16.908 -38.917  -3.162  1.00  0.00     0.050 A 
ATOM     18  C   UNL     1      17.244 -39.292  -4.467  1.00  0.00     0.157 A 
BRANCH  16  19
ATOM     19  O   UNL     1      18.937 -39.796  -6.128  1.00  0.00    -0.504 OA
ATOM     20  H   UNL     1      18.391 -40.470  -6.650  1.00  0.00     0.293 HD
ENDBRANCH  16  19
BRANCH  18  21
ATOM     21  O   UNL     1      16.224 -39.523  -5.390  1.00  0.00    -0.504 OA
ATOM     22  H   UNL     1      15.664 -40.366  -5.374  1.00  0.00     0.293 HD
ENDBRANCH  18  21
ENDBRANCH   3  13
BRANCH   9  23
ATOM     23  O   UNL     1      24.923 -39.053   0.760  1.00  0.00    -0.507 OA
ATOM     24  H   UNL     1      24.361 -39.422   1.518  1.00  0.00     0.293 HD
ENDBRANCH   9  23
BRANCH   7  25
ATOM     25  O   UNL     1      25.425 -35.112  -1.993  1.00  0.00    -0.508 OA
ATOM     26  H   UNL     1      26.424 -35.209  -2.127  1.00  0.00     0.293 HD
ENDBRANCH   7  25
TORSDOF 6
ENDMDL
MODEL 6
REMARK VINA RESULT:    -6.760      2.487      7.046
REMARK INTER + INTRA:          -7.968
REMARK INTER:                  -7.607
REMARK INTRA:                  -0.361
REMARK UNBOUND:                 0.176
REMARK SMILES Oc1cc(O)c2c(c1)O[C@@H](c1ccc(O)c(O)c1)[C@H](O)C2
REMARK SMILES IDX 21 1 19 2 10 3 9 4 7 5 8 6 2 7 3 8 4 9 6 10 20 11 11 13
REMARK SMILES IDX 18 14 12 15 16 16 13 17 14 18 17 19 15 21 5 23 1 25
REMARK H PARENT 20 12 17 20 15 22 5 24 1 26
REMARK Flexibility Score: inf
ROOT
ATOM      1  C   UNL     1      19.997 -36.532  -3.303  1.00  0.00     0.079 C 
ATOM      2  C   UNL     1      18.640 -37.139  -2.903  1.00  0.00     0.164 C 
ATOM      3  C   UNL     1      18.765 -38.671  -2.805  1.00  0.00     0.232 C 
ATOM      4  O   UNL     1      19.804 -39.023  -1.889  1.00  0.00    -0.482 OA
ATOM      5  C   UNL     1      20.988 -38.285  -1.778  1.00  0.00     0.131 A 
ATOM      6  C   UNL     1      22.030 -38.779  -0.988  1.00  0.00     0.093 A 
ATOM      7  C   UNL     1      23.223 -38.057  -0.864  1.00  0.00     0.122 A 
ATOM      8  C   UNL     1      23.372 -36.839  -1.534  1.00  0.00     0.092 A 
ATOM      9  C   UNL     1      22.329 -36.331  -2.324  1.00  0.00     0.126 A 
ATOM     10  C   UNL     1      21.121 -37.046  -2.434  1.00  0.00     0.039 A 
ENDROOT
BRANCH   2  11
ATOM     11  O   UNL     1      17.669 -36.803  -3.861  1.00  0.00    -0.389 OA
ATOM     12  H   UNL     1      18.013 -37.118  -4.738  1.00  0.00     0.211 HD
ENDBRANCH   2  11
BRANCH   3  13
ATOM     13  C   UNL     1      17.463 -39.296  -2.360  1.00  0.00    -0.001 A 
ATOM     14  C   UNL     1      17.030 -39.161  -1.032  1.00  0.00     0.057 A 
ATOM     15  C   UNL     1      16.695 -40.059  -3.257  1.00  0.00     0.012 A 
ATOM     16  C   UNL     1      15.837 -39.762  -0.606  1.00  0.00     0.157 A 
ATOM     17  C   UNL     1      15.505 -40.657  -2.835  1.00  0.00     0.050 A 
ATOM     18  C   UNL     1      15.070 -40.513  -1.514  1.00  0.00     0.157 A 
BRANCH  16  19
ATOM     19  O   UNL     1      15.412 -39.618   0.714  1.00  0.00    -0.504 OA
ATOM     20  H   UNL     1      14.644 -40.163   1.088  1.00  0.00     0.293 HD
ENDBRANCH  16  19
BRANCH  18  21
ATOM     21  O   UNL     1      13.879 -41.121  -1.121  1.00  0.00    -0.504 OA
ATOM     22  H   UNL     1      13.136 -41.323  -1.779  1.00  0.00     0.293 HD
ENDBRANCH  18  21
ENDBRANCH   3  13
BRANCH   9  23
ATOM     23  O   UNL     1      22.493 -35.122  -3.000  1.00  0.00    -0.507 OA
ATOM     24  H   UNL     1      21.855 -34.831  -3.731  1.00  0.00     0.293 HD
ENDBRANCH   9  23
BRANCH   7  25
ATOM     25  O   UNL     1      24.269 -38.542  -0.081  1.00  0.00    -0.508 OA
ATOM     26  H   UNL     1      24.845 -37.922   0.474  1.00  0.00     0.293 HD
ENDBRANCH   7  25
TORSDOF 6
ENDMDL
MODEL 7
REMARK VINA RESULT:    -6.630      3.472      5.797
REMARK INTER + INTRA:          -7.811
REMARK INTER:                  -7.490
REMARK INTRA:                  -0.320
REMARK UNBOUND:                 0.176
REMARK SMILES Oc1cc(O)c2c(c1)O[C@@H](c1ccc(O)c(O)c1)[C@H](O)C2
REMARK SMILES IDX 21 1 19 2 10 3 9 4 7 5 8 6 2 7 3 8 4 9 6 10 20 11 11 13
REMARK SMILES IDX 18 14 12 15 16 16 13 17 14 18 17 19 15 21 5 23 1 25
REMARK H PARENT 20 12 17 20 15 22 5 24 1 26
REMARK Flexibility Score: inf
ROOT
ATOM      1  C   UNL     1      19.575 -36.635  -3.485  1.00  0.00     0.079 C 
ATOM      2  C   UNL     1      21.067 -37.011  -3.539  1.00  0.00     0.164 C 
ATOM      3  C   UNL     1      21.430 -37.870  -2.313  1.00  0.00     0.232 C 
ATOM      4  O   UNL     1      20.585 -39.021  -2.251  1.00  0.00    -0.482 OA
ATOM      5  C   UNL     1      19.235 -38.982  -2.616  1.00  0.00     0.131 A 
ATOM      6  C   UNL     1      18.426 -40.096  -2.372  1.00  0.00     0.093 A 
ATOM      7  C   UNL     1      17.073 -40.076  -2.728  1.00  0.00     0.122 A 
ATOM      8  C   UNL     1      16.528 -38.938  -3.330  1.00  0.00     0.092 A 
ATOM      9  C   UNL     1      17.332 -37.816  -3.585  1.00  0.00     0.126 A 
ATOM     10  C   UNL     1      18.698 -37.841  -3.246  1.00  0.00     0.039 A 
ENDROOT
BRANCH   2  11
ATOM     11  O   UNL     1      21.851 -35.846  -3.549  1.00  0.00    -0.389 OA
ATOM     12  H   UNL     1      22.728 -36.096  -3.942  1.00  0.00     0.211 HD
ENDBRANCH   2  11
BRANCH   3  13
ATOM     13  C   UNL     1      22.876 -38.305  -2.362  1.00  0.00    -0.001 A 
ATOM     14  C   UNL     1      23.264 -39.386  -3.169  1.00  0.00     0.057 A 
ATOM     15  C   UNL     1      23.840 -37.664  -1.565  1.00  0.00     0.012 A 
ATOM     16  C   UNL     1      24.601 -39.811  -3.197  1.00  0.00     0.157 A 
ATOM     17  C   UNL     1      25.172 -38.086  -1.592  1.00  0.00     0.050 A 
ATOM     18  C   UNL     1      25.559 -39.156  -2.406  1.00  0.00     0.157 A 
BRANCH  16  19
ATOM     19  O   UNL     1      24.978 -40.882  -4.006  1.00  0.00    -0.504 OA
ATOM     20  H   UNL     1      24.869 -40.852  -5.013  1.00  0.00     0.293 HD
ENDBRANCH  16  19
BRANCH  18  21
ATOM     21  O   UNL     1      26.895 -39.554  -2.413  1.00  0.00    -0.504 OA
ATOM     22  H   UNL     1      27.651 -38.899  -2.568  1.00  0.00     0.293 HD
ENDBRANCH  18  21
ENDBRANCH   3  13
BRANCH   9  23
ATOM     23  O   UNL     1      16.776 -36.680  -4.173  1.00  0.00    -0.507 OA
ATOM     24  H   UNL     1      16.373 -36.706  -5.102  1.00  0.00     0.293 HD
ENDBRANCH   9  23
BRANCH   7  25
ATOM     25  O   UNL     1      16.258 -41.181  -2.486  1.00  0.00    -0.508 OA
ATOM     26  H   UNL     1      16.330 -42.023  -3.043  1.00  0.00     0.293 HD
ENDBRANCH   7  25
TORSDOF 6
ENDMDL
MODEL 8
REMARK VINA RESULT:    -6.571      1.979      6.636
REMARK INTER + INTRA:          -7.739
REMARK INTER:                  -7.397
REMARK INTRA:                  -0.343
REMARK UNBOUND:                 0.176
REMARK SMILES Oc1cc(O)c2c(c1)O[C@@H](c1ccc(O)c(O)c1)[C@H](O)C2
REMARK SMILES IDX 21 1 19 2 10 3 9 4 7 5 8 6 2 7 3 8 4 9 6 10 20 11 11 13
REMARK SMILES IDX 18 14 12 15 16 16 13 17 14 18 17 19 15 21 5 23 1 25
REMARK H PARENT 20 12 17 20 15 22 5 24 1 26
REMARK Flexibility Score: inf
ROOT
ATOM      1  C   UNL     1      14.755 -41.016  -2.205  1.00  0.00     0.079 C 
ATOM      2  C   UNL     1      14.534 -40.777  -0.701  1.00  0.00     0.164 C 
ATOM      3  C   UNL     1      15.887 -40.808   0.034  1.00  0.00     0.232 C 
ATOM      4  O   UNL     1      16.780 -39.851  -0.538  1.00  0.00    -0.482 OA
ATOM      5  C   UNL     1      16.815 -39.584  -1.911  1.00  0.00     0.131 A 
ATOM      6  C   UNL     1      17.825 -38.764  -2.424  1.00  0.00     0.093 A 
ATOM      7  C   UNL     1      17.878 -38.486  -3.794  1.00  0.00     0.122 A 
ATOM      8  C   UNL     1      16.918 -39.030  -4.653  1.00  0.00     0.092 A 
ATOM      9  C   UNL     1      15.896 -39.849  -4.148  1.00  0.00     0.126 A 
ATOM     10  C   UNL     1      15.829 -40.114  -2.767  1.00  0.00     0.039 A 
ENDROOT
BRANCH   2  11
ATOM     11  O   UNL     1      13.689 -41.771  -0.181  1.00  0.00    -0.389 OA
ATOM     12  H   UNL     1      12.823 -41.689  -0.660  1.00  0.00     0.211 HD
ENDBRANCH   2  11
BRANCH   3  13
ATOM     13  C   UNL     1      15.712 -40.522   1.508  1.00  0.00    -0.001 A 
ATOM     14  C   UNL     1      15.848 -41.553   2.451  1.00  0.00     0.057 A 
ATOM     15  C   UNL     1      15.366 -39.233   1.947  1.00  0.00     0.012 A 
ATOM     16  C   UNL     1      15.659 -41.299   3.818  1.00  0.00     0.157 A 
ATOM     17  C   UNL     1      15.178 -38.977   3.308  1.00  0.00     0.050 A 
ATOM     18  C   UNL     1      15.325 -40.003   4.247  1.00  0.00     0.157 A 
BRANCH  16  19
ATOM     19  O   UNL     1      15.801 -42.328   4.747  1.00  0.00    -0.504 OA
ATOM     20  H   UNL     1      15.840 -43.299   4.463  1.00  0.00     0.293 HD
ENDBRANCH  16  19
BRANCH  18  21
ATOM     21  O   UNL     1      15.132 -39.719   5.599  1.00  0.00    -0.504 OA
ATOM     22  H   UNL     1      14.294 -39.264   5.938  1.00  0.00     0.293 HD
ENDBRANCH  18  21
ENDBRANCH   3  13
BRANCH   9  23
ATOM     23  O   UNL     1      14.951 -40.398  -5.014  1.00  0.00    -0.507 OA
ATOM     24  H   UNL     1      15.220 -40.821  -5.894  1.00  0.00     0.293 HD
ENDBRANCH   9  23
BRANCH   7  25
ATOM     25  O   UNL     1      18.882 -37.673  -4.316  1.00  0.00    -0.508 OA
ATOM     26  H   UNL     1      19.346 -37.898  -5.187  1.00  0.00     0.293 HD
ENDBRANCH   7  25
TORSDOF 6
ENDMDL
MODEL 9
REMARK VINA RESULT:    -6.538      6.764      8.473
REMARK INTER + INTRA:          -7.700
REMARK INTER:                  -7.332
REMARK INTRA:                  -0.368
REMARK UNBOUND:                 0.176
REMARK SMILES Oc1cc(O)c2c(c1)O[C@@H](c1ccc(O)c(O)c1)[C@H](O)C2
REMARK SMILES IDX 21 1 19 2 10 3 9 4 7 5 8 6 2 7 3 8 4 9 6 10 20 11 11 13
REMARK SMILES IDX 18 14 12 15 16 16 13 17 14 18 17 19 15 21 5 23 1 25
REMARK H PARENT 20 12 17 20 15 22 5 24 1 26
REMARK Flexibility Score: inf
ROOT
ATOM      1  C   UNL     1      16.722 -38.207   3.469  1.00  0.00     0.079 C 
ATOM      2  C   UNL     1      18.089 -38.224   4.178  1.00  0.00     0.164 C 
ATOM      3  C   UNL     1      17.933 -37.701   5.618  1.00  0.00     0.232 C 
ATOM      4  O   UNL     1      16.953 -38.471   6.318  1.00  0.00    -0.482 OA
ATOM      5  C   UNL     1      15.799 -38.960   5.696  1.00  0.00     0.131 A 
ATOM      6  C   UNL     1      14.803 -39.557   6.474  1.00  0.00     0.093 A 
ATOM      7  C   UNL     1      13.640 -40.052   5.872  1.00  0.00     0.122 A 
ATOM      8  C   UNL     1      13.474 -39.946   4.488  1.00  0.00     0.092 A 
ATOM      9  C   UNL     1      14.471 -39.354   3.696  1.00  0.00     0.126 A 
ATOM     10  C   UNL     1      15.650 -38.874   4.298  1.00  0.00     0.039 A 
ENDROOT
BRANCH   2  11
ATOM     11  O   UNL     1      18.998 -37.415   3.477  1.00  0.00    -0.389 OA
ATOM     12  H   UNL     1      19.552 -36.952   4.158  1.00  0.00     0.211 HD
ENDBRANCH   2  11
BRANCH   3  13
ATOM     13  C   UNL     1      19.247 -37.756   6.363  1.00  0.00    -0.001 A 
ATOM     14  C   UNL     1      19.821 -36.582   6.874  1.00  0.00     0.057 A 
ATOM     15  C   UNL     1      19.932 -38.975   6.510  1.00  0.00     0.012 A 
ATOM     16  C   UNL     1      21.055 -36.623   7.541  1.00  0.00     0.157 A 
ATOM     17  C   UNL     1      21.160 -39.018   7.175  1.00  0.00     0.050 A 
ATOM     18  C   UNL     1      21.726 -37.848   7.693  1.00  0.00     0.157 A 
BRANCH  16  19
ATOM     19  O   UNL     1      21.615 -35.452   8.049  1.00  0.00    -0.504 OA
ATOM     20  H   UNL     1      21.370 -35.101   8.968  1.00  0.00     0.293 HD
ENDBRANCH  16  19
BRANCH  18  21
ATOM     21  O   UNL     1      22.952 -37.922   8.352  1.00  0.00    -0.504 OA
ATOM     22  H   UNL     1      23.752 -38.395   7.950  1.00  0.00     0.293 HD
ENDBRANCH  18  21
ENDBRANCH   3  13
BRANCH   9  23
ATOM     23  O   UNL     1      14.290 -39.241   2.318  1.00  0.00    -0.507 OA
ATOM     24  H   UNL     1      13.774 -38.471   1.911  1.00  0.00     0.293 HD
ENDBRANCH   9  23
BRANCH   7  25
ATOM     25  O   UNL     1      12.640 -40.646   6.639  1.00  0.00    -0.508 OA
ATOM     26  H   UNL     1      11.715 -40.817   6.263  1.00  0.00     0.293 HD
ENDBRANCH   7  25
TORSDOF 6
ENDMDL
