MODEL 1
REMARK VINA RESULT:    -4.092      0.000      0.000
REMARK INTER + INTRA:          -4.464
REMARK INTER:                  -4.451
REMARK INTRA:                  -0.014
REMARK UNBOUND:                -0.014
REMARK SMILES OCc1ccco1
REMARK SMILES IDX 2 1 3 2 5 3 6 4 4 5 7 6 1 7
REMARK H PARENT 1 8
REMARK Flexibility Score: inf
ROOT
ATOM      1  C   UNL     1       3.762  -2.467  -2.551  1.00  0.00     0.231 C 
ENDROOT
BRANCH   1   2
ATOM      2  C   UNL     1       2.731  -2.692  -1.490  1.00  0.00     0.129 A 
ATOM      3  C   UNL     1       0.819  -2.870  -0.424  1.00  0.00     0.042 A 
ATOM      4  C   UNL     1       1.887  -3.057   0.433  1.00  0.00     0.195 A 
ATOM      5  C   UNL     1       1.364  -2.629  -1.667  1.00  0.00     0.048 A 
ATOM      6  O   UNL     1       3.013  -2.941  -0.233  1.00  0.00    -0.467 OA
ENDBRANCH   1   2
BRANCH   1   7
ATOM      7  O   UNL     1       3.732  -1.133  -2.974  1.00  0.00    -0.388 OA
ATOM      8  H   UNL     1       2.796  -0.820  -2.864  1.00  0.00     0.211 HD
ENDBRANCH   1   7
TORSDOF 2
ENDMDL
MODEL 2
REMARK VINA RESULT:    -3.845      1.253      3.058
REMARK INTER + INTRA:          -4.196
REMARK INTER:                  -4.175
REMARK INTRA:                  -0.021
REMARK UNBOUND:                -0.014
REMARK SMILES OCc1ccco1
REMARK SMILES IDX 2 1 3 2 5 3 6 4 4 5 7 6 1 7
REMARK H PARENT 1 8
REMARK Flexibility Score: inf
ROOT
ATOM      1  C   UNL     1       1.443  -3.138  -0.024  1.00  0.00     0.231 C 
ENDROOT
BRANCH   1   2
ATOM      2  C   UNL     1       2.344  -2.803  -1.171  1.00  0.00     0.129 A 
ATOM      3  C   UNL     1       3.107  -2.091  -3.103  1.00  0.00     0.042 A 
ATOM      4  C   UNL     1       4.101  -2.715  -2.374  1.00  0.00     0.195 A 
ATOM      5  C   UNL     1       1.969  -2.151  -2.327  1.00  0.00     0.048 A 
ATOM      6  O   UNL     1       3.613  -3.132  -1.228  1.00  0.00    -0.467 OA
ENDBRANCH   1   2
BRANCH   1   7
ATOM      7  O   UNL     1       2.200  -3.580   1.068  1.00  0.00    -0.388 OA
ATOM      8  H   UNL     1       1.558  -3.949   1.729  1.00  0.00     0.211 HD
ENDBRANCH   1   7
TORSDOF 2
ENDMDL
MODEL 3
REMARK VINA RESULT:    -3.830      1.391      3.413
REMARK INTER + INTRA:          -4.180
REMARK INTER:                  -4.165
REMARK INTRA:                  -0.014
REMARK UNBOUND:                -0.014
REMARK SMILES OCc1ccco1
REMARK SMILES IDX 2 1 3 2 5 3 6 4 4 5 7 6 1 7
REMARK H PARENT 1 8
REMARK Flexibility Score: inf
ROOT
ATOM      1  C   UNL     1       0.783  -2.866  -0.909  1.00  0.00     0.231 C 
ENDROOT
BRANCH   1   2
ATOM      2  C   UNL     1       2.013  -2.652  -1.735  1.00  0.00     0.129 A 
ATOM      3  C   UNL     1       4.104  -2.514  -2.391  1.00  0.00     0.042 A 
ATOM      4  C   UNL     1       3.241  -2.092  -3.384  1.00  0.00     0.195 A 
ATOM      5  C   UNL     1       3.310  -2.873  -1.322  1.00  0.00     0.048 A 
ATOM      6  O   UNL     1       2.002  -2.183  -2.961  1.00  0.00    -0.467 OA
ENDBRANCH   1   2
BRANCH   1   7
ATOM      7  O   UNL     1       0.976  -3.940  -0.031  1.00  0.00    -0.388 OA
ATOM      8  H   UNL     1       0.843  -4.768  -0.562  1.00  0.00     0.211 HD
ENDBRANCH   1   7
TORSDOF 2
ENDMDL
MODEL 4
REMARK VINA RESULT:    -3.234      8.916     10.251
REMARK INTER + INTRA:          -3.531
REMARK INTER:                  -3.518
REMARK INTRA:                  -0.012
REMARK UNBOUND:                -0.014
REMARK SMILES OCc1ccco1
REMARK SMILES IDX 2 1 3 2 5 3 6 4 4 5 7 6 1 7
REMARK H PARENT 1 8
REMARK Flexibility Score: inf
ROOT
ATOM      1  C   UNL     1      -2.008  -7.172   4.126  1.00  0.00     0.231 C 
ENDROOT
BRANCH   1   2
ATOM      2  C   UNL     1      -2.389  -7.833   5.413  1.00  0.00     0.129 A 
ATOM      3  C   UNL     1      -2.678  -8.265   7.547  1.00  0.00     0.042 A 
ATOM      4  C   UNL     1      -3.097  -9.323   6.763  1.00  0.00     0.195 A 
ATOM      5  C   UNL     1      -2.216  -7.303   6.675  1.00  0.00     0.048 A 
ATOM      6  O   UNL     1      -2.908  -9.036   5.496  1.00  0.00    -0.467 OA
ENDBRANCH   1   2
BRANCH   1   7
ATOM      7  O   UNL     1      -3.017  -6.288   3.724  1.00  0.00    -0.388 OA
ATOM      8  H   UNL     1      -3.803  -6.471   4.302  1.00  0.00     0.211 HD
ENDBRANCH   1   7
TORSDOF 2
ENDMDL
MODEL 5
REMARK VINA RESULT:    -3.206     12.862     13.503
REMARK INTER + INTRA:          -3.501
REMARK INTER:                  -3.486
REMARK INTRA:                  -0.016
REMARK UNBOUND:                -0.014
REMARK SMILES OCc1ccco1
REMARK SMILES IDX 2 1 3 2 5 3 6 4 4 5 7 6 1 7
REMARK H PARENT 1 8
REMARK Flexibility Score: inf
ROOT
ATOM      1  C   UNL     1      -1.786   8.344  -5.240  1.00  0.00     0.231 C 
ENDROOT
BRANCH   1   2
ATOM      2  C   UNL     1      -2.963   9.033  -4.623  1.00  0.00     0.129 A 
ATOM      3  C   UNL     1      -4.344   9.941  -3.177  1.00  0.00     0.042 A 
ATOM      4  C   UNL     1      -4.883   9.940  -4.449  1.00  0.00     0.195 A 
ATOM      5  C   UNL     1      -3.103   9.350  -3.288  1.00  0.00     0.048 A 
ATOM      6  O   UNL     1      -4.037   9.389  -5.288  1.00  0.00    -0.467 OA
ENDBRANCH   1   2
BRANCH   1   7
ATOM      7  O   UNL     1      -0.709   8.341  -4.345  1.00  0.00    -0.388 OA
ATOM      8  H   UNL     1      -0.243   9.210  -4.459  1.00  0.00     0.211 HD
ENDBRANCH   1   7
TORSDOF 2
ENDMDL
MODEL 6
REMARK VINA RESULT:    -3.205     11.475     12.556
REMARK INTER + INTRA:          -3.500
REMARK INTER:                  -3.482
REMARK INTRA:                  -0.018
REMARK UNBOUND:                -0.014
REMARK SMILES OCc1ccco1
REMARK SMILES IDX 2 1 3 2 5 3 6 4 4 5 7 6 1 7
REMARK H PARENT 1 8
REMARK Flexibility Score: inf
ROOT
ATOM      1  C   UNL     1       0.403   9.058  -6.952  1.00  0.00     0.231 C 
ENDROOT
BRANCH   1   2
ATOM      2  C   UNL     1       1.596   8.285  -7.418  1.00  0.00     0.129 A 
ATOM      3  C   UNL     1       3.286   7.550  -8.613  1.00  0.00     0.042 A 
ATOM      4  C   UNL     1       3.116   6.792  -7.470  1.00  0.00     0.195 A 
ATOM      5  C   UNL     1       2.300   8.513  -8.582  1.00  0.00     0.048 A 
ATOM      6  O   UNL     1       2.098   7.254  -6.781  1.00  0.00    -0.467 OA
ENDBRANCH   1   2
BRANCH   1   7
ATOM      7  O   UNL     1      -0.661   8.186  -6.691  1.00  0.00    -0.388 OA
ATOM      8  H   UNL     1      -0.437   7.707  -5.851  1.00  0.00     0.211 HD
ENDBRANCH   1   7
TORSDOF 2
ENDMDL
MODEL 7
REMARK VINA RESULT:    -3.174     12.237     12.871
REMARK INTER + INTRA:          -3.467
REMARK INTER:                  -3.454
REMARK INTRA:                  -0.013
REMARK UNBOUND:                -0.014
REMARK SMILES OCc1ccco1
REMARK SMILES IDX 2 1 3 2 5 3 6 4 4 5 7 6 1 7
REMARK H PARENT 1 8
REMARK Flexibility Score: inf
ROOT
ATOM      1  C   UNL     1       5.068   7.241  -9.792  1.00  0.00     0.231 C 
ENDROOT
BRANCH   1   2
ATOM      2  C   UNL     1       3.867   7.586  -8.970  1.00  0.00     0.129 A 
ATOM      3  C   UNL     1       2.260   7.531  -7.474  1.00  0.00     0.042 A 
ATOM      4  C   UNL     1       2.116   8.614  -8.320  1.00  0.00     0.195 A 
ATOM      5  C   UNL     1       3.389   6.863  -7.896  1.00  0.00     0.048 A 
ATOM      6  O   UNL     1       3.088   8.617  -9.203  1.00  0.00    -0.467 OA
ENDBRANCH   1   2
BRANCH   1   7
ATOM      7  O   UNL     1       6.189   7.934  -9.318  1.00  0.00    -0.388 OA
ATOM      8  H   UNL     1       6.612   7.354  -8.632  1.00  0.00     0.211 HD
ENDBRANCH   1   7
TORSDOF 2
ENDMDL
MODEL 8
REMARK VINA RESULT:    -3.020      9.017      9.746
REMARK INTER + INTRA:          -3.299
REMARK INTER:                  -3.278
REMARK INTRA:                  -0.021
REMARK UNBOUND:                -0.014
REMARK SMILES OCc1ccco1
REMARK SMILES IDX 2 1 3 2 5 3 6 4 4 5 7 6 1 7
REMARK H PARENT 1 8
REMARK Flexibility Score: inf
ROOT
ATOM      1  C   UNL     1      -2.619  -6.697   5.035  1.00  0.00     0.231 C 
ENDROOT
BRANCH   1   2
ATOM      2  C   UNL     1      -1.907  -8.010   5.116  1.00  0.00     0.129 A 
ATOM      3  C   UNL     1      -0.924  -9.823   5.873  1.00  0.00     0.042 A 
ATOM      4  C   UNL     1      -0.856  -9.757   4.494  1.00  0.00     0.195 A 
ATOM      5  C   UNL     1      -1.600  -8.691   6.276  1.00  0.00     0.048 A 
ATOM      6  O   UNL     1      -1.448  -8.663   4.074  1.00  0.00    -0.467 OA
ENDBRANCH   1   2
BRANCH   1   7
ATOM      7  O   UNL     1      -2.874  -6.371   3.697  1.00  0.00    -0.388 OA
ATOM      8  H   UNL     1      -3.447  -5.561   3.706  1.00  0.00     0.211 HD
ENDBRANCH   1   7
TORSDOF 2
ENDMDL
