MODEL 1
REMARK VINA RESULT:    -3.797      0.000      0.000
REMARK INTER + INTRA:          -3.797
REMARK INTER:                  -3.797
REMARK INTRA:                   0.000
REMARK UNBOUND:                 0.000
REMARK SMILES CC1=CC=CC(C)(C)[C@H]1C
REMARK SMILES IDX 10 1 9 2 2 3 3 4 4 5 5 6 6 7 7 8 8 9 1 10
REMARK H PARENT
REMARK Flexibility Score: inf
ROOT
ATOM      1  C   UNL     1      11.798   4.480  18.047  1.00  0.00     0.013 C 
ATOM      2  C   UNL     1      12.699   5.684  17.696  1.00  0.00     0.021 C 
ATOM      3  C   UNL     1      13.821   5.305  16.725  1.00  0.00    -0.070 C 
ATOM      4  C   UNL     1      14.471   6.279  16.065  1.00  0.00    -0.001 C 
ATOM      5  C   UNL     1      14.040   7.681  16.157  1.00  0.00    -0.004 C 
ATOM      6  C   UNL     1      12.873   8.005  16.717  1.00  0.00    -0.020 C 
ATOM      7  C   UNL     1      11.897   6.939  17.184  1.00  0.00    -0.011 C 
ATOM      8  C   UNL     1      10.978   6.585  15.994  1.00  0.00     0.016 C 
ATOM      9  C   UNL     1      11.041   7.547  18.319  1.00  0.00     0.016 C 
ATOM     10  C   UNL     1      14.325   3.886  16.621  1.00  0.00     0.040 C 
ENDROOT
TORSDOF 0
ENDMDL
MODEL 2
REMARK VINA RESULT:    -3.783      1.027      2.757
REMARK INTER + INTRA:          -3.783
REMARK INTER:                  -3.783
REMARK INTRA:                   0.000
REMARK UNBOUND:                 0.000
REMARK SMILES CC1=CC=CC(C)(C)[C@H]1C
REMARK SMILES IDX 10 1 9 2 2 3 3 4 4 5 5 6 6 7 7 8 8 9 1 10
REMARK H PARENT
REMARK Flexibility Score: inf
ROOT
ATOM      1  C   UNL     1      14.761   6.300  16.257  1.00  0.00     0.013 C 
ATOM      2  C   UNL     1      13.289   5.939  16.552  1.00  0.00     0.021 C 
ATOM      3  C   UNL     1      13.163   4.738  17.493  1.00  0.00    -0.070 C 
ATOM      4  C   UNL     1      11.991   4.510  18.109  1.00  0.00    -0.001 C 
ATOM      5  C   UNL     1      10.875   5.461  18.001  1.00  0.00    -0.004 C 
ATOM      6  C   UNL     1      11.056   6.673  17.473  1.00  0.00    -0.020 C 
ATOM      7  C   UNL     1      12.434   7.160  17.062  1.00  0.00    -0.011 C 
ATOM      8  C   UNL     1      13.082   7.839  18.289  1.00  0.00     0.016 C 
ATOM      9  C   UNL     1      12.251   8.211  15.944  1.00  0.00     0.016 C 
ATOM     10  C   UNL     1      14.265   3.714  17.611  1.00  0.00     0.040 C 
ENDROOT
TORSDOF 0
ENDMDL
MODEL 3
REMARK VINA RESULT:    -3.759      1.115      3.775
REMARK INTER + INTRA:          -3.759
REMARK INTER:                  -3.759
REMARK INTRA:                   0.000
REMARK UNBOUND:                 0.000
REMARK SMILES CC1=CC=CC(C)(C)[C@H]1C
REMARK SMILES IDX 10 1 9 2 2 3 3 4 4 5 5 6 6 7 7 8 8 9 1 10
REMARK H PARENT
REMARK Flexibility Score: inf
ROOT
ATOM      1  C   UNL     1      14.174   7.520  16.244  1.00  0.00     0.013 C 
ATOM      2  C   UNL     1      13.332   6.634  17.188  1.00  0.00     0.021 C 
ATOM      3  C   UNL     1      11.873   6.526  16.735  1.00  0.00    -0.070 C 
ATOM      4  C   UNL     1      11.104   5.545  17.235  1.00  0.00    -0.001 C 
ATOM      5  C   UNL     1      11.668   4.500  18.102  1.00  0.00    -0.004 C 
ATOM      6  C   UNL     1      12.988   4.367  18.245  1.00  0.00    -0.020 C 
ATOM      7  C   UNL     1      13.961   5.212  17.441  1.00  0.00    -0.011 C 
ATOM      8  C   UNL     1      14.251   4.470  16.118  1.00  0.00     0.016 C 
ATOM      9  C   UNL     1      15.272   5.325  18.253  1.00  0.00     0.016 C 
ATOM     10  C   UNL     1      11.237   7.591  15.876  1.00  0.00     0.040 C 
ENDROOT
TORSDOF 0
ENDMDL
MODEL 4
REMARK VINA RESULT:    -3.751      1.470      3.657
REMARK INTER + INTRA:          -3.751
REMARK INTER:                  -3.751
REMARK INTRA:                   0.000
REMARK UNBOUND:                 0.000
REMARK SMILES CC1=CC=CC(C)(C)[C@H]1C
REMARK SMILES IDX 10 1 9 2 2 3 3 4 4 5 5 6 6 7 7 8 8 9 1 10
REMARK H PARENT
REMARK Flexibility Score: inf
ROOT
ATOM      1  C   UNL     1      12.234   7.078  20.055  1.00  0.00     0.013 C 
ATOM      2  C   UNL     1      11.552   6.831  18.691  1.00  0.00     0.021 C 
ATOM      3  C   UNL     1      11.174   8.138  17.986  1.00  0.00    -0.070 C 
ATOM      4  C   UNL     1      10.891   8.114  16.673  1.00  0.00    -0.001 C 
ATOM      5  C   UNL     1      11.064   6.890  15.878  1.00  0.00    -0.004 C 
ATOM      6  C   UNL     1      11.706   5.832  16.378  1.00  0.00    -0.020 C 
ATOM      7  C   UNL     1      12.375   5.883  17.740  1.00  0.00    -0.011 C 
ATOM      8  C   UNL     1      13.821   6.390  17.539  1.00  0.00     0.016 C 
ATOM      9  C   UNL     1      12.419   4.443  18.300  1.00  0.00     0.016 C 
ATOM     10  C   UNL     1      10.949   9.412  18.763  1.00  0.00     0.040 C 
ENDROOT
TORSDOF 0
ENDMDL
MODEL 5
REMARK VINA RESULT:    -3.642      1.322      3.361
REMARK INTER + INTRA:          -3.642
REMARK INTER:                  -3.642
REMARK INTRA:                   0.000
REMARK UNBOUND:                 0.000
REMARK SMILES CC1=CC=CC(C)(C)[C@H]1C
REMARK SMILES IDX 10 1 9 2 2 3 3 4 4 5 5 6 6 7 7 8 8 9 1 10
REMARK H PARENT
REMARK Flexibility Score: inf
ROOT
ATOM      1  C   UNL     1      14.411   5.745  19.010  1.00  0.00     0.013 C 
ATOM      2  C   UNL     1      13.145   5.693  18.128  1.00  0.00     0.021 C 
ATOM      3  C   UNL     1      11.949   6.386  18.789  1.00  0.00    -0.070 C 
ATOM      4  C   UNL     1      10.890   6.725  18.035  1.00  0.00    -0.001 C 
ATOM      5  C   UNL     1      10.913   6.563  16.573  1.00  0.00    -0.004 C 
ATOM      6  C   UNL     1      12.049   6.283  15.932  1.00  0.00    -0.020 C 
ATOM      7  C   UNL     1      13.378   6.224  16.664  1.00  0.00    -0.011 C 
ATOM      8  C   UNL     1      13.983   7.646  16.660  1.00  0.00     0.016 C 
ATOM      9  C   UNL     1      14.311   5.277  15.876  1.00  0.00     0.016 C 
ATOM     10  C   UNL     1      11.862   6.542  20.288  1.00  0.00     0.040 C 
ENDROOT
TORSDOF 0
ENDMDL
MODEL 6
REMARK VINA RESULT:    -3.634      1.507      2.780
REMARK INTER + INTRA:          -3.634
REMARK INTER:                  -3.634
REMARK INTRA:                   0.000
REMARK UNBOUND:                 0.000
REMARK SMILES CC1=CC=CC(C)(C)[C@H]1C
REMARK SMILES IDX 10 1 9 2 2 3 3 4 4 5 5 6 6 7 7 8 8 9 1 10
REMARK H PARENT
REMARK Flexibility Score: inf
ROOT
ATOM      1  C   UNL     1      14.684   6.294  18.822  1.00  0.00     0.013 C 
ATOM      2  C   UNL     1      13.307   6.566  18.179  1.00  0.00     0.021 C 
ATOM      3  C   UNL     1      13.348   6.455  16.652  1.00  0.00    -0.070 C 
ATOM      4  C   UNL     1      12.195   6.327  15.974  1.00  0.00    -0.001 C 
ATOM      5  C   UNL     1      10.913   6.158  16.675  1.00  0.00    -0.004 C 
ATOM      6  C   UNL     1      10.876   5.912  17.986  1.00  0.00    -0.020 C 
ATOM      7  C   UNL     1      12.148   5.690  18.787  1.00  0.00    -0.011 C 
ATOM      8  C   UNL     1      12.481   4.182  18.736  1.00  0.00     0.016 C 
ATOM      9  C   UNL     1      11.861   6.093  20.251  1.00  0.00     0.016 C 
ATOM     10  C   UNL     1      14.631   6.658  15.884  1.00  0.00     0.040 C 
ENDROOT
TORSDOF 0
ENDMDL
MODEL 7
REMARK VINA RESULT:    -3.576      1.287      2.481
REMARK INTER + INTRA:          -3.576
REMARK INTER:                  -3.576
REMARK INTRA:                   0.000
REMARK UNBOUND:                 0.000
REMARK SMILES CC1=CC=CC(C)(C)[C@H]1C
REMARK SMILES IDX 10 1 9 2 2 3 3 4 4 5 5 6 6 7 7 8 8 9 1 10
REMARK H PARENT
REMARK Flexibility Score: inf
ROOT
ATOM      1  C   UNL     1      12.349   6.531  19.188  1.00  0.00     0.013 C 
ATOM      2  C   UNL     1      13.422   5.946  18.245  1.00  0.00     0.021 C 
ATOM      3  C   UNL     1      13.563   4.428  18.397  1.00  0.00    -0.070 C 
ATOM      4  C   UNL     1      14.191   3.731  17.436  1.00  0.00    -0.001 C 
ATOM      5  C   UNL     1      14.626   4.374  16.187  1.00  0.00    -0.004 C 
ATOM      6  C   UNL     1      14.224   5.607  15.875  1.00  0.00    -0.020 C 
ATOM      7  C   UNL     1      13.222   6.356  16.737  1.00  0.00    -0.011 C 
ATOM      8  C   UNL     1      11.806   6.003  16.231  1.00  0.00     0.016 C 
ATOM      9  C   UNL     1      13.466   7.869  16.540  1.00  0.00     0.016 C 
ATOM     10  C   UNL     1      13.166   3.727  19.673  1.00  0.00     0.040 C 
ENDROOT
TORSDOF 0
ENDMDL
MODEL 8
REMARK VINA RESULT:    -3.541      1.496      3.371
REMARK INTER + INTRA:          -3.541
REMARK INTER:                  -3.541
REMARK INTRA:                   0.000
REMARK UNBOUND:                 0.000
REMARK SMILES CC1=CC=CC(C)(C)[C@H]1C
REMARK SMILES IDX 10 1 9 2 2 3 3 4 4 5 5 6 6 7 7 8 8 9 1 10
REMARK H PARENT
REMARK Flexibility Score: inf
ROOT
ATOM      1  C   UNL     1      11.548   6.123  18.723  1.00  0.00     0.013 C 
ATOM      2  C   UNL     1      12.407   5.131  17.910  1.00  0.00     0.021 C 
ATOM      3  C   UNL     1      12.822   5.701  16.550  1.00  0.00    -0.070 C 
ATOM      4  C   UNL     1      13.830   5.120  15.878  1.00  0.00    -0.001 C 
ATOM      5  C   UNL     1      14.624   4.038  16.478  1.00  0.00    -0.004 C 
ATOM      6  C   UNL     1      14.514   3.746  17.776  1.00  0.00    -0.020 C 
ATOM      7  C   UNL     1      13.651   4.581  18.705  1.00  0.00    -0.011 C 
ATOM      8  C   UNL     1      14.526   5.726  19.262  1.00  0.00     0.016 C 
ATOM      9  C   UNL     1      13.202   3.676  19.875  1.00  0.00     0.016 C 
ATOM     10  C   UNL     1      12.018   6.785  15.875  1.00  0.00     0.040 C 
ENDROOT
TORSDOF 0
ENDMDL
