MODEL 1
REMARK VINA RESULT:    -3.036      0.000      0.000
REMARK INTER + INTRA:          -3.529
REMARK INTER:                  -3.479
REMARK INTRA:                  -0.050
REMARK UNBOUND:                -0.050
REMARK SMILES CC(C)[C@H]([NH3+])C(=O)[O-]
REMARK SMILES IDX 4 1 5 2 6 6 7 7 8 8 2 9 1 10 3 11
REMARK H PARENT 5 3 5 4 5 5
REMARK Flexibility Score: inf
ROOT
ATOM      1  C   UNL     1       9.469   6.223  41.314  1.00  0.00     0.230 C 
ENDROOT
BRANCH   1   2
ATOM      2  N   UNL     1      10.924   6.044  41.433  1.00  0.00    -0.350 N 
ATOM      3  H   UNL     1      11.310   5.633  40.551  1.00  0.00     0.345 HD
ATOM      4  H   UNL     1      11.396   6.960  41.617  1.00  0.00     0.345 HD
ATOM      5  H   UNL     1      11.145   5.375  42.205  1.00  0.00     0.345 HD
ENDBRANCH   1   2
BRANCH   1   6
ATOM      6  C   UNL     1       9.144   6.812  39.964  1.00  0.00     0.099 C 
ATOM      7  O   UNL     1      10.067   7.168  39.185  1.00  0.00    -0.544 OA
ATOM      8  O   UNL     1       7.820   6.973  39.576  1.00  0.00    -0.544 OA
ENDBRANCH   1   6
BRANCH   1   9
ATOM      9  C   UNL     1       8.896   7.110  42.460  1.00  0.00     0.047 C 
ATOM     10  C   UNL     1       9.929   8.129  42.970  1.00  0.00     0.014 C 
ATOM     11  C   UNL     1       8.412   6.251  43.642  1.00  0.00     0.014 C 
ENDBRANCH   1   9
TORSDOF 3
ENDMDL
MODEL 2
REMARK VINA RESULT:    -3.029      0.242      1.156
REMARK INTER + INTRA:          -3.521
REMARK INTER:                  -3.471
REMARK INTRA:                  -0.051
REMARK UNBOUND:                -0.050
REMARK SMILES CC(C)[C@H]([NH3+])C(=O)[O-]
REMARK SMILES IDX 4 1 5 2 6 6 7 7 8 8 2 9 1 10 3 11
REMARK H PARENT 5 3 5 4 5 5
REMARK Flexibility Score: inf
ROOT
ATOM      1  C   UNL     1       9.322   6.111  41.414  1.00  0.00     0.230 C 
ENDROOT
BRANCH   1   2
ATOM      2  N   UNL     1      10.781   5.944  41.503  1.00  0.00    -0.350 N 
ATOM      3  H   UNL     1      11.262   6.842  41.266  1.00  0.00     0.345 HD
ATOM      4  H   UNL     1      11.062   5.651  42.468  1.00  0.00     0.345 HD
ATOM      5  H   UNL     1      11.105   5.229  40.812  1.00  0.00     0.345 HD
ENDBRANCH   1   2
BRANCH   1   6
ATOM      6  C   UNL     1       8.957   6.608  40.038  1.00  0.00     0.099 C 
ATOM      7  O   UNL     1       7.777   6.498  39.612  1.00  0.00    -0.544 OA
ATOM      8  O   UNL     1       9.927   7.187  39.228  1.00  0.00    -0.544 OA
ENDBRANCH   1   6
BRANCH   1   9
ATOM      9  C   UNL     1       8.778   7.072  42.515  1.00  0.00     0.047 C 
ATOM     10  C   UNL     1       9.835   8.099  42.954  1.00  0.00     0.014 C 
ATOM     11  C   UNL     1       8.294   6.290  43.749  1.00  0.00     0.014 C 
ENDBRANCH   1   9
TORSDOF 3
ENDMDL
MODEL 3
REMARK VINA RESULT:    -2.883      8.340      9.336
REMARK INTER + INTRA:          -3.354
REMARK INTER:                  -3.323
REMARK INTRA:                  -0.031
REMARK UNBOUND:                -0.050
REMARK SMILES CC(C)[C@H]([NH3+])C(=O)[O-]
REMARK SMILES IDX 4 1 5 2 6 6 7 7 8 8 2 9 1 10 3 11
REMARK H PARENT 5 3 5 4 5 5
REMARK Flexibility Score: inf
ROOT
ATOM      1  C   UNL     1       6.906  -0.695  37.389  1.00  0.00     0.230 C 
ENDROOT
BRANCH   1   2
ATOM      2  N   UNL     1       5.683   0.035  37.760  1.00  0.00    -0.350 N 
ATOM      3  H   UNL     1       4.837  -0.513  37.481  1.00  0.00     0.345 HD
ATOM      4  H   UNL     1       5.653   0.207  38.792  1.00  0.00     0.345 HD
ATOM      5  H   UNL     1       5.639   0.948  37.251  1.00  0.00     0.345 HD
ENDBRANCH   1   2
BRANCH   1   6
ATOM      6  C   UNL     1       8.067  -0.171  38.196  1.00  0.00     0.099 C 
ATOM      7  O   UNL     1       8.747  -0.949  38.915  1.00  0.00    -0.544 OA
ATOM      8  O   UNL     1       8.389   1.181  38.155  1.00  0.00    -0.544 OA
ENDBRANCH   1   6
BRANCH   1   9
ATOM      9  C   UNL     1       7.201  -0.597  35.862  1.00  0.00     0.047 C 
ATOM     10  C   UNL     1       6.149  -1.344  35.024  1.00  0.00     0.014 C 
ATOM     11  C   UNL     1       8.597  -1.153  35.527  1.00  0.00     0.014 C 
ENDBRANCH   1   9
TORSDOF 3
ENDMDL
MODEL 4
REMARK VINA RESULT:    -2.850     11.246     12.049
REMARK INTER + INTRA:          -3.317
REMARK INTER:                  -3.296
REMARK INTRA:                  -0.020
REMARK UNBOUND:                -0.050
REMARK SMILES CC(C)[C@H]([NH3+])C(=O)[O-]
REMARK SMILES IDX 4 1 5 2 6 6 7 7 8 8 2 9 1 10 3 11
REMARK H PARENT 5 3 5 4 5 5
REMARK Flexibility Score: inf
ROOT
ATOM      1  C   UNL     1      10.094  -0.388  32.877  1.00  0.00     0.230 C 
ENDROOT
BRANCH   1   2
ATOM      2  N   UNL     1      11.407  -1.052  32.863  1.00  0.00    -0.350 N 
ATOM      3  H   UNL     1      11.979  -0.703  32.059  1.00  0.00     0.345 HD
ATOM      4  H   UNL     1      11.924  -0.868  33.754  1.00  0.00     0.345 HD
ATOM      5  H   UNL     1      11.290  -2.082  32.732  1.00  0.00     0.345 HD
ENDBRANCH   1   2
BRANCH   1   6
ATOM      6  C   UNL     1       9.023  -1.403  33.189  1.00  0.00     0.099 C 
ATOM      7  O   UNL     1       8.195  -1.192  34.115  1.00  0.00    -0.544 OA
ATOM      8  O   UNL     1       8.948  -2.583  32.458  1.00  0.00    -0.544 OA
ENDBRANCH   1   6
BRANCH   1   9
ATOM      9  C   UNL     1       9.796   0.339  31.531  1.00  0.00     0.047 C 
ATOM     10  C   UNL     1      10.480  -0.352  30.339  1.00  0.00     0.014 C 
ATOM     11  C   UNL     1      10.242   1.812  31.581  1.00  0.00     0.014 C 
ENDBRANCH   1   9
TORSDOF 3
ENDMDL
MODEL 5
REMARK VINA RESULT:    -2.838      8.455      9.205
REMARK INTER + INTRA:          -3.303
REMARK INTER:                  -3.242
REMARK INTRA:                  -0.060
REMARK UNBOUND:                -0.050
REMARK SMILES CC(C)[C@H]([NH3+])C(=O)[O-]
REMARK SMILES IDX 4 1 5 2 6 6 7 7 8 8 2 9 1 10 3 11
REMARK H PARENT 5 3 5 4 5 5
REMARK Flexibility Score: inf
ROOT
ATOM      1  C   UNL     1       6.839  -0.054  36.600  1.00  0.00     0.230 C 
ENDROOT
BRANCH   1   2
ATOM      2  N   UNL     1       5.725  -0.539  37.429  1.00  0.00    -0.350 N 
ATOM      3  H   UNL     1       4.810  -0.294  36.983  1.00  0.00     0.345 HD
ATOM      4  H   UNL     1       5.778  -1.577  37.551  1.00  0.00     0.345 HD
ATOM      5  H   UNL     1       5.743  -0.075  38.366  1.00  0.00     0.345 HD
ENDBRANCH   1   2
BRANCH   1   6
ATOM      6  C   UNL     1       7.006  -0.959  35.405  1.00  0.00     0.099 C 
ATOM      7  O   UNL     1       6.041  -1.656  34.993  1.00  0.00    -0.544 OA
ATOM      8  O   UNL     1       8.232  -1.034  34.755  1.00  0.00    -0.544 OA
ENDBRANCH   1   6
BRANCH   1   9
ATOM      9  C   UNL     1       8.167   0.047  37.410  1.00  0.00     0.047 C 
ATOM     10  C   UNL     1       8.306  -1.095  38.430  1.00  0.00     0.014 C 
ATOM     11  C   UNL     1       8.269   1.395  38.148  1.00  0.00     0.014 C 
ENDBRANCH   1   9
TORSDOF 3
ENDMDL
MODEL 6
REMARK VINA RESULT:    -2.812      1.776      2.373
REMARK INTER + INTRA:          -3.273
REMARK INTER:                  -3.212
REMARK INTRA:                  -0.061
REMARK UNBOUND:                -0.050
REMARK SMILES CC(C)[C@H]([NH3+])C(=O)[O-]
REMARK SMILES IDX 4 1 5 2 6 6 7 7 8 8 2 9 1 10 3 11
REMARK H PARENT 5 3 5 4 5 5
REMARK Flexibility Score: inf
ROOT
ATOM      1  C   UNL     1       8.718   7.154  42.099  1.00  0.00     0.230 C 
ENDROOT
BRANCH   1   2
ATOM      2  N   UNL     1       7.707   6.138  41.766  1.00  0.00    -0.350 N 
ATOM      3  H   UNL     1       7.778   5.878  40.755  1.00  0.00     0.345 HD
ATOM      4  H   UNL     1       7.839   5.280  42.350  1.00  0.00     0.345 HD
ATOM      5  H   UNL     1       6.746   6.521  41.918  1.00  0.00     0.345 HD
ENDBRANCH   1   2
BRANCH   1   6
ATOM      6  C   UNL     1       9.978   6.884  41.315  1.00  0.00     0.099 C 
ATOM      7  O   UNL     1      11.069   6.683  41.910  1.00  0.00    -0.544 OA
ATOM      8  O   UNL     1       9.942   6.863  39.926  1.00  0.00    -0.544 OA
ENDBRANCH   1   6
BRANCH   1   9
ATOM      9  C   UNL     1       9.015   7.201  43.629  1.00  0.00     0.047 C 
ATOM     10  C   UNL     1       7.996   6.379  44.437  1.00  0.00     0.014 C 
ATOM     11  C   UNL     1       9.022   8.648  44.152  1.00  0.00     0.014 C 
ENDBRANCH   1   9
TORSDOF 3
ENDMDL
MODEL 7
REMARK VINA RESULT:    -2.798     10.708     11.479
REMARK INTER + INTRA:          -3.256
REMARK INTER:                  -3.199
REMARK INTRA:                  -0.057
REMARK UNBOUND:                -0.050
REMARK SMILES CC(C)[C@H]([NH3+])C(=O)[O-]
REMARK SMILES IDX 4 1 5 2 6 6 7 7 8 8 2 9 1 10 3 11
REMARK H PARENT 5 3 5 4 5 5
REMARK Flexibility Score: inf
ROOT
ATOM      1  C   UNL     1       8.545  -2.631  34.826  1.00  0.00     0.230 C 
ENDROOT
BRANCH   1   2
ATOM      2  N   UNL     1       9.894  -2.759  35.398  1.00  0.00    -0.350 N 
ATOM      3  H   UNL     1      10.450  -3.460  34.855  1.00  0.00     0.345 HD
ATOM      4  H   UNL     1      10.394  -1.840  35.379  1.00  0.00     0.345 HD
ATOM      5  H   UNL     1       9.838  -3.108  36.382  1.00  0.00     0.345 HD
ENDBRANCH   1   2
BRANCH   1   6
ATOM      6  C   UNL     1       8.600  -2.898  33.343  1.00  0.00     0.099 C 
ATOM      7  O   UNL     1       8.016  -3.900  32.853  1.00  0.00    -0.544 OA
ATOM      8  O   UNL     1       9.305  -2.039  32.508  1.00  0.00    -0.544 OA
ENDBRANCH   1   6
BRANCH   1   9
ATOM      9  C   UNL     1       7.921  -1.232  35.117  1.00  0.00     0.047 C 
ATOM     10  C   UNL     1       8.441  -0.633  36.434  1.00  0.00     0.014 C 
ATOM     11  C   UNL     1       6.384  -1.306  35.170  1.00  0.00     0.014 C 
ENDBRANCH   1   9
TORSDOF 3
ENDMDL
MODEL 8
REMARK VINA RESULT:    -2.785     11.284     11.974
REMARK INTER + INTRA:          -3.241
REMARK INTER:                  -3.195
REMARK INTRA:                  -0.046
REMARK UNBOUND:                -0.050
REMARK SMILES CC(C)[C@H]([NH3+])C(=O)[O-]
REMARK SMILES IDX 4 1 5 2 6 6 7 7 8 8 2 9 1 10 3 11
REMARK H PARENT 5 3 5 4 5 5
REMARK Flexibility Score: inf
ROOT
ATOM      1  C   UNL     1       8.572  -1.576  33.893  1.00  0.00     0.230 C 
ENDROOT
BRANCH   1   2
ATOM      2  N   UNL     1       8.799  -1.054  35.249  1.00  0.00    -0.350 N 
ATOM      3  H   UNL     1       9.778  -1.261  35.556  1.00  0.00     0.345 HD
ATOM      4  H   UNL     1       8.643  -0.020  35.279  1.00  0.00     0.345 HD
ATOM      5  H   UNL     1       8.158  -1.525  35.929  1.00  0.00     0.345 HD
ENDBRANCH   1   2
BRANCH   1   6
ATOM      6  C   UNL     1       8.419  -3.076  33.951  1.00  0.00     0.099 C 
ATOM      7  O   UNL     1       8.078  -3.723  32.926  1.00  0.00    -0.544 OA
ATOM      8  O   UNL     1       8.648  -3.752  35.143  1.00  0.00    -0.544 OA
ENDBRANCH   1   6
BRANCH   1   9
ATOM      9  C   UNL     1       9.716  -1.171  32.914  1.00  0.00     0.047 C 
ATOM     10  C   UNL     1      10.865  -0.452  33.640  1.00  0.00     0.014 C 
ATOM     11  C   UNL     1       9.190  -0.267  31.785  1.00  0.00     0.014 C 
ENDBRANCH   1   9
TORSDOF 3
ENDMDL
MODEL 9
REMARK VINA RESULT:    -2.761     10.761     11.512
REMARK INTER + INTRA:          -3.215
REMARK INTER:                  -3.155
REMARK INTRA:                  -0.060
REMARK UNBOUND:                -0.050
REMARK SMILES CC(C)[C@H]([NH3+])C(=O)[O-]
REMARK SMILES IDX 4 1 5 2 6 6 7 7 8 8 2 9 1 10 3 11
REMARK H PARENT 5 3 5 4 5 5
REMARK Flexibility Score: inf
ROOT
ATOM      1  C   UNL     1       8.775  -2.017  34.703  1.00  0.00     0.230 C 
ENDROOT
BRANCH   1   2
ATOM      2  N   UNL     1       8.685  -1.128  33.535  1.00  0.00    -0.350 N 
ATOM      3  H   UNL     1       7.691  -0.845  33.372  1.00  0.00     0.345 HD
ATOM      4  H   UNL     1       9.265  -0.268  33.678  1.00  0.00     0.345 HD
ATOM      5  H   UNL     1       9.007  -1.628  32.675  1.00  0.00     0.345 HD
ENDBRANCH   1   2
BRANCH   1   6
ATOM      6  C   UNL     1       8.643  -3.451  34.254  1.00  0.00     0.099 C 
ATOM      7  O   UNL     1       8.996  -4.392  35.013  1.00  0.00    -0.544 OA
ATOM      8  O   UNL     1       8.138  -3.741  32.992  1.00  0.00    -0.544 OA
ENDBRANCH   1   6
BRANCH   1   9
ATOM      9  C   UNL     1       7.702  -1.672  35.781  1.00  0.00     0.047 C 
ATOM     10  C   UNL     1       6.346  -1.318  35.149  1.00  0.00     0.014 C 
ATOM     11  C   UNL     1       8.162  -0.503  36.671  1.00  0.00     0.014 C 
ENDBRANCH   1   9
TORSDOF 3
ENDMDL
