MODEL 1
REMARK VINA RESULT:    -3.733      0.000      0.000
REMARK INTER + INTRA:          -5.251
REMARK INTER:                  -4.824
REMARK INTRA:                  -0.427
REMARK UNBOUND:                -0.427
REMARK SMILES CCO[C@H]1O[C@H](CO)[C@H](O)[C@H](O)[C@@H]1O
REMARK SMILES IDX 4 1 13 2 11 3 9 4 6 5 5 6 3 7 2 8 1 9 14 10 12 12 7 14 8 15
REMARK SMILES IDX 10 17
REMARK H PARENT 14 11 12 13 8 16 10 18
REMARK Flexibility Score: inf
ROOT
ATOM      1  C   UNL     1       8.375  14.286  24.071  1.00  0.00     0.281 C 
ATOM      2  C   UNL     1       7.332  13.755  25.080  1.00  0.00     0.202 C 
ATOM      3  C   UNL     1       5.967  13.559  24.392  1.00  0.00     0.179 C 
ATOM      4  C   UNL     1       5.564  14.820  23.613  1.00  0.00     0.177 C 
ATOM      5  C   UNL     1       6.728  15.232  22.684  1.00  0.00     0.178 C 
ATOM      6  O   UNL     1       7.911  15.469  23.431  1.00  0.00    -0.341 OA
ENDROOT
BRANCH   1   7
ATOM      7  O   UNL     1       8.684  13.270  23.125  1.00  0.00    -0.350 OA
BRANCH   7   8
ATOM      8  C   UNL     1       9.687  12.386  23.597  1.00  0.00     0.160 C 
ATOM      9  C   UNL     1      10.910  13.148  24.101  1.00  0.00     0.035 C 
ENDBRANCH   7   8
ENDBRANCH   1   7
BRANCH   2  10
ATOM     10  O   UNL     1       7.201  14.653  26.153  1.00  0.00    -0.385 OA
ATOM     11  H   UNL     1       6.966  15.536  25.764  1.00  0.00     0.211 HD
ENDBRANCH   2  10
BRANCH   3  12
ATOM     12  O   UNL     1       4.976  13.251  25.339  1.00  0.00    -0.387 OA
ATOM     13  H   UNL     1       4.332  12.642  24.890  1.00  0.00     0.211 HD
ENDBRANCH   3  12
BRANCH   5  14
ATOM     14  C   UNL     1       6.380  16.498  21.886  1.00  0.00     0.191 C 
BRANCH  14  15
ATOM     15  O   UNL     1       6.703  17.646  22.624  1.00  0.00    -0.394 OA
ATOM     16  H   UNL     1       6.894  18.363  21.965  1.00  0.00     0.210 HD
ENDBRANCH  14  15
ENDBRANCH   5  14
BRANCH   4  17
ATOM     17  O   UNL     1       5.258  15.858  24.513  1.00  0.00    -0.387 OA
ATOM     18  H   UNL     1       5.220  16.699  23.988  1.00  0.00     0.211 HD
ENDBRANCH   4  17
TORSDOF 7
ENDMDL
MODEL 2
REMARK VINA RESULT:    -3.468     22.167     23.298
REMARK INTER + INTRA:          -4.909
REMARK INTER:                  -4.501
REMARK INTRA:                  -0.407
REMARK UNBOUND:                -0.427
REMARK SMILES CCO[C@H]1O[C@H](CO)[C@H](O)[C@H](O)[C@@H]1O
REMARK SMILES IDX 4 1 13 2 11 3 9 4 6 5 5 6 3 7 2 8 1 9 14 10 12 12 7 14 8 15
REMARK SMILES IDX 10 17
REMARK H PARENT 14 11 12 13 8 16 10 18
REMARK Flexibility Score: inf
ROOT
ATOM      1  C   UNL     1      19.896  27.041  37.803  1.00  0.00     0.281 C 
ATOM      2  C   UNL     1      18.749  27.708  38.595  1.00  0.00     0.202 C 
ATOM      3  C   UNL     1      19.092  27.767  40.096  1.00  0.00     0.179 C 
ATOM      4  C   UNL     1      19.547  26.390  40.605  1.00  0.00     0.177 C 
ATOM      5  C   UNL     1      20.666  25.856  39.683  1.00  0.00     0.178 C 
ATOM      6  O   UNL     1      20.213  25.762  38.341  1.00  0.00    -0.341 OA
ENDROOT
BRANCH   1   7
ATOM      7  O   UNL     1      21.031  27.898  37.794  1.00  0.00    -0.350 OA
BRANCH   7   8
ATOM      8  C   UNL     1      20.985  28.836  36.732  1.00  0.00     0.160 C 
ATOM      9  C   UNL     1      20.773  28.147  35.387  1.00  0.00     0.035 C 
ENDBRANCH   7   8
ENDBRANCH   1   7
BRANCH   2  10
ATOM     10  O   UNL     1      17.555  26.990  38.407  1.00  0.00    -0.385 OA
ATOM     11  H   UNL     1      16.962  27.557  37.848  1.00  0.00     0.211 HD
ENDBRANCH   2  10
BRANCH   3  12
ATOM     12  O   UNL     1      17.984  28.205  40.840  1.00  0.00    -0.387 OA
ATOM     13  H   UNL     1      18.263  28.205  41.793  1.00  0.00     0.211 HD
ENDBRANCH   3  12
BRANCH   5  14
ATOM     14  C   UNL     1      21.151  24.473  40.143  1.00  0.00     0.191 C 
BRANCH  14  15
ATOM     15  O   UNL     1      20.473  23.460  39.449  1.00  0.00    -0.394 OA
ATOM     16  H   UNL     1      20.969  23.315  38.602  1.00  0.00     0.210 HD
ENDBRANCH  14  15
ENDBRANCH   5  14
BRANCH   4  17
ATOM     17  O   UNL     1      18.453  25.504  40.620  1.00  0.00    -0.387 OA
ATOM     18  H   UNL     1      17.690  25.988  41.031  1.00  0.00     0.211 HD
ENDBRANCH   4  17
TORSDOF 7
ENDMDL
MODEL 3
REMARK VINA RESULT:    -3.431      2.409      4.097
REMARK INTER + INTRA:          -4.862
REMARK INTER:                  -4.470
REMARK INTRA:                  -0.391
REMARK UNBOUND:                -0.427
REMARK SMILES CCO[C@H]1O[C@H](CO)[C@H](O)[C@H](O)[C@@H]1O
REMARK SMILES IDX 4 1 13 2 11 3 9 4 6 5 5 6 3 7 2 8 1 9 14 10 12 12 7 14 8 15
REMARK SMILES IDX 10 17
REMARK H PARENT 14 11 12 13 8 16 10 18
REMARK Flexibility Score: inf
ROOT
ATOM      1  C   UNL     1       6.486  11.572  25.994  1.00  0.00     0.281 C 
ATOM      2  C   UNL     1       7.979  11.963  26.042  1.00  0.00     0.202 C 
ATOM      3  C   UNL     1       8.133  13.480  26.270  1.00  0.00     0.179 C 
ATOM      4  C   UNL     1       7.264  14.270  25.279  1.00  0.00     0.177 C 
ATOM      5  C   UNL     1       5.818  13.728  25.334  1.00  0.00     0.178 C 
ATOM      6  O   UNL     1       5.786  12.343  25.025  1.00  0.00    -0.341 OA
ENDROOT
BRANCH   1   7
ATOM      7  O   UNL     1       5.912  11.717  27.288  1.00  0.00    -0.350 OA
BRANCH   7   8
ATOM      8  C   UNL     1       6.552  10.898  28.252  1.00  0.00     0.160 C 
ATOM      9  C   UNL     1       6.778  11.650  29.560  1.00  0.00     0.035 C 
ENDBRANCH   7   8
ENDBRANCH   1   7
BRANCH   2  10
ATOM     10  O   UNL     1       8.611  11.595  24.841  1.00  0.00    -0.385 OA
ATOM     11  H   UNL     1       9.202  10.825  25.049  1.00  0.00     0.211 HD
ENDBRANCH   2  10
BRANCH   3  12
ATOM     12  O   UNL     1       9.476  13.867  26.134  1.00  0.00    -0.387 OA
ATOM     13  H   UNL     1       9.472  14.801  25.798  1.00  0.00     0.211 HD
ENDBRANCH   3  12
BRANCH   5  14
ATOM     14  C   UNL     1       4.906  14.480  24.351  1.00  0.00     0.191 C 
BRANCH  14  15
ATOM     15  O   UNL     1       5.266  15.834  24.287  1.00  0.00    -0.394 OA
ATOM     16  H   UNL     1       4.841  16.202  23.469  1.00  0.00     0.210 HD
ENDBRANCH  14  15
ENDBRANCH   5  14
BRANCH   4  17
ATOM     17  O   UNL     1       7.791  14.145  23.980  1.00  0.00    -0.387 OA
ATOM     18  H   UNL     1       7.400  13.323  23.584  1.00  0.00     0.211 HD
ENDBRANCH   4  17
TORSDOF 7
ENDMDL
MODEL 4
REMARK VINA RESULT:    -3.390      1.489      2.123
REMARK INTER + INTRA:          -4.808
REMARK INTER:                  -4.442
REMARK INTRA:                  -0.366
REMARK UNBOUND:                -0.427
REMARK SMILES CCO[C@H]1O[C@H](CO)[C@H](O)[C@H](O)[C@@H]1O
REMARK SMILES IDX 4 1 13 2 11 3 9 4 6 5 5 6 3 7 2 8 1 9 14 10 12 12 7 14 8 15
REMARK SMILES IDX 10 17
REMARK H PARENT 14 11 12 13 8 16 10 18
REMARK Flexibility Score: inf
ROOT
ATOM      1  C   UNL     1       9.403  13.446  23.942  1.00  0.00     0.281 C 
ATOM      2  C   UNL     1       9.185  12.938  25.384  1.00  0.00     0.202 C 
ATOM      3  C   UNL     1       7.685  12.706  25.654  1.00  0.00     0.179 C 
ATOM      4  C   UNL     1       6.861  13.936  25.245  1.00  0.00     0.177 C 
ATOM      5  C   UNL     1       7.227  14.329  23.796  1.00  0.00     0.178 C 
ATOM      6  O   UNL     1       8.616  14.603  23.683  1.00  0.00    -0.341 OA
ENDROOT
BRANCH   1   7
ATOM      7  O   UNL     1       9.114  12.403  23.019  1.00  0.00    -0.350 OA
BRANCH   7   8
ATOM      8  C   UNL     1      10.180  12.182  22.111  1.00  0.00     0.160 C 
ATOM      9  C   UNL     1      11.258  11.292  22.723  1.00  0.00     0.035 C 
ENDBRANCH   7   8
ENDBRANCH   1   7
BRANCH   2  10
ATOM     10  O   UNL     1       9.695  13.870  26.304  1.00  0.00    -0.385 OA
ATOM     11  H   UNL     1       8.933  14.171  26.865  1.00  0.00     0.211 HD
ENDBRANCH   2  10
BRANCH   3  12
ATOM     12  O   UNL     1       7.466  12.419  27.011  1.00  0.00    -0.387 OA
ATOM     13  H   UNL     1       8.314  12.041  27.364  1.00  0.00     0.211 HD
ENDBRANCH   3  12
BRANCH   5  14
ATOM     14  C   UNL     1       6.436  15.564  23.339  1.00  0.00     0.191 C 
BRANCH  14  15
ATOM     15  O   UNL     1       5.308  15.751  24.151  1.00  0.00    -0.394 OA
ATOM     16  H   UNL     1       4.796  16.504  23.756  1.00  0.00     0.210 HD
ENDBRANCH  14  15
ENDBRANCH   5  14
BRANCH   4  17
ATOM     17  O   UNL     1       7.125  15.000  26.128  1.00  0.00    -0.387 OA
ATOM     18  H   UNL     1       7.978  15.417  25.837  1.00  0.00     0.211 HD
ENDBRANCH   4  17
TORSDOF 7
ENDMDL
MODEL 5
REMARK VINA RESULT:    -3.378      1.896      4.744
REMARK INTER + INTRA:          -4.792
REMARK INTER:                  -4.370
REMARK INTRA:                  -0.423
REMARK UNBOUND:                -0.427
REMARK SMILES CCO[C@H]1O[C@H](CO)[C@H](O)[C@H](O)[C@@H]1O
REMARK SMILES IDX 4 1 13 2 11 3 9 4 6 5 5 6 3 7 2 8 1 9 14 10 12 12 7 14 8 15
REMARK SMILES IDX 10 17
REMARK H PARENT 14 11 12 13 8 16 10 18
REMARK Flexibility Score: inf
ROOT
ATOM      1  C   UNL     1       6.396  14.592  24.878  1.00  0.00     0.281 C 
ATOM      2  C   UNL     1       7.138  14.078  23.624  1.00  0.00     0.202 C 
ATOM      3  C   UNL     1       7.485  12.584  23.777  1.00  0.00     0.179 C 
ATOM      4  C   UNL     1       8.179  12.321  25.122  1.00  0.00     0.177 C 
ATOM      5  C   UNL     1       7.325  12.929  26.258  1.00  0.00     0.178 C 
ATOM      6  O   UNL     1       7.142  14.323  26.060  1.00  0.00    -0.341 OA
ENDROOT
BRANCH   1   7
ATOM      7  O   UNL     1       5.099  14.012  24.937  1.00  0.00    -0.350 OA
BRANCH   7   8
ATOM      8  C   UNL     1       4.225  14.556  23.963  1.00  0.00     0.160 C 
ATOM      9  C   UNL     1       3.912  16.022  24.250  1.00  0.00     0.035 C 
ENDBRANCH   7   8
ENDBRANCH   1   7
BRANCH   2  10
ATOM     10  O   UNL     1       8.314  14.822  23.423  1.00  0.00    -0.385 OA
ATOM     11  H   UNL     1       8.579  15.189  24.307  1.00  0.00     0.211 HD
ENDBRANCH   2  10
BRANCH   3  12
ATOM     12  O   UNL     1       8.313  12.158  22.725  1.00  0.00    -0.387 OA
ATOM     13  H   UNL     1       8.268  11.166  22.710  1.00  0.00     0.211 HD
ENDBRANCH   3  12
BRANCH   5  14
ATOM     14  C   UNL     1       7.981  12.702  27.628  1.00  0.00     0.191 C 
BRANCH  14  15
ATOM     15  O   UNL     1       9.000  13.642  27.845  1.00  0.00    -0.394 OA
ATOM     16  H   UNL     1       9.824  13.127  28.044  1.00  0.00     0.210 HD
ENDBRANCH  14  15
ENDBRANCH   5  14
BRANCH   4  17
ATOM     17  O   UNL     1       9.466  12.889  25.112  1.00  0.00    -0.387 OA
ATOM     18  H   UNL     1      10.104  12.166  24.876  1.00  0.00     0.211 HD
ENDBRANCH   4  17
TORSDOF 7
ENDMDL
MODEL 6
REMARK VINA RESULT:    -3.355     12.420     14.454
REMARK INTER + INTRA:          -4.764
REMARK INTER:                  -4.653
REMARK INTRA:                  -0.110
REMARK UNBOUND:                -0.427
REMARK SMILES CCO[C@H]1O[C@H](CO)[C@H](O)[C@H](O)[C@@H]1O
REMARK SMILES IDX 4 1 13 2 11 3 9 4 6 5 5 6 3 7 2 8 1 9 14 10 12 12 7 14 8 15
REMARK SMILES IDX 10 17
REMARK H PARENT 14 11 12 13 8 16 10 18
REMARK Flexibility Score: inf
ROOT
ATOM      1  C   UNL     1      21.288  19.379  24.788  1.00  0.00     0.281 C 
ATOM      2  C   UNL     1      21.619  20.559  23.848  1.00  0.00     0.202 C 
ATOM      3  C   UNL     1      20.417  21.517  23.738  1.00  0.00     0.179 C 
ATOM      4  C   UNL     1      19.131  20.741  23.413  1.00  0.00     0.177 C 
ATOM      5  C   UNL     1      18.973  19.581  24.421  1.00  0.00     0.178 C 
ATOM      6  O   UNL     1      20.098  18.716  24.376  1.00  0.00    -0.341 OA
ENDROOT
BRANCH   1   7
ATOM      7  O   UNL     1      21.185  19.848  26.126  1.00  0.00    -0.350 OA
BRANCH   7   8
ATOM      8  C   UNL     1      22.110  19.208  26.990  1.00  0.00     0.160 C 
ATOM      9  C   UNL     1      22.125  17.698  26.770  1.00  0.00     0.035 C 
ENDBRANCH   7   8
ENDBRANCH   1   7
BRANCH   2  10
ATOM     10  O   UNL     1      21.962  20.076  22.573  1.00  0.00    -0.385 OA
ATOM     11  H   UNL     1      21.229  19.470  22.286  1.00  0.00     0.211 HD
ENDBRANCH   2  10
BRANCH   3  12
ATOM     12  O   UNL     1      20.647  22.489  22.751  1.00  0.00    -0.387 OA
ATOM     13  H   UNL     1      21.533  22.892  22.949  1.00  0.00     0.211 HD
ENDBRANCH   3  12
BRANCH   5  14
ATOM     14  C   UNL     1      17.704  18.764  24.133  1.00  0.00     0.191 C 
BRANCH  14  15
ATOM     15  O   UNL     1      17.700  17.582  24.888  1.00  0.00    -0.394 OA
ATOM     16  H   UNL     1      17.931  17.839  25.819  1.00  0.00     0.210 HD
ENDBRANCH  14  15
ENDBRANCH   5  14
BRANCH   4  17
ATOM     17  O   UNL     1      19.194  20.248  22.096  1.00  0.00    -0.387 OA
ATOM     18  H   UNL     1      20.153  20.218  21.840  1.00  0.00     0.211 HD
ENDBRANCH   4  17
TORSDOF 7
ENDMDL
MODEL 7
REMARK VINA RESULT:    -3.344      1.463      4.083
REMARK INTER + INTRA:          -4.748
REMARK INTER:                  -4.395
REMARK INTRA:                  -0.353
REMARK UNBOUND:                -0.427
REMARK SMILES CCO[C@H]1O[C@H](CO)[C@H](O)[C@H](O)[C@@H]1O
REMARK SMILES IDX 4 1 13 2 11 3 9 4 6 5 5 6 3 7 2 8 1 9 14 10 12 12 7 14 8 15
REMARK SMILES IDX 10 17
REMARK H PARENT 14 11 12 13 8 16 10 18
REMARK Flexibility Score: inf
ROOT
ATOM      1  C   UNL     1       6.298  14.406  23.798  1.00  0.00     0.281 C 
ATOM      2  C   UNL     1       6.337  13.973  25.281  1.00  0.00     0.202 C 
ATOM      3  C   UNL     1       7.711  14.292  25.901  1.00  0.00     0.179 C 
ATOM      4  C   UNL     1       8.846  13.756  25.016  1.00  0.00     0.177 C 
ATOM      5  C   UNL     1       8.634  14.252  23.568  1.00  0.00     0.178 C 
ATOM      6  O   UNL     1       7.374  13.828  23.068  1.00  0.00    -0.341 OA
ENDROOT
BRANCH   1   7
ATOM      7  O   UNL     1       6.316  15.826  23.715  1.00  0.00    -0.350 OA
BRANCH   7   8
ATOM      8  C   UNL     1       5.178  16.336  23.041  1.00  0.00     0.160 C 
ATOM      9  C   UNL     1       5.491  17.655  22.338  1.00  0.00     0.035 C 
ENDBRANCH   7   8
ENDBRANCH   1   7
BRANCH   2  10
ATOM     10  O   UNL     1       6.076  12.595  25.385  1.00  0.00    -0.385 OA
ATOM     11  H   UNL     1       6.052  12.378  26.354  1.00  0.00     0.211 HD
ENDBRANCH   2  10
BRANCH   3  12
ATOM     12  O   UNL     1       7.813  13.740  27.188  1.00  0.00    -0.387 OA
ATOM     13  H   UNL     1       8.765  13.489  27.316  1.00  0.00     0.211 HD
ENDBRANCH   3  12
BRANCH   5  14
ATOM     14  C   UNL     1       9.740  13.734  22.636  1.00  0.00     0.191 C 
BRANCH  14  15
ATOM     15  O   UNL     1      10.928  13.529  23.352  1.00  0.00    -0.394 OA
ATOM     16  H   UNL     1      10.896  12.599  23.697  1.00  0.00     0.210 HD
ENDBRANCH  14  15
ENDBRANCH   5  14
BRANCH   4  17
ATOM     17  O   UNL     1       8.859  12.349  25.060  1.00  0.00    -0.387 OA
ATOM     18  H   UNL     1       9.807  12.067  25.150  1.00  0.00     0.211 HD
ENDBRANCH   4  17
TORSDOF 7
ENDMDL
MODEL 8
REMARK VINA RESULT:    -3.329      2.199      4.039
REMARK INTER + INTRA:          -4.729
REMARK INTER:                  -4.310
REMARK INTRA:                  -0.420
REMARK UNBOUND:                -0.427
REMARK SMILES CCO[C@H]1O[C@H](CO)[C@H](O)[C@H](O)[C@@H]1O
REMARK SMILES IDX 4 1 13 2 11 3 9 4 6 5 5 6 3 7 2 8 1 9 14 10 12 12 7 14 8 15
REMARK SMILES IDX 10 17
REMARK H PARENT 14 11 12 13 8 16 10 18
REMARK Flexibility Score: inf
ROOT
ATOM      1  C   UNL     1       7.931  13.094  26.627  1.00  0.00     0.281 C 
ATOM      2  C   UNL     1       6.761  13.515  25.710  1.00  0.00     0.202 C 
ATOM      3  C   UNL     1       6.970  12.969  24.284  1.00  0.00     0.179 C 
ATOM      4  C   UNL     1       8.379  13.308  23.772  1.00  0.00     0.177 C 
ATOM      5  C   UNL     1       9.419  12.854  24.821  1.00  0.00     0.178 C 
ATOM      6  O   UNL     1       9.182  13.483  26.072  1.00  0.00    -0.341 OA
ENDROOT
BRANCH   1   7
ATOM      7  O   UNL     1       7.878  11.691  26.857  1.00  0.00    -0.350 OA
BRANCH   7   8
ATOM      8  C   UNL     1       6.837  11.335  27.751  1.00  0.00     0.160 C 
ATOM      9  C   UNL     1       7.059  11.939  29.134  1.00  0.00     0.035 C 
ENDBRANCH   7   8
ENDBRANCH   1   7
BRANCH   2  10
ATOM     10  O   UNL     1       6.660  14.916  25.674  1.00  0.00    -0.385 OA
ATOM     11  H   UNL     1       5.887  15.165  26.247  1.00  0.00     0.211 HD
ENDBRANCH   2  10
BRANCH   3  12
ATOM     12  O   UNL     1       6.008  13.496  23.407  1.00  0.00    -0.387 OA
ATOM     13  H   UNL     1       6.273  13.217  22.491  1.00  0.00     0.211 HD
ENDBRANCH   3  12
BRANCH   5  14
ATOM     14  C   UNL     1      10.849  13.180  24.362  1.00  0.00     0.191 C 
BRANCH  14  15
ATOM     15  O   UNL     1      10.915  13.223  22.962  1.00  0.00    -0.394 OA
ATOM     16  H   UNL     1      11.295  14.108  22.722  1.00  0.00     0.210 HD
ENDBRANCH  14  15
ENDBRANCH   5  14
BRANCH   4  17
ATOM     17  O   UNL     1       8.480  14.693  23.541  1.00  0.00    -0.387 OA
ATOM     18  H   UNL     1       7.572  15.076  23.654  1.00  0.00     0.211 HD
ENDBRANCH   4  17
TORSDOF 7
ENDMDL
MODEL 9
REMARK VINA RESULT:    -3.287     21.873     23.094
REMARK INTER + INTRA:          -4.675
REMARK INTER:                  -4.292
REMARK INTRA:                  -0.384
REMARK UNBOUND:                -0.427
REMARK SMILES CCO[C@H]1O[C@H](CO)[C@H](O)[C@H](O)[C@@H]1O
REMARK SMILES IDX 4 1 13 2 11 3 9 4 6 5 5 6 3 7 2 8 1 9 14 10 12 12 7 14 8 15
REMARK SMILES IDX 10 17
REMARK H PARENT 14 11 12 13 8 16 10 18
REMARK Flexibility Score: inf
ROOT
ATOM      1  C   UNL     1      17.269  30.192  38.592  1.00  0.00     0.281 C 
ATOM      2  C   UNL     1      17.553  29.758  37.137  1.00  0.00     0.202 C 
ATOM      3  C   UNL     1      17.311  28.245  36.967  1.00  0.00     0.179 C 
ATOM      4  C   UNL     1      18.045  27.451  38.059  1.00  0.00     0.177 C 
ATOM      5  C   UNL     1      17.678  28.036  39.441  1.00  0.00     0.178 C 
ATOM      6  O   UNL     1      18.022  29.412  39.514  1.00  0.00    -0.341 OA
ENDROOT
BRANCH   1   7
ATOM      7  O   UNL     1      15.874  30.103  38.854  1.00  0.00    -0.350 OA
BRANCH   7   8
ATOM      8  C   UNL     1      15.115  30.936  37.993  1.00  0.00     0.160 C 
ATOM      9  C   UNL     1      13.683  30.427  37.846  1.00  0.00     0.035 C 
ENDBRANCH   7   8
ENDBRANCH   1   7
BRANCH   2  10
ATOM     10  O   UNL     1      18.880  30.070  36.793  1.00  0.00    -0.385 OA
ATOM     11  H   UNL     1      18.850  30.528  35.912  1.00  0.00     0.211 HD
ENDBRANCH   2  10
BRANCH   3  12
ATOM     12  O   UNL     1      17.739  27.815  35.700  1.00  0.00    -0.387 OA
ATOM     13  H   UNL     1      18.685  27.532  35.800  1.00  0.00     0.211 HD
ENDBRANCH   3  12
BRANCH   5  14
ATOM     14  C   UNL     1      18.395  27.282  40.571  1.00  0.00     0.191 C 
BRANCH  14  15
ATOM     15  O   UNL     1      18.539  25.926  40.241  1.00  0.00    -0.394 OA
ATOM     16  H   UNL     1      18.605  25.431  41.099  1.00  0.00     0.210 HD
ENDBRANCH  14  15
ENDBRANCH   5  14
BRANCH   4  17
ATOM     17  O   UNL     1      19.434  27.521  37.845  1.00  0.00    -0.387 OA
ATOM     18  H   UNL     1      19.575  27.626  36.868  1.00  0.00     0.211 HD
ENDBRANCH   4  17
TORSDOF 7
ENDMDL
