MODEL 1
REMARK VINA RESULT:    -3.235      0.000      0.000
REMARK INTER + INTRA:          -3.448
REMARK INTER:                  -3.425
REMARK INTRA:                  -0.023
REMARK UNBOUND:                -0.023
REMARK SMILES O=C([O-])c1cccnc1
REMARK SMILES IDX 4 1 5 2 9 3 6 4 8 5 7 6 2 7 1 8 3 9
REMARK H PARENT
REMARK Flexibility Score: inf
ROOT
ATOM      1  C   UNL     1     -46.425 -48.555  70.810  1.00  0.00     0.016 A 
ATOM      2  C   UNL     1     -46.199 -47.202  71.113  1.00  0.00     0.013 A 
ATOM      3  C   UNL     1     -45.314 -49.373  70.538  1.00  0.00     0.120 A 
ATOM      4  C   UNL     1     -44.897 -46.697  71.138  1.00  0.00     0.021 A 
ATOM      5  N   UNL     1     -44.057 -48.856  70.570  1.00  0.00    -0.264 NA
ATOM      6  C   UNL     1     -43.827 -47.548  70.861  1.00  0.00     0.111 A 
ENDROOT
BRANCH   1   7
ATOM      7  C   UNL     1     -47.798 -49.101  70.781  1.00  0.00     0.073 C 
ATOM      8  O   UNL     1     -48.790 -48.335  70.657  1.00  0.00    -0.545 OA
ATOM      9  O   UNL     1     -48.014 -50.470  70.892  1.00  0.00    -0.545 OA
ENDBRANCH   1   7
TORSDOF 1
ENDMDL
MODEL 2
REMARK VINA RESULT:    -3.226      1.888      2.468
REMARK INTER + INTRA:          -3.438
REMARK INTER:                  -3.419
REMARK INTRA:                  -0.019
REMARK UNBOUND:                -0.023
REMARK SMILES O=C([O-])c1cccnc1
REMARK SMILES IDX 4 1 5 2 9 3 6 4 8 5 7 6 2 7 1 8 3 9
REMARK H PARENT
REMARK Flexibility Score: inf
ROOT
ATOM      1  C   UNL     1     -47.655 -49.438  70.640  1.00  0.00     0.016 A 
ATOM      2  C   UNL     1     -46.253 -49.452  70.561  1.00  0.00     0.013 A 
ATOM      3  C   UNL     1     -48.299 -48.212  70.883  1.00  0.00     0.120 A 
ATOM      4  C   UNL     1     -45.530 -48.268  70.723  1.00  0.00     0.021 A 
ATOM      5  N   UNL     1     -47.570 -47.073  71.037  1.00  0.00    -0.264 NA
ATOM      6  C   UNL     1     -46.214 -47.076  70.964  1.00  0.00     0.111 A 
ENDROOT
BRANCH   1   7
ATOM      7  C   UNL     1     -48.432 -50.684  70.469  1.00  0.00     0.073 C 
ATOM      8  O   UNL     1     -49.400 -50.731  69.664  1.00  0.00    -0.545 OA
ATOM      9  O   UNL     1     -48.107 -51.822  71.198  1.00  0.00    -0.545 OA
ENDBRANCH   1   7
TORSDOF 1
ENDMDL
MODEL 3
REMARK VINA RESULT:    -3.165      2.759      3.723
REMARK INTER + INTRA:          -3.373
REMARK INTER:                  -3.350
REMARK INTRA:                  -0.023
REMARK UNBOUND:                -0.023
REMARK SMILES O=C([O-])c1cccnc1
REMARK SMILES IDX 4 1 5 2 9 3 6 4 8 5 7 6 2 7 1 8 3 9
REMARK H PARENT
REMARK Flexibility Score: inf
ROOT
ATOM      1  C   UNL     1     -45.739 -48.019  70.788  1.00  0.00     0.016 A 
ATOM      2  C   UNL     1     -46.851 -47.174  70.932  1.00  0.00     0.013 A 
ATOM      3  C   UNL     1     -45.963 -49.402  70.658  1.00  0.00     0.120 A 
ATOM      4  C   UNL     1     -48.142 -47.708  70.943  1.00  0.00     0.021 A 
ATOM      5  N   UNL     1     -47.231 -49.895  70.672  1.00  0.00    -0.264 NA
ATOM      6  C   UNL     1     -48.313 -49.086  70.811  1.00  0.00     0.111 A 
ENDROOT
BRANCH   1   7
ATOM      7  C   UNL     1     -44.368 -47.466  70.774  1.00  0.00     0.073 C 
ATOM      8  O   UNL     1     -43.368 -48.232  70.799  1.00  0.00    -0.545 OA
ATOM      9  O   UNL     1     -44.164 -46.092  70.735  1.00  0.00    -0.545 OA
ENDBRANCH   1   7
TORSDOF 1
ENDMDL
MODEL 4
REMARK VINA RESULT:    -3.154      2.400      3.510
REMARK INTER + INTRA:          -3.361
REMARK INTER:                  -3.340
REMARK INTRA:                  -0.021
REMARK UNBOUND:                -0.023
REMARK SMILES O=C([O-])c1cccnc1
REMARK SMILES IDX 4 1 5 2 9 3 6 4 8 5 7 6 2 7 1 8 3 9
REMARK H PARENT
REMARK Flexibility Score: inf
ROOT
ATOM      1  C   UNL     1     -46.728 -48.796  70.672  1.00  0.00     0.016 A 
ATOM      2  C   UNL     1     -45.564 -49.546  70.440  1.00  0.00     0.013 A 
ATOM      3  C   UNL     1     -47.953 -49.479  70.775  1.00  0.00     0.120 A 
ATOM      4  C   UNL     1     -45.637 -50.936  70.316  1.00  0.00     0.021 A 
ATOM      5  N   UNL     1     -47.997 -50.833  70.650  1.00  0.00    -0.264 NA
ATOM      6  C   UNL     1     -46.876 -51.568  70.425  1.00  0.00     0.111 A 
ENDROOT
BRANCH   1   7
ATOM      7  C   UNL     1     -46.663 -47.325  70.806  1.00  0.00     0.073 C 
ATOM      8  O   UNL     1     -45.710 -46.780  71.424  1.00  0.00    -0.545 OA
ATOM      9  O   UNL     1     -47.655 -46.524  70.253  1.00  0.00    -0.545 OA
ENDBRANCH   1   7
TORSDOF 1
ENDMDL
MODEL 5
REMARK VINA RESULT:    -3.121      0.928      1.602
REMARK INTER + INTRA:          -3.327
REMARK INTER:                  -3.304
REMARK INTRA:                  -0.023
REMARK UNBOUND:                -0.023
REMARK SMILES O=C([O-])c1cccnc1
REMARK SMILES IDX 4 1 5 2 9 3 6 4 8 5 7 6 2 7 1 8 3 9
REMARK H PARENT
REMARK Flexibility Score: inf
ROOT
ATOM      1  C   UNL     1     -46.415 -48.479  70.816  1.00  0.00     0.016 A 
ATOM      2  C   UNL     1     -45.315 -49.300  70.520  1.00  0.00     0.013 A 
ATOM      3  C   UNL     1     -46.176 -47.127  71.123  1.00  0.00     0.120 A 
ATOM      4  C   UNL     1     -44.022 -48.774  70.535  1.00  0.00     0.021 A 
ATOM      5  N   UNL     1     -44.906 -46.640  71.130  1.00  0.00    -0.264 NA
ATOM      6  C   UNL     1     -43.835 -47.426  70.845  1.00  0.00     0.111 A 
ENDROOT
BRANCH   1   7
ATOM      7  C   UNL     1     -47.789 -49.025  70.804  1.00  0.00     0.073 C 
ATOM      8  O   UNL     1     -48.782 -48.256  70.711  1.00  0.00    -0.545 OA
ATOM      9  O   UNL     1     -48.003 -50.395  70.896  1.00  0.00    -0.545 OA
ENDBRANCH   1   7
TORSDOF 1
ENDMDL
MODEL 6
REMARK VINA RESULT:    -3.115      2.921      4.069
REMARK INTER + INTRA:          -3.320
REMARK INTER:                  -3.297
REMARK INTRA:                  -0.023
REMARK UNBOUND:                -0.023
REMARK SMILES O=C([O-])c1cccnc1
REMARK SMILES IDX 4 1 5 2 9 3 6 4 8 5 7 6 2 7 1 8 3 9
REMARK H PARENT
REMARK Flexibility Score: inf
ROOT
ATOM      1  C   UNL     1     -45.648 -47.857  70.792  1.00  0.00     0.016 A 
ATOM      2  C   UNL     1     -45.784 -49.234  70.550  1.00  0.00     0.013 A 
ATOM      3  C   UNL     1     -46.811 -47.099  71.013  1.00  0.00     0.120 A 
ATOM      4  C   UNL     1     -47.051 -49.821  70.532  1.00  0.00     0.021 A 
ATOM      5  N   UNL     1     -48.033 -47.696  70.990  1.00  0.00    -0.264 NA
ATOM      6  C   UNL     1     -48.176 -49.027  70.756  1.00  0.00     0.111 A 
ENDROOT
BRANCH   1   7
ATOM      7  C   UNL     1     -44.312 -47.225  70.815  1.00  0.00     0.073 C 
ATOM      8  O   UNL     1     -43.274 -47.924  70.962  1.00  0.00    -0.545 OA
ATOM      9  O   UNL     1     -44.183 -45.847  70.675  1.00  0.00    -0.545 OA
ENDBRANCH   1   7
TORSDOF 1
ENDMDL
MODEL 7
REMARK VINA RESULT:    -3.002      2.770      3.381
REMARK INTER + INTRA:          -3.201
REMARK INTER:                  -3.177
REMARK INTRA:                  -0.024
REMARK UNBOUND:                -0.023
REMARK SMILES O=C([O-])c1cccnc1
REMARK SMILES IDX 4 1 5 2 9 3 6 4 8 5 7 6 2 7 1 8 3 9
REMARK H PARENT
REMARK Flexibility Score: inf
ROOT
ATOM      1  C   UNL     1     -45.867 -49.227  70.563  1.00  0.00     0.016 A 
ATOM      2  C   UNL     1     -45.946 -47.850  70.825  1.00  0.00     0.013 A 
ATOM      3  C   UNL     1     -47.063 -49.964  70.497  1.00  0.00     0.120 A 
ATOM      4  C   UNL     1     -47.189 -47.241  71.011  1.00  0.00     0.021 A 
ATOM      5  N   UNL     1     -48.261 -49.347  70.682  1.00  0.00    -0.264 NA
ATOM      6  C   UNL     1     -48.348 -48.014  70.936  1.00  0.00     0.111 A 
ENDROOT
BRANCH   1   7
ATOM      7  C   UNL     1     -44.557 -49.883  70.363  1.00  0.00     0.073 C 
ATOM      8  O   UNL     1     -43.489 -49.223  70.461  1.00  0.00    -0.545 OA
ATOM      9  O   UNL     1     -44.487 -51.239  70.062  1.00  0.00    -0.545 OA
ENDBRANCH   1   7
TORSDOF 1
ENDMDL
MODEL 8
REMARK VINA RESULT:    -2.688      2.068      2.281
REMARK INTER + INTRA:          -2.868
REMARK INTER:                  -2.852
REMARK INTRA:                  -0.016
REMARK UNBOUND:                -0.023
REMARK SMILES O=C([O-])c1cccnc1
REMARK SMILES IDX 4 1 5 2 9 3 6 4 8 5 7 6 2 7 1 8 3 9
REMARK H PARENT
REMARK Flexibility Score: inf
ROOT
ATOM      1  C   UNL     1     -47.539 -47.907  69.243  1.00  0.00     0.016 A 
ATOM      2  C   UNL     1     -47.471 -47.192  70.450  1.00  0.00     0.013 A 
ATOM      3  C   UNL     1     -46.398 -48.609  68.817  1.00  0.00     0.120 A 
ATOM      4  C   UNL     1     -46.292 -47.188  71.197  1.00  0.00     0.021 A 
ATOM      5  N   UNL     1     -45.261 -48.589  69.565  1.00  0.00    -0.264 NA
ATOM      6  C   UNL     1     -45.185 -47.900  70.733  1.00  0.00     0.111 A 
ENDROOT
BRANCH   1   7
ATOM      7  C   UNL     1     -48.782 -47.919  68.443  1.00  0.00     0.073 C 
ATOM      8  O   UNL     1     -49.049 -46.970  67.659  1.00  0.00    -0.545 OA
ATOM      9  O   UNL     1     -49.676 -48.979  68.548  1.00  0.00    -0.545 OA
ENDBRANCH   1   7
TORSDOF 1
ENDMDL
MODEL 9
REMARK VINA RESULT:    -2.607     11.607     12.325
REMARK INTER + INTRA:          -2.782
REMARK INTER:                  -2.760
REMARK INTRA:                  -0.022
REMARK UNBOUND:                -0.023
REMARK SMILES O=C([O-])c1cccnc1
REMARK SMILES IDX 4 1 5 2 9 3 6 4 8 5 7 6 2 7 1 8 3 9
REMARK H PARENT
REMARK Flexibility Score: inf
ROOT
ATOM      1  C   UNL     1     -49.947 -37.425  71.613  1.00  0.00     0.016 A 
ATOM      2  C   UNL     1     -49.801 -37.033  70.272  1.00  0.00     0.013 A 
ATOM      3  C   UNL     1     -51.247 -37.617  72.114  1.00  0.00     0.120 A 
ATOM      4  C   UNL     1     -50.928 -36.841  69.470  1.00  0.00     0.021 A 
ATOM      5  N   UNL     1     -52.328 -37.424  71.312  1.00  0.00    -0.264 NA
ATOM      6  C   UNL     1     -52.197 -37.044  70.014  1.00  0.00     0.111 A 
ENDROOT
BRANCH   1   7
ATOM      7  C   UNL     1     -48.762 -37.631  72.472  1.00  0.00     0.073 C 
ATOM      8  O   UNL     1     -48.863 -37.581  73.726  1.00  0.00    -0.545 OA
ATOM      9  O   UNL     1     -47.517 -37.882  71.905  1.00  0.00    -0.545 OA
ENDBRANCH   1   7
TORSDOF 1
ENDMDL
