MODEL 1
REMARK VINA RESULT:    -5.482      0.000      0.000
REMARK INTER + INTRA:          -5.642
REMARK INTER:                  -5.642
REMARK INTRA:                   0.000
REMARK UNBOUND:                 0.000
REMARK SMILES O=c1ccc2ccc(O)cc2o1
REMARK SMILES IDX 6 1 7 2 8 3 10 4 11 5 5 6 4 7 3 8 2 9 1 10 12 11 9 12
REMARK H PARENT 9 13
REMARK Flexibility Score: inf
ROOT
ATOM      1  C   UNL     1     -11.783  26.522 -18.981  1.00  0.00     0.016 A 
ATOM      2  C   UNL     1     -11.306  27.279 -17.905  1.00  0.00     0.047 A 
ATOM      3  C   UNL     1     -12.168  28.127 -17.200  1.00  0.00     0.119 A 
ATOM      4  C   UNL     1     -13.517  28.222 -17.573  1.00  0.00     0.094 A 
ATOM      5  C   UNL     1     -14.003  27.470 -18.648  1.00  0.00     0.142 A 
ATOM      6  C   UNL     1     -13.131  26.614 -19.357  1.00  0.00     0.018 A 
ATOM      7  C   UNL     1     -13.645  25.875 -20.427  1.00  0.00     0.019 A 
ATOM      8  C   UNL     1     -14.993  26.002 -20.760  1.00  0.00     0.094 A 
ATOM      9  C   UNL     1     -15.797  26.869 -20.013  1.00  0.00     0.336 A 
ATOM     10  O   UNL     1     -17.017  26.997 -20.299  1.00  0.00    -0.246 OA
ATOM     11  O   UNL     1     -15.282  27.561 -19.000  1.00  0.00    -0.423 OA
ENDROOT
BRANCH   3  12
ATOM     12  O   UNL     1     -11.674  28.873 -16.131  1.00  0.00    -0.508 OA
ATOM     13  H   UNL     1     -12.052  29.785 -15.902  1.00  0.00     0.293 HD
ENDBRANCH   3  12
TORSDOF 1
ENDMDL
MODEL 2
REMARK VINA RESULT:    -5.430      3.222      3.901
REMARK INTER + INTRA:          -5.589
REMARK INTER:                  -5.589
REMARK INTRA:                   0.000
REMARK UNBOUND:                 0.000
REMARK SMILES O=c1ccc2ccc(O)cc2o1
REMARK SMILES IDX 6 1 7 2 8 3 10 4 11 5 5 6 4 7 3 8 2 9 1 10 12 11 9 12
REMARK H PARENT 9 13
REMARK Flexibility Score: inf
ROOT
ATOM      1  C   UNL     1     -11.032  27.330 -20.497  1.00  0.00     0.016 A 
ATOM      2  C   UNL     1     -11.686  27.332 -19.261  1.00  0.00     0.047 A 
ATOM      3  C   UNL     1     -12.808  26.523 -19.051  1.00  0.00     0.119 A 
ATOM      4  C   UNL     1     -13.282  25.703 -20.087  1.00  0.00     0.094 A 
ATOM      5  C   UNL     1     -12.635  25.693 -21.327  1.00  0.00     0.142 A 
ATOM      6  C   UNL     1     -11.503  26.511 -21.534  1.00  0.00     0.018 A 
ATOM      7  C   UNL     1     -10.877  26.480 -22.784  1.00  0.00     0.019 A 
ATOM      8  C   UNL     1     -11.385  25.649 -23.783  1.00  0.00     0.094 A 
ATOM      9  C   UNL     1     -12.511  24.866 -23.506  1.00  0.00     0.336 A 
ATOM     10  O   UNL     1     -12.983  24.109 -24.394  1.00  0.00    -0.246 OA
ATOM     11  O   UNL     1     -13.087  24.915 -22.307  1.00  0.00    -0.423 OA
ENDROOT
BRANCH   3  12
ATOM     12  O   UNL     1     -13.446  26.540 -17.812  1.00  0.00    -0.508 OA
ATOM     13  H   UNL     1     -14.375  26.155 -17.690  1.00  0.00     0.293 HD
ENDBRANCH   3  12
TORSDOF 1
ENDMDL
MODEL 3
REMARK VINA RESULT:    -5.377      9.566     11.500
REMARK INTER + INTRA:          -5.534
REMARK INTER:                  -5.534
REMARK INTRA:                   0.000
REMARK UNBOUND:                 0.000
REMARK SMILES O=c1ccc2ccc(O)cc2o1
REMARK SMILES IDX 6 1 7 2 8 3 10 4 11 5 5 6 4 7 3 8 2 9 1 10 12 11 9 12
REMARK H PARENT 9 13
REMARK Flexibility Score: inf
ROOT
ATOM      1  C   UNL     1     -13.851  23.999 -29.890  1.00  0.00     0.016 A 
ATOM      2  C   UNL     1     -13.977  24.862 -28.797  1.00  0.00     0.047 A 
ATOM      3  C   UNL     1     -14.712  24.475 -27.670  1.00  0.00     0.119 A 
ATOM      4  C   UNL     1     -15.325  23.214 -27.634  1.00  0.00     0.094 A 
ATOM      5  C   UNL     1     -15.205  22.343 -28.723  1.00  0.00     0.142 A 
ATOM      6  C   UNL     1     -14.463  22.737 -29.858  1.00  0.00     0.018 A 
ATOM      7  C   UNL     1     -14.360  21.846 -30.930  1.00  0.00     0.019 A 
ATOM      8  C   UNL     1     -14.987  20.603 -30.848  1.00  0.00     0.094 A 
ATOM      9  C   UNL     1     -15.706  20.280 -29.692  1.00  0.00     0.336 A 
ATOM     10  O   UNL     1     -16.279  19.163 -29.599  1.00  0.00    -0.246 OA
ATOM     11  O   UNL     1     -15.788  21.148 -28.686  1.00  0.00    -0.423 OA
ENDROOT
BRANCH   3  12
ATOM     12  O   UNL     1     -14.826  25.350 -26.591  1.00  0.00    -0.508 OA
ATOM     13  H   UNL     1     -15.416  25.136 -25.796  1.00  0.00     0.293 HD
ENDBRANCH   3  12
TORSDOF 1
ENDMDL
MODEL 4
REMARK VINA RESULT:    -5.315      9.682     12.138
REMARK INTER + INTRA:          -5.471
REMARK INTER:                  -5.471
REMARK INTRA:                   0.000
REMARK UNBOUND:                 0.000
REMARK SMILES O=c1ccc2ccc(O)cc2o1
REMARK SMILES IDX 6 1 7 2 8 3 10 4 11 5 5 6 4 7 3 8 2 9 1 10 12 11 9 12
REMARK H PARENT 9 13
REMARK Flexibility Score: inf
ROOT
ATOM      1  C   UNL     1     -14.459  22.016 -31.110  1.00  0.00     0.016 A 
ATOM      2  C   UNL     1     -15.080  20.763 -31.132  1.00  0.00     0.047 A 
ATOM      3  C   UNL     1     -15.745  20.282 -29.998  1.00  0.00     0.119 A 
ATOM      4  C   UNL     1     -15.790  21.059 -28.831  1.00  0.00     0.094 A 
ATOM      5  C   UNL     1     -15.171  22.314 -28.799  1.00  0.00     0.142 A 
ATOM      6  C   UNL     1     -14.501  22.796 -29.945  1.00  0.00     0.018 A 
ATOM      7  C   UNL     1     -13.892  24.053 -29.883  1.00  0.00     0.019 A 
ATOM      8  C   UNL     1     -13.964  24.790 -28.701  1.00  0.00     0.094 A 
ATOM      9  C   UNL     1     -14.644  24.248 -27.604  1.00  0.00     0.336 A 
ATOM     10  O   UNL     1     -14.719  24.898 -26.529  1.00  0.00    -0.246 OA
ATOM     11  O   UNL     1     -15.215  23.049 -27.691  1.00  0.00    -0.423 OA
ENDROOT
BRANCH   3  12
ATOM     12  O   UNL     1     -16.358  19.031 -30.040  1.00  0.00    -0.508 OA
ATOM     13  H   UNL     1     -17.302  18.892 -29.701  1.00  0.00     0.293 HD
ENDBRANCH   3  12
TORSDOF 1
ENDMDL
MODEL 5
REMARK VINA RESULT:    -5.141      2.421      3.119
REMARK INTER + INTRA:          -5.292
REMARK INTER:                  -5.292
REMARK INTRA:                   0.000
REMARK UNBOUND:                 0.000
REMARK SMILES O=c1ccc2ccc(O)cc2o1
REMARK SMILES IDX 6 1 7 2 8 3 10 4 11 5 5 6 4 7 3 8 2 9 1 10 12 11 9 12
REMARK H PARENT 9 13
REMARK Flexibility Score: inf
ROOT
ATOM      1  C   UNL     1     -14.369  26.925 -18.821  1.00  0.00     0.016 A 
ATOM      2  C   UNL     1     -13.885  27.674 -17.743  1.00  0.00     0.047 A 
ATOM      3  C   UNL     1     -12.547  28.083 -17.710  1.00  0.00     0.119 A 
ATOM      4  C   UNL     1     -11.684  27.742 -18.762  1.00  0.00     0.094 A 
ATOM      5  C   UNL     1     -12.159  26.993 -19.845  1.00  0.00     0.142 A 
ATOM      6  C   UNL     1     -13.510  26.582 -19.875  1.00  0.00     0.018 A 
ATOM      7  C   UNL     1     -13.955  25.835 -20.970  1.00  0.00     0.019 A 
ATOM      8  C   UNL     1     -13.061  25.520 -21.992  1.00  0.00     0.094 A 
ATOM      9  C   UNL     1     -11.736  25.960 -21.894  1.00  0.00     0.336 A 
ATOM     10  O   UNL     1     -10.914  25.686 -22.807  1.00  0.00    -0.246 OA
ATOM     11  O   UNL     1     -11.338  26.670 -20.841  1.00  0.00    -0.423 OA
ENDROOT
BRANCH   3  12
ATOM     12  O   UNL     1     -12.084  28.828 -16.627  1.00  0.00    -0.508 OA
ATOM     13  H   UNL     1     -11.461  29.618 -16.755  1.00  0.00     0.293 HD
ENDBRANCH   3  12
TORSDOF 1
ENDMDL
MODEL 6
REMARK VINA RESULT:    -5.029      8.944      9.837
REMARK INTER + INTRA:          -5.176
REMARK INTER:                  -5.176
REMARK INTRA:                   0.000
REMARK UNBOUND:                 0.000
REMARK SMILES O=c1ccc2ccc(O)cc2o1
REMARK SMILES IDX 6 1 7 2 8 3 10 4 11 5 5 6 4 7 3 8 2 9 1 10 12 11 9 12
REMARK H PARENT 9 13
REMARK Flexibility Score: inf
ROOT
ATOM      1  C   UNL     1     -18.573  32.779 -11.947  1.00  0.00     0.016 A 
ATOM      2  C   UNL     1     -17.564  33.392 -12.699  1.00  0.00     0.047 A 
ATOM      3  C   UNL     1     -17.679  33.490 -14.091  1.00  0.00     0.119 A 
ATOM      4  C   UNL     1     -18.811  32.972 -14.738  1.00  0.00     0.094 A 
ATOM      5  C   UNL     1     -19.825  32.356 -13.995  1.00  0.00     0.142 A 
ATOM      6  C   UNL     1     -19.705  32.259 -12.591  1.00  0.00     0.018 A 
ATOM      7  C   UNL     1     -20.734  31.639 -11.875  1.00  0.00     0.019 A 
ATOM      8  C   UNL     1     -21.840  31.139 -12.562  1.00  0.00     0.094 A 
ATOM      9  C   UNL     1     -21.890  31.271 -13.954  1.00  0.00     0.336 A 
ATOM     10  O   UNL     1     -22.880  30.826 -14.592  1.00  0.00    -0.246 OA
ATOM     11  O   UNL     1     -20.897  31.866 -14.611  1.00  0.00    -0.423 OA
ENDROOT
BRANCH   3  12
ATOM     12  O   UNL     1     -16.664  34.104 -14.822  1.00  0.00    -0.508 OA
ATOM     13  H   UNL     1     -16.728  34.216 -15.826  1.00  0.00     0.293 HD
ENDBRANCH   3  12
TORSDOF 1
ENDMDL
MODEL 7
REMARK VINA RESULT:    -4.943     11.771     13.112
REMARK INTER + INTRA:          -5.088
REMARK INTER:                  -5.088
REMARK INTRA:                   0.000
REMARK UNBOUND:                 0.000
REMARK SMILES O=c1ccc2ccc(O)cc2o1
REMARK SMILES IDX 6 1 7 2 8 3 10 4 11 5 5 6 4 7 3 8 2 9 1 10 12 11 9 12
REMARK H PARENT 9 13
REMARK Flexibility Score: inf
ROOT
ATOM      1  C   UNL     1     -24.447  27.945 -20.338  1.00  0.00     0.016 A 
ATOM      2  C   UNL     1     -25.046  27.273 -21.409  1.00  0.00     0.047 A 
ATOM      3  C   UNL     1     -26.420  27.008 -21.399  1.00  0.00     0.119 A 
ATOM      4  C   UNL     1     -27.205  27.419 -20.311  1.00  0.00     0.094 A 
ATOM      5  C   UNL     1     -26.615  28.093 -19.235  1.00  0.00     0.142 A 
ATOM      6  C   UNL     1     -25.228  28.358 -19.249  1.00  0.00     0.018 A 
ATOM      7  C   UNL     1     -24.667  29.032 -18.160  1.00  0.00     0.019 A 
ATOM      8  C   UNL     1     -25.487  29.422 -17.101  1.00  0.00     0.094 A 
ATOM      9  C   UNL     1     -26.853  29.124 -17.156  1.00  0.00     0.336 A 
ATOM     10  O   UNL     1     -27.609  29.468 -16.210  1.00  0.00    -0.246 OA
ATOM     11  O   UNL     1     -27.361  28.481 -18.205  1.00  0.00    -0.423 OA
ENDROOT
BRANCH   3  12
ATOM     12  O   UNL     1     -26.998  26.337 -22.475  1.00  0.00    -0.508 OA
ATOM     13  H   UNL     1     -26.466  25.686 -23.041  1.00  0.00     0.293 HD
ENDBRANCH   3  12
TORSDOF 1
ENDMDL
MODEL 8
REMARK VINA RESULT:    -4.912      2.966      4.948
REMARK INTER + INTRA:          -5.055
REMARK INTER:                  -5.055
REMARK INTRA:                   0.000
REMARK UNBOUND:                 0.000
REMARK SMILES O=c1ccc2ccc(O)cc2o1
REMARK SMILES IDX 6 1 7 2 8 3 10 4 11 5 5 6 4 7 3 8 2 9 1 10 12 11 9 12
REMARK H PARENT 9 13
REMARK Flexibility Score: inf
ROOT
ATOM      1  C   UNL     1     -10.875  26.571 -22.532  1.00  0.00     0.016 A 
ATOM      2  C   UNL     1     -11.373  25.765 -23.562  1.00  0.00     0.047 A 
ATOM      3  C   UNL     1     -12.540  25.016 -23.373  1.00  0.00     0.119 A 
ATOM      4  C   UNL     1     -13.216  25.071 -22.144  1.00  0.00     0.094 A 
ATOM      5  C   UNL     1     -12.725  25.873 -21.108  1.00  0.00     0.142 A 
ATOM      6  C   UNL     1     -11.548  26.628 -21.303  1.00  0.00     0.018 A 
ATOM      7  C   UNL     1     -11.082  27.421 -20.249  1.00  0.00     0.019 A 
ATOM      8  C   UNL     1     -11.788  27.444 -19.047  1.00  0.00     0.094 A 
ATOM      9  C   UNL     1     -12.947  26.669 -18.926  1.00  0.00     0.336 A 
ATOM     10  O   UNL     1     -13.598  26.677 -17.848  1.00  0.00    -0.246 OA
ATOM     11  O   UNL     1     -13.368  25.924 -19.945  1.00  0.00    -0.423 OA
ENDROOT
BRANCH   3  12
ATOM     12  O   UNL     1     -13.020  24.219 -24.410  1.00  0.00    -0.508 OA
ATOM     13  H   UNL     1     -13.868  23.674 -24.311  1.00  0.00     0.293 HD
ENDBRANCH   3  12
TORSDOF 1
ENDMDL
MODEL 9
REMARK VINA RESULT:    -4.831     11.092     13.486
REMARK INTER + INTRA:          -4.972
REMARK INTER:                  -4.972
REMARK INTRA:                   0.000
REMARK UNBOUND:                 0.000
REMARK SMILES O=c1ccc2ccc(O)cc2o1
REMARK SMILES IDX 6 1 7 2 8 3 10 4 11 5 5 6 4 7 3 8 2 9 1 10 12 11 9 12
REMARK H PARENT 9 13
REMARK Flexibility Score: inf
ROOT
ATOM      1  C   UNL     1     -26.591  26.943 -21.482  1.00  0.00     0.016 A 
ATOM      2  C   UNL     1     -25.209  27.151 -21.539  1.00  0.00     0.047 A 
ATOM      3  C   UNL     1     -24.557  27.861 -20.524  1.00  0.00     0.119 A 
ATOM      4  C   UNL     1     -25.292  28.368 -19.442  1.00  0.00     0.094 A 
ATOM      5  C   UNL     1     -26.675  28.165 -19.376  1.00  0.00     0.142 A 
ATOM      6  C   UNL     1     -27.329  27.448 -20.402  1.00  0.00     0.018 A 
ATOM      7  C   UNL     1     -28.711  27.261 -20.309  1.00  0.00     0.019 A 
ATOM      8  C   UNL     1     -29.400  27.783 -19.214  1.00  0.00     0.094 A 
ATOM      9  C   UNL     1     -28.685  28.484 -18.235  1.00  0.00     0.336 A 
ATOM     10  O   UNL     1     -29.289  28.962 -17.239  1.00  0.00    -0.246 OA
ATOM     11  O   UNL     1     -27.369  28.647 -18.349  1.00  0.00    -0.423 OA
ENDROOT
BRANCH   3  12
ATOM     12  O   UNL     1     -23.179  28.057 -20.600  1.00  0.00    -0.508 OA
ATOM     13  H   UNL     1     -22.689  28.037 -21.486  1.00  0.00     0.293 HD
ENDBRANCH   3  12
TORSDOF 1
ENDMDL
