MODEL 1
REMARK VINA RESULT:    48.647      0.000      0.000
REMARK INTER + INTRA:          52.913
REMARK INTER:                  52.913
REMARK INTRA:                   0.000
REMARK UNBOUND:                 0.000
REMARK SMILES Cc1cc(O)c2c(c1)C(=O)c1cc(O)cc(O)c1C2=O
REMARK SMILES IDX 1 1 2 2 8 3 7 4 6 5 4 6 3 7 19 8 20 9 18 10 11 11 9 12 10 13
REMARK SMILES IDX 12 14 13 15 15 16 16 17 5 18 17 20 14 22
REMARK H PARENT 5 19 17 21 14 23
REMARK Flexibility Score: inf
ROOT
ATOM      1  C   UNL     1      13.795 -25.076 -18.278  1.00  0.00     0.044 C 
ATOM      2  C   UNL     1      12.431 -24.626 -17.843  1.00  0.00    -0.047 A 
ATOM      3  C   UNL     1      12.094 -23.269 -17.877  1.00  0.00     0.016 A 
ATOM      4  C   UNL     1      10.807 -22.838 -17.505  1.00  0.00     0.038 A 
ATOM      5  C   UNL     1       9.837 -23.785 -17.105  1.00  0.00     0.076 A 
ATOM      6  C   UNL     1      10.180 -25.159 -17.093  1.00  0.00     0.127 A 
ATOM      7  C   UNL     1      11.467 -25.566 -17.466  1.00  0.00     0.050 A 
ATOM      8  C   UNL     1       8.478 -23.315 -16.712  1.00  0.00     0.201 C 
ATOM      9  O   UNL     1       7.609 -24.152 -16.347  1.00  0.00    -0.288 OA
ATOM     10  C   UNL     1       8.138 -21.865 -16.745  1.00  0.00     0.076 A 
ATOM     11  C   UNL     1       9.120 -20.933 -17.150  1.00  0.00     0.041 A 
ATOM     12  C   UNL     1      10.471 -21.396 -17.537  1.00  0.00     0.194 C 
ATOM     13  O   UNL     1      11.344 -20.556 -17.896  1.00  0.00    -0.289 OA
ATOM     14  C   UNL     1       8.809 -19.562 -17.185  1.00  0.00     0.059 A 
ATOM     15  C   UNL     1       7.538 -19.110 -16.822  1.00  0.00     0.120 A 
ATOM     16  C   UNL     1       6.566 -20.026 -16.422  1.00  0.00     0.093 A 
ATOM     17  C   UNL     1       6.852 -21.396 -16.379  1.00  0.00     0.131 A 
ENDROOT
BRANCH   6  18
ATOM     18  O   UNL     1       9.246 -26.125 -16.715  1.00  0.00    -0.507 OA
ATOM     19  H   UNL     1       9.452 -27.116 -16.771  1.00  0.00     0.293 HD
ENDBRANCH   6  18
BRANCH  17  20
ATOM     20  O   UNL     1       5.855 -22.284 -15.974  1.00  0.00    -0.507 OA
ATOM     21  H   UNL     1       5.135 -22.605 -16.612  1.00  0.00     0.293 HD
ENDBRANCH  17  20
BRANCH  15  22
ATOM     22  O   UNL     1       7.229 -17.752 -16.856  1.00  0.00    -0.508 OA
ATOM     23  H   UNL     1       6.672 -17.354 -17.603  1.00  0.00     0.293 HD
ENDBRANCH  15  22
TORSDOF 3
ENDMDL
MODEL 2
REMARK VINA RESULT:    50.625      1.125      5.485
REMARK INTER + INTRA:          55.064
REMARK INTER:                  55.064
REMARK INTRA:                   0.000
REMARK UNBOUND:                 0.000
REMARK SMILES Cc1cc(O)c2c(c1)C(=O)c1cc(O)cc(O)c1C2=O
REMARK SMILES IDX 1 1 2 2 8 3 7 4 6 5 4 6 3 7 19 8 20 9 18 10 11 11 9 12 10 13
REMARK SMILES IDX 12 14 13 15 15 16 16 17 5 18 17 20 14 22
REMARK H PARENT 5 19 17 21 14 23
REMARK Flexibility Score: inf
ROOT
ATOM      1  C   UNL     1       7.302 -17.613 -16.789  1.00  0.00     0.044 C 
ATOM      2  C   UNL     1       7.589 -19.086 -16.787  1.00  0.00    -0.047 A 
ATOM      3  C   UNL     1       8.846 -19.560 -17.178  1.00  0.00     0.016 A 
ATOM      4  C   UNL     1       9.138 -20.935 -17.146  1.00  0.00     0.038 A 
ATOM      5  C   UNL     1       8.159 -21.852 -16.702  1.00  0.00     0.076 A 
ATOM      6  C   UNL     1       6.896 -21.363 -16.287  1.00  0.00     0.127 A 
ATOM      7  C   UNL     1       6.626 -19.990 -16.328  1.00  0.00     0.050 A 
ATOM      8  C   UNL     1       8.481 -23.307 -16.674  1.00  0.00     0.201 C 
ATOM      9  O   UNL     1       7.610 -24.132 -16.286  1.00  0.00    -0.288 OA
ATOM     10  C   UNL     1       9.822 -23.795 -17.104  1.00  0.00     0.076 A 
ATOM     11  C   UNL     1      10.789 -22.864 -17.543  1.00  0.00     0.041 A 
ATOM     12  C   UNL     1      10.471 -21.419 -17.575  1.00  0.00     0.194 C 
ATOM     13  O   UNL     1      11.341 -20.593 -17.970  1.00  0.00    -0.289 OA
ATOM     14  C   UNL     1      12.057 -23.314 -17.951  1.00  0.00     0.059 A 
ATOM     15  C   UNL     1      12.372 -24.675 -17.926  1.00  0.00     0.120 A 
ATOM     16  C   UNL     1      11.421 -25.598 -17.493  1.00  0.00     0.093 A 
ATOM     17  C   UNL     1      10.151 -25.173 -17.083  1.00  0.00     0.131 A 
ENDROOT
BRANCH   6  18
ATOM     18  O   UNL     1       5.906 -22.236 -15.831  1.00  0.00    -0.507 OA
ATOM     19  H   UNL     1       4.934 -22.121 -16.091  1.00  0.00     0.293 HD
ENDBRANCH   6  18
BRANCH  17  20
ATOM     20  O   UNL     1       9.223 -26.124 -16.655  1.00  0.00    -0.507 OA
ATOM     21  H   UNL     1       8.985 -26.930 -17.222  1.00  0.00     0.293 HD
ENDBRANCH  17  20
BRANCH  15  22
ATOM     22  O   UNL     1      13.629 -25.122 -18.329  1.00  0.00    -0.508 OA
ATOM     23  H   UNL     1      14.466 -24.580 -18.153  1.00  0.00     0.293 HD
ENDBRANCH  15  22
TORSDOF 3
ENDMDL
