MODEL 1
REMARK VINA RESULT:    -8.054      0.000      0.000
REMARK INTER + INTRA:         -14.312
REMARK INTER:                 -13.233
REMARK INTRA:                  -1.079
REMARK UNBOUND:                -1.079
REMARK SMILES COc1ccc([C@H]2CC(=O)c3c(O)cc(O[C@@H]4O[C@H](CO[C@H]5O[C@H](C)[C@@H](O)[C@H](O)[C@@H]5O)[C@H](O)[C@H](O)[C@H]4O)cc3O2)cc1O
REMARK SMILES IDX 19 1 32 2 34 3 36 4 17 5 18 6 20 7 21 8 22 9 25 10 24 11
REMARK SMILES IDX 26 12 23 13 28 14 30 15 27 16 29 18 31 20 33 22 35 24 16 26
REMARK SMILES IDX 15 27 14 28 38 29 12 30 39 31 11 32 40 33 9 34 7 35 10 36
REMARK SMILES IDX 8 37 13 38 6 40 41 41 5 42 42 43 4 44 3 45 43 46 2 48 1 49
REMARK SMILES IDX 37 50
REMARK H PARENT 27 17 29 19 31 21 33 23 35 25 13 39 43 47 37 51
REMARK Flexibility Score: inf
ROOT
ATOM      1  C   UNL     1      -2.768   2.204   8.415  1.00  0.00     0.180 C 
ATOM      2  C   UNL     1      -2.347   3.043   7.170  1.00  0.00     0.177 C 
ATOM      3  C   UNL     1      -0.813   3.132   7.104  1.00  0.00     0.180 C 
ATOM      4  C   UNL     1      -0.278   1.715   7.064  1.00  0.00     0.214 C 
ATOM      5  C   UNL     1      -0.708   0.932   8.371  1.00  0.00     0.339 C 
ATOM      6  O   UNL     1      -1.673   1.640   9.157  1.00  0.00    -0.332 OA
ENDROOT
BRANCH   1   7
ATOM      7  C   UNL     1      -3.907   1.182   8.185  1.00  0.00     0.198 C 
BRANCH   7   8
ATOM      8  O   UNL     1      -4.910   1.290   9.187  1.00  0.00    -0.347 OA
BRANCH   8   9
ATOM      9  C   UNL     1      -5.734   0.147   9.269  1.00  0.00     0.281 C 
ATOM     10  C   UNL     1      -6.409  -2.381   7.480  1.00  0.00     0.041 C 
ATOM     11  C   UNL     1      -5.747  -2.197   8.867  1.00  0.00     0.150 C 
ATOM     12  C   UNL     1      -6.773  -2.330  10.035  1.00  0.00     0.174 C 
ATOM     13  O   UNL     1      -4.972  -0.990   8.916  1.00  0.00    -0.344 OA
ATOM     14  C   UNL     1      -6.350  -1.426  11.205  1.00  0.00     0.179 C 
ATOM     15  C   UNL     1      -6.238   0.038  10.726  1.00  0.00     0.202 C 
BRANCH  12  16
ATOM     16  O   UNL     1      -6.823  -3.661  10.489  1.00  0.00    -0.388 OA
ATOM     17  H   UNL     1      -5.909  -3.922  10.747  1.00  0.00     0.211 HD
ENDBRANCH  12  16
BRANCH  14  18
ATOM     18  O   UNL     1      -7.172  -1.541  12.334  1.00  0.00    -0.387 OA
ATOM     19  H   UNL     1      -7.861  -2.244  12.135  1.00  0.00     0.211 HD
ENDBRANCH  14  18
BRANCH  15  20
ATOM     20  O   UNL     1      -7.453   0.723  10.909  1.00  0.00    -0.385 OA
ATOM     21  H   UNL     1      -7.545   0.952  11.870  1.00  0.00     0.211 HD
ENDBRANCH  15  20
ENDBRANCH   8   9
ENDBRANCH   7   8
ENDBRANCH   1   7
BRANCH   2  22
ATOM     22  O   UNL     1      -2.826   2.472   5.979  1.00  0.00    -0.387 OA
ATOM     23  H   UNL     1      -3.824   2.510   6.007  1.00  0.00     0.211 HD
ENDBRANCH   2  22
BRANCH   3  24
ATOM     24  O   UNL     1      -0.370   3.848   5.978  1.00  0.00    -0.387 OA
ATOM     25  H   UNL     1      -1.065   4.529   5.765  1.00  0.00     0.211 HD
ENDBRANCH   3  24
BRANCH   5  26
ATOM     26  O   UNL     1      -1.111  -0.445   8.194  1.00  0.00    -0.462 OA
BRANCH  26  27
ATOM     27  C   UNL     1      -1.276  -1.423   9.194  1.00  0.00     0.130 A 
ATOM     28  C   UNL     1      -1.679  -2.742   8.890  1.00  0.00     0.093 A 
ATOM     29  C   UNL     1      -1.113  -1.060  10.526  1.00  0.00     0.094 A 
ATOM     30  C   UNL     1      -2.385  -3.477   9.863  1.00  0.00     0.133 A 
ATOM     31  C   UNL     1      -1.836  -1.779  11.498  1.00  0.00     0.138 A 
ATOM     32  C   UNL     1      -2.566  -2.916  11.132  1.00  0.00     0.102 A 
ATOM     33  O   UNL     1      -1.960  -1.302  12.806  1.00  0.00    -0.484 OA
ATOM     34  C   UNL     1      -3.688  -3.279  12.012  1.00  0.00     0.174 C 
ATOM     35  C   UNL     1      -3.228  -1.243  13.463  1.00  0.00     0.211 C 
ATOM     36  O   UNL     1      -4.248  -4.409  11.973  1.00  0.00    -0.294 OA
ATOM     37  C   UNL     1      -4.303  -2.148  12.769  1.00  0.00     0.131 C 
BRANCH  30  38
ATOM     38  O   UNL     1      -2.971  -4.703   9.528  1.00  0.00    -0.507 OA
ATOM     39  H   UNL     1      -3.323  -5.321  10.245  1.00  0.00     0.293 HD
ENDBRANCH  30  38
BRANCH  35  40
ATOM     40  C   UNL     1      -3.706   0.185  13.494  1.00  0.00    -0.003 A 
ATOM     41  C   UNL     1      -3.210   1.113  12.563  1.00  0.00     0.057 A 
ATOM     42  C   UNL     1      -4.640   0.645  14.442  1.00  0.00     0.011 A 
ATOM     43  C   UNL     1      -3.445   2.496  12.709  1.00  0.00     0.158 A 
ATOM     44  C   UNL     1      -4.846   2.006  14.621  1.00  0.00     0.051 A 
ATOM     45  C   UNL     1      -4.201   2.940  13.784  1.00  0.00     0.160 A 
BRANCH  43  46
ATOM     46  O   UNL     1      -2.930   3.408  11.765  1.00  0.00    -0.504 OA
ATOM     47  H   UNL     1      -2.199   3.149  11.116  1.00  0.00     0.293 HD
ENDBRANCH  43  46
BRANCH  45  48
ATOM     48  O   UNL     1      -4.206   4.308  14.062  1.00  0.00    -0.493 OA
ATOM     49  C   UNL     1      -3.050   5.125  13.879  1.00  0.00     0.278 C 
ENDBRANCH  45  48
ENDBRANCH  35  40
ENDBRANCH  26  27
ENDBRANCH   5  26
BRANCH   4  50
ATOM     50  O   UNL     1       1.123   1.731   6.880  1.00  0.00    -0.384 OA
ATOM     51  H   UNL     1       1.301   1.630   5.909  1.00  0.00     0.211 HD
ENDBRANCH   4  50
TORSDOF 15
ENDMDL
MODEL 2
REMARK VINA RESULT:    -7.960      1.789      5.146
REMARK INTER + INTRA:         -14.157
REMARK INTER:                 -13.151
REMARK INTRA:                  -1.005
REMARK UNBOUND:                -1.079
REMARK SMILES COc1ccc([C@H]2CC(=O)c3c(O)cc(O[C@@H]4O[C@H](CO[C@H]5O[C@H](C)[C@@H](O)[C@H](O)[C@@H]5O)[C@H](O)[C@H](O)[C@H]4O)cc3O2)cc1O
REMARK SMILES IDX 19 1 32 2 34 3 36 4 17 5 18 6 20 7 21 8 22 9 25 10 24 11
REMARK SMILES IDX 26 12 23 13 28 14 30 15 27 16 29 18 31 20 33 22 35 24 16 26
REMARK SMILES IDX 15 27 14 28 38 29 12 30 39 31 11 32 40 33 9 34 7 35 10 36
REMARK SMILES IDX 8 37 13 38 6 40 41 41 5 42 42 43 4 44 3 45 43 46 2 48 1 49
REMARK SMILES IDX 37 50
REMARK H PARENT 27 17 29 19 31 21 33 23 35 25 13 39 43 47 37 51
REMARK Flexibility Score: inf
ROOT
ATOM      1  C   UNL     1      -1.966   0.976   7.671  1.00  0.00     0.180 C 
ATOM      2  C   UNL     1      -1.012   1.776   6.733  1.00  0.00     0.177 C 
ATOM      3  C   UNL     1      -1.324   3.278   6.840  1.00  0.00     0.180 C 
ATOM      4  C   UNL     1      -1.176   3.668   8.297  1.00  0.00     0.214 C 
ATOM      5  C   UNL     1      -2.196   2.849   9.188  1.00  0.00     0.339 C 
ATOM      6  O   UNL     1      -2.840   1.789   8.472  1.00  0.00    -0.332 OA
ENDROOT
BRANCH   1   7
ATOM      7  C   UNL     1      -1.307  -0.159   8.492  1.00  0.00     0.198 C 
BRANCH   7   8
ATOM      8  O   UNL     1      -2.153  -1.301   8.567  1.00  0.00    -0.347 OA
BRANCH   8   9
ATOM      9  C   UNL     1      -1.770  -2.205   9.581  1.00  0.00     0.281 C 
ATOM     10  C   UNL     1       0.615  -2.533  11.641  1.00  0.00     0.041 C 
ATOM     11  C   UNL     1      -0.906  -2.295  11.795  1.00  0.00     0.150 C 
ATOM     12  C   UNL     1      -1.698  -3.626  11.984  1.00  0.00     0.174 C 
ATOM     13  O   UNL     1      -1.411  -1.470  10.735  1.00  0.00    -0.344 OA
ATOM     14  C   UNL     1      -3.099  -3.491  11.365  1.00  0.00     0.179 C 
ATOM     15  C   UNL     1      -2.981  -3.122   9.870  1.00  0.00     0.202 C 
BRANCH  12  16
ATOM     16  O   UNL     1      -1.837  -3.918  13.353  1.00  0.00    -0.388 OA
ATOM     17  H   UNL     1      -2.661  -4.446  13.464  1.00  0.00     0.211 HD
ENDBRANCH  12  16
BRANCH  14  18
ATOM     18  O   UNL     1      -3.913  -4.616  11.558  1.00  0.00    -0.387 OA
ATOM     19  H   UNL     1      -4.033  -5.057  10.664  1.00  0.00     0.211 HD
ENDBRANCH  14  18
BRANCH  15  20
ATOM     20  O   UNL     1      -2.963  -4.275   9.065  1.00  0.00    -0.385 OA
ATOM     21  H   UNL     1      -2.283  -4.902   9.425  1.00  0.00     0.211 HD
ENDBRANCH  15  20
ENDBRANCH   8   9
ENDBRANCH   7   8
ENDBRANCH   1   7
BRANCH   2  22
ATOM     22  O   UNL     1       0.336   1.562   7.065  1.00  0.00    -0.387 OA
ATOM     23  H   UNL     1       0.559   0.617   6.830  1.00  0.00     0.211 HD
ENDBRANCH   2  22
BRANCH   3  24
ATOM     24  O   UNL     1      -0.468   4.058   6.042  1.00  0.00    -0.387 OA
ATOM     25  H   UNL     1      -1.041   4.649   5.481  1.00  0.00     0.211 HD
ENDBRANCH   3  24
BRANCH   5  26
ATOM     26  O   UNL     1      -1.704   2.375  10.461  1.00  0.00    -0.462 OA
BRANCH  26  27
ATOM     27  C   UNL     1      -2.462   1.887  11.543  1.00  0.00     0.130 A 
ATOM     28  C   UNL     1      -1.857   1.459  12.746  1.00  0.00     0.093 A 
ATOM     29  C   UNL     1      -3.837   1.748  11.396  1.00  0.00     0.094 A 
ATOM     30  C   UNL     1      -2.506   0.476  13.519  1.00  0.00     0.133 A 
ATOM     31  C   UNL     1      -4.483   0.749  12.151  1.00  0.00     0.138 A 
ATOM     32  C   UNL     1      -3.775   0.038  13.125  1.00  0.00     0.102 A 
ATOM     33  O   UNL     1      -5.789   0.349  11.852  1.00  0.00    -0.484 OA
ATOM     34  C   UNL     1      -4.302  -1.294  13.469  1.00  0.00     0.174 C 
ATOM     35  C   UNL     1      -6.139  -1.031  11.732  1.00  0.00     0.211 C 
ATOM     36  O   UNL     1      -3.946  -1.922  14.504  1.00  0.00    -0.294 OA
ATOM     37  C   UNL     1      -5.075  -1.976  12.389  1.00  0.00     0.131 C 
BRANCH  30  38
ATOM     38  O   UNL     1      -1.846  -0.113  14.604  1.00  0.00    -0.507 OA
ATOM     39  H   UNL     1      -1.045   0.334  15.026  1.00  0.00     0.293 HD
ENDBRANCH  30  38
BRANCH  35  40
ATOM     40  C   UNL     1      -6.297  -1.378  10.274  1.00  0.00    -0.003 A 
ATOM     41  C   UNL     1      -5.779  -0.523   9.287  1.00  0.00     0.057 A 
ATOM     42  C   UNL     1      -6.964  -2.542   9.846  1.00  0.00     0.011 A 
ATOM     43  C   UNL     1      -6.114  -0.685   7.926  1.00  0.00     0.158 A 
ATOM     44  C   UNL     1      -7.335  -2.690   8.517  1.00  0.00     0.051 A 
ATOM     45  C   UNL     1      -6.954  -1.727   7.560  1.00  0.00     0.160 A 
BRANCH  43  46
ATOM     46  O   UNL     1      -5.588   0.191   6.956  1.00  0.00    -0.504 OA
ATOM     47  H   UNL     1      -5.351   1.150   7.174  1.00  0.00     0.293 HD
ENDBRANCH  43  46
BRANCH  45  48
ATOM     48  O   UNL     1      -7.482  -1.720   6.267  1.00  0.00    -0.493 OA
ATOM     49  C   UNL     1      -7.839  -0.510   5.599  1.00  0.00     0.278 C 
ENDBRANCH  45  48
ENDBRANCH  35  40
ENDBRANCH  26  27
ENDBRANCH   5  26
BRANCH   4  50
ATOM     50  O   UNL     1      -1.332   5.066   8.442  1.00  0.00    -0.384 OA
ATOM     51  H   UNL     1      -1.495   5.252   9.403  1.00  0.00     0.211 HD
ENDBRANCH   4  50
TORSDOF 15
ENDMDL
MODEL 3
REMARK VINA RESULT:    -7.941      1.765      5.146
REMARK INTER + INTRA:         -14.127
REMARK INTER:                 -12.884
REMARK INTRA:                  -1.242
REMARK UNBOUND:                -1.079
REMARK SMILES COc1ccc([C@H]2CC(=O)c3c(O)cc(O[C@@H]4O[C@H](CO[C@H]5O[C@H](C)[C@@H](O)[C@H](O)[C@@H]5O)[C@H](O)[C@H](O)[C@H]4O)cc3O2)cc1O
REMARK SMILES IDX 19 1 32 2 34 3 36 4 17 5 18 6 20 7 21 8 22 9 25 10 24 11
REMARK SMILES IDX 26 12 23 13 28 14 30 15 27 16 29 18 31 20 33 22 35 24 16 26
REMARK SMILES IDX 15 27 14 28 38 29 12 30 39 31 11 32 40 33 9 34 7 35 10 36
REMARK SMILES IDX 8 37 13 38 6 40 41 41 5 42 42 43 4 44 3 45 43 46 2 48 1 49
REMARK SMILES IDX 37 50
REMARK H PARENT 27 17 29 19 31 21 33 23 35 25 13 39 43 47 37 51
REMARK Flexibility Score: inf
ROOT
ATOM      1  C   UNL     1      -1.485   1.813   8.809  1.00  0.00     0.180 C 
ATOM      2  C   UNL     1      -0.982   3.040   7.989  1.00  0.00     0.177 C 
ATOM      3  C   UNL     1      -1.274   2.815   6.495  1.00  0.00     0.180 C 
ATOM      4  C   UNL     1      -2.765   2.588   6.355  1.00  0.00     0.214 C 
ATOM      5  C   UNL     1      -3.202   1.309   7.179  1.00  0.00     0.339 C 
ATOM      6  O   UNL     1      -2.167   0.812   8.034  1.00  0.00    -0.332 OA
ENDROOT
BRANCH   1   7
ATOM      7  C   UNL     1      -2.229   2.143  10.125  1.00  0.00     0.198 C 
BRANCH   7   8
ATOM      8  O   UNL     1      -1.572   1.568  11.249  1.00  0.00    -0.347 OA
BRANCH   8   9
ATOM      9  C   UNL     1      -2.416   1.435  12.373  1.00  0.00     0.281 C 
ATOM     10  C   UNL     1      -5.027   2.823  13.513  1.00  0.00     0.041 C 
ATOM     11  C   UNL     1      -4.706   1.394  13.013  1.00  0.00     0.150 C 
ATOM     12  C   UNL     1      -4.300   0.437  14.177  1.00  0.00     0.174 C 
ATOM     13  O   UNL     1      -3.760   1.422  11.934  1.00  0.00    -0.344 OA
ATOM     14  C   UNL     1      -3.292  -0.606  13.666  1.00  0.00     0.179 C 
ATOM     15  C   UNL     1      -2.055   0.104  13.073  1.00  0.00     0.202 C 
BRANCH  12  16
ATOM     16  O   UNL     1      -5.433  -0.236  14.670  1.00  0.00    -0.388 OA
ATOM     17  H   UNL     1      -5.520  -1.079  14.169  1.00  0.00     0.211 HD
ENDBRANCH  12  16
BRANCH  14  18
ATOM     18  O   UNL     1      -2.930  -1.560  14.626  1.00  0.00    -0.387 OA
ATOM     19  H   UNL     1      -3.772  -1.865  15.081  1.00  0.00     0.211 HD
ENDBRANCH  14  18
BRANCH  15  20
ATOM     20  O   UNL     1      -1.059   0.284  14.049  1.00  0.00    -0.385 OA
ATOM     21  H   UNL     1      -1.412  -0.029  14.922  1.00  0.00     0.211 HD
ENDBRANCH  15  20
ENDBRANCH   8   9
ENDBRANCH   7   8
ENDBRANCH   1   7
BRANCH   2  22
ATOM     22  O   UNL     1      -1.605   4.228   8.406  1.00  0.00    -0.387 OA
ATOM     23  H   UNL     1      -1.641   4.842   7.618  1.00  0.00     0.211 HD
ENDBRANCH   2  22
BRANCH   3  24
ATOM     24  O   UNL     1      -0.875   3.908   5.705  1.00  0.00    -0.387 OA
ATOM     25  H   UNL     1      -0.570   4.627   6.323  1.00  0.00     0.211 HD
ENDBRANCH   3  24
BRANCH   5  26
ATOM     26  O   UNL     1      -4.453   1.402   7.897  1.00  0.00    -0.462 OA
BRANCH  26  27
ATOM     27  C   UNL     1      -5.164   0.355   8.514  1.00  0.00     0.130 A 
ATOM     28  C   UNL     1      -6.354   0.586   9.240  1.00  0.00     0.093 A 
ATOM     29  C   UNL     1      -4.641  -0.932   8.475  1.00  0.00     0.094 A 
ATOM     30  C   UNL     1      -6.691  -0.294  10.287  1.00  0.00     0.133 A 
ATOM     31  C   UNL     1      -4.959  -1.806   9.533  1.00  0.00     0.138 A 
ATOM     32  C   UNL     1      -5.896  -1.425  10.500  1.00  0.00     0.102 A 
ATOM     33  O   UNL     1      -4.252  -2.996   9.724  1.00  0.00    -0.484 OA
ATOM     34  C   UNL     1      -5.784  -2.087  11.810  1.00  0.00     0.174 C 
ATOM     35  C   UNL     1      -3.738  -3.363  11.006  1.00  0.00     0.211 C 
ATOM     36  O   UNL     1      -6.706  -2.058  12.670  1.00  0.00    -0.294 OA
ATOM     37  C   UNL     1      -4.416  -2.566  12.172  1.00  0.00     0.131 C 
BRANCH  30  38
ATOM     38  O   UNL     1      -7.748   0.016  11.151  1.00  0.00    -0.507 OA
ATOM     39  H   UNL     1      -7.573   0.259  12.116  1.00  0.00     0.293 HD
ENDBRANCH  30  38
BRANCH  35  40
ATOM     40  C   UNL     1      -2.249  -3.132  11.028  1.00  0.00    -0.003 A 
ATOM     41  C   UNL     1      -1.658  -2.264  10.095  1.00  0.00     0.057 A 
ATOM     42  C   UNL     1      -1.403  -3.769  11.957  1.00  0.00     0.011 A 
ATOM     43  C   UNL     1      -0.258  -2.208   9.929  1.00  0.00     0.158 A 
ATOM     44  C   UNL     1      -0.027  -3.755  11.777  1.00  0.00     0.051 A 
ATOM     45  C   UNL     1       0.546  -3.014  10.723  1.00  0.00     0.160 A 
BRANCH  43  46
ATOM     46  O   UNL     1       0.310  -1.335   8.980  1.00  0.00    -0.504 OA
ATOM     47  H   UNL     1       0.846  -1.676   8.193  1.00  0.00     0.293 HD
ENDBRANCH  43  46
BRANCH  45  48
ATOM     48  O   UNL     1       1.892  -3.144  10.373  1.00  0.00    -0.493 OA
ATOM     49  C   UNL     1       2.325  -3.169   9.013  1.00  0.00     0.278 C 
ENDBRANCH  45  48
ENDBRANCH  35  40
ENDBRANCH  26  27
ENDBRANCH   5  26
BRANCH   4  50
ATOM     50  O   UNL     1      -3.114   2.495   4.987  1.00  0.00    -0.384 OA
ATOM     51  H   UNL     1      -3.981   2.962   4.866  1.00  0.00     0.211 HD
ENDBRANCH   4  50
TORSDOF 15
ENDMDL
MODEL 4
REMARK VINA RESULT:    -7.742      1.559      6.335
REMARK INTER + INTRA:         -13.800
REMARK INTER:                 -12.116
REMARK INTRA:                  -1.684
REMARK UNBOUND:                -1.079
REMARK SMILES COc1ccc([C@H]2CC(=O)c3c(O)cc(O[C@@H]4O[C@H](CO[C@H]5O[C@H](C)[C@@H](O)[C@H](O)[C@@H]5O)[C@H](O)[C@H](O)[C@H]4O)cc3O2)cc1O
REMARK SMILES IDX 19 1 32 2 34 3 36 4 17 5 18 6 20 7 21 8 22 9 25 10 24 11
REMARK SMILES IDX 26 12 23 13 28 14 30 15 27 16 29 18 31 20 33 22 35 24 16 26
REMARK SMILES IDX 15 27 14 28 38 29 12 30 39 31 11 32 40 33 9 34 7 35 10 36
REMARK SMILES IDX 8 37 13 38 6 40 41 41 5 42 42 43 4 44 3 45 43 46 2 48 1 49
REMARK SMILES IDX 37 50
REMARK H PARENT 27 17 29 19 31 21 33 23 35 25 13 39 43 47 37 51
REMARK Flexibility Score: inf
ROOT
ATOM      1  C   UNL     1      -5.651  -3.055   9.127  1.00  0.00     0.180 C 
ATOM      2  C   UNL     1      -5.244  -2.029   8.027  1.00  0.00     0.177 C 
ATOM      3  C   UNL     1      -6.066  -0.740   8.196  1.00  0.00     0.180 C 
ATOM      4  C   UNL     1      -5.815  -0.224   9.599  1.00  0.00     0.214 C 
ATOM      5  C   UNL     1      -6.284  -1.296  10.666  1.00  0.00     0.339 C 
ATOM      6  O   UNL     1      -6.606  -2.564  10.083  1.00  0.00    -0.332 OA
ENDROOT
BRANCH   1   7
ATOM      7  C   UNL     1      -4.484  -3.815   9.803  1.00  0.00     0.198 C 
BRANCH   7   8
ATOM      8  O   UNL     1      -3.302  -3.757   9.012  1.00  0.00    -0.347 OA
BRANCH   8   9
ATOM      9  C   UNL     1      -2.138  -3.528   9.777  1.00  0.00     0.281 C 
ATOM     10  C   UNL     1       0.764  -2.339   9.319  1.00  0.00     0.041 C 
ATOM     11  C   UNL     1      -0.443  -1.911  10.188  1.00  0.00     0.150 C 
ATOM     12  C   UNL     1      -0.351  -2.467  11.643  1.00  0.00     0.174 C 
ATOM     13  O   UNL     1      -1.685  -2.211   9.534  1.00  0.00    -0.344 OA
ATOM     14  C   UNL     1      -1.764  -2.729  12.191  1.00  0.00     0.179 C 
ATOM     15  C   UNL     1      -2.513  -3.713  11.265  1.00  0.00     0.202 C 
BRANCH  12  16
ATOM     16  O   UNL     1       0.290  -1.535  12.479  1.00  0.00    -0.388 OA
ATOM     17  H   UNL     1      -0.373  -1.212  13.131  1.00  0.00     0.211 HD
ENDBRANCH  12  16
BRANCH  14  18
ATOM     18  O   UNL     1      -1.783  -3.156  13.525  1.00  0.00    -0.387 OA
ATOM     19  H   UNL     1      -2.005  -4.135  13.525  1.00  0.00     0.211 HD
ENDBRANCH  14  18
BRANCH  15  20
ATOM     20  O   UNL     1      -2.329  -5.042  11.687  1.00  0.00    -0.385 OA
ATOM     21  H   UNL     1      -3.163  -5.549  11.507  1.00  0.00     0.211 HD
ENDBRANCH  15  20
ENDBRANCH   8   9
ENDBRANCH   7   8
ENDBRANCH   1   7
BRANCH   2  22
ATOM     22  O   UNL     1      -3.877  -1.715   8.095  1.00  0.00    -0.387 OA
ATOM     23  H   UNL     1      -3.548  -1.592   7.160  1.00  0.00     0.211 HD
ENDBRANCH   2  22
BRANCH   3  24
ATOM     24  O   UNL     1      -5.717   0.242   7.252  1.00  0.00    -0.387 OA
ATOM     25  H   UNL     1      -4.851  -0.032   6.843  1.00  0.00     0.211 HD
ENDBRANCH   3  24
BRANCH   5  26
ATOM     26  O   UNL     1      -5.432  -1.471  11.820  1.00  0.00    -0.462 OA
BRANCH  26  27
ATOM     27  C   UNL     1      -4.637  -0.495  12.452  1.00  0.00     0.130 A 
ATOM     28  C   UNL     1      -5.152   0.348  13.463  1.00  0.00     0.093 A 
ATOM     29  C   UNL     1      -3.332  -0.302  12.017  1.00  0.00     0.094 A 
ATOM     30  C   UNL     1      -4.583   1.625  13.635  1.00  0.00     0.133 A 
ATOM     31  C   UNL     1      -2.769   0.981  12.167  1.00  0.00     0.138 A 
ATOM     32  C   UNL     1      -3.460   1.971  12.876  1.00  0.00     0.102 A 
ATOM     33  O   UNL     1      -1.593   1.338  11.502  1.00  0.00    -0.484 OA
ATOM     34  C   UNL     1      -3.119   3.364  12.544  1.00  0.00     0.174 C 
ATOM     35  C   UNL     1      -1.491   2.559  10.767  1.00  0.00     0.211 C 
ATOM     36  O   UNL     1      -3.443   4.339  13.277  1.00  0.00    -0.294 OA
ATOM     37  C   UNL     1      -2.606   3.588  11.160  1.00  0.00     0.131 C 
BRANCH  30  38
ATOM     38  O   UNL     1      -5.193   2.556  14.484  1.00  0.00    -0.507 OA
ATOM     39  H   UNL     1      -4.649   3.275  14.938  1.00  0.00     0.293 HD
ENDBRANCH  30  38
BRANCH  35  40
ATOM     40  C   UNL     1      -1.570   2.259   9.292  1.00  0.00    -0.003 A 
ATOM     41  C   UNL     1      -0.973   3.129   8.365  1.00  0.00     0.057 A 
ATOM     42  C   UNL     1      -2.239   1.126   8.790  1.00  0.00     0.011 A 
ATOM     43  C   UNL     1      -1.228   3.015   6.982  1.00  0.00     0.158 A 
ATOM     44  C   UNL     1      -2.532   1.027   7.437  1.00  0.00     0.051 A 
ATOM     45  C   UNL     1      -2.070   2.007   6.534  1.00  0.00     0.160 A 
BRANCH  43  46
ATOM     46  O   UNL     1      -0.624   3.906   6.072  1.00  0.00    -0.504 OA
ATOM     47  H   UNL     1       0.166   3.634   5.503  1.00  0.00     0.293 HD
ENDBRANCH  43  46
BRANCH  45  48
ATOM     48  O   UNL     1      -2.519   2.066   5.213  1.00  0.00    -0.493 OA
ATOM     49  C   UNL     1      -3.905   2.158   4.885  1.00  0.00     0.278 C 
ENDBRANCH  45  48
ENDBRANCH  35  40
ENDBRANCH  26  27
ENDBRANCH   5  26
BRANCH   4  50
ATOM     50  O   UNL     1      -6.450   1.027   9.776  1.00  0.00    -0.384 OA
ATOM     51  H   UNL     1      -7.114   0.927  10.506  1.00  0.00     0.211 HD
ENDBRANCH   4  50
TORSDOF 15
ENDMDL
MODEL 5
REMARK VINA RESULT:    -7.605      1.629      5.977
REMARK INTER + INTRA:         -13.574
REMARK INTER:                 -11.947
REMARK INTRA:                  -1.627
REMARK UNBOUND:                -1.079
REMARK SMILES COc1ccc([C@H]2CC(=O)c3c(O)cc(O[C@@H]4O[C@H](CO[C@H]5O[C@H](C)[C@@H](O)[C@H](O)[C@@H]5O)[C@H](O)[C@H](O)[C@H]4O)cc3O2)cc1O
REMARK SMILES IDX 19 1 32 2 34 3 36 4 17 5 18 6 20 7 21 8 22 9 25 10 24 11
REMARK SMILES IDX 26 12 23 13 28 14 30 15 27 16 29 18 31 20 33 22 35 24 16 26
REMARK SMILES IDX 15 27 14 28 38 29 12 30 39 31 11 32 40 33 9 34 7 35 10 36
REMARK SMILES IDX 8 37 13 38 6 40 41 41 5 42 42 43 4 44 3 45 43 46 2 48 1 49
REMARK SMILES IDX 37 50
REMARK H PARENT 27 17 29 19 31 21 33 23 35 25 13 39 43 47 37 51
REMARK Flexibility Score: inf
ROOT
ATOM      1  C   UNL     1      -0.973  -2.383  12.623  1.00  0.00     0.180 C 
ATOM      2  C   UNL     1      -0.227  -1.615  11.490  1.00  0.00     0.177 C 
ATOM      3  C   UNL     1      -0.433  -2.345  10.152  1.00  0.00     0.180 C 
ATOM      4  C   UNL     1      -1.926  -2.439   9.912  1.00  0.00     0.214 C 
ATOM      5  C   UNL     1      -2.615  -3.261  11.076  1.00  0.00     0.339 C 
ATOM      6  O   UNL     1      -1.737  -3.517  12.178  1.00  0.00    -0.332 OA
ENDROOT
BRANCH   1   7
ATOM      7  C   UNL     1      -1.758  -1.505  13.628  1.00  0.00     0.198 C 
BRANCH   7   8
ATOM      8  O   UNL     1      -1.301  -0.158  13.604  1.00  0.00    -0.347 OA
BRANCH   8   9
ATOM      9  C   UNL     1      -2.354   0.782  13.656  1.00  0.00     0.281 C 
ATOM     10  C   UNL     1      -2.818   3.818  12.875  1.00  0.00     0.041 C 
ATOM     11  C   UNL     1      -3.424   2.482  12.383  1.00  0.00     0.150 C 
ATOM     12  C   UNL     1      -4.747   2.122  13.129  1.00  0.00     0.174 C 
ATOM     13  O   UNL     1      -2.447   1.431  12.403  1.00  0.00    -0.344 OA
ATOM     14  C   UNL     1      -4.883   0.595  13.240  1.00  0.00     0.179 C 
ATOM     15  C   UNL     1      -3.655   0.008  13.971  1.00  0.00     0.202 C 
BRANCH  12  16
ATOM     16  O   UNL     1      -5.855   2.623  12.421  1.00  0.00    -0.388 OA
ATOM     17  H   UNL     1      -5.525   3.312  11.800  1.00  0.00     0.211 HD
ENDBRANCH  12  16
BRANCH  14  18
ATOM     18  O   UNL     1      -6.084   0.175  13.827  1.00  0.00    -0.387 OA
ATOM     19  H   UNL     1      -5.865  -0.575  14.459  1.00  0.00     0.211 HD
ENDBRANCH  14  18
BRANCH  15  20
ATOM     20  O   UNL     1      -3.885  -0.079  15.355  1.00  0.00    -0.385 OA
ATOM     21  H   UNL     1      -3.812  -1.030  15.629  1.00  0.00     0.211 HD
ENDBRANCH  15  20
ENDBRANCH   8   9
ENDBRANCH   7   8
ENDBRANCH   1   7
BRANCH   2  22
ATOM     22  O   UNL     1      -0.693  -0.295  11.370  1.00  0.00    -0.387 OA
ATOM     23  H   UNL     1      -0.046   0.298  11.846  1.00  0.00     0.211 HD
ENDBRANCH   2  22
BRANCH   3  24
ATOM     24  O   UNL     1       0.187  -1.677   9.081  1.00  0.00    -0.387 OA
ATOM     25  H   UNL     1       0.806  -2.324   8.645  1.00  0.00     0.211 HD
ENDBRANCH   3  24
BRANCH   5  26
ATOM     26  O   UNL     1      -3.889  -2.767  11.548  1.00  0.00    -0.462 OA
BRANCH  26  27
ATOM     27  C   UNL     1      -4.880  -2.105  10.797  1.00  0.00     0.130 A 
ATOM     28  C   UNL     1      -5.865  -2.811  10.072  1.00  0.00     0.093 A 
ATOM     29  C   UNL     1      -4.842  -0.719  10.704  1.00  0.00     0.094 A 
ATOM     30  C   UNL     1      -6.419  -2.214   8.923  1.00  0.00     0.133 A 
ATOM     31  C   UNL     1      -5.376  -0.121   9.545  1.00  0.00     0.138 A 
ATOM     32  C   UNL     1      -6.057  -0.901   8.604  1.00  0.00     0.102 A 
ATOM     33  O   UNL     1      -5.118   1.218   9.238  1.00  0.00    -0.484 OA
ATOM     34  C   UNL     1      -6.098  -0.373   7.230  1.00  0.00     0.174 C 
ATOM     35  C   UNL     1      -4.682   1.616   7.937  1.00  0.00     0.211 C 
ATOM     36  O   UNL     1      -6.895  -0.810   6.355  1.00  0.00    -0.294 OA
ATOM     37  C   UNL     1      -4.963   0.521   6.852  1.00  0.00     0.131 C 
BRANCH  30  38
ATOM     38  O   UNL     1      -7.244  -2.960   8.073  1.00  0.00    -0.507 OA
ATOM     39  H   UNL     1      -7.630  -2.549   7.235  1.00  0.00     0.293 HD
ENDBRANCH  30  38
BRANCH  35  40
ATOM     40  C   UNL     1      -3.208   1.926   7.979  1.00  0.00    -0.003 A 
ATOM     41  C   UNL     1      -2.646   2.801   7.036  1.00  0.00     0.057 A 
ATOM     42  C   UNL     1      -2.348   1.357   8.939  1.00  0.00     0.011 A 
ATOM     43  C   UNL     1      -1.248   2.927   6.893  1.00  0.00     0.158 A 
ATOM     44  C   UNL     1      -0.971   1.440   8.783  1.00  0.00     0.051 A 
ATOM     45  C   UNL     1      -0.418   2.184   7.720  1.00  0.00     0.160 A 
BRANCH  43  46
ATOM     46  O   UNL     1      -0.708   3.806   5.933  1.00  0.00    -0.504 OA
ATOM     47  H   UNL     1      -0.565   3.526   4.972  1.00  0.00     0.293 HD
ENDBRANCH  43  46
BRANCH  45  48
ATOM     48  O   UNL     1       0.939   2.117   7.398  1.00  0.00    -0.493 OA
ATOM     49  C   UNL     1       1.565   0.901   6.992  1.00  0.00     0.278 C 
ENDBRANCH  45  48
ENDBRANCH  35  40
ENDBRANCH  26  27
ENDBRANCH   5  26
BRANCH   4  50
ATOM     50  O   UNL     1      -2.177  -2.994   8.636  1.00  0.00    -0.384 OA
ATOM     51  H   UNL     1      -1.930  -2.314   7.958  1.00  0.00     0.211 HD
ENDBRANCH   4  50
TORSDOF 15
ENDMDL
MODEL 6
REMARK VINA RESULT:    -7.453      1.746      4.797
REMARK INTER + INTRA:         -13.324
REMARK INTER:                 -11.605
REMARK INTRA:                  -1.719
REMARK UNBOUND:                -1.079
REMARK SMILES COc1ccc([C@H]2CC(=O)c3c(O)cc(O[C@@H]4O[C@H](CO[C@H]5O[C@H](C)[C@@H](O)[C@H](O)[C@@H]5O)[C@H](O)[C@H](O)[C@H]4O)cc3O2)cc1O
REMARK SMILES IDX 19 1 32 2 34 3 36 4 17 5 18 6 20 7 21 8 22 9 25 10 24 11
REMARK SMILES IDX 26 12 23 13 28 14 30 15 27 16 29 18 31 20 33 22 35 24 16 26
REMARK SMILES IDX 15 27 14 28 38 29 12 30 39 31 11 32 40 33 9 34 7 35 10 36
REMARK SMILES IDX 8 37 13 38 6 40 41 41 5 42 42 43 4 44 3 45 43 46 2 48 1 49
REMARK SMILES IDX 37 50
REMARK H PARENT 27 17 29 19 31 21 33 23 35 25 13 39 43 47 37 51
REMARK Flexibility Score: inf
ROOT
ATOM      1  C   UNL     1      -5.708   1.051  13.092  1.00  0.00     0.180 C 
ATOM      2  C   UNL     1      -4.937   2.112  12.250  1.00  0.00     0.177 C 
ATOM      3  C   UNL     1      -3.492   2.227  12.765  1.00  0.00     0.180 C 
ATOM      4  C   UNL     1      -2.870   0.848  12.682  1.00  0.00     0.214 C 
ATOM      5  C   UNL     1      -3.677  -0.170  13.587  1.00  0.00     0.339 C 
ATOM      6  O   UNL     1      -4.910   0.369  14.075  1.00  0.00    -0.332 OA
ENDROOT
BRANCH   1   7
ATOM      7  C   UNL     1      -6.607   0.078  12.291  1.00  0.00     0.198 C 
BRANCH   7   8
ATOM      8  O   UNL     1      -6.975   0.633  11.033  1.00  0.00    -0.347 OA
BRANCH   8   9
ATOM      9  C   UNL     1      -6.940  -0.311   9.983  1.00  0.00     0.281 C 
ATOM     10  C   UNL     1      -6.675  -0.285   6.825  1.00  0.00     0.041 C 
ATOM     11  C   UNL     1      -5.794  -0.844   7.969  1.00  0.00     0.150 C 
ATOM     12  C   UNL     1      -6.095  -2.346   8.268  1.00  0.00     0.174 C 
ATOM     13  O   UNL     1      -5.856  -0.002   9.129  1.00  0.00    -0.344 OA
ATOM     14  C   UNL     1      -5.868  -2.635   9.761  1.00  0.00     0.179 C 
ATOM     15  C   UNL     1      -6.758  -1.708  10.618  1.00  0.00     0.202 C 
BRANCH  12  16
ATOM     16  O   UNL     1      -5.241  -3.171   7.514  1.00  0.00    -0.388 OA
ATOM     17  H   UNL     1      -5.651  -4.065   7.470  1.00  0.00     0.211 HD
ENDBRANCH  12  16
BRANCH  14  18
ATOM     18  O   UNL     1      -6.038  -3.982  10.108  1.00  0.00    -0.387 OA
ATOM     19  H   UNL     1      -6.846  -4.041  10.701  1.00  0.00     0.211 HD
ENDBRANCH  14  18
BRANCH  15  20
ATOM     20  O   UNL     1      -7.994  -2.316  10.901  1.00  0.00    -0.385 OA
ATOM     21  H   UNL     1      -8.373  -2.672  10.055  1.00  0.00     0.211 HD
ENDBRANCH  15  20
ENDBRANCH   8   9
ENDBRANCH   7   8
ENDBRANCH   1   7
BRANCH   2  22
ATOM     22  O   UNL     1      -4.913   1.769  10.888  1.00  0.00    -0.387 OA
ATOM     23  H   UNL     1      -3.959   1.625  10.629  1.00  0.00     0.211 HD
ENDBRANCH   2  22
BRANCH   3  24
ATOM     24  O   UNL     1      -2.732   3.145  12.019  1.00  0.00    -0.387 OA
ATOM     25  H   UNL     1      -3.255   3.368  11.201  1.00  0.00     0.211 HD
ENDBRANCH   3  24
BRANCH   5  26
ATOM     26  O   UNL     1      -3.882  -1.494  13.043  1.00  0.00    -0.462 OA
BRANCH  26  27
ATOM     27  C   UNL     1      -3.026  -2.207  12.183  1.00  0.00     0.130 A 
ATOM     28  C   UNL     1      -1.954  -2.987  12.673  1.00  0.00     0.093 A 
ATOM     29  C   UNL     1      -3.189  -2.078  10.809  1.00  0.00     0.094 A 
ATOM     30  C   UNL     1      -0.823  -3.175  11.855  1.00  0.00     0.133 A 
ATOM     31  C   UNL     1      -2.054  -2.243   9.991  1.00  0.00     0.138 A 
ATOM     32  C   UNL     1      -0.845  -2.676  10.548  1.00  0.00     0.102 A 
ATOM     33  O   UNL     1      -2.064  -1.847   8.651  1.00  0.00    -0.484 OA
ATOM     34  C   UNL     1       0.377  -2.313   9.812  1.00  0.00     0.174 C 
ATOM     35  C   UNL     1      -1.014  -1.052   8.098  1.00  0.00     0.211 C 
ATOM     36  O   UNL     1       1.493  -2.858  10.031  1.00  0.00    -0.294 OA
ATOM     37  C   UNL     1       0.281  -1.075   8.980  1.00  0.00     0.131 C 
BRANCH  30  38
ATOM     38  O   UNL     1       0.331  -3.768  12.379  1.00  0.00    -0.507 OA
ATOM     39  H   UNL     1       0.419  -4.773  12.430  1.00  0.00     0.293 HD
ENDBRANCH  30  38
BRANCH  35  40
ATOM     40  C   UNL     1      -1.496   0.367   7.938  1.00  0.00    -0.003 A 
ATOM     41  C   UNL     1      -0.730   1.292   7.210  1.00  0.00     0.057 A 
ATOM     42  C   UNL     1      -2.703   0.819   8.506  1.00  0.00     0.011 A 
ATOM     43  C   UNL     1      -1.022   2.672   7.240  1.00  0.00     0.158 A 
ATOM     44  C   UNL     1      -2.978   2.178   8.578  1.00  0.00     0.051 A 
ATOM     45  C   UNL     1      -2.104   3.114   7.989  1.00  0.00     0.160 A 
BRANCH  43  46
ATOM     46  O   UNL     1      -0.234   3.582   6.508  1.00  0.00    -0.504 OA
ATOM     47  H   UNL     1      -0.526   4.537   6.351  1.00  0.00     0.293 HD
ENDBRANCH  43  46
BRANCH  45  48
ATOM     48  O   UNL     1      -2.223   4.486   8.223  1.00  0.00    -0.493 OA
ATOM     49  C   UNL     1      -1.596   5.125   9.334  1.00  0.00     0.278 C 
ENDBRANCH  45  48
ENDBRANCH  35  40
ENDBRANCH  26  27
ENDBRANCH   5  26
BRANCH   4  50
ATOM     50  O   UNL     1      -1.501   0.912  13.029  1.00  0.00    -0.384 OA
ATOM     51  H   UNL     1      -1.273   1.866  13.178  1.00  0.00     0.211 HD
ENDBRANCH   4  50
TORSDOF 15
ENDMDL
MODEL 7
REMARK VINA RESULT:    -7.201      1.874      6.689
REMARK INTER + INTRA:         -12.910
REMARK INTER:                 -11.367
REMARK INTRA:                  -1.543
REMARK UNBOUND:                -1.079
REMARK SMILES COc1ccc([C@H]2CC(=O)c3c(O)cc(O[C@@H]4O[C@H](CO[C@H]5O[C@H](C)[C@@H](O)[C@H](O)[C@@H]5O)[C@H](O)[C@H](O)[C@H]4O)cc3O2)cc1O
REMARK SMILES IDX 19 1 32 2 34 3 36 4 17 5 18 6 20 7 21 8 22 9 25 10 24 11
REMARK SMILES IDX 26 12 23 13 28 14 30 15 27 16 29 18 31 20 33 22 35 24 16 26
REMARK SMILES IDX 15 27 14 28 38 29 12 30 39 31 11 32 40 33 9 34 7 35 10 36
REMARK SMILES IDX 8 37 13 38 6 40 41 41 5 42 42 43 4 44 3 45 43 46 2 48 1 49
REMARK SMILES IDX 37 50
REMARK H PARENT 27 17 29 19 31 21 33 23 35 25 13 39 43 47 37 51
REMARK Flexibility Score: inf
ROOT
ATOM      1  C   UNL     1      -5.185   0.046  13.680  1.00  0.00     0.180 C 
ATOM      2  C   UNL     1      -5.726  -0.740  12.446  1.00  0.00     0.177 C 
ATOM      3  C   UNL     1      -6.430   0.232  11.484  1.00  0.00     0.180 C 
ATOM      4  C   UNL     1      -5.425   1.300  11.104  1.00  0.00     0.214 C 
ATOM      5  C   UNL     1      -4.946   2.084  12.394  1.00  0.00     0.339 C 
ATOM      6  O   UNL     1      -5.376   1.470  13.614  1.00  0.00    -0.332 OA
ENDROOT
BRANCH   1   7
ATOM      7  C   UNL     1      -3.760  -0.333  14.148  1.00  0.00     0.198 C 
BRANCH   7   8
ATOM      8  O   UNL     1      -3.669  -1.719  14.457  1.00  0.00    -0.347 OA
BRANCH   8   9
ATOM      9  C   UNL     1      -2.550  -2.344  13.865  1.00  0.00     0.281 C 
ATOM     10  C   UNL     1      -1.934  -5.017  12.277  1.00  0.00     0.041 C 
ATOM     11  C   UNL     1      -1.862  -3.514  11.912  1.00  0.00     0.150 C 
ATOM     12  C   UNL     1      -0.436  -2.919  12.132  1.00  0.00     0.174 C 
ATOM     13  O   UNL     1      -2.903  -2.772  12.564  1.00  0.00    -0.344 OA
ATOM     14  C   UNL     1      -0.547  -1.439  12.535  1.00  0.00     0.179 C 
ATOM     15  C   UNL     1      -1.409  -1.302  13.808  1.00  0.00     0.202 C 
BRANCH  12  16
ATOM     16  O   UNL     1       0.315  -3.009  10.947  1.00  0.00    -0.388 OA
ATOM     17  H   UNL     1       0.240  -2.145  10.480  1.00  0.00     0.211 HD
ENDBRANCH  12  16
BRANCH  14  18
ATOM     18  O   UNL     1       0.691  -0.797  12.676  1.00  0.00    -0.387 OA
ATOM     19  H   UNL     1       1.338  -1.471  13.046  1.00  0.00     0.211 HD
ENDBRANCH  14  18
BRANCH  15  20
ATOM     20  O   UNL     1      -0.611  -1.342  14.966  1.00  0.00    -0.385 OA
ATOM     21  H   UNL     1      -1.200  -1.250  15.759  1.00  0.00     0.211 HD
ENDBRANCH  15  20
ENDBRANCH   8   9
ENDBRANCH   7   8
ENDBRANCH   1   7
BRANCH   2  22
ATOM     22  O   UNL     1      -4.690  -1.396  11.760  1.00  0.00    -0.387 OA
ATOM     23  H   UNL     1      -4.683  -1.051  10.823  1.00  0.00     0.211 HD
ENDBRANCH   2  22
BRANCH   3  24
ATOM     24  O   UNL     1      -6.908  -0.414  10.331  1.00  0.00    -0.387 OA
ATOM     25  H   UNL     1      -6.787   0.212   9.566  1.00  0.00     0.211 HD
ENDBRANCH   3  24
BRANCH   5  26
ATOM     26  O   UNL     1      -3.542   2.417  12.461  1.00  0.00    -0.462 OA
BRANCH  26  27
ATOM     27  C   UNL     1      -2.555   2.163  11.489  1.00  0.00     0.130 A 
ATOM     28  C   UNL     1      -1.993   3.197  10.706  1.00  0.00     0.093 A 
ATOM     29  C   UNL     1      -2.178   0.849  11.237  1.00  0.00     0.094 A 
ATOM     30  C   UNL     1      -1.508   2.886   9.421  1.00  0.00     0.133 A 
ATOM     31  C   UNL     1      -1.714   0.532   9.945  1.00  0.00     0.138 A 
ATOM     32  C   UNL     1      -1.499   1.549   9.008  1.00  0.00     0.102 A 
ATOM     33  O   UNL     1      -1.596  -0.795   9.525  1.00  0.00    -0.484 OA
ATOM     34  C   UNL     1      -1.556   1.150   7.592  1.00  0.00     0.174 C 
ATOM     35  C   UNL     1      -2.125  -1.232   8.271  1.00  0.00     0.211 C 
ATOM     36  O   UNL     1      -1.115   1.877   6.660  1.00  0.00    -0.294 OA
ATOM     37  C   UNL     1      -2.408  -0.040   7.294  1.00  0.00     0.131 C 
BRANCH  30  38
ATOM     38  O   UNL     1      -1.133   3.912   8.546  1.00  0.00    -0.507 OA
ATOM     39  H   UNL     1      -1.309   4.879   8.776  1.00  0.00     0.293 HD
ENDBRANCH  30  38
BRANCH  35  40
ATOM     40  C   UNL     1      -3.394  -2.009   8.510  1.00  0.00    -0.003 A 
ATOM     41  C   UNL     1      -4.588  -1.612   7.887  1.00  0.00     0.057 A 
ATOM     42  C   UNL     1      -3.439  -3.134   9.356  1.00  0.00     0.011 A 
ATOM     43  C   UNL     1      -5.832  -2.158   8.270  1.00  0.00     0.158 A 
ATOM     44  C   UNL     1      -4.658  -3.651   9.771  1.00  0.00     0.051 A 
ATOM     45  C   UNL     1      -5.864  -3.123   9.266  1.00  0.00     0.160 A 
BRANCH  43  46
ATOM     46  O   UNL     1      -7.018  -1.737   7.636  1.00  0.00    -0.504 OA
ATOM     47  H   UNL     1      -7.015  -1.341   6.705  1.00  0.00     0.293 HD
ENDBRANCH  43  46
BRANCH  45  48
ATOM     48  O   UNL     1      -7.105  -3.460   9.812  1.00  0.00    -0.493 OA
ATOM     49  C   UNL     1      -7.310  -3.571  11.220  1.00  0.00     0.278 C 
ENDBRANCH  45  48
ENDBRANCH  35  40
ENDBRANCH  26  27
ENDBRANCH   5  26
BRANCH   4  50
ATOM     50  O   UNL     1      -5.977   2.157  10.124  1.00  0.00    -0.384 OA
ATOM     51  H   UNL     1      -5.667   3.079  10.323  1.00  0.00     0.211 HD
ENDBRANCH   4  50
TORSDOF 15
ENDMDL
MODEL 8
REMARK VINA RESULT:    -7.052      1.756      5.990
REMARK INTER + INTRA:         -12.666
REMARK INTER:                 -10.441
REMARK INTRA:                  -2.225
REMARK UNBOUND:                -1.079
REMARK SMILES COc1ccc([C@H]2CC(=O)c3c(O)cc(O[C@@H]4O[C@H](CO[C@H]5O[C@H](C)[C@@H](O)[C@H](O)[C@@H]5O)[C@H](O)[C@H](O)[C@H]4O)cc3O2)cc1O
REMARK SMILES IDX 19 1 32 2 34 3 36 4 17 5 18 6 20 7 21 8 22 9 25 10 24 11
REMARK SMILES IDX 26 12 23 13 28 14 30 15 27 16 29 18 31 20 33 22 35 24 16 26
REMARK SMILES IDX 15 27 14 28 38 29 12 30 39 31 11 32 40 33 9 34 7 35 10 36
REMARK SMILES IDX 8 37 13 38 6 40 41 41 5 42 42 43 4 44 3 45 43 46 2 48 1 49
REMARK SMILES IDX 37 50
REMARK H PARENT 27 17 29 19 31 21 33 23 35 25 13 39 43 47 37 51
REMARK Flexibility Score: inf
ROOT
ATOM      1  C   UNL     1      -5.980  -2.920  10.402  1.00  0.00     0.180 C 
ATOM      2  C   UNL     1      -4.494  -3.127  10.827  1.00  0.00     0.177 C 
ATOM      3  C   UNL     1      -3.650  -3.485   9.593  1.00  0.00     0.180 C 
ATOM      4  C   UNL     1      -3.821  -2.365   8.587  1.00  0.00     0.214 C 
ATOM      5  C   UNL     1      -5.342  -2.234   8.169  1.00  0.00     0.339 C 
ATOM      6  O   UNL     1      -6.218  -3.018   8.987  1.00  0.00    -0.332 OA
ENDROOT
BRANCH   1   7
ATOM      7  C   UNL     1      -6.698  -1.704  11.034  1.00  0.00     0.198 C 
BRANCH   7   8
ATOM      8  O   UNL     1      -6.768  -1.823  12.450  1.00  0.00    -0.347 OA
BRANCH   8   9
ATOM      9  C   UNL     1      -6.446  -0.624  13.122  1.00  0.00     0.281 C 
ATOM     10  C   UNL     1      -4.890   0.241  15.743  1.00  0.00     0.041 C 
ATOM     11  C   UNL     1      -4.663   0.490  14.233  1.00  0.00     0.150 C 
ATOM     12  C   UNL     1      -5.289   1.838  13.754  1.00  0.00     0.174 C 
ATOM     13  O   UNL     1      -5.071  -0.643  13.454  1.00  0.00    -0.344 OA
ATOM     14  C   UNL     1      -5.751   1.707  12.294  1.00  0.00     0.179 C 
ATOM     15  C   UNL     1      -6.762   0.547  12.163  1.00  0.00     0.202 C 
BRANCH  12  16
ATOM     16  O   UNL     1      -4.337   2.870  13.835  1.00  0.00    -0.388 OA
ATOM     17  H   UNL     1      -4.696   3.561  14.437  1.00  0.00     0.211 HD
ENDBRANCH  12  16
BRANCH  14  18
ATOM     18  O   UNL     1      -6.256   2.897  11.752  1.00  0.00    -0.387 OA
ATOM     19  H   UNL     1      -7.046   2.656  11.181  1.00  0.00     0.211 HD
ENDBRANCH  14  18
BRANCH  15  20
ATOM     20  O   UNL     1      -8.082   1.007  12.323  1.00  0.00    -0.385 OA
ATOM     21  H   UNL     1      -8.632   0.267  12.691  1.00  0.00     0.211 HD
ENDBRANCH  15  20
ENDBRANCH   8   9
ENDBRANCH   7   8
ENDBRANCH   1   7
BRANCH   2  22
ATOM     22  O   UNL     1      -3.965  -1.972  11.427  1.00  0.00    -0.387 OA
ATOM     23  H   UNL     1      -4.317  -1.928  12.361  1.00  0.00     0.211 HD
ENDBRANCH   2  22
BRANCH   3  24
ATOM     24  O   UNL     1      -2.289  -3.648   9.908  1.00  0.00    -0.387 OA
ATOM     25  H   UNL     1      -2.209  -4.467  10.469  1.00  0.00     0.211 HD
ENDBRANCH   3  24
BRANCH   5  26
ATOM     26  O   UNL     1      -5.856  -0.891   8.019  1.00  0.00    -0.462 OA
BRANCH  26  27
ATOM     27  C   UNL     1      -5.141   0.317   8.142  1.00  0.00     0.130 A 
ATOM     28  C   UNL     1      -4.771   1.084   7.015  1.00  0.00     0.093 A 
ATOM     29  C   UNL     1      -4.719   0.726   9.401  1.00  0.00     0.094 A 
ATOM     30  C   UNL     1      -3.620   1.891   7.092  1.00  0.00     0.133 A 
ATOM     31  C   UNL     1      -3.554   1.515   9.482  1.00  0.00     0.138 A 
ATOM     32  C   UNL     1      -2.946   1.990   8.315  1.00  0.00     0.102 A 
ATOM     33  O   UNL     1      -2.903   1.719  10.701  1.00  0.00    -0.484 OA
ATOM     34  C   UNL     1      -1.512   2.308   8.412  1.00  0.00     0.174 C 
ATOM     35  C   UNL     1      -1.492   1.540  10.835  1.00  0.00     0.211 C 
ATOM     36  O   UNL     1      -0.905   2.995   7.545  1.00  0.00    -0.294 OA
ATOM     37  C   UNL     1      -0.755   1.549   9.452  1.00  0.00     0.131 C 
BRANCH  30  38
ATOM     38  O   UNL     1      -3.114   2.505   5.940  1.00  0.00    -0.507 OA
ATOM     39  H   UNL     1      -3.736   2.866   5.231  1.00  0.00     0.293 HD
ENDBRANCH  30  38
BRANCH  35  40
ATOM     40  C   UNL     1      -1.221   0.241  11.549  1.00  0.00    -0.003 A 
ATOM     41  C   UNL     1      -0.438  -0.749  10.934  1.00  0.00     0.057 A 
ATOM     42  C   UNL     1      -1.737  -0.034  12.830  1.00  0.00     0.011 A 
ATOM     43  C   UNL     1      -0.363  -2.056  11.459  1.00  0.00     0.158 A 
ATOM     44  C   UNL     1      -1.705  -1.326  13.336  1.00  0.00     0.051 A 
ATOM     45  C   UNL     1      -1.062  -2.356  12.620  1.00  0.00     0.160 A 
BRANCH  43  46
ATOM     46  O   UNL     1       0.423  -3.035  10.819  1.00  0.00    -0.504 OA
ATOM     47  H   UNL     1       0.957  -3.718  11.340  1.00  0.00     0.293 HD
ENDBRANCH  43  46
BRANCH  45  48
ATOM     48  O   UNL     1      -1.192  -3.699  12.978  1.00  0.00    -0.493 OA
ATOM     49  C   UNL     1      -2.465  -4.325  13.133  1.00  0.00     0.278 C 
ENDBRANCH  45  48
ENDBRANCH  35  40
ENDBRANCH  26  27
ENDBRANCH   5  26
BRANCH   4  50
ATOM     50  O   UNL     1      -2.972  -2.578   7.476  1.00  0.00    -0.384 OA
ATOM     51  H   UNL     1      -3.515  -2.999   6.760  1.00  0.00     0.211 HD
ENDBRANCH   4  50
TORSDOF 15
ENDMDL
MODEL 9
REMARK VINA RESULT:    -6.901      1.704      5.120
REMARK INTER + INTRA:         -12.417
REMARK INTER:                  -9.463
REMARK INTRA:                  -2.954
REMARK UNBOUND:                -1.079
REMARK SMILES COc1ccc([C@H]2CC(=O)c3c(O)cc(O[C@@H]4O[C@H](CO[C@H]5O[C@H](C)[C@@H](O)[C@H](O)[C@@H]5O)[C@H](O)[C@H](O)[C@H]4O)cc3O2)cc1O
REMARK SMILES IDX 19 1 32 2 34 3 36 4 17 5 18 6 20 7 21 8 22 9 25 10 24 11
REMARK SMILES IDX 26 12 23 13 28 14 30 15 27 16 29 18 31 20 33 22 35 24 16 26
REMARK SMILES IDX 15 27 14 28 38 29 12 30 39 31 11 32 40 33 9 34 7 35 10 36
REMARK SMILES IDX 8 37 13 38 6 40 41 41 5 42 42 43 4 44 3 45 43 46 2 48 1 49
REMARK SMILES IDX 37 50
REMARK H PARENT 27 17 29 19 31 21 33 23 35 25 13 39 43 47 37 51
REMARK Flexibility Score: inf
ROOT
ATOM      1  C   UNL     1      -2.078  -3.112  12.681  1.00  0.00     0.180 C 
ATOM      2  C   UNL     1      -2.660  -1.713  13.048  1.00  0.00     0.177 C 
ATOM      3  C   UNL     1      -1.509  -0.747  13.376  1.00  0.00     0.180 C 
ATOM      4  C   UNL     1      -0.596  -0.702  12.168  1.00  0.00     0.214 C 
ATOM      5  C   UNL     1      -0.011  -2.144  11.873  1.00  0.00     0.339 C 
ATOM      6  O   UNL     1      -0.641  -3.173  12.643  1.00  0.00    -0.332 OA
ENDROOT
BRANCH   1   7
ATOM      7  C   UNL     1      -2.726  -3.812  11.462  1.00  0.00     0.198 C 
BRANCH   7   8
ATOM      8  O   UNL     1      -4.045  -4.255  11.761  1.00  0.00    -0.347 OA
BRANCH   8   9
ATOM      9  C   UNL     1      -4.994  -3.850  10.797  1.00  0.00     0.281 C 
ATOM     10  C   UNL     1      -7.853  -2.483  10.762  1.00  0.00     0.041 C 
ATOM     11  C   UNL     1      -6.460  -2.065  10.233  1.00  0.00     0.150 C 
ATOM     12  C   UNL     1      -6.255  -2.453   8.735  1.00  0.00     0.174 C 
ATOM     13  O   UNL     1      -5.415  -2.534  11.097  1.00  0.00    -0.344 OA
ATOM     14  C   UNL     1      -4.773  -2.769   8.477  1.00  0.00     0.179 C 
ATOM     15  C   UNL     1      -4.306  -3.905   9.414  1.00  0.00     0.202 C 
BRANCH  12  16
ATOM     16  O   UNL     1      -6.640  -1.387   7.901  1.00  0.00    -0.388 OA
ATOM     17  H   UNL     1      -5.822  -1.007   7.506  1.00  0.00     0.211 HD
ENDBRANCH  12  16
BRANCH  14  18
ATOM     18  O   UNL     1      -4.480  -3.051   7.136  1.00  0.00    -0.387 OA
ATOM     19  H   UNL     1      -5.253  -3.573   6.762  1.00  0.00     0.211 HD
ENDBRANCH  14  18
BRANCH  15  20
ATOM     20  O   UNL     1      -4.467  -5.162   8.803  1.00  0.00    -0.385 OA
ATOM     21  H   UNL     1      -3.907  -5.823   9.288  1.00  0.00     0.211 HD
ENDBRANCH  15  20
ENDBRANCH   8   9
ENDBRANCH   7   8
ENDBRANCH   1   7
BRANCH   2  22
ATOM     22  O   UNL     1      -3.421  -1.180  11.994  1.00  0.00    -0.387 OA
ATOM     23  H   UNL     1      -3.594  -0.218  12.204  1.00  0.00     0.211 HD
ENDBRANCH   2  22
BRANCH   3  24
ATOM     24  O   UNL     1      -1.971   0.546  13.680  1.00  0.00    -0.387 OA
ATOM     25  H   UNL     1      -2.925   0.466  13.953  1.00  0.00     0.211 HD
ENDBRANCH   3  24
BRANCH   5  26
ATOM     26  O   UNL     1       0.078  -2.532  10.484  1.00  0.00    -0.462 OA
BRANCH  26  27
ATOM     27  C   UNL     1      -0.236  -1.749   9.356  1.00  0.00     0.130 A 
ATOM     28  C   UNL     1       0.765  -1.208   8.519  1.00  0.00     0.093 A 
ATOM     29  C   UNL     1      -1.566  -1.435   9.102  1.00  0.00     0.094 A 
ATOM     30  C   UNL     1       0.493  -0.016   7.820  1.00  0.00     0.133 A 
ATOM     31  C   UNL     1      -1.841  -0.231   8.422  1.00  0.00     0.138 A 
ATOM     32  C   UNL     1      -0.793   0.529   7.892  1.00  0.00     0.102 A 
ATOM     33  O   UNL     1      -3.133   0.300   8.387  1.00  0.00    -0.484 OA
ATOM     34  C   UNL     1      -1.063   1.964   7.702  1.00  0.00     0.174 C 
ATOM     35  C   UNL     1      -3.386   1.673   8.693  1.00  0.00     0.211 C 
ATOM     36  O   UNL     1      -0.335   2.707   6.989  1.00  0.00    -0.294 OA
ATOM     37  C   UNL     1      -2.090   2.550   8.615  1.00  0.00     0.131 C 
BRANCH  30  38
ATOM     38  O   UNL     1       1.521   0.651   7.145  1.00  0.00    -0.507 OA
ATOM     39  H   UNL     1       2.454   0.267   7.112  1.00  0.00     0.293 HD
ENDBRANCH  30  38
BRANCH  35  40
ATOM     40  C   UNL     1      -3.988   1.772  10.071  1.00  0.00    -0.003 A 
ATOM     41  C   UNL     1      -3.328   2.500  11.075  1.00  0.00     0.057 A 
ATOM     42  C   UNL     1      -5.204   1.147  10.407  1.00  0.00     0.011 A 
ATOM     43  C   UNL     1      -3.729   2.417  12.425  1.00  0.00     0.158 A 
ATOM     44  C   UNL     1      -5.585   1.023  11.736  1.00  0.00     0.051 A 
ATOM     45  C   UNL     1      -4.813   1.616  12.757  1.00  0.00     0.160 A 
BRANCH  43  46
ATOM     46  O   UNL     1      -3.046   3.150  13.416  1.00  0.00    -0.504 OA
ATOM     47  H   UNL     1      -3.250   3.039  14.400  1.00  0.00     0.293 HD
ENDBRANCH  43  46
BRANCH  45  48
ATOM     48  O   UNL     1      -5.033   1.337  14.107  1.00  0.00    -0.493 OA
ATOM     49  C   UNL     1      -5.293   0.015  14.578  1.00  0.00     0.278 C 
ENDBRANCH  45  48
ENDBRANCH  35  40
ENDBRANCH  26  27
ENDBRANCH   5  26
BRANCH   4  50
ATOM     50  O   UNL     1       0.418   0.263  12.363  1.00  0.00    -0.384 OA
ATOM     51  H   UNL     1       0.098   1.118  11.975  1.00  0.00     0.211 HD
ENDBRANCH   4  50
TORSDOF 15
ENDMDL
