MODEL 1
REMARK VINA RESULT:    -8.520      0.000      0.000
REMARK INTER + INTRA:         -13.969
REMARK INTER:                 -13.252
REMARK INTRA:                  -0.717
REMARK UNBOUND:                -0.717
REMARK SMILES C[C@]12C[C@]3(O)O[C@H](O1)[C@@]1(COC(=O)c4ccccc4)[C@@H]3C[C@]12O[C@@H]1O[C@H](CO)[C@@H](O)[C@H](O)[C@@H]1O
REMARK SMILES IDX 1 1 2 2 3 3 4 4 20 5 21 6 22 7 9 8 7 9 8 10 6 11 23 12 24 13
REMARK SMILES IDX 33 14 25 15 31 16 26 17 29 18 34 19 32 21 27 23 28 24 30 26
REMARK SMILES IDX 5 28 10 30 11 31 12 32 13 33 14 34 15 35 19 36 16 37 18 38
REMARK SMILES IDX 17 39
REMARK H PARENT 34 20 32 22 28 25 30 27 5 29
REMARK Flexibility Score: inf
ROOT
ATOM      1  C   UNL     1     163.629 150.757 151.691  1.00  0.00     0.046 C 
ATOM      2  C   UNL     1     164.128 152.075 152.282  1.00  0.00     0.104 C 
ATOM      3  C   UNL     1     164.720 151.876 153.726  1.00  0.00     0.104 C 
ATOM      4  C   UNL     1     165.232 153.309 154.117  1.00  0.00     0.175 C 
ATOM      5  C   UNL     1     166.103 153.921 152.969  1.00  0.00     0.070 C 
ATOM      6  C   UNL     1     166.614 152.864 151.982  1.00  0.00     0.050 C 
ATOM      7  C   UNL     1     165.183 152.845 151.399  1.00  0.00     0.115 C 
ATOM      8  C   UNL     1     164.977 154.240 151.995  1.00  0.00     0.096 C 
ATOM      9  C   UNL     1     163.688 154.197 152.794  1.00  0.00     0.267 C 
ATOM     10  O   UNL     1     163.053 152.984 152.430  1.00  0.00    -0.342 OA
ATOM     11  O   UNL     1     164.081 154.128 154.155  1.00  0.00    -0.320 OA
ENDROOT
BRANCH   7  12
ATOM     12  O   UNL     1     165.017 152.796 149.988  1.00  0.00    -0.339 OA
BRANCH  12  13
ATOM     13  C   UNL     1     165.618 151.636 149.424  1.00  0.00     0.282 C 
ATOM     14  C   UNL     1     164.824 151.130 148.185  1.00  0.00     0.202 C 
ATOM     15  O   UNL     1     167.007 151.865 149.196  1.00  0.00    -0.341 OA
ATOM     16  C   UNL     1     165.799 150.620 147.120  1.00  0.00     0.179 C 
ATOM     17  C   UNL     1     167.341 152.478 147.954  1.00  0.00     0.178 C 
ATOM     18  C   UNL     1     166.751 151.757 146.702  1.00  0.00     0.177 C 
BRANCH  14  19
ATOM     19  O   UNL     1     164.009 152.155 147.669  1.00  0.00    -0.385 OA
ATOM     20  H   UNL     1     163.309 152.340 148.348  1.00  0.00     0.211 HD
ENDBRANCH  14  19
BRANCH  16  21
ATOM     21  O   UNL     1     165.131 150.059 146.021  1.00  0.00    -0.387 OA
ATOM     22  H   UNL     1     164.398 150.678 145.761  1.00  0.00     0.211 HD
ENDBRANCH  16  21
BRANCH  17  23
ATOM     23  C   UNL     1     167.110 154.001 147.973  1.00  0.00     0.191 C 
BRANCH  23  24
ATOM     24  O   UNL     1     166.182 154.393 146.998  1.00  0.00    -0.394 OA
ATOM     25  H   UNL     1     165.281 154.259 147.398  1.00  0.00     0.210 HD
ENDBRANCH  23  24
ENDBRANCH  17  23
BRANCH  18  26
ATOM     26  O   UNL     1     167.779 151.262 145.877  1.00  0.00    -0.387 OA
ATOM     27  H   UNL     1     168.223 150.516 146.360  1.00  0.00     0.211 HD
ENDBRANCH  18  26
ENDBRANCH  12  13
ENDBRANCH   7  12
BRANCH   4  28
ATOM     28  O   UNL     1     165.888 153.321 155.355  1.00  0.00    -0.365 OA
ATOM     29  H   UNL     1     166.200 154.252 155.503  1.00  0.00     0.214 HD
ENDBRANCH   4  28
BRANCH   8  30
ATOM     30  C   UNL     1     165.179 155.455 151.069  1.00  0.00     0.249 C 
BRANCH  30  31
ATOM     31  O   UNL     1     164.765 156.654 151.723  1.00  0.00    -0.461 OA
BRANCH  31  32
ATOM     32  C   UNL     1     165.647 157.564 152.318  1.00  0.00     0.338 C 
ATOM     33  O   UNL     1     165.958 157.446 153.535  1.00  0.00    -0.246 OA
BRANCH  32  34
ATOM     34  C   UNL     1     166.218 158.664 151.513  1.00  0.00     0.060 A 
ATOM     35  C   UNL     1     165.542 159.133 150.372  1.00  0.00     0.015 A 
ATOM     36  C   UNL     1     167.441 159.260 151.874  1.00  0.00     0.015 A 
ATOM     37  C   UNL     1     166.081 160.172 149.608  1.00  0.00     0.001 A 
ATOM     38  C   UNL     1     167.974 160.301 151.107  1.00  0.00     0.001 A 
ATOM     39  C   UNL     1     167.296 160.755 149.976  1.00  0.00     0.000 A 
ENDBRANCH  32  34
ENDBRANCH  31  32
ENDBRANCH  30  31
ENDBRANCH   8  30
TORSDOF 12
ENDMDL
MODEL 2
REMARK VINA RESULT:    -7.803      4.670      9.164
REMARK INTER + INTRA:         -12.854
REMARK INTER:                 -11.741
REMARK INTRA:                  -1.112
REMARK UNBOUND:                -0.717
REMARK SMILES C[C@]12C[C@]3(O)O[C@H](O1)[C@@]1(COC(=O)c4ccccc4)[C@@H]3C[C@]12O[C@@H]1O[C@H](CO)[C@@H](O)[C@H](O)[C@@H]1O
REMARK SMILES IDX 1 1 2 2 3 3 4 4 20 5 21 6 22 7 9 8 7 9 8 10 6 11 23 12 24 13
REMARK SMILES IDX 33 14 25 15 31 16 26 17 29 18 34 19 32 21 27 23 28 24 30 26
REMARK SMILES IDX 5 28 10 30 11 31 12 32 13 33 14 34 15 35 19 36 16 37 18 38
REMARK SMILES IDX 17 39
REMARK H PARENT 34 20 32 22 28 25 30 27 5 29
REMARK Flexibility Score: inf
ROOT
ATOM      1  C   UNL     1     165.874 152.191 150.084  1.00  0.00     0.046 C 
ATOM      2  C   UNL     1     165.173 151.470 148.933  1.00  0.00     0.104 C 
ATOM      3  C   UNL     1     163.857 152.215 148.498  1.00  0.00     0.104 C 
ATOM      4  C   UNL     1     163.339 151.369 147.279  1.00  0.00     0.175 C 
ATOM      5  C   UNL     1     164.492 151.110 146.252  1.00  0.00     0.070 C 
ATOM      6  C   UNL     1     165.672 152.074 146.427  1.00  0.00     0.050 C 
ATOM      7  C   UNL     1     166.066 151.226 147.657  1.00  0.00     0.115 C 
ATOM      8  C   UNL     1     165.262 150.071 147.055  1.00  0.00     0.096 C 
ATOM      9  C   UNL     1     164.321 149.574 148.136  1.00  0.00     0.267 C 
ATOM     10  O   UNL     1     164.766 150.177 149.339  1.00  0.00    -0.342 OA
ATOM     11  O   UNL     1     163.042 150.090 147.801  1.00  0.00    -0.320 OA
ENDROOT
BRANCH   7  12
ATOM     12  O   UNL     1     167.439 150.918 147.867  1.00  0.00    -0.339 OA
BRANCH  12  13
ATOM     13  C   UNL     1     168.289 151.684 147.020  1.00  0.00     0.282 C 
ATOM     14  C   UNL     1     169.029 152.798 147.815  1.00  0.00     0.202 C 
ATOM     15  O   UNL     1     169.136 150.820 146.266  1.00  0.00    -0.341 OA
ATOM     16  C   UNL     1     170.458 152.949 147.286  1.00  0.00     0.179 C 
ATOM     17  C   UNL     1     170.348 150.425 146.902  1.00  0.00     0.178 C 
ATOM     18  C   UNL     1     171.209 151.612 147.436  1.00  0.00     0.177 C 
BRANCH  14  19
ATOM     19  O   UNL     1     169.033 152.502 149.191  1.00  0.00    -0.385 OA
ATOM     20  H   UNL     1     168.148 152.107 149.407  1.00  0.00     0.211 HD
ENDBRANCH  14  19
BRANCH  16  21
ATOM     21  O   UNL     1     171.138 154.010 147.903  1.00  0.00    -0.387 OA
ATOM     22  H   UNL     1     170.548 154.809 147.873  1.00  0.00     0.211 HD
ENDBRANCH  16  21
BRANCH  17  23
ATOM     23  C   UNL     1     170.131 149.293 147.923  1.00  0.00     0.191 C 
BRANCH  23  24
ATOM     24  O   UNL     1     169.229 148.333 147.444  1.00  0.00    -0.394 OA
ATOM     25  H   UNL     1     169.083 147.688 148.187  1.00  0.00     0.210 HD
ENDBRANCH  23  24
ENDBRANCH  17  23
BRANCH  18  26
ATOM     26  O   UNL     1     172.452 151.668 146.777  1.00  0.00    -0.387 OA
ATOM     27  H   UNL     1     172.651 152.623 146.586  1.00  0.00     0.211 HD
ENDBRANCH  18  26
ENDBRANCH  12  13
ENDBRANCH   7  12
BRANCH   4  28
ATOM     28  O   UNL     1     162.204 151.935 146.683  1.00  0.00    -0.365 OA
ATOM     29  H   UNL     1     161.563 152.127 147.417  1.00  0.00     0.214 HD
ENDBRANCH   4  28
BRANCH   8  30
ATOM     30  C   UNL     1     166.029 149.000 146.255  1.00  0.00     0.249 C 
BRANCH  30  31
ATOM     31  O   UNL     1     166.182 147.813 147.033  1.00  0.00    -0.461 OA
BRANCH  31  32
ATOM     32  C   UNL     1     166.545 146.571 146.499  1.00  0.00     0.338 C 
ATOM     33  O   UNL     1     167.718 146.378 146.076  1.00  0.00    -0.246 OA
BRANCH  32  34
ATOM     34  C   UNL     1     165.549 145.482 146.435  1.00  0.00     0.060 A 
ATOM     35  C   UNL     1     165.954 144.164 146.159  1.00  0.00     0.015 A 
ATOM     36  C   UNL     1     164.182 145.744 146.652  1.00  0.00     0.015 A 
ATOM     37  C   UNL     1     165.013 143.132 146.096  1.00  0.00     0.001 A 
ATOM     38  C   UNL     1     163.245 144.707 146.591  1.00  0.00     0.001 A 
ATOM     39  C   UNL     1     163.660 143.404 146.312  1.00  0.00     0.000 A 
ENDBRANCH  32  34
ENDBRANCH  31  32
ENDBRANCH  30  31
ENDBRANCH   8  30
TORSDOF 12
ENDMDL
MODEL 3
REMARK VINA RESULT:    -7.787      3.916      7.226
REMARK INTER + INTRA:         -12.829
REMARK INTER:                 -12.238
REMARK INTRA:                  -0.591
REMARK UNBOUND:                -0.717
REMARK SMILES C[C@]12C[C@]3(O)O[C@H](O1)[C@@]1(COC(=O)c4ccccc4)[C@@H]3C[C@]12O[C@@H]1O[C@H](CO)[C@@H](O)[C@H](O)[C@@H]1O
REMARK SMILES IDX 1 1 2 2 3 3 4 4 20 5 21 6 22 7 9 8 7 9 8 10 6 11 23 12 24 13
REMARK SMILES IDX 33 14 25 15 31 16 26 17 29 18 34 19 32 21 27 23 28 24 30 26
REMARK SMILES IDX 5 28 10 30 11 31 12 32 13 33 14 34 15 35 19 36 16 37 18 38
REMARK SMILES IDX 17 39
REMARK H PARENT 34 20 32 22 28 25 30 27 5 29
REMARK Flexibility Score: inf
ROOT
ATOM      1  C   UNL     1     171.938 149.535 148.495  1.00  0.00     0.046 C 
ATOM      2  C   UNL     1     171.013 150.735 148.294  1.00  0.00     0.104 C 
ATOM      3  C   UNL     1     171.754 151.924 147.578  1.00  0.00     0.104 C 
ATOM      4  C   UNL     1     170.631 153.010 147.405  1.00  0.00     0.175 C 
ATOM      5  C   UNL     1     169.339 152.379 146.785  1.00  0.00     0.070 C 
ATOM      6  C   UNL     1     169.605 151.034 146.098  1.00  0.00     0.050 C 
ATOM      7  C   UNL     1     169.677 150.426 147.517  1.00  0.00     0.115 C 
ATOM      8  C   UNL     1     168.862 151.621 148.016  1.00  0.00     0.096 C 
ATOM      9  C   UNL     1     169.607 152.205 149.201  1.00  0.00     0.267 C 
ATOM     10  O   UNL     1     170.591 151.244 149.545  1.00  0.00    -0.342 OA
ATOM     11  O   UNL     1     170.247 153.374 148.715  1.00  0.00    -0.320 OA
ENDROOT
BRANCH   7  12
ATOM     12  O   UNL     1     169.056 149.169 147.758  1.00  0.00    -0.339 OA
BRANCH  12  13
ATOM     13  C   UNL     1     169.408 148.206 146.771  1.00  0.00     0.282 C 
ATOM     14  C   UNL     1     170.038 146.938 147.414  1.00  0.00     0.202 C 
ATOM     15  O   UNL     1     168.297 147.956 145.912  1.00  0.00    -0.341 OA
ATOM     16  C   UNL     1     169.567 145.689 146.663  1.00  0.00     0.179 C 
ATOM     17  C   UNL     1     167.376 146.966 146.358  1.00  0.00     0.178 C 
ATOM     18  C   UNL     1     168.031 145.597 146.723  1.00  0.00     0.177 C 
BRANCH  14  19
ATOM     19  O   UNL     1     169.702 146.858 148.779  1.00  0.00    -0.385 OA
ATOM     20  H   UNL     1     170.296 147.489 149.263  1.00  0.00     0.211 HD
ENDBRANCH  14  19
BRANCH  16  21
ATOM     21  O   UNL     1     170.186 144.523 147.141  1.00  0.00    -0.387 OA
ATOM     22  H   UNL     1     170.820 144.787 147.859  1.00  0.00     0.211 HD
ENDBRANCH  16  21
BRANCH  17  23
ATOM     23  C   UNL     1     166.406 147.506 147.425  1.00  0.00     0.191 C 
BRANCH  23  24
ATOM     24  O   UNL     1     165.508 146.518 147.852  1.00  0.00    -0.394 OA
ATOM     25  H   UNL     1     165.616 145.752 147.227  1.00  0.00     0.210 HD
ENDBRANCH  23  24
ENDBRANCH  17  23
BRANCH  18  26
ATOM     26  O   UNL     1     167.564 144.574 145.875  1.00  0.00    -0.387 OA
ATOM     27  H   UNL     1     166.572 144.569 145.924  1.00  0.00     0.211 HD
ENDBRANCH  18  26
ENDBRANCH  12  13
ENDBRANCH   7  12
BRANCH   4  28
ATOM     28  O   UNL     1     171.079 154.130 146.692  1.00  0.00    -0.365 OA
ATOM     29  H   UNL     1     172.022 154.280 146.961  1.00  0.00     0.214 HD
ENDBRANCH   4  28
BRANCH   8  30
ATOM     30  C   UNL     1     167.340 151.438 148.175  1.00  0.00     0.249 C 
BRANCH  30  31
ATOM     31  O   UNL     1     166.834 152.321 149.176  1.00  0.00    -0.461 OA
BRANCH  31  32
ATOM     32  C   UNL     1     165.847 151.967 150.104  1.00  0.00     0.338 C 
ATOM     33  O   UNL     1     164.873 151.246 149.753  1.00  0.00    -0.246 OA
BRANCH  32  34
ATOM     34  C   UNL     1     165.952 152.440 151.500  1.00  0.00     0.060 A 
ATOM     35  C   UNL     1     165.008 152.032 152.459  1.00  0.00     0.015 A 
ATOM     36  C   UNL     1     166.994 153.300 151.891  1.00  0.00     0.015 A 
ATOM     37  C   UNL     1     165.104 152.479 153.780  1.00  0.00     0.001 A 
ATOM     38  C   UNL     1     167.087 153.742 153.215  1.00  0.00     0.001 A 
ATOM     39  C   UNL     1     166.142 153.333 154.157  1.00  0.00     0.000 A 
ENDBRANCH  32  34
ENDBRANCH  31  32
ENDBRANCH  30  31
ENDBRANCH   8  30
TORSDOF 12
ENDMDL
MODEL 4
REMARK VINA RESULT:    -7.702      9.935     13.864
REMARK INTER + INTRA:         -12.697
REMARK INTER:                 -11.194
REMARK INTRA:                  -1.503
REMARK UNBOUND:                -0.717
REMARK SMILES C[C@]12C[C@]3(O)O[C@H](O1)[C@@]1(COC(=O)c4ccccc4)[C@@H]3C[C@]12O[C@@H]1O[C@H](CO)[C@@H](O)[C@H](O)[C@@H]1O
REMARK SMILES IDX 1 1 2 2 3 3 4 4 20 5 21 6 22 7 9 8 7 9 8 10 6 11 23 12 24 13
REMARK SMILES IDX 33 14 25 15 31 16 26 17 29 18 34 19 32 21 27 23 28 24 30 26
REMARK SMILES IDX 5 28 10 30 11 31 12 32 13 33 14 34 15 35 19 36 16 37 18 38
REMARK SMILES IDX 17 39
REMARK H PARENT 34 20 32 22 28 25 30 27 5 29
REMARK Flexibility Score: inf
ROOT
ATOM      1  C   UNL     1     168.361 147.848 157.587  1.00  0.00     0.046 C 
ATOM      2  C   UNL     1     168.616 146.659 156.663  1.00  0.00     0.104 C 
ATOM      3  C   UNL     1     168.071 146.926 155.211  1.00  0.00     0.104 C 
ATOM      4  C   UNL     1     168.489 145.636 154.416  1.00  0.00     0.175 C 
ATOM      5  C   UNL     1     169.999 145.298 154.658  1.00  0.00     0.070 C 
ATOM      6  C   UNL     1     170.794 146.490 155.207  1.00  0.00     0.050 C 
ATOM      7  C   UNL     1     170.120 146.198 156.567  1.00  0.00     0.115 C 
ATOM      8  C   UNL     1     169.873 144.769 156.080  1.00  0.00     0.096 C 
ATOM      9  C   UNL     1     168.402 144.472 156.302  1.00  0.00     0.267 C 
ATOM     10  O   UNL     1     167.921 145.518 157.129  1.00  0.00    -0.342 OA
ATOM     11  O   UNL     1     167.792 144.569 155.025  1.00  0.00    -0.320 OA
ENDROOT
BRANCH   7  12
ATOM     12  O   UNL     1     170.904 146.271 157.751  1.00  0.00    -0.339 OA
BRANCH  12  13
ATOM     13  C   UNL     1     171.933 147.249 157.646  1.00  0.00     0.282 C 
ATOM     14  C   UNL     1     171.774 148.360 158.723  1.00  0.00     0.202 C 
ATOM     15  O   UNL     1     173.211 146.615 157.620  1.00  0.00    -0.341 OA
ATOM     16  C   UNL     1     173.153 148.783 159.237  1.00  0.00     0.179 C 
ATOM     17  C   UNL     1     173.791 146.334 158.890  1.00  0.00     0.178 C 
ATOM     18  C   UNL     1     173.875 147.565 159.845  1.00  0.00     0.177 C 
BRANCH  14  19
ATOM     19  O   UNL     1     170.962 147.910 159.780  1.00  0.00    -0.385 OA
ATOM     20  H   UNL     1     170.019 148.044 159.501  1.00  0.00     0.211 HD
ENDBRANCH  14  19
BRANCH  16  21
ATOM     21  O   UNL     1     173.072 149.855 160.140  1.00  0.00    -0.387 OA
ATOM     22  H   UNL     1     173.001 149.477 161.056  1.00  0.00     0.211 HD
ENDBRANCH  16  21
BRANCH  17  23
ATOM     23  C   UNL     1     173.197 145.070 159.539  1.00  0.00     0.191 C 
BRANCH  23  24
ATOM     24  O   UNL     1     172.620 145.354 160.784  1.00  0.00    -0.394 OA
ATOM     25  H   UNL     1     172.458 146.336 160.802  1.00  0.00     0.210 HD
ENDBRANCH  23  24
ENDBRANCH  17  23
BRANCH  18  26
ATOM     26  O   UNL     1     175.214 147.883 160.141  1.00  0.00    -0.387 OA
ATOM     27  H   UNL     1     175.519 147.268 160.860  1.00  0.00     0.211 HD
ENDBRANCH  18  26
ENDBRANCH  12  13
ENDBRANCH   7  12
BRANCH   4  28
ATOM     28  O   UNL     1     168.169 145.722 153.054  1.00  0.00    -0.365 OA
ATOM     29  H   UNL     1     168.312 144.818 152.671  1.00  0.00     0.214 HD
ENDBRANCH   4  28
BRANCH   8  30
ATOM     30  C   UNL     1     170.874 143.678 156.510  1.00  0.00     0.249 C 
BRANCH  30  31
ATOM     31  O   UNL     1     170.367 142.383 156.190  1.00  0.00    -0.461 OA
BRANCH  31  32
ATOM     32  C   UNL     1     170.676 141.693 155.012  1.00  0.00     0.338 C 
ATOM     33  O   UNL     1     171.637 140.875 154.987  1.00  0.00    -0.246 OA
BRANCH  32  34
ATOM     34  C   UNL     1     169.869 141.921 153.796  1.00  0.00     0.060 A 
ATOM     35  C   UNL     1     170.466 142.453 152.638  1.00  0.00     0.015 A 
ATOM     36  C   UNL     1     168.497 141.610 153.774  1.00  0.00     0.015 A 
ATOM     37  C   UNL     1     169.704 142.672 151.487  1.00  0.00     0.001 A 
ATOM     38  C   UNL     1     167.740 141.829 152.619  1.00  0.00     0.001 A 
ATOM     39  C   UNL     1     168.342 142.360 151.478  1.00  0.00     0.000 A 
ENDBRANCH  32  34
ENDBRANCH  31  32
ENDBRANCH  30  31
ENDBRANCH   8  30
TORSDOF 12
ENDMDL
MODEL 5
REMARK VINA RESULT:    -7.650     10.602     14.217
REMARK INTER + INTRA:         -12.616
REMARK INTER:                 -11.552
REMARK INTRA:                  -1.065
REMARK UNBOUND:                -0.717
REMARK SMILES C[C@]12C[C@]3(O)O[C@H](O1)[C@@]1(COC(=O)c4ccccc4)[C@@H]3C[C@]12O[C@@H]1O[C@H](CO)[C@@H](O)[C@H](O)[C@@H]1O
REMARK SMILES IDX 1 1 2 2 3 3 4 4 20 5 21 6 22 7 9 8 7 9 8 10 6 11 23 12 24 13
REMARK SMILES IDX 33 14 25 15 31 16 26 17 29 18 34 19 32 21 27 23 28 24 30 26
REMARK SMILES IDX 5 28 10 30 11 31 12 32 13 33 14 34 15 35 19 36 16 37 18 38
REMARK SMILES IDX 17 39
REMARK H PARENT 34 20 32 22 28 25 30 27 5 29
REMARK Flexibility Score: inf
ROOT
ATOM      1  C   UNL     1     167.565 145.324 153.754  1.00  0.00     0.046 C 
ATOM      2  C   UNL     1     168.596 144.296 153.291  1.00  0.00     0.104 C 
ATOM      3  C   UNL     1     168.741 144.285 151.725  1.00  0.00     0.104 C 
ATOM      4  C   UNL     1     169.878 143.231 151.466  1.00  0.00     0.175 C 
ATOM      5  C   UNL     1     171.115 143.510 152.385  1.00  0.00     0.070 C 
ATOM      6  C   UNL     1     171.120 144.934 152.957  1.00  0.00     0.050 C 
ATOM      7  C   UNL     1     170.026 144.449 153.935  1.00  0.00     0.115 C 
ATOM      8  C   UNL     1     170.519 143.020 153.698  1.00  0.00     0.096 C 
ATOM      9  C   UNL     1     169.304 142.185 153.336  1.00  0.00     0.267 C 
ATOM     10  O   UNL     1     168.180 142.991 153.648  1.00  0.00    -0.342 OA
ATOM     11  O   UNL     1     169.369 141.998 151.932  1.00  0.00    -0.320 OA
ENDROOT
BRANCH   7  12
ATOM     12  O   UNL     1     170.092 144.857 155.296  1.00  0.00    -0.339 OA
BRANCH  12  13
ATOM     13  C   UNL     1     170.329 146.255 155.419  1.00  0.00     0.282 C 
ATOM     14  C   UNL     1     169.305 146.923 156.380  1.00  0.00     0.202 C 
ATOM     15  O   UNL     1     171.698 146.494 155.739  1.00  0.00    -0.341 OA
ATOM     16  C   UNL     1     170.003 148.004 157.210  1.00  0.00     0.179 C 
ATOM     17  C   UNL     1     172.030 146.451 157.123  1.00  0.00     0.178 C 
ATOM     18  C   UNL     1     171.149 147.372 158.024  1.00  0.00     0.177 C 
BRANCH  14  19
ATOM     19  O   UNL     1     168.709 145.959 157.213  1.00  0.00    -0.385 OA
ATOM     20  H   UNL     1     168.608 145.130 156.676  1.00  0.00     0.211 HD
ENDBRANCH  14  19
BRANCH  16  21
ATOM     21  O   UNL     1     169.102 148.707 158.024  1.00  0.00    -0.387 OA
ATOM     22  H   UNL     1     168.499 148.045 158.455  1.00  0.00     0.211 HD
ENDBRANCH  16  21
BRANCH  17  23
ATOM     23  C   UNL     1     172.177 145.010 157.647  1.00  0.00     0.191 C 
BRANCH  23  24
ATOM     24  O   UNL     1     170.988 144.551 158.231  1.00  0.00    -0.394 OA
ATOM     25  H   UNL     1     170.244 144.963 157.715  1.00  0.00     0.210 HD
ENDBRANCH  23  24
ENDBRANCH  17  23
BRANCH  18  26
ATOM     26  O   UNL     1     171.929 148.372 158.637  1.00  0.00    -0.387 OA
ATOM     27  H   UNL     1     172.206 149.015 157.932  1.00  0.00     0.211 HD
ENDBRANCH  18  26
ENDBRANCH  12  13
ENDBRANCH   7  12
BRANCH   4  28
ATOM     28  O   UNL     1     170.224 143.143 150.111  1.00  0.00    -0.365 OA
ATOM     29  H   UNL     1     169.761 143.890 149.650  1.00  0.00     0.214 HD
ENDBRANCH   4  28
BRANCH   8  30
ATOM     30  C   UNL     1     171.496 142.414 154.724  1.00  0.00     0.249 C 
BRANCH  30  31
ATOM     31  O   UNL     1     172.161 141.280 154.170  1.00  0.00    -0.461 OA
BRANCH  31  32
ATOM     32  C   UNL     1     173.553 141.142 154.111  1.00  0.00     0.338 C 
ATOM     33  O   UNL     1     174.213 140.890 155.157  1.00  0.00    -0.246 OA
BRANCH  32  34
ATOM     34  C   UNL     1     174.249 141.290 152.817  1.00  0.00     0.060 A 
ATOM     35  C   UNL     1     175.558 141.803 152.769  1.00  0.00     0.015 A 
ATOM     36  C   UNL     1     173.618 140.919 151.614  1.00  0.00     0.015 A 
ATOM     37  C   UNL     1     176.217 141.946 151.545  1.00  0.00     0.001 A 
ATOM     38  C   UNL     1     174.285 141.061 150.393  1.00  0.00     0.001 A 
ATOM     39  C   UNL     1     175.581 141.575 150.358  1.00  0.00     0.000 A 
ENDBRANCH  32  34
ENDBRANCH  31  32
ENDBRANCH  30  31
ENDBRANCH   8  30
TORSDOF 12
ENDMDL
MODEL 6
REMARK VINA RESULT:    -7.474      2.352      6.373
REMARK INTER + INTRA:         -12.343
REMARK INTER:                 -11.633
REMARK INTRA:                  -0.709
REMARK UNBOUND:                -0.717
REMARK SMILES C[C@]12C[C@]3(O)O[C@H](O1)[C@@]1(COC(=O)c4ccccc4)[C@@H]3C[C@]12O[C@@H]1O[C@H](CO)[C@@H](O)[C@H](O)[C@@H]1O
REMARK SMILES IDX 1 1 2 2 3 3 4 4 20 5 21 6 22 7 9 8 7 9 8 10 6 11 23 12 24 13
REMARK SMILES IDX 33 14 25 15 31 16 26 17 29 18 34 19 32 21 27 23 28 24 30 26
REMARK SMILES IDX 5 28 10 30 11 31 12 32 13 33 14 34 15 35 19 36 16 37 18 38
REMARK SMILES IDX 17 39
REMARK H PARENT 34 20 32 22 28 25 30 27 5 29
REMARK Flexibility Score: inf
ROOT
ATOM      1  C   UNL     1     167.954 153.549 152.968  1.00  0.00     0.046 C 
ATOM      2  C   UNL     1     166.510 153.961 152.684  1.00  0.00     0.104 C 
ATOM      3  C   UNL     1     166.142 155.312 153.400  1.00  0.00     0.104 C 
ATOM      4  C   UNL     1     164.668 155.590 152.931  1.00  0.00     0.175 C 
ATOM      5  C   UNL     1     164.543 155.444 151.377  1.00  0.00     0.070 C 
ATOM      6  C   UNL     1     165.898 155.518 150.662  1.00  0.00     0.050 C 
ATOM      7  C   UNL     1     166.137 154.074 151.157  1.00  0.00     0.115 C 
ATOM      8  C   UNL     1     164.621 153.925 151.299  1.00  0.00     0.096 C 
ATOM      9  C   UNL     1     164.354 153.406 152.699  1.00  0.00     0.267 C 
ATOM     10  O   UNL     1     165.614 152.995 153.202  1.00  0.00    -0.342 OA
ATOM     11  O   UNL     1     163.896 154.522 153.444  1.00  0.00    -0.320 OA
ENDROOT
BRANCH   7  12
ATOM     12  O   UNL     1     166.724 153.132 150.268  1.00  0.00    -0.339 OA
BRANCH  12  13
ATOM     13  C   UNL     1     167.291 153.764 149.126  1.00  0.00     0.282 C 
ATOM     14  C   UNL     1     168.846 153.765 149.190  1.00  0.00     0.202 C 
ATOM     15  O   UNL     1     166.740 153.208 147.933  1.00  0.00    -0.341 OA
ATOM     16  C   UNL     1     169.422 153.531 147.791  1.00  0.00     0.179 C 
ATOM     17  C   UNL     1     167.380 152.037 147.438  1.00  0.00     0.178 C 
ATOM     18  C   UNL     1     168.922 152.181 147.243  1.00  0.00     0.177 C 
BRANCH  14  19
ATOM     19  O   UNL     1     169.302 152.783 150.090  1.00  0.00    -0.385 OA
ATOM     20  H   UNL     1     170.262 152.626 149.888  1.00  0.00     0.211 HD
ENDBRANCH  14  19
BRANCH  16  21
ATOM     21  O   UNL     1     170.822 153.622 147.777  1.00  0.00    -0.387 OA
ATOM     22  H   UNL     1     171.101 154.157 148.566  1.00  0.00     0.211 HD
ENDBRANCH  16  21
BRANCH  17  23
ATOM     23  C   UNL     1     166.956 150.769 148.204  1.00  0.00     0.191 C 
BRANCH  23  24
ATOM     24  O   UNL     1     166.388 149.816 147.347  1.00  0.00    -0.394 OA
ATOM     25  H   UNL     1     165.421 150.039 147.280  1.00  0.00     0.210 HD
ENDBRANCH  23  24
ENDBRANCH  17  23
BRANCH  18  26
ATOM     26  O   UNL     1     169.273 152.037 145.887  1.00  0.00    -0.387 OA
ATOM     27  H   UNL     1     169.778 151.187 145.794  1.00  0.00     0.211 HD
ENDBRANCH  18  26
ENDBRANCH  12  13
ENDBRANCH   7  12
BRANCH   4  28
ATOM     28  O   UNL     1     164.183 156.819 153.397  1.00  0.00    -0.365 OA
ATOM     29  H   UNL     1     163.928 156.683 154.346  1.00  0.00     0.214 HD
ENDBRANCH   4  28
BRANCH   8  30
ATOM     30  C   UNL     1     163.853 153.245 150.148  1.00  0.00     0.249 C 
BRANCH  30  31
ATOM     31  O   UNL     1     163.886 151.826 150.298  1.00  0.00    -0.461 OA
BRANCH  31  32
ATOM     32  C   UNL     1     163.656 150.925 149.252  1.00  0.00     0.338 C 
ATOM     33  O   UNL     1     163.716 151.313 148.052  1.00  0.00    -0.246 OA
BRANCH  32  34
ATOM     34  C   UNL     1     163.345 149.513 149.556  1.00  0.00     0.060 A 
ATOM     35  C   UNL     1     163.144 149.101 150.886  1.00  0.00     0.015 A 
ATOM     36  C   UNL     1     163.242 148.561 148.524  1.00  0.00     0.015 A 
ATOM     37  C   UNL     1     162.853 147.766 151.176  1.00  0.00     0.001 A 
ATOM     38  C   UNL     1     162.947 147.227 148.821  1.00  0.00     0.001 A 
ATOM     39  C   UNL     1     162.754 146.830 150.144  1.00  0.00     0.000 A 
ENDBRANCH  32  34
ENDBRANCH  31  32
ENDBRANCH  30  31
ENDBRANCH   8  30
TORSDOF 12
ENDMDL
MODEL 7
REMARK VINA RESULT:    -7.402      8.523     11.991
REMARK INTER + INTRA:         -12.230
REMARK INTER:                 -11.612
REMARK INTRA:                  -0.618
REMARK UNBOUND:                -0.717
REMARK SMILES C[C@]12C[C@]3(O)O[C@H](O1)[C@@]1(COC(=O)c4ccccc4)[C@@H]3C[C@]12O[C@@H]1O[C@H](CO)[C@@H](O)[C@H](O)[C@@H]1O
REMARK SMILES IDX 1 1 2 2 3 3 4 4 20 5 21 6 22 7 9 8 7 9 8 10 6 11 23 12 24 13
REMARK SMILES IDX 33 14 25 15 31 16 26 17 29 18 34 19 32 21 27 23 28 24 30 26
REMARK SMILES IDX 5 28 10 30 11 31 12 32 13 33 14 34 15 35 19 36 16 37 18 38
REMARK SMILES IDX 17 39
REMARK H PARENT 34 20 32 22 28 25 30 27 5 29
REMARK Flexibility Score: inf
ROOT
ATOM      1  C   UNL     1     171.141 141.196 152.433  1.00  0.00     0.046 C 
ATOM      2  C   UNL     1     170.475 142.041 151.348  1.00  0.00     0.104 C 
ATOM      3  C   UNL     1     169.621 141.156 150.367  1.00  0.00     0.104 C 
ATOM      4  C   UNL     1     168.976 142.204 149.389  1.00  0.00     0.175 C 
ATOM      5  C   UNL     1     168.319 143.380 150.189  1.00  0.00     0.070 C 
ATOM      6  C   UNL     1     168.062 143.027 151.660  1.00  0.00     0.050 C 
ATOM      7  C   UNL     1     169.580 143.224 151.879  1.00  0.00     0.115 C 
ATOM      8  C   UNL     1     169.598 144.087 150.615  1.00  0.00     0.096 C 
ATOM      9  C   UNL     1     170.706 143.551 149.728  1.00  0.00     0.267 C 
ATOM     10  O   UNL     1     171.457 142.668 150.543  1.00  0.00    -0.342 OA
ATOM     11  O   UNL     1     170.057 142.807 148.708  1.00  0.00    -0.320 OA
ENDROOT
BRANCH   7  12
ATOM     12  O   UNL     1     170.022 143.908 153.045  1.00  0.00    -0.339 OA
BRANCH  12  13
ATOM     13  C   UNL     1     169.626 143.236 154.235  1.00  0.00     0.282 C 
ATOM     14  C   UNL     1     170.482 143.687 155.454  1.00  0.00     0.202 C 
ATOM     15  O   UNL     1     168.216 143.349 154.417  1.00  0.00    -0.341 OA
ATOM     16  C   UNL     1     169.600 143.772 156.702  1.00  0.00     0.179 C 
ATOM     17  C   UNL     1     167.767 144.522 155.088  1.00  0.00     0.178 C 
ATOM     18  C   UNL     1     168.459 144.780 156.463  1.00  0.00     0.177 C 
BRANCH  14  19
ATOM     19  O   UNL     1     171.100 144.924 155.192  1.00  0.00    -0.385 OA
ATOM     20  H   UNL     1     170.802 145.214 154.290  1.00  0.00     0.211 HD
ENDBRANCH  14  19
BRANCH  16  21
ATOM     21  O   UNL     1     170.344 144.079 157.852  1.00  0.00    -0.387 OA
ATOM     22  H   UNL     1     171.076 143.412 157.928  1.00  0.00     0.211 HD
ENDBRANCH  16  21
BRANCH  17  23
ATOM     23  C   UNL     1     167.728 145.751 154.160  1.00  0.00     0.191 C 
BRANCH  23  24
ATOM     24  O   UNL     1     168.916 146.491 154.236  1.00  0.00    -0.394 OA
ATOM     25  H   UNL     1     169.539 146.093 153.571  1.00  0.00     0.210 HD
ENDBRANCH  23  24
ENDBRANCH  17  23
BRANCH  18  26
ATOM     26  O   UNL     1     167.525 144.728 157.515  1.00  0.00    -0.387 OA
ATOM     27  H   UNL     1     168.004 144.951 158.356  1.00  0.00     0.211 HD
ENDBRANCH  18  26
ENDBRANCH  12  13
ENDBRANCH   7  12
BRANCH   4  28
ATOM     28  O   UNL     1     168.089 141.610 148.481  1.00  0.00    -0.365 OA
ATOM     29  H   UNL     1     167.463 142.322 148.187  1.00  0.00     0.214 HD
ENDBRANCH   4  28
BRANCH   8  30
ATOM     30  C   UNL     1     169.525 145.617 150.786  1.00  0.00     0.249 C 
BRANCH  30  31
ATOM     31  O   UNL     1     170.352 146.266 149.821  1.00  0.00    -0.461 OA
BRANCH  31  32
ATOM     32  C   UNL     1     169.871 146.829 148.633  1.00  0.00     0.338 C 
ATOM     33  O   UNL     1     168.854 146.345 148.065  1.00  0.00    -0.246 OA
BRANCH  32  34
ATOM     34  C   UNL     1     170.558 147.999 148.047  1.00  0.00     0.060 A 
ATOM     35  C   UNL     1     171.119 148.983 148.879  1.00  0.00     0.015 A 
ATOM     36  C   UNL     1     170.663 148.145 146.650  1.00  0.00     0.015 A 
ATOM     37  C   UNL     1     171.767 150.092 148.326  1.00  0.00     0.001 A 
ATOM     38  C   UNL     1     171.315 149.255 146.103  1.00  0.00     0.001 A 
ATOM     39  C   UNL     1     171.865 150.226 146.939  1.00  0.00     0.000 A 
ENDBRANCH  32  34
ENDBRANCH  31  32
ENDBRANCH  30  31
ENDBRANCH   8  30
TORSDOF 12
ENDMDL
MODEL 8
REMARK VINA RESULT:    -7.348     10.473     13.994
REMARK INTER + INTRA:         -12.145
REMARK INTER:                 -11.307
REMARK INTRA:                  -0.838
REMARK UNBOUND:                -0.717
REMARK SMILES C[C@]12C[C@]3(O)O[C@H](O1)[C@@]1(COC(=O)c4ccccc4)[C@@H]3C[C@]12O[C@@H]1O[C@H](CO)[C@@H](O)[C@H](O)[C@@H]1O
REMARK SMILES IDX 1 1 2 2 3 3 4 4 20 5 21 6 22 7 9 8 7 9 8 10 6 11 23 12 24 13
REMARK SMILES IDX 33 14 25 15 31 16 26 17 29 18 34 19 32 21 27 23 28 24 30 26
REMARK SMILES IDX 5 28 10 30 11 31 12 32 13 33 14 34 15 35 19 36 16 37 18 38
REMARK SMILES IDX 17 39
REMARK H PARENT 34 20 32 22 28 25 30 27 5 29
REMARK Flexibility Score: inf
ROOT
ATOM      1  C   UNL     1     174.820 144.056 156.083  1.00  0.00     0.046 C 
ATOM      2  C   UNL     1     173.314 143.923 155.860  1.00  0.00     0.104 C 
ATOM      3  C   UNL     1     172.824 142.444 156.082  1.00  0.00     0.104 C 
ATOM      4  C   UNL     1     171.268 142.536 155.878  1.00  0.00     0.175 C 
ATOM      5  C   UNL     1     170.667 143.715 156.715  1.00  0.00     0.070 C 
ATOM      6  C   UNL     1     171.604 144.188 157.834  1.00  0.00     0.050 C 
ATOM      7  C   UNL     1     172.423 144.891 156.728  1.00  0.00     0.115 C 
ATOM      8  C   UNL     1     171.169 144.865 155.852  1.00  0.00     0.096 C 
ATOM      9  C   UNL     1     171.570 144.262 154.519  1.00  0.00     0.267 C 
ATOM     10  O   UNL     1     172.987 144.239 154.520  1.00  0.00    -0.342 OA
ATOM     11  O   UNL     1     171.081 142.931 154.534  1.00  0.00    -0.320 OA
ENDROOT
BRANCH   7  12
ATOM     12  O   UNL     1     172.923 146.200 156.971  1.00  0.00    -0.339 OA
BRANCH  12  13
ATOM     13  C   UNL     1     174.021 146.187 157.878  1.00  0.00     0.282 C 
ATOM     14  C   UNL     1     175.170 147.115 157.391  1.00  0.00     0.202 C 
ATOM     15  O   UNL     1     173.563 146.442 159.205  1.00  0.00    -0.341 OA
ATOM     16  C   UNL     1     175.808 147.822 158.591  1.00  0.00     0.179 C 
ATOM     17  C   UNL     1     173.448 147.814 159.570  1.00  0.00     0.178 C 
ATOM     18  C   UNL     1     174.741 148.654 159.328  1.00  0.00     0.177 C 
BRANCH  14  19
ATOM     19  O   UNL     1     174.687 148.051 156.457  1.00  0.00    -0.385 OA
ATOM     20  H   UNL     1     175.191 147.907 155.614  1.00  0.00     0.211 HD
ENDBRANCH  14  19
BRANCH  16  21
ATOM     21  O   UNL     1     176.917 148.596 158.217  1.00  0.00    -0.387 OA
ATOM     22  H   UNL     1     176.614 149.537 158.119  1.00  0.00     0.211 HD
ENDBRANCH  16  21
BRANCH  17  23
ATOM     23  C   UNL     1     172.163 148.461 159.021  1.00  0.00     0.191 C 
BRANCH  23  24
ATOM     24  O   UNL     1     171.096 147.552 159.004  1.00  0.00    -0.394 OA
ATOM     25  H   UNL     1     170.279 148.082 158.798  1.00  0.00     0.210 HD
ENDBRANCH  23  24
ENDBRANCH  17  23
BRANCH  18  26
ATOM     26  O   UNL     1     175.254 149.149 160.542  1.00  0.00    -0.387 OA
ATOM     27  H   UNL     1     176.239 149.017 160.531  1.00  0.00     0.211 HD
ENDBRANCH  18  26
ENDBRANCH  12  13
ENDBRANCH   7  12
BRANCH   4  28
ATOM     28  O   UNL     1     170.626 141.316 156.129  1.00  0.00    -0.365 OA
ATOM     29  H   UNL     1     171.296 140.602 155.962  1.00  0.00     0.214 HD
ENDBRANCH   4  28
BRANCH   8  30
ATOM     30  C   UNL     1     170.296 146.134 155.806  1.00  0.00     0.249 C 
BRANCH  30  31
ATOM     31  O   UNL     1     169.618 146.227 154.554  1.00  0.00    -0.461 OA
BRANCH  31  32
ATOM     32  C   UNL     1     168.358 145.669 154.305  1.00  0.00     0.338 C 
ATOM     33  O   UNL     1     167.330 146.145 154.862  1.00  0.00    -0.246 OA
BRANCH  32  34
ATOM     34  C   UNL     1     168.234 144.522 153.383  1.00  0.00     0.060 A 
ATOM     35  C   UNL     1     168.537 144.672 152.018  1.00  0.00     0.015 A 
ATOM     36  C   UNL     1     167.813 143.263 153.853  1.00  0.00     0.015 A 
ATOM     37  C   UNL     1     168.418 143.588 151.144  1.00  0.00     0.001 A 
ATOM     38  C   UNL     1     167.699 142.182 152.974  1.00  0.00     0.001 A 
ATOM     39  C   UNL     1     168.000 142.344 151.622  1.00  0.00     0.000 A 
ENDBRANCH  32  34
ENDBRANCH  31  32
ENDBRANCH  30  31
ENDBRANCH   8  30
TORSDOF 12
ENDMDL
MODEL 9
REMARK VINA RESULT:    -7.337      9.202     12.655
REMARK INTER + INTRA:         -12.129
REMARK INTER:                 -10.429
REMARK INTRA:                  -1.701
REMARK UNBOUND:                -0.717
REMARK SMILES C[C@]12C[C@]3(O)O[C@H](O1)[C@@]1(COC(=O)c4ccccc4)[C@@H]3C[C@]12O[C@@H]1O[C@H](CO)[C@@H](O)[C@H](O)[C@@H]1O
REMARK SMILES IDX 1 1 2 2 3 3 4 4 20 5 21 6 22 7 9 8 7 9 8 10 6 11 23 12 24 13
REMARK SMILES IDX 33 14 25 15 31 16 26 17 29 18 34 19 32 21 27 23 28 24 30 26
REMARK SMILES IDX 5 28 10 30 11 31 12 32 13 33 14 34 15 35 19 36 16 37 18 38
REMARK SMILES IDX 17 39
REMARK H PARENT 34 20 32 22 28 25 30 27 5 29
REMARK Flexibility Score: inf
ROOT
ATOM      1  C   UNL     1     171.187 141.419 153.338  1.00  0.00     0.046 C 
ATOM      2  C   UNL     1     170.590 142.017 152.065  1.00  0.00     0.104 C 
ATOM      3  C   UNL     1     170.091 140.898 151.077  1.00  0.00     0.104 C 
ATOM      4  C   UNL     1     169.460 141.709 149.888  1.00  0.00     0.175 C 
ATOM      5  C   UNL     1     168.477 142.805 150.422  1.00  0.00     0.070 C 
ATOM      6  C   UNL     1     168.027 142.547 151.866  1.00  0.00     0.050 C 
ATOM      7  C   UNL     1     169.423 143.050 152.297  1.00  0.00     0.115 C 
ATOM      8  C   UNL     1     169.518 143.781 150.955  1.00  0.00     0.096 C 
ATOM      9  C   UNL     1     170.842 143.387 150.328  1.00  0.00     0.267 C 
ATOM     10  O   UNL     1     171.576 142.743 151.355  1.00  0.00    -0.342 OA
ATOM     11  O   UNL     1     170.525 142.443 149.318  1.00  0.00    -0.320 OA
ENDROOT
BRANCH   7  12
ATOM     12  O   UNL     1     169.524 143.911 153.425  1.00  0.00    -0.339 OA
BRANCH  12  13
ATOM     13  C   UNL     1     168.629 143.530 154.464  1.00  0.00     0.282 C 
ATOM     14  C   UNL     1     169.377 143.329 155.813  1.00  0.00     0.202 C 
ATOM     15  O   UNL     1     167.526 144.432 154.516  1.00  0.00    -0.341 OA
ATOM     16  C   UNL     1     168.510 143.843 156.966  1.00  0.00     0.179 C 
ATOM     17  C   UNL     1     167.721 145.608 155.297  1.00  0.00     0.178 C 
ATOM     18  C   UNL     1     168.202 145.337 156.756  1.00  0.00     0.177 C 
BRANCH  14  19
ATOM     19  O   UNL     1     170.621 143.987 155.790  1.00  0.00    -0.385 OA
ATOM     20  H   UNL     1     171.288 143.363 156.179  1.00  0.00     0.211 HD
ENDBRANCH  14  19
BRANCH  16  21
ATOM     21  O   UNL     1     169.097 143.594 158.216  1.00  0.00    -0.387 OA
ATOM     22  H   UNL     1     169.074 142.613 158.375  1.00  0.00     0.211 HD
ENDBRANCH  16  21
BRANCH  17  23
ATOM     23  C   UNL     1     168.539 146.678 154.550  1.00  0.00     0.191 C 
BRANCH  23  24
ATOM     24  O   UNL     1     169.898 146.616 154.889  1.00  0.00    -0.394 OA
ATOM     25  H   UNL     1     170.359 146.181 154.122  1.00  0.00     0.210 HD
ENDBRANCH  23  24
ENDBRANCH  17  23
BRANCH  18  26
ATOM     26  O   UNL     1     167.247 145.780 157.691  1.00  0.00    -0.387 OA
ATOM     27  H   UNL     1     167.053 146.735 157.496  1.00  0.00     0.211 HD
ENDBRANCH  18  26
ENDBRANCH  12  13
ENDBRANCH   7  12
BRANCH   4  28
ATOM     28  O   UNL     1     168.866 140.875 148.931  1.00  0.00    -0.365 OA
ATOM     29  H   UNL     1     167.912 141.144 148.872  1.00  0.00     0.214 HD
ENDBRANCH   4  28
BRANCH   8  30
ATOM     30  C   UNL     1     169.151 145.277 150.923  1.00  0.00     0.249 C 
BRANCH  30  31
ATOM     31  O   UNL     1     170.005 145.979 150.020  1.00  0.00    -0.461 OA
BRANCH  31  32
ATOM     32  C   UNL     1     169.604 146.427 148.755  1.00  0.00     0.338 C 
ATOM     33  O   UNL     1     170.135 147.452 148.245  1.00  0.00    -0.246 OA
BRANCH  32  34
ATOM     34  C   UNL     1     168.557 145.692 148.016  1.00  0.00     0.060 A 
ATOM     35  C   UNL     1     167.218 146.119 148.069  1.00  0.00     0.015 A 
ATOM     36  C   UNL     1     168.881 144.559 147.247  1.00  0.00     0.015 A 
ATOM     37  C   UNL     1     166.226 145.424 147.373  1.00  0.00     0.001 A 
ATOM     38  C   UNL     1     167.885 143.869 146.550  1.00  0.00     0.001 A 
ATOM     39  C   UNL     1     166.559 144.300 146.614  1.00  0.00     0.000 A 
ENDBRANCH  32  34
ENDBRANCH  31  32
ENDBRANCH  30  31
ENDBRANCH   8  30
TORSDOF 12
ENDMDL
