MODEL 1
REMARK VINA RESULT:    -3.745      0.000      0.000
REMARK INTER + INTRA:          -8.083
REMARK INTER:                  -6.809
REMARK INTRA:                  -1.273
REMARK UNBOUND:                -1.273
REMARK SMILES CCCCCCCCCCCCCC[C@H](C)C(=O)[O-]
REMARK SMILES IDX 9 1 10 2 11 3 12 4 13 5 14 6 15 7 16 8 17 9 18 10 19 11 8 12
REMARK SMILES IDX 7 13 6 14 5 15 4 16 3 17 2 18 1 19
REMARK H PARENT
REMARK Flexibility Score: inf
ROOT
ATOM      1  C   UNL     1      50.787  47.794  41.944  1.00  0.00     0.000 C 
ENDROOT
BRANCH   1   2
ATOM      2  C   UNL     1      52.072  47.325  41.241  1.00  0.00     0.000 C 
BRANCH   2   3
ATOM      3  C   UNL     1      52.342  45.820  41.423  1.00  0.00     0.000 C 
BRANCH   3   4
ATOM      4  C   UNL     1      53.514  45.470  42.359  1.00  0.00     0.000 C 
BRANCH   4   5
ATOM      5  C   UNL     1      53.054  44.928  43.721  1.00  0.00     0.001 C 
BRANCH   5   6
ATOM      6  C   UNL     1      52.585  46.069  44.638  1.00  0.00     0.009 C 
BRANCH   6   7
ATOM      7  C   UNL     1      51.354  45.683  45.487  1.00  0.00     0.032 C 
ATOM      8  C   UNL     1      50.156  45.262  44.623  1.00  0.00     0.014 C 
BRANCH   7   9
ATOM      9  C   UNL     1      50.961  46.834  46.373  1.00  0.00     0.044 C 
ATOM     10  O   UNL     1      51.841  47.580  46.881  1.00  0.00    -0.550 OA
ATOM     11  O   UNL     1      49.619  47.081  46.634  1.00  0.00    -0.550 OA
ENDBRANCH   7   9
ENDBRANCH   6   7
ENDBRANCH   5   6
ENDBRANCH   4   5
ENDBRANCH   3   4
ENDBRANCH   2   3
ENDBRANCH   1   2
BRANCH   1  12
ATOM     12  C   UNL     1      49.570  47.832  41.002  1.00  0.00     0.000 C 
BRANCH  12  13
ATOM     13  C   UNL     1      48.662  46.586  41.048  1.00  0.00    -0.000 C 
BRANCH  13  14
ATOM     14  C   UNL     1      47.502  46.656  42.062  1.00  0.00    -0.000 C 
BRANCH  14  15
ATOM     15  C   UNL     1      46.113  46.334  41.484  1.00  0.00    -0.000 C 
BRANCH  15  16
ATOM     16  C   UNL     1      45.147  47.533  41.415  1.00  0.00    -0.000 C 
BRANCH  16  17
ATOM     17  C   UNL     1      43.658  47.137  41.505  1.00  0.00    -0.000 C 
BRANCH  17  18
ATOM     18  C   UNL     1      42.778  48.275  42.047  1.00  0.00    -0.003 C 
ATOM     19  C   UNL     1      43.625  49.470  42.471  1.00  0.00     0.004 C 
ENDBRANCH  17  18
ENDBRANCH  16  17
ENDBRANCH  15  16
ENDBRANCH  14  15
ENDBRANCH  13  14
ENDBRANCH  12  13
ENDBRANCH   1  12
TORSDOF 14
ENDMDL
MODEL 2
REMARK VINA RESULT:    -3.596      3.119      7.447
REMARK INTER + INTRA:          -7.813
REMARK INTER:                  -6.756
REMARK INTRA:                  -1.057
REMARK UNBOUND:                -1.273
REMARK SMILES CCCCCCCCCCCCCC[C@H](C)C(=O)[O-]
REMARK SMILES IDX 9 1 10 2 11 3 12 4 13 5 14 6 15 7 16 8 17 9 18 10 19 11 8 12
REMARK SMILES IDX 7 13 6 14 5 15 4 16 3 17 2 18 1 19
REMARK H PARENT
REMARK Flexibility Score: inf
ROOT
ATOM      1  C   UNL     1      49.365  47.624  41.908  1.00  0.00     0.000 C 
ENDROOT
BRANCH   1   2
ATOM      2  C   UNL     1      48.949  46.587  42.964  1.00  0.00     0.000 C 
BRANCH   2   3
ATOM      3  C   UNL     1      47.945  45.550  42.425  1.00  0.00     0.000 C 
BRANCH   3   4
ATOM      4  C   UNL     1      47.206  45.959  41.137  1.00  0.00     0.000 C 
BRANCH   4   5
ATOM      5  C   UNL     1      45.701  45.654  41.185  1.00  0.00     0.001 C 
BRANCH   5   6
ATOM      6  C   UNL     1      44.879  46.950  41.265  1.00  0.00     0.009 C 
BRANCH   6   7
ATOM      7  C   UNL     1      43.468  46.725  41.850  1.00  0.00     0.032 C 
ATOM      8  C   UNL     1      42.728  45.567  41.166  1.00  0.00     0.014 C 
BRANCH   7   9
ATOM      9  C   UNL     1      42.656  47.987  41.729  1.00  0.00     0.044 C 
ATOM     10  O   UNL     1      41.635  48.023  40.990  1.00  0.00    -0.550 OA
ATOM     11  O   UNL     1      43.030  49.122  42.438  1.00  0.00    -0.550 OA
ENDBRANCH   7   9
ENDBRANCH   6   7
ENDBRANCH   5   6
ENDBRANCH   4   5
ENDBRANCH   3   4
ENDBRANCH   2   3
ENDBRANCH   1   2
BRANCH   1  12
ATOM     12  C   UNL     1      50.686  47.263  41.205  1.00  0.00     0.000 C 
BRANCH  12  13
ATOM     13  C   UNL     1      50.885  45.763  40.905  1.00  0.00    -0.000 C 
BRANCH  13  14
ATOM     14  C   UNL     1      52.247  45.182  41.336  1.00  0.00    -0.000 C 
BRANCH  14  15
ATOM     15  C   UNL     1      53.078  46.091  42.259  1.00  0.00    -0.000 C 
BRANCH  15  16
ATOM     16  C   UNL     1      52.934  45.791  43.763  1.00  0.00    -0.000 C 
BRANCH  16  17
ATOM     17  C   UNL     1      51.954  46.733  44.494  1.00  0.00    -0.000 C 
BRANCH  17  18
ATOM     18  C   UNL     1      51.419  46.126  45.801  1.00  0.00    -0.003 C 
ATOM     19  C   UNL     1      51.211  47.201  46.862  1.00  0.00     0.004 C 
ENDBRANCH  17  18
ENDBRANCH  16  17
ENDBRANCH  15  16
ENDBRANCH  14  15
ENDBRANCH  13  14
ENDBRANCH  12  13
ENDBRANCH   1  12
TORSDOF 14
ENDMDL
MODEL 3
REMARK VINA RESULT:    -3.407      2.116      3.450
REMARK INTER + INTRA:          -7.470
REMARK INTER:                  -6.410
REMARK INTRA:                  -1.059
REMARK UNBOUND:                -1.273
REMARK SMILES CCCCCCCCCCCCCC[C@H](C)C(=O)[O-]
REMARK SMILES IDX 9 1 10 2 11 3 12 4 13 5 14 6 15 7 16 8 17 9 18 10 19 11 8 12
REMARK SMILES IDX 7 13 6 14 5 15 4 16 3 17 2 18 1 19
REMARK H PARENT
REMARK Flexibility Score: inf
ROOT
ATOM      1  C   UNL     1      47.178  47.487  41.911  1.00  0.00     0.000 C 
ENDROOT
BRANCH   1   2
ATOM      2  C   UNL     1      48.205  46.976  40.886  1.00  0.00     0.000 C 
BRANCH   2   3
ATOM      3  C   UNL     1      49.556  46.604  41.524  1.00  0.00     0.000 C 
BRANCH   3   4
ATOM      4  C   UNL     1      49.862  47.293  42.866  1.00  0.00     0.000 C 
BRANCH   4   5
ATOM      5  C   UNL     1      49.941  46.310  44.044  1.00  0.00     0.001 C 
BRANCH   5   6
ATOM      6  C   UNL     1      50.863  45.126  43.711  1.00  0.00     0.009 C 
BRANCH   6   7
ATOM      7  C   UNL     1      52.300  45.321  44.245  1.00  0.00     0.032 C 
ATOM      8  C   UNL     1      52.385  46.431  45.302  1.00  0.00     0.014 C 
BRANCH   7   9
ATOM      9  C   UNL     1      53.232  45.634  43.105  1.00  0.00     0.044 C 
ATOM     10  O   UNL     1      52.781  45.834  41.945  1.00  0.00    -0.550 OA
ATOM     11  O   UNL     1      54.601  45.705  43.330  1.00  0.00    -0.550 OA
ENDBRANCH   7   9
ENDBRANCH   6   7
ENDBRANCH   5   6
ENDBRANCH   4   5
ENDBRANCH   3   4
ENDBRANCH   2   3
ENDBRANCH   1   2
BRANCH   1  12
ATOM     12  C   UNL     1      45.740  47.042  41.588  1.00  0.00     0.000 C 
BRANCH  12  13
ATOM     13  C   UNL     1      45.601  45.602  41.052  1.00  0.00    -0.000 C 
BRANCH  13  14
ATOM     14  C   UNL     1      44.152  45.099  40.891  1.00  0.00    -0.000 C 
BRANCH  14  15
ATOM     15  C   UNL     1      43.101  45.872  41.708  1.00  0.00    -0.000 C 
BRANCH  15  16
ATOM     16  C   UNL     1      42.167  46.770  40.875  1.00  0.00    -0.000 C 
BRANCH  16  17
ATOM     17  C   UNL     1      42.455  48.279  41.029  1.00  0.00    -0.000 C 
BRANCH  17  18
ATOM     18  C   UNL     1      42.820  48.664  42.471  1.00  0.00    -0.003 C 
ATOM     19  C   UNL     1      43.879  49.761  42.497  1.00  0.00     0.004 C 
ENDBRANCH  17  18
ENDBRANCH  16  17
ENDBRANCH  15  16
ENDBRANCH  14  15
ENDBRANCH  13  14
ENDBRANCH  12  13
ENDBRANCH   1  12
TORSDOF 14
ENDMDL
MODEL 4
REMARK VINA RESULT:    -3.127      3.060      7.469
REMARK INTER + INTRA:          -6.960
REMARK INTER:                  -5.916
REMARK INTRA:                  -1.044
REMARK UNBOUND:                -1.273
REMARK SMILES CCCCCCCCCCCCCC[C@H](C)C(=O)[O-]
REMARK SMILES IDX 9 1 10 2 11 3 12 4 13 5 14 6 15 7 16 8 17 9 18 10 19 11 8 12
REMARK SMILES IDX 7 13 6 14 5 15 4 16 3 17 2 18 1 19
REMARK H PARENT
REMARK Flexibility Score: inf
ROOT
ATOM      1  C   UNL     1      50.369  47.072  45.278  1.00  0.00     0.000 C 
ENDROOT
BRANCH   1   2
ATOM      2  C   UNL     1      49.215  46.149  44.853  1.00  0.00     0.000 C 
BRANCH   2   3
ATOM      3  C   UNL     1      48.996  46.124  43.328  1.00  0.00     0.000 C 
BRANCH   3   4
ATOM      4  C   UNL     1      48.036  47.199  42.784  1.00  0.00     0.000 C 
BRANCH   4   5
ATOM      5  C   UNL     1      47.473  46.856  41.396  1.00  0.00     0.001 C 
BRANCH   5   6
ATOM      6  C   UNL     1      46.315  47.796  41.025  1.00  0.00     0.009 C 
BRANCH   6   7
ATOM      7  C   UNL     1      45.017  47.475  41.799  1.00  0.00     0.032 C 
ATOM      8  C   UNL     1      44.389  46.144  41.362  1.00  0.00     0.014 C 
BRANCH   7   9
ATOM      9  C   UNL     1      44.022  48.589  41.616  1.00  0.00     0.044 C 
ATOM     10  O   UNL     1      42.784  48.357  41.668  1.00  0.00    -0.550 OA
ATOM     11  O   UNL     1      44.468  49.886  41.388  1.00  0.00    -0.550 OA
ENDBRANCH   7   9
ENDBRANCH   6   7
ENDBRANCH   5   6
ENDBRANCH   4   5
ENDBRANCH   3   4
ENDBRANCH   2   3
ENDBRANCH   1   2
BRANCH   1  12
ATOM     12  C   UNL     1      51.679  46.307  45.541  1.00  0.00     0.000 C 
BRANCH  12  13
ATOM     13  C   UNL     1      51.769  44.911  44.891  1.00  0.00    -0.000 C 
BRANCH  13  14
ATOM     14  C   UNL     1      52.439  44.875  43.503  1.00  0.00    -0.000 C 
BRANCH  14  15
ATOM     15  C   UNL     1      53.976  44.958  43.520  1.00  0.00    -0.000 C 
BRANCH  15  16
ATOM     16  C   UNL     1      54.581  45.975  42.534  1.00  0.00    -0.000 C 
BRANCH  16  17
ATOM     17  C   UNL     1      53.863  46.020  41.169  1.00  0.00    -0.000 C 
BRANCH  17  18
ATOM     18  C   UNL     1      53.243  47.395  40.875  1.00  0.00    -0.003 C 
ATOM     19  C   UNL     1      51.881  47.540  41.547  1.00  0.00     0.004 C 
ENDBRANCH  17  18
ENDBRANCH  16  17
ENDBRANCH  15  16
ENDBRANCH  14  15
ENDBRANCH  13  14
ENDBRANCH  12  13
ENDBRANCH   1  12
TORSDOF 14
ENDMDL
MODEL 5
REMARK VINA RESULT:    -2.959      1.339      2.912
REMARK INTER + INTRA:          -6.655
REMARK INTER:                  -6.727
REMARK INTRA:                   0.072
REMARK UNBOUND:                -1.273
REMARK SMILES CCCCCCCCCCCCCC[C@H](C)C(=O)[O-]
REMARK SMILES IDX 9 1 10 2 11 3 12 4 13 5 14 6 15 7 16 8 17 9 18 10 19 11 8 12
REMARK SMILES IDX 7 13 6 14 5 15 4 16 3 17 2 18 1 19
REMARK H PARENT
REMARK Flexibility Score: inf
ROOT
ATOM      1  C   UNL     1      47.519  46.891  41.241  1.00  0.00     0.000 C 
ENDROOT
BRANCH   1   2
ATOM      2  C   UNL     1      48.213  45.568  40.878  1.00  0.00     0.000 C 
BRANCH   2   3
ATOM      3  C   UNL     1      49.728  45.589  41.157  1.00  0.00     0.000 C 
BRANCH   3   4
ATOM      4  C   UNL     1      50.247  46.846  41.879  1.00  0.00     0.000 C 
BRANCH   4   5
ATOM      5  C   UNL     1      49.345  47.288  43.042  1.00  0.00     0.001 C 
BRANCH   5   6
ATOM      6  C   UNL     1      49.673  46.502  44.321  1.00  0.00     0.009 C 
BRANCH   6   7
ATOM      7  C   UNL     1      51.006  46.942  44.965  1.00  0.00     0.032 C 
ATOM      8  C   UNL     1      52.112  45.890  44.796  1.00  0.00     0.014 C 
BRANCH   7   9
ATOM      9  C   UNL     1      50.799  47.230  46.427  1.00  0.00     0.044 C 
ATOM     10  O   UNL     1      49.653  47.132  46.943  1.00  0.00    -0.550 OA
ATOM     11  O   UNL     1      51.877  47.605  47.220  1.00  0.00    -0.550 OA
ENDBRANCH   7   9
ENDBRANCH   6   7
ENDBRANCH   5   6
ENDBRANCH   4   5
ENDBRANCH   3   4
ENDBRANCH   2   3
ENDBRANCH   1   2
BRANCH   1  12
ATOM     12  C   UNL     1      45.986  46.813  41.124  1.00  0.00     0.000 C 
BRANCH  12  13
ATOM     13  C   UNL     1      45.415  45.400  40.878  1.00  0.00    -0.000 C 
BRANCH  13  14
ATOM     14  C   UNL     1      43.876  45.300  40.906  1.00  0.00    -0.000 C 
BRANCH  14  15
ATOM     15  C   UNL     1      43.176  46.308  41.835  1.00  0.00    -0.000 C 
BRANCH  15  16
ATOM     16  C   UNL     1      42.250  47.311  41.121  1.00  0.00    -0.000 C 
BRANCH  16  17
ATOM     17  C   UNL     1      42.849  48.727  40.990  1.00  0.00    -0.000 C 
BRANCH  17  18
ATOM     18  C   UNL     1      43.844  49.051  42.115  1.00  0.00    -0.003 C 
ATOM     19  C   UNL     1      43.193  49.909  43.195  1.00  0.00     0.004 C 
ENDBRANCH  17  18
ENDBRANCH  16  17
ENDBRANCH  15  16
ENDBRANCH  14  15
ENDBRANCH  13  14
ENDBRANCH  12  13
ENDBRANCH   1  12
TORSDOF 14
ENDMDL
MODEL 6
REMARK VINA RESULT:    -2.916      2.318      3.763
REMARK INTER + INTRA:          -6.577
REMARK INTER:                  -5.639
REMARK INTRA:                  -0.938
REMARK UNBOUND:                -1.273
REMARK SMILES CCCCCCCCCCCCCC[C@H](C)C(=O)[O-]
REMARK SMILES IDX 9 1 10 2 11 3 12 4 13 5 14 6 15 7 16 8 17 9 18 10 19 11 8 12
REMARK SMILES IDX 7 13 6 14 5 15 4 16 3 17 2 18 1 19
REMARK H PARENT
REMARK Flexibility Score: inf
ROOT
ATOM      1  C   UNL     1      49.652  47.035  44.325  1.00  0.00     0.000 C 
ENDROOT
BRANCH   1   2
ATOM      2  C   UNL     1      50.173  46.770  45.748  1.00  0.00     0.000 C 
BRANCH   2   3
ATOM      3  C   UNL     1      51.676  46.434  45.784  1.00  0.00     0.000 C 
BRANCH   3   4
ATOM      4  C   UNL     1      52.137  45.374  44.766  1.00  0.00     0.000 C 
BRANCH   4   5
ATOM      5  C   UNL     1      52.903  45.975  43.577  1.00  0.00     0.001 C 
BRANCH   5   6
ATOM      6  C   UNL     1      52.654  45.164  42.296  1.00  0.00     0.009 C 
BRANCH   6   7
ATOM      7  C   UNL     1      53.056  45.931  41.017  1.00  0.00     0.032 C 
ATOM      8  C   UNL     1      54.578  46.077  40.876  1.00  0.00     0.014 C 
BRANCH   7   9
ATOM      9  C   UNL     1      52.413  47.292  41.014  1.00  0.00     0.044 C 
ATOM     10  O   UNL     1      51.164  47.411  41.130  1.00  0.00    -0.550 OA
ATOM     11  O   UNL     1      53.200  48.430  40.882  1.00  0.00    -0.550 OA
ENDBRANCH   7   9
ENDBRANCH   6   7
ENDBRANCH   5   6
ENDBRANCH   4   5
ENDBRANCH   3   4
ENDBRANCH   2   3
ENDBRANCH   1   2
BRANCH   1  12
ATOM     12  C   UNL     1      48.722  45.920  43.813  1.00  0.00     0.000 C 
BRANCH  12  13
ATOM     13  C   UNL     1      49.014  45.425  42.381  1.00  0.00    -0.000 C 
BRANCH  13  14
ATOM     14  C   UNL     1      47.769  45.070  41.543  1.00  0.00    -0.000 C 
BRANCH  14  15
ATOM     15  C   UNL     1      46.790  46.234  41.307  1.00  0.00    -0.000 C 
BRANCH  15  16
ATOM     16  C   UNL     1      45.305  45.828  41.243  1.00  0.00    -0.000 C 
BRANCH  16  17
ATOM     17  C   UNL     1      44.333  46.964  41.626  1.00  0.00    -0.000 C 
BRANCH  17  18
ATOM     18  C   UNL     1      42.870  46.619  41.306  1.00  0.00    -0.003 C 
ATOM     19  C   UNL     1      42.065  47.876  40.991  1.00  0.00     0.004 C 
ENDBRANCH  17  18
ENDBRANCH  16  17
ENDBRANCH  15  16
ENDBRANCH  14  15
ENDBRANCH  13  14
ENDBRANCH  12  13
ENDBRANCH   1  12
TORSDOF 14
ENDMDL
MODEL 7
REMARK VINA RESULT:    -2.704     21.293     22.733
REMARK INTER + INTRA:          -6.190
REMARK INTER:                  -5.144
REMARK INTRA:                  -1.046
REMARK UNBOUND:                -1.273
REMARK SMILES CCCCCCCCCCCCCC[C@H](C)C(=O)[O-]
REMARK SMILES IDX 9 1 10 2 11 3 12 4 13 5 14 6 15 7 16 8 17 9 18 10 19 11 8 12
REMARK SMILES IDX 7 13 6 14 5 15 4 16 3 17 2 18 1 19
REMARK H PARENT
REMARK Flexibility Score: inf
ROOT
ATOM      1  C   UNL     1      44.761  62.819  55.752  1.00  0.00     0.000 C 
ENDROOT
BRANCH   1   2
ATOM      2  C   UNL     1      45.329  63.185  57.134  1.00  0.00     0.000 C 
BRANCH   2   3
ATOM      3  C   UNL     1      45.501  64.703  57.330  1.00  0.00     0.000 C 
BRANCH   3   4
ATOM      4  C   UNL     1      46.164  65.123  58.655  1.00  0.00     0.000 C 
BRANCH   4   5
ATOM      5  C   UNL     1      45.574  64.404  59.878  1.00  0.00     0.001 C 
BRANCH   5   6
ATOM      6  C   UNL     1      46.680  64.000  60.866  1.00  0.00     0.009 C 
BRANCH   6   7
ATOM      7  C   UNL     1      47.750  63.091  60.224  1.00  0.00     0.032 C 
ATOM      8  C   UNL     1      47.765  61.683  60.836  1.00  0.00     0.014 C 
BRANCH   7   9
ATOM      9  C   UNL     1      49.110  63.720  60.365  1.00  0.00     0.044 C 
ATOM     10  O   UNL     1      49.241  64.841  60.926  1.00  0.00    -0.550 OA
ATOM     11  O   UNL     1      50.232  63.062  59.876  1.00  0.00    -0.550 OA
ENDBRANCH   7   9
ENDBRANCH   6   7
ENDBRANCH   5   6
ENDBRANCH   4   5
ENDBRANCH   3   4
ENDBRANCH   2   3
ENDBRANCH   1   2
BRANCH   1  12
ATOM     12  C   UNL     1      43.279  62.403  55.806  1.00  0.00     0.000 C 
BRANCH  12  13
ATOM     13  C   UNL     1      42.275  63.563  55.973  1.00  0.00    -0.000 C 
BRANCH  13  14
ATOM     14  C   UNL     1      42.575  64.817  55.128  1.00  0.00    -0.000 C 
BRANCH  14  15
ATOM     15  C   UNL     1      41.543  65.121  54.027  1.00  0.00    -0.000 C 
BRANCH  15  16
ATOM     16  C   UNL     1      41.734  64.323  52.723  1.00  0.00    -0.000 C 
BRANCH  16  17
ATOM     17  C   UNL     1      40.900  64.856  51.539  1.00  0.00    -0.000 C 
BRANCH  17  18
ATOM     18  C   UNL     1      39.420  65.052  51.903  1.00  0.00    -0.003 C 
ATOM     19  C   UNL     1      38.547  65.091  50.654  1.00  0.00     0.004 C 
ENDBRANCH  17  18
ENDBRANCH  16  17
ENDBRANCH  15  16
ENDBRANCH  14  15
ENDBRANCH  13  14
ENDBRANCH  12  13
ENDBRANCH   1  12
TORSDOF 14
ENDMDL
MODEL 8
REMARK VINA RESULT:    -2.687     22.490     25.073
REMARK INTER + INTRA:          -6.160
REMARK INTER:                  -5.261
REMARK INTRA:                  -0.899
REMARK UNBOUND:                -1.273
REMARK SMILES CCCCCCCCCCCCCC[C@H](C)C(=O)[O-]
REMARK SMILES IDX 9 1 10 2 11 3 12 4 13 5 14 6 15 7 16 8 17 9 18 10 19 11 8 12
REMARK SMILES IDX 7 13 6 14 5 15 4 16 3 17 2 18 1 19
REMARK H PARENT
REMARK Flexibility Score: inf
ROOT
ATOM      1  C   UNL     1      42.839  63.615  56.232  1.00  0.00     0.000 C 
ENDROOT
BRANCH   1   2
ATOM      2  C   UNL     1      42.211  65.004  56.433  1.00  0.00     0.000 C 
BRANCH   2   3
ATOM      3  C   UNL     1      41.414  65.119  57.746  1.00  0.00     0.000 C 
BRANCH   3   4
ATOM      4  C   UNL     1      39.896  64.898  57.615  1.00  0.00     0.000 C 
BRANCH   4   5
ATOM      5  C   UNL     1      39.267  64.284  58.875  1.00  0.00     0.001 C 
BRANCH   5   6
ATOM      6  C   UNL     1      38.363  63.094  58.514  1.00  0.00     0.009 C 
BRANCH   6   7
ATOM      7  C   UNL     1      37.444  62.670  59.681  1.00  0.00     0.032 C 
ATOM      8  C   UNL     1      37.811  63.367  60.998  1.00  0.00     0.014 C 
BRANCH   7   9
ATOM      9  C   UNL     1      37.504  61.177  59.863  1.00  0.00     0.044 C 
ATOM     10  O   UNL     1      37.968  60.439  58.953  1.00  0.00    -0.550 OA
ATOM     11  O   UNL     1      37.047  60.604  61.044  1.00  0.00    -0.550 OA
ENDBRANCH   7   9
ENDBRANCH   6   7
ENDBRANCH   5   6
ENDBRANCH   4   5
ENDBRANCH   3   4
ENDBRANCH   2   3
ENDBRANCH   1   2
BRANCH   1  12
ATOM     12  C   UNL     1      44.378  63.643  56.274  1.00  0.00     0.000 C 
BRANCH  12  13
ATOM     13  C   UNL     1      45.005  65.031  56.522  1.00  0.00    -0.000 C 
BRANCH  13  14
ATOM     14  C   UNL     1      45.922  65.125  57.759  1.00  0.00    -0.000 C 
BRANCH  14  15
ATOM     15  C   UNL     1      45.440  64.331  58.986  1.00  0.00    -0.000 C 
BRANCH  15  16
ATOM     16  C   UNL     1      46.523  63.472  59.667  1.00  0.00    -0.000 C 
BRANCH  16  17
ATOM     17  C   UNL     1      47.926  64.116  59.654  1.00  0.00    -0.000 C 
BRANCH  17  18
ATOM     18  C   UNL     1      48.987  63.229  60.324  1.00  0.00    -0.003 C 
ATOM     19  C   UNL     1      50.396  63.713  59.998  1.00  0.00     0.004 C 
ENDBRANCH  17  18
ENDBRANCH  16  17
ENDBRANCH  15  16
ENDBRANCH  14  15
ENDBRANCH  13  14
ENDBRANCH  12  13
ENDBRANCH   1  12
TORSDOF 14
ENDMDL
MODEL 9
REMARK VINA RESULT:    -2.605     22.698     24.096
REMARK INTER + INTRA:          -6.011
REMARK INTER:                  -5.455
REMARK INTRA:                  -0.556
REMARK UNBOUND:                -1.273
REMARK SMILES CCCCCCCCCCCCCC[C@H](C)C(=O)[O-]
REMARK SMILES IDX 9 1 10 2 11 3 12 4 13 5 14 6 15 7 16 8 17 9 18 10 19 11 8 12
REMARK SMILES IDX 7 13 6 14 5 15 4 16 3 17 2 18 1 19
REMARK H PARENT
REMARK Flexibility Score: inf
ROOT
ATOM      1  C   UNL     1      43.139  64.215  56.271  1.00  0.00     0.000 C 
ENDROOT
BRANCH   1   2
ATOM      2  C   UNL     1      44.659  64.431  56.356  1.00  0.00     0.000 C 
BRANCH   2   3
ATOM      3  C   UNL     1      45.334  63.540  57.416  1.00  0.00     0.000 C 
BRANCH   3   4
ATOM      4  C   UNL     1      45.802  64.271  58.688  1.00  0.00     0.000 C 
BRANCH   4   5
ATOM      5  C   UNL     1      47.093  65.077  58.478  1.00  0.00     0.001 C 
BRANCH   5   6
ATOM      6  C   UNL     1      47.969  65.052  59.740  1.00  0.00     0.009 C 
BRANCH   6   7
ATOM      7  C   UNL     1      48.804  63.758  59.860  1.00  0.00     0.032 C 
ATOM      8  C   UNL     1      48.272  62.818  60.951  1.00  0.00     0.014 C 
BRANCH   7   9
ATOM      9  C   UNL     1      50.242  64.100  60.142  1.00  0.00     0.044 C 
ATOM     10  O   UNL     1      50.540  64.898  61.071  1.00  0.00    -0.550 OA
ATOM     11  O   UNL     1      51.252  63.533  59.375  1.00  0.00    -0.550 OA
ENDBRANCH   7   9
ENDBRANCH   6   7
ENDBRANCH   5   6
ENDBRANCH   4   5
ENDBRANCH   3   4
ENDBRANCH   2   3
ENDBRANCH   1   2
BRANCH   1  12
ATOM     12  C   UNL     1      42.359  65.036  57.314  1.00  0.00     0.000 C 
BRANCH  12  13
ATOM     13  C   UNL     1      40.830  65.079  57.110  1.00  0.00    -0.000 C 
BRANCH  13  14
ATOM     14  C   UNL     1      40.051  63.907  57.741  1.00  0.00    -0.000 C 
BRANCH  14  15
ATOM     15  C   UNL     1      38.937  64.320  58.720  1.00  0.00    -0.000 C 
BRANCH  15  16
ATOM     16  C   UNL     1      37.548  63.736  58.404  1.00  0.00    -0.000 C 
BRANCH  16  17
ATOM     17  C   UNL     1      36.676  63.493  59.654  1.00  0.00    -0.000 C 
BRANCH  17  18
ATOM     18  C   UNL     1      36.537  62.001  59.993  1.00  0.00    -0.003 C 
ATOM     19  C   UNL     1      37.687  61.192  59.401  1.00  0.00     0.004 C 
ENDBRANCH  17  18
ENDBRANCH  16  17
ENDBRANCH  15  16
ENDBRANCH  14  15
ENDBRANCH  13  14
ENDBRANCH  12  13
ENDBRANCH   1  12
TORSDOF 14
ENDMDL
