MODEL 1
REMARK VINA RESULT:    92.921      0.000      0.000
REMARK INTER + INTRA:          95.637
REMARK INTER:                  95.637
REMARK INTRA:                   0.000
REMARK UNBOUND:                 0.000
REMARK SMILES CC1(C)CC[C@@]2(C)CC[C@@]3(C)C(=CC[C@@H]4[C@]5(C)CC[C@H](O)C(C)(C)[C@@H]5CC[C@@]43C)[C@H]2C1
REMARK SMILES IDX 1 1 2 2 4 3 5 4 6 5 8 6 9 7 10 8 12 9 13 10 14 11 15 12
REMARK SMILES IDX 28 13 27 14 26 15 25 16 16 17 18 18 19 19 20 20 22 21 23 22
REMARK SMILES IDX 24 23 17 24 29 25 30 26 31 27 11 28 7 29 3 30 21 31
REMARK H PARENT 21 32
REMARK Flexibility Score: inf
ROOT
ATOM      1  C   UNL     1     -24.502  27.538  -9.174  1.00  0.00     0.011 C 
ATOM      2  C   UNL     1     -25.256  28.629  -8.379  1.00  0.00    -0.035 C 
ATOM      3  C   UNL     1     -26.004  29.566  -9.370  1.00  0.00     0.007 C 
ATOM      4  C   UNL     1     -25.159  30.787  -9.746  1.00  0.00     0.008 C 
ATOM      5  C   UNL     1     -24.892  31.714  -8.513  1.00  0.00    -0.026 C 
ATOM      6  C   UNL     1     -26.080  32.708  -8.407  1.00  0.00     0.008 C 
ATOM      7  C   UNL     1     -26.238  33.277  -7.003  1.00  0.00     0.012 C 
ATOM      8  C   UNL     1     -26.701  32.194  -5.969  1.00  0.00    -0.006 C 
ATOM      9  C   UNL     1     -25.743  30.983  -6.079  1.00  0.00    -0.064 C 
ATOM     10  C   UNL     1     -25.689  30.140  -5.024  1.00  0.00    -0.027 C 
ATOM     11  C   UNL     1     -26.729  30.163  -3.958  1.00  0.00     0.032 C 
ATOM     12  C   UNL     1     -26.914  31.584  -3.357  1.00  0.00     0.006 C 
ATOM     13  C   UNL     1     -26.695  32.761  -4.449  1.00  0.00    -0.020 C 
ATOM     14  C   UNL     1     -27.698  33.949  -4.275  1.00  0.00     0.008 C 
ATOM     15  C   UNL     1     -29.009  33.603  -3.604  1.00  0.00     0.005 C 
ATOM     16  C   UNL     1     -28.764  33.087  -2.167  1.00  0.00     0.003 C 
ATOM     17  C   UNL     1     -28.113  31.649  -2.262  1.00  0.00    -0.025 C 
ATOM     18  C   UNL     1     -29.243  30.604  -2.562  1.00  0.00     0.010 C 
ATOM     19  C   UNL     1     -30.471  30.685  -1.643  1.00  0.00     0.033 C 
ATOM     20  C   UNL     1     -31.102  32.081  -1.616  1.00  0.00     0.120 C 
ATOM     21  C   UNL     1     -30.071  33.195  -1.251  1.00  0.00    -0.006 C 
ATOM     22  C   UNL     1     -30.765  34.586  -1.400  1.00  0.00     0.014 C 
ATOM     23  C   UNL     1     -29.705  33.106   0.267  1.00  0.00     0.014 C 
ATOM     24  C   UNL     1     -27.457  31.257  -0.898  1.00  0.00     0.012 C 
ATOM     25  C   UNL     1     -25.282  33.388  -4.161  1.00  0.00     0.012 C 
ATOM     26  C   UNL     1     -24.648  30.884  -7.174  1.00  0.00     0.022 C 
ATOM     27  C   UNL     1     -24.217  29.426  -7.530  1.00  0.00     0.015 C 
ATOM     28  C   UNL     1     -28.136  31.743  -6.373  1.00  0.00     0.017 C 
ATOM     29  C   UNL     1     -23.610  32.528  -8.832  1.00  0.00     0.012 C 
ATOM     30  C   UNL     1     -26.282  27.922  -7.466  1.00  0.00     0.011 C 
ENDROOT
BRANCH  20  31
ATOM     31  O   UNL     1     -31.686  32.327  -2.873  1.00  0.00    -0.393 OA
ATOM     32  H   UNL     1     -31.189  31.792  -3.546  1.00  0.00     0.210 HD
ENDBRANCH  20  31
TORSDOF 1
ENDMDL
