MODEL 1
REMARK VINA RESULT:    -3.758      0.000      0.000
REMARK INTER + INTRA:          -7.437
REMARK INTER:                  -5.954
REMARK INTRA:                  -1.483
REMARK UNBOUND:                -1.483
REMARK SMILES CCCCCCCCCCCC(=O)[O-]
REMARK SMILES IDX 7 1 8 2 9 3 10 4 11 5 12 6 13 7 14 8 6 9 5 10 4 11 3 12 2 13
REMARK SMILES IDX 1 14
REMARK H PARENT
REMARK Flexibility Score: inf
ROOT
ATOM      1  C   UNL     1       3.131  24.288  14.945  1.00  0.00     0.000 C 
ENDROOT
BRANCH   1   2
ATOM      2  C   UNL     1       2.130  25.272  15.575  1.00  0.00     0.000 C 
BRANCH   2   3
ATOM      3  C   UNL     1       2.811  26.527  16.143  1.00  0.00     0.000 C 
BRANCH   3   4
ATOM      4  C   UNL     1       4.198  26.228  16.740  1.00  0.00     0.006 C 
BRANCH   4   5
ATOM      5  C   UNL     1       5.305  27.057  16.077  1.00  0.00     0.053 C 
BRANCH   5   6
ATOM      6  C   UNL     1       6.442  26.198  15.613  1.00  0.00     0.041 C 
ATOM      7  O   UNL     1       7.278  25.752  16.442  1.00  0.00    -0.550 OA
ATOM      8  O   UNL     1       6.562  25.868  14.269  1.00  0.00    -0.550 OA
ENDBRANCH   5   6
ENDBRANCH   4   5
ENDBRANCH   3   4
ENDBRANCH   2   3
ENDBRANCH   1   2
BRANCH   1   9
ATOM      9  C   UNL     1       3.391  24.585  13.460  1.00  0.00     0.000 C 
BRANCH   9  10
ATOM     10  C   UNL     1       2.169  25.205  12.761  1.00  0.00    -0.000 C 
BRANCH  10  11
ATOM     11  C   UNL     1       2.510  26.501  12.003  1.00  0.00    -0.000 C 
BRANCH  11  12
ATOM     12  C   UNL     1       3.929  27.049  12.256  1.00  0.00    -0.000 C 
BRANCH  12  13
ATOM     13  C   UNL     1       3.981  28.460  12.867  1.00  0.00    -0.003 C 
ATOM     14  C   UNL     1       5.380  29.074  12.832  1.00  0.00     0.004 C 
ENDBRANCH  12  13
ENDBRANCH  11  12
ENDBRANCH  10  11
ENDBRANCH   9  10
ENDBRANCH   1   9
TORSDOF 10
ENDMDL
MODEL 2
REMARK VINA RESULT:    -3.735      1.621      4.118
REMARK INTER + INTRA:          -7.401
REMARK INTER:                  -6.310
REMARK INTRA:                  -1.091
REMARK UNBOUND:                -1.483
REMARK SMILES CCCCCCCCCCCC(=O)[O-]
REMARK SMILES IDX 7 1 8 2 9 3 10 4 11 5 12 6 13 7 14 8 6 9 5 10 4 11 3 12 2 13
REMARK SMILES IDX 1 14
REMARK H PARENT
REMARK Flexibility Score: inf
ROOT
ATOM      1  C   UNL     1       3.943  24.879  13.368  1.00  0.00     0.000 C 
ENDROOT
BRANCH   1   2
ATOM      2  C   UNL     1       2.673  25.616  12.905  1.00  0.00     0.000 C 
BRANCH   2   3
ATOM      3  C   UNL     1       2.912  26.476  11.654  1.00  0.00     0.000 C 
BRANCH   3   4
ATOM      4  C   UNL     1       2.708  27.977  11.920  1.00  0.00     0.006 C 
BRANCH   4   5
ATOM      5  C   UNL     1       3.352  28.425  13.239  1.00  0.00     0.053 C 
BRANCH   5   6
ATOM      6  C   UNL     1       4.811  28.727  13.073  1.00  0.00     0.041 C 
ATOM      7  O   UNL     1       5.676  27.884  13.429  1.00  0.00    -0.550 OA
ATOM      8  O   UNL     1       5.213  29.926  12.498  1.00  0.00    -0.550 OA
ENDBRANCH   5   6
ENDBRANCH   4   5
ENDBRANCH   3   4
ENDBRANCH   2   3
ENDBRANCH   1   2
BRANCH   1   9
ATOM      9  C   UNL     1       3.969  24.654  14.888  1.00  0.00     0.000 C 
BRANCH   9  10
ATOM     10  C   UNL     1       3.259  25.778  15.663  1.00  0.00    -0.000 C 
BRANCH  10  11
ATOM     11  C   UNL     1       4.000  26.173  16.953  1.00  0.00    -0.000 C 
BRANCH  11  12
ATOM     12  C   UNL     1       5.278  27.009  16.740  1.00  0.00    -0.000 C 
BRANCH  12  13
ATOM     13  C   UNL     1       6.597  26.255  16.984  1.00  0.00    -0.003 C 
ATOM     14  C   UNL     1       7.512  26.242  15.760  1.00  0.00     0.004 C 
ENDBRANCH  12  13
ENDBRANCH  11  12
ENDBRANCH  10  11
ENDBRANCH   9  10
ENDBRANCH   1   9
TORSDOF 10
ENDMDL
MODEL 3
REMARK VINA RESULT:    -3.690      1.288      2.332
REMARK INTER + INTRA:          -7.330
REMARK INTER:                  -5.895
REMARK INTRA:                  -1.434
REMARK UNBOUND:                -1.483
REMARK SMILES CCCCCCCCCCCC(=O)[O-]
REMARK SMILES IDX 7 1 8 2 9 3 10 4 11 5 12 6 13 7 14 8 6 9 5 10 4 11 3 12 2 13
REMARK SMILES IDX 1 14
REMARK H PARENT
REMARK Flexibility Score: inf
ROOT
ATOM      1  C   UNL     1       2.293  25.124  12.818  1.00  0.00     0.000 C 
ENDROOT
BRANCH   1   2
ATOM      2  C   UNL     1       3.695  24.823  13.378  1.00  0.00     0.000 C 
BRANCH   2   3
ATOM      3  C   UNL     1       3.666  24.434  14.865  1.00  0.00     0.000 C 
BRANCH   3   4
ATOM      4  C   UNL     1       4.618  25.290  15.718  1.00  0.00     0.006 C 
BRANCH   4   5
ATOM      5  C   UNL     1       5.915  25.631  14.974  1.00  0.00     0.053 C 
BRANCH   5   6
ATOM      6  C   UNL     1       6.978  26.130  15.906  1.00  0.00     0.041 C 
ATOM      7  O   UNL     1       7.097  25.629  17.055  1.00  0.00    -0.550 OA
ATOM      8  O   UNL     1       7.854  27.127  15.495  1.00  0.00    -0.550 OA
ENDBRANCH   5   6
ENDBRANCH   4   5
ENDBRANCH   3   4
ENDBRANCH   2   3
ENDBRANCH   1   2
BRANCH   1   9
ATOM      9  C   UNL     1       2.294  26.309  11.839  1.00  0.00     0.000 C 
BRANCH   9  10
ATOM     10  C   UNL     1       3.621  27.088  11.860  1.00  0.00    -0.000 C 
BRANCH  10  11
ATOM     11  C   UNL     1       3.494  28.462  12.544  1.00  0.00    -0.000 C 
BRANCH  11  12
ATOM     12  C   UNL     1       4.355  28.641  13.810  1.00  0.00    -0.000 C 
BRANCH  12  13
ATOM     13  C   UNL     1       3.599  28.469  15.140  1.00  0.00    -0.003 C 
ATOM     14  C   UNL     1       2.091  28.307  14.951  1.00  0.00     0.004 C 
ENDBRANCH  12  13
ENDBRANCH  11  12
ENDBRANCH  10  11
ENDBRANCH   9  10
ENDBRANCH   1   9
TORSDOF 10
ENDMDL
MODEL 4
REMARK VINA RESULT:    -3.682      2.326      4.871
REMARK INTER + INTRA:          -7.317
REMARK INTER:                  -5.886
REMARK INTRA:                  -1.431
REMARK UNBOUND:                -1.483
REMARK SMILES CCCCCCCCCCCC(=O)[O-]
REMARK SMILES IDX 7 1 8 2 9 3 10 4 11 5 12 6 13 7 14 8 6 9 5 10 4 11 3 12 2 13
REMARK SMILES IDX 1 14
REMARK H PARENT
REMARK Flexibility Score: inf
ROOT
ATOM      1  C   UNL     1       6.533  25.798  16.228  1.00  0.00     0.000 C 
ENDROOT
BRANCH   1   2
ATOM      2  C   UNL     1       6.967  26.170  14.799  1.00  0.00     0.000 C 
BRANCH   2   3
ATOM      3  C   UNL     1       5.785  26.229  13.819  1.00  0.00     0.000 C 
BRANCH   3   4
ATOM      4  C   UNL     1       5.358  27.671  13.493  1.00  0.00     0.006 C 
BRANCH   4   5
ATOM      5  C   UNL     1       4.553  27.757  12.190  1.00  0.00     0.053 C 
BRANCH   5   6
ATOM      6  C   UNL     1       3.144  27.279  12.373  1.00  0.00     0.041 C 
ATOM      7  O   UNL     1       2.805  26.137  11.965  1.00  0.00    -0.550 OA
ATOM      8  O   UNL     1       2.214  28.084  13.020  1.00  0.00    -0.550 OA
ENDBRANCH   5   6
ENDBRANCH   4   5
ENDBRANCH   3   4
ENDBRANCH   2   3
ENDBRANCH   1   2
BRANCH   1   9
ATOM      9  C   UNL     1       6.280  27.034  17.106  1.00  0.00     0.000 C 
BRANCH   9  10
ATOM     10  C   UNL     1       4.799  27.449  17.125  1.00  0.00    -0.000 C 
BRANCH  10  11
ATOM     11  C   UNL     1       3.842  26.244  17.083  1.00  0.00    -0.000 C 
BRANCH  11  12
ATOM     12  C   UNL     1       2.759  26.309  15.988  1.00  0.00    -0.000 C 
BRANCH  12  13
ATOM     13  C   UNL     1       2.201  24.945  15.544  1.00  0.00    -0.003 C 
ATOM     14  C   UNL     1       3.272  24.025  14.958  1.00  0.00     0.004 C 
ENDBRANCH  12  13
ENDBRANCH  11  12
ENDBRANCH  10  11
ENDBRANCH   9  10
ENDBRANCH   1   9
TORSDOF 10
ENDMDL
MODEL 5
REMARK VINA RESULT:    -3.637      2.330      4.303
REMARK INTER + INTRA:          -7.246
REMARK INTER:                  -5.689
REMARK INTRA:                  -1.556
REMARK UNBOUND:                -1.483
REMARK SMILES CCCCCCCCCCCC(=O)[O-]
REMARK SMILES IDX 7 1 8 2 9 3 10 4 11 5 12 6 13 7 14 8 6 9 5 10 4 11 3 12 2 13
REMARK SMILES IDX 1 14
REMARK H PARENT
REMARK Flexibility Score: inf
ROOT
ATOM      1  C   UNL     1       5.253  27.493  16.423  1.00  0.00     0.000 C 
ENDROOT
BRANCH   1   2
ATOM      2  C   UNL     1       3.900  27.183  17.088  1.00  0.00     0.000 C 
BRANCH   2   3
ATOM      3  C   UNL     1       2.709  27.429  16.147  1.00  0.00     0.000 C 
BRANCH   3   4
ATOM      4  C   UNL     1       3.060  28.373  14.984  1.00  0.00     0.006 C 
BRANCH   4   5
ATOM      5  C   UNL     1       2.359  27.972  13.680  1.00  0.00     0.053 C 
BRANCH   5   6
ATOM      6  C   UNL     1       3.175  28.330  12.475  1.00  0.00     0.041 C 
ATOM      7  O   UNL     1       4.231  29.004  12.604  1.00  0.00    -0.550 OA
ATOM      8  O   UNL     1       2.785  27.894  11.215  1.00  0.00    -0.550 OA
ENDBRANCH   5   6
ENDBRANCH   4   5
ENDBRANCH   3   4
ENDBRANCH   2   3
ENDBRANCH   1   2
BRANCH   1   9
ATOM      9  C   UNL     1       6.240  26.320  16.526  1.00  0.00     0.000 C 
BRANCH   9  10
ATOM     10  C   UNL     1       6.770  25.875  15.152  1.00  0.00    -0.000 C 
BRANCH  10  11
ATOM     11  C   UNL     1       5.803  26.213  14.003  1.00  0.00    -0.000 C 
BRANCH  11  12
ATOM     12  C   UNL     1       4.929  25.038  13.520  1.00  0.00    -0.000 C 
BRANCH  12  13
ATOM     13  C   UNL     1       4.001  24.436  14.591  1.00  0.00    -0.003 C 
ATOM     14  C   UNL     1       2.548  24.333  14.129  1.00  0.00     0.004 C 
ENDBRANCH  12  13
ENDBRANCH  11  12
ENDBRANCH  10  11
ENDBRANCH   9  10
ENDBRANCH   1   9
TORSDOF 10
ENDMDL
MODEL 6
REMARK VINA RESULT:    -3.216      8.681     10.848
REMARK INTER + INTRA:          -6.580
REMARK INTER:                  -5.379
REMARK INTRA:                  -1.200
REMARK UNBOUND:                -1.483
REMARK SMILES CCCCCCCCCCCC(=O)[O-]
REMARK SMILES IDX 7 1 8 2 9 3 10 4 11 5 12 6 13 7 14 8 6 9 5 10 4 11 3 12 2 13
REMARK SMILES IDX 1 14
REMARK H PARENT
REMARK Flexibility Score: inf
ROOT
ATOM      1  C   UNL     1       4.189  14.655  14.098  1.00  0.00     0.000 C 
ENDROOT
BRANCH   1   2
ATOM      2  C   UNL     1       3.184  14.968  12.975  1.00  0.00     0.000 C 
BRANCH   2   3
ATOM      3  C   UNL     1       3.871  15.319  11.647  1.00  0.00     0.000 C 
BRANCH   3   4
ATOM      4  C   UNL     1       3.386  16.659  11.066  1.00  0.00     0.006 C 
BRANCH   4   5
ATOM      5  C   UNL     1       3.260  16.616   9.538  1.00  0.00     0.053 C 
BRANCH   5   6
ATOM      6  C   UNL     1       4.223  17.552   8.872  1.00  0.00     0.041 C 
ATOM      7  O   UNL     1       5.456  17.299   8.877  1.00  0.00    -0.550 OA
ATOM      8  O   UNL     1       3.754  18.687   8.222  1.00  0.00    -0.550 OA
ENDBRANCH   5   6
ENDBRANCH   4   5
ENDBRANCH   3   4
ENDBRANCH   2   3
ENDBRANCH   1   2
BRANCH   1   9
ATOM      9  C   UNL     1       5.639  14.962  13.690  1.00  0.00     0.000 C 
BRANCH   9  10
ATOM     10  C   UNL     1       6.251  16.108  14.514  1.00  0.00    -0.000 C 
BRANCH  10  11
ATOM     11  C   UNL     1       5.574  16.284  15.885  1.00  0.00    -0.000 C 
BRANCH  11  12
ATOM     12  C   UNL     1       4.976  17.683  16.142  1.00  0.00    -0.000 C 
BRANCH  12  13
ATOM     13  C   UNL     1       4.661  18.497  14.874  1.00  0.00    -0.003 C 
ATOM     14  C   UNL     1       3.198  18.390  14.445  1.00  0.00     0.004 C 
ENDBRANCH  12  13
ENDBRANCH  11  12
ENDBRANCH  10  11
ENDBRANCH   9  10
ENDBRANCH   1   9
TORSDOF 10
ENDMDL
MODEL 7
REMARK VINA RESULT:    -3.086      9.379     11.542
REMARK INTER + INTRA:          -6.373
REMARK INTER:                  -5.521
REMARK INTRA:                  -0.852
REMARK UNBOUND:                -1.483
REMARK SMILES CCCCCCCCCCCC(=O)[O-]
REMARK SMILES IDX 7 1 8 2 9 3 10 4 11 5 12 6 13 7 14 8 6 9 5 10 4 11 3 12 2 13
REMARK SMILES IDX 1 14
REMARK H PARENT
REMARK Flexibility Score: inf
ROOT
ATOM      1  C   UNL     1       5.333  16.420  12.755  1.00  0.00     0.000 C 
ENDROOT
BRANCH   1   2
ATOM      2  C   UNL     1       3.936  16.179  12.154  1.00  0.00     0.000 C 
BRANCH   2   3
ATOM      3  C   UNL     1       3.996  15.551  10.753  1.00  0.00     0.000 C 
BRANCH   3   4
ATOM      4  C   UNL     1       3.751  16.577   9.634  1.00  0.00     0.006 C 
BRANCH   4   5
ATOM      5  C   UNL     1       5.042  16.944   8.890  1.00  0.00     0.053 C 
BRANCH   5   6
ATOM      6  C   UNL     1       5.268  16.063   7.699  1.00  0.00     0.041 C 
ATOM      7  O   UNL     1       6.415  15.975   7.186  1.00  0.00    -0.550 OA
ATOM      8  O   UNL     1       4.220  15.319   7.173  1.00  0.00    -0.550 OA
ENDBRANCH   5   6
ENDBRANCH   4   5
ENDBRANCH   3   4
ENDBRANCH   2   3
ENDBRANCH   1   2
BRANCH   1   9
ATOM      9  C   UNL     1       5.667  15.428  13.881  1.00  0.00     0.000 C 
BRANCH   9  10
ATOM     10  C   UNL     1       4.413  14.940  14.626  1.00  0.00    -0.000 C 
BRANCH  10  11
ATOM     11  C   UNL     1       4.321  15.490  16.062  1.00  0.00    -0.000 C 
BRANCH  11  12
ATOM     12  C   UNL     1       5.540  16.315  16.522  1.00  0.00    -0.000 C 
BRANCH  12  13
ATOM     13  C   UNL     1       5.233  17.779  16.885  1.00  0.00    -0.003 C 
ATOM     14  C   UNL     1       4.636  18.569  15.720  1.00  0.00     0.004 C 
ENDBRANCH  12  13
ENDBRANCH  11  12
ENDBRANCH  10  11
ENDBRANCH   9  10
ENDBRANCH   1   9
TORSDOF 10
ENDMDL
MODEL 8
REMARK VINA RESULT:    -3.055     10.142     11.590
REMARK INTER + INTRA:          -6.324
REMARK INTER:                  -5.082
REMARK INTRA:                  -1.242
REMARK UNBOUND:                -1.483
REMARK SMILES CCCCCCCCCCCC(=O)[O-]
REMARK SMILES IDX 7 1 8 2 9 3 10 4 11 5 12 6 13 7 14 8 6 9 5 10 4 11 3 12 2 13
REMARK SMILES IDX 1 14
REMARK H PARENT
REMARK Flexibility Score: inf
ROOT
ATOM      1  C   UNL     1       3.255  18.573   8.048  1.00  0.00     0.000 C 
ENDROOT
BRANCH   1   2
ATOM      2  C   UNL     1       2.094  17.574   8.201  1.00  0.00     0.000 C 
BRANCH   2   3
ATOM      3  C   UNL     1       2.481  16.340   9.032  1.00  0.00     0.000 C 
BRANCH   3   4
ATOM      4  C   UNL     1       2.929  16.704  10.458  1.00  0.00     0.006 C 
BRANCH   4   5
ATOM      5  C   UNL     1       4.309  16.127  10.798  1.00  0.00     0.053 C 
BRANCH   5   6
ATOM      6  C   UNL     1       4.492  15.955  12.276  1.00  0.00     0.041 C 
ATOM      7  O   UNL     1       4.138  16.867  13.068  1.00  0.00    -0.550 OA
ATOM      8  O   UNL     1       5.028  14.775  12.778  1.00  0.00    -0.550 OA
ENDBRANCH   5   6
ENDBRANCH   4   5
ENDBRANCH   3   4
ENDBRANCH   2   3
ENDBRANCH   1   2
BRANCH   1   9
ATOM      9  C   UNL     1       3.371  19.124   6.618  1.00  0.00     0.000 C 
BRANCH   9  10
ATOM     10  C   UNL     1       2.947  18.096   5.555  1.00  0.00    -0.000 C 
BRANCH  10  11
ATOM     11  C   UNL     1       4.127  17.256   5.034  1.00  0.00    -0.000 C 
BRANCH  11  12
ATOM     12  C   UNL     1       4.184  15.810   5.569  1.00  0.00    -0.000 C 
BRANCH  12  13
ATOM     13  C   UNL     1       5.556  15.372   6.112  1.00  0.00    -0.003 C 
ATOM     14  C   UNL     1       5.964  16.126   7.377  1.00  0.00     0.004 C 
ENDBRANCH  12  13
ENDBRANCH  11  12
ENDBRANCH  10  11
ENDBRANCH   9  10
ENDBRANCH   1   9
TORSDOF 10
ENDMDL
MODEL 9
REMARK VINA RESULT:    -3.032      9.564     11.037
REMARK INTER + INTRA:          -6.288
REMARK INTER:                  -5.447
REMARK INTRA:                  -0.841
REMARK UNBOUND:                -1.483
REMARK SMILES CCCCCCCCCCCC(=O)[O-]
REMARK SMILES IDX 7 1 8 2 9 3 10 4 11 5 12 6 13 7 14 8 6 9 5 10 4 11 3 12 2 13
REMARK SMILES IDX 1 14
REMARK H PARENT
REMARK Flexibility Score: inf
ROOT
ATOM      1  C   UNL     1       4.656  17.575   8.876  1.00  0.00     0.000 C 
ENDROOT
BRANCH   1   2
ATOM      2  C   UNL     1       4.226  16.370   9.731  1.00  0.00     0.000 C 
BRANCH   2   3
ATOM      3  C   UNL     1       3.058  16.699  10.674  1.00  0.00     0.000 C 
BRANCH   3   4
ATOM      4  C   UNL     1       3.459  16.632  12.158  1.00  0.00     0.006 C 
BRANCH   4   5
ATOM      5  C   UNL     1       4.854  16.027  12.355  1.00  0.00     0.053 C 
BRANCH   5   6
ATOM      6  C   UNL     1       5.462  16.440  13.661  1.00  0.00     0.041 C 
ATOM      7  O   UNL     1       6.388  15.756  14.172  1.00  0.00    -0.550 OA
ATOM      8  O   UNL     1       5.027  17.595  14.297  1.00  0.00    -0.550 OA
ENDBRANCH   5   6
ENDBRANCH   4   5
ENDBRANCH   3   4
ENDBRANCH   2   3
ENDBRANCH   1   2
BRANCH   1   9
ATOM      9  C   UNL     1       3.483  18.517   8.557  1.00  0.00     0.000 C 
BRANCH   9  10
ATOM     10  C   UNL     1       3.363  18.818   7.053  1.00  0.00    -0.000 C 
BRANCH  10  11
ATOM     11  C   UNL     1       3.132  17.551   6.209  1.00  0.00    -0.000 C 
BRANCH  11  12
ATOM     12  C   UNL     1       4.133  17.347   5.054  1.00  0.00    -0.000 C 
BRANCH  12  13
ATOM     13  C   UNL     1       4.631  15.902   4.874  1.00  0.00    -0.003 C 
ATOM     14  C   UNL     1       5.355  15.363   6.108  1.00  0.00     0.004 C 
ENDBRANCH  12  13
ENDBRANCH  11  12
ENDBRANCH  10  11
ENDBRANCH   9  10
ENDBRANCH   1   9
TORSDOF 10
ENDMDL
