MODEL 1
REMARK VINA RESULT:    -5.816      0.000      0.000
REMARK INTER + INTRA:         -12.461
REMARK INTER:                 -10.577
REMARK INTRA:                  -1.885
REMARK UNBOUND:                -1.885
REMARK SMILES CCCCCCCCCCCCCCCC(=O)[O-]
REMARK SMILES IDX 9 1 10 2 11 3 12 4 13 5 14 6 15 7 16 8 17 9 18 10 8 11 7 12
REMARK SMILES IDX 6 13 5 14 4 15 3 16 2 17 1 18
REMARK H PARENT
REMARK Flexibility Score: inf
ROOT
ATOM      1  C   UNL     1      52.222  50.160   4.277  1.00  0.00     0.000 C 
ENDROOT
BRANCH   1   2
ATOM      2  C   UNL     1      51.270  50.743   5.338  1.00  0.00     0.000 C 
BRANCH   2   3
ATOM      3  C   UNL     1      50.704  52.142   5.014  1.00  0.00     0.000 C 
BRANCH   3   4
ATOM      4  C   UNL     1      49.336  52.144   4.308  1.00  0.00     0.000 C 
BRANCH   4   5
ATOM      5  C   UNL     1      48.603  50.797   4.423  1.00  0.00     0.000 C 
BRANCH   5   6
ATOM      6  C   UNL     1      48.174  50.240   3.056  1.00  0.00     0.006 C 
BRANCH   6   7
ATOM      7  C   UNL     1      49.271  49.396   2.395  1.00  0.00     0.053 C 
BRANCH   7   8
ATOM      8  C   UNL     1      49.205  47.982   2.881  1.00  0.00     0.041 C 
ATOM      9  O   UNL     1      48.339  47.193   2.420  1.00  0.00    -0.550 OA
ATOM     10  O   UNL     1      50.068  47.549   3.879  1.00  0.00    -0.550 OA
ENDBRANCH   7   8
ENDBRANCH   6   7
ENDBRANCH   5   6
ENDBRANCH   4   5
ENDBRANCH   3   4
ENDBRANCH   2   3
ENDBRANCH   1   2
BRANCH   1  11
ATOM     11  C   UNL     1      53.619  49.785   4.803  1.00  0.00     0.000 C 
BRANCH  11  12
ATOM     12  C   UNL     1      54.772  50.229   3.872  1.00  0.00    -0.000 C 
BRANCH  12  13
ATOM     13  C   UNL     1      55.579  51.422   4.410  1.00  0.00    -0.000 C 
BRANCH  13  14
ATOM     14  C   UNL     1      54.695  52.646   4.697  1.00  0.00    -0.000 C 
BRANCH  14  15
ATOM     15  C   UNL     1      54.875  53.125   6.143  1.00  0.00    -0.000 C 
BRANCH  15  16
ATOM     16  C   UNL     1      53.588  52.930   6.952  1.00  0.00    -0.000 C 
BRANCH  16  17
ATOM     17  C   UNL     1      53.883  52.274   8.306  1.00  0.00    -0.003 C 
ATOM     18  C   UNL     1      54.199  50.791   8.142  1.00  0.00     0.004 C 
ENDBRANCH  16  17
ENDBRANCH  15  16
ENDBRANCH  14  15
ENDBRANCH  13  14
ENDBRANCH  12  13
ENDBRANCH  11  12
ENDBRANCH   1  11
TORSDOF 14
ENDMDL
MODEL 2
REMARK VINA RESULT:    -5.694      2.391      6.426
REMARK INTER + INTRA:         -12.239
REMARK INTER:                 -10.502
REMARK INTRA:                  -1.737
REMARK UNBOUND:                -1.885
REMARK SMILES CCCCCCCCCCCCCCCC(=O)[O-]
REMARK SMILES IDX 9 1 10 2 11 3 12 4 13 5 14 6 15 7 16 8 17 9 18 10 8 11 7 12
REMARK SMILES IDX 6 13 5 14 4 15 3 16 2 17 1 18
REMARK H PARENT
REMARK Flexibility Score: inf
ROOT
ATOM      1  C   UNL     1      50.237  51.744   5.549  1.00  0.00     0.000 C 
ENDROOT
BRANCH   1   2
ATOM      2  C   UNL     1      51.242  51.791   6.715  1.00  0.00     0.000 C 
BRANCH   2   3
ATOM      3  C   UNL     1      52.098  50.518   6.893  1.00  0.00     0.000 C 
BRANCH   3   4
ATOM      4  C   UNL     1      53.483  50.747   7.523  1.00  0.00     0.000 C 
BRANCH   4   5
ATOM      5  C   UNL     1      53.915  52.224   7.496  1.00  0.00     0.000 C 
BRANCH   5   6
ATOM      6  C   UNL     1      55.053  52.487   6.498  1.00  0.00     0.006 C 
BRANCH   6   7
ATOM      7  C   UNL     1      54.565  52.517   5.044  1.00  0.00     0.053 C 
BRANCH   7   8
ATOM      8  C   UNL     1      55.142  51.369   4.277  1.00  0.00     0.041 C 
ATOM      9  O   UNL     1      54.476  50.311   4.122  1.00  0.00    -0.550 OA
ATOM     10  O   UNL     1      56.434  51.448   3.773  1.00  0.00    -0.550 OA
ENDBRANCH   7   8
ENDBRANCH   6   7
ENDBRANCH   5   6
ENDBRANCH   4   5
ENDBRANCH   3   4
ENDBRANCH   2   3
ENDBRANCH   1   2
BRANCH   1  11
ATOM     11  C   UNL     1      50.213  53.008   4.670  1.00  0.00     0.000 C 
BRANCH  11  12
ATOM     12  C   UNL     1      48.970  53.102   3.755  1.00  0.00    -0.000 C 
BRANCH  12  13
ATOM     13  C   UNL     1      47.922  52.007   4.017  1.00  0.00    -0.000 C 
BRANCH  13  14
ATOM     14  C   UNL     1      47.423  51.350   2.720  1.00  0.00    -0.000 C 
BRANCH  14  15
ATOM     15  C   UNL     1      47.730  49.849   2.713  1.00  0.00    -0.000 C 
BRANCH  15  16
ATOM     16  C   UNL     1      49.210  49.591   2.408  1.00  0.00    -0.000 C 
BRANCH  16  17
ATOM     17  C   UNL     1      49.823  48.628   3.432  1.00  0.00    -0.003 C 
ATOM     18  C   UNL     1      51.292  48.954   3.683  1.00  0.00     0.004 C 
ENDBRANCH  16  17
ENDBRANCH  15  16
ENDBRANCH  14  15
ENDBRANCH  13  14
ENDBRANCH  12  13
ENDBRANCH  11  12
ENDBRANCH   1  11
TORSDOF 14
ENDMDL
MODEL 3
REMARK VINA RESULT:    -5.655      1.010      2.538
REMARK INTER + INTRA:         -12.168
REMARK INTER:                 -10.294
REMARK INTRA:                  -1.874
REMARK UNBOUND:                -1.885
REMARK SMILES CCCCCCCCCCCCCCCC(=O)[O-]
REMARK SMILES IDX 9 1 10 2 11 3 12 4 13 5 14 6 15 7 16 8 17 9 18 10 8 11 7 12
REMARK SMILES IDX 6 13 5 14 4 15 3 16 2 17 1 18
REMARK H PARENT
REMARK Flexibility Score: inf
ROOT
ATOM      1  C   UNL     1      49.614  50.681   6.851  1.00  0.00     0.000 C 
ENDROOT
BRANCH   1   2
ATOM      2  C   UNL     1      48.650  49.732   6.116  1.00  0.00     0.000 C 
BRANCH   2   3
ATOM      3  C   UNL     1      47.555  50.430   5.280  1.00  0.00     0.000 C 
BRANCH   3   4
ATOM      4  C   UNL     1      47.981  51.754   4.622  1.00  0.00     0.000 C 
BRANCH   4   5
ATOM      5  C   UNL     1      48.407  51.581   3.154  1.00  0.00     0.000 C 
BRANCH   5   6
ATOM      6  C   UNL     1      48.101  50.176   2.613  1.00  0.00     0.006 C 
BRANCH   6   7
ATOM      7  C   UNL     1      49.371  49.353   2.362  1.00  0.00     0.053 C 
BRANCH   7   8
ATOM      8  C   UNL     1      49.195  47.955   2.863  1.00  0.00     0.041 C 
ATOM      9  O   UNL     1      48.163  47.299   2.561  1.00  0.00    -0.550 OA
ATOM     10  O   UNL     1      50.146  47.392   3.705  1.00  0.00    -0.550 OA
ENDBRANCH   7   8
ENDBRANCH   6   7
ENDBRANCH   5   6
ENDBRANCH   4   5
ENDBRANCH   3   4
ENDBRANCH   2   3
ENDBRANCH   1   2
BRANCH   1  11
ATOM     11  C   UNL     1      51.100  50.495   6.491  1.00  0.00     0.000 C 
BRANCH  11  12
ATOM     12  C   UNL     1      51.461  51.000   5.074  1.00  0.00    -0.000 C 
BRANCH  12  13
ATOM     13  C   UNL     1      52.293  49.999   4.253  1.00  0.00    -0.000 C 
BRANCH  13  14
ATOM     14  C   UNL     1      53.673  49.734   4.875  1.00  0.00    -0.000 C 
BRANCH  14  15
ATOM     15  C   UNL     1      54.764  50.525   4.145  1.00  0.00    -0.000 C 
BRANCH  15  16
ATOM     16  C   UNL     1      54.813  51.977   4.634  1.00  0.00    -0.000 C 
BRANCH  16  17
ATOM     17  C   UNL     1      55.139  52.043   6.131  1.00  0.00    -0.003 C 
ATOM     18  C   UNL     1      54.130  52.909   6.877  1.00  0.00     0.004 C 
ENDBRANCH  16  17
ENDBRANCH  15  16
ENDBRANCH  14  15
ENDBRANCH  13  14
ENDBRANCH  12  13
ENDBRANCH  11  12
ENDBRANCH   1  11
TORSDOF 14
ENDMDL
MODEL 4
REMARK VINA RESULT:    -5.626      2.887      6.115
REMARK INTER + INTRA:         -12.115
REMARK INTER:                 -10.473
REMARK INTRA:                  -1.642
REMARK UNBOUND:                -1.885
REMARK SMILES CCCCCCCCCCCCCCCC(=O)[O-]
REMARK SMILES IDX 9 1 10 2 11 3 12 4 13 5 14 6 15 7 16 8 17 9 18 10 8 11 7 12
REMARK SMILES IDX 6 13 5 14 4 15 3 16 2 17 1 18
REMARK H PARENT
REMARK Flexibility Score: inf
ROOT
ATOM      1  C   UNL     1      50.867  49.377   3.123  1.00  0.00     0.000 C 
ENDROOT
BRANCH   1   2
ATOM      2  C   UNL     1      52.020  49.003   4.073  1.00  0.00     0.000 C 
BRANCH   2   3
ATOM      3  C   UNL     1      52.881  50.190   4.555  1.00  0.00     0.000 C 
BRANCH   3   4
ATOM      4  C   UNL     1      54.370  50.113   4.173  1.00  0.00     0.000 C 
BRANCH   4   5
ATOM      5  C   UNL     1      55.116  51.439   4.407  1.00  0.00     0.000 C 
BRANCH   5   6
ATOM      6  C   UNL     1      54.203  52.536   4.976  1.00  0.00     0.006 C 
BRANCH   6   7
ATOM      7  C   UNL     1      54.731  53.116   6.294  1.00  0.00     0.053 C 
BRANCH   7   8
ATOM      8  C   UNL     1      54.036  52.484   7.458  1.00  0.00     0.041 C 
ATOM      9  O   UNL     1      53.066  53.067   8.010  1.00  0.00    -0.550 OA
ATOM     10  O   UNL     1      54.488  51.272   7.964  1.00  0.00    -0.550 OA
ENDBRANCH   7   8
ENDBRANCH   6   7
ENDBRANCH   5   6
ENDBRANCH   4   5
ENDBRANCH   3   4
ENDBRANCH   2   3
ENDBRANCH   1   2
BRANCH   1  11
ATOM     11  C   UNL     1      49.671  48.407   3.150  1.00  0.00     0.000 C 
BRANCH  11  12
ATOM     12  C   UNL     1      48.396  48.976   2.485  1.00  0.00    -0.000 C 
BRANCH  12  13
ATOM     13  C   UNL     1      47.711  50.083   3.304  1.00  0.00    -0.000 C 
BRANCH  13  14
ATOM     14  C   UNL     1      48.369  51.457   3.101  1.00  0.00    -0.000 C 
BRANCH  14  15
ATOM     15  C   UNL     1      48.541  52.185   4.438  1.00  0.00    -0.000 C 
BRANCH  15  16
ATOM     16  C   UNL     1      50.022  52.305   4.814  1.00  0.00    -0.000 C 
BRANCH  16  17
ATOM     17  C   UNL     1      50.269  51.810   6.244  1.00  0.00    -0.003 C 
ATOM     18  C   UNL     1      49.635  50.442   6.471  1.00  0.00     0.004 C 
ENDBRANCH  16  17
ENDBRANCH  15  16
ENDBRANCH  14  15
ENDBRANCH  13  14
ENDBRANCH  12  13
ENDBRANCH  11  12
ENDBRANCH   1  11
TORSDOF 14
ENDMDL
MODEL 5
REMARK VINA RESULT:    -5.610      0.986      2.601
REMARK INTER + INTRA:         -12.087
REMARK INTER:                 -10.488
REMARK INTRA:                  -1.599
REMARK UNBOUND:                -1.885
REMARK SMILES CCCCCCCCCCCCCCCC(=O)[O-]
REMARK SMILES IDX 9 1 10 2 11 3 12 4 13 5 14 6 15 7 16 8 17 9 18 10 8 11 7 12
REMARK SMILES IDX 6 13 5 14 4 15 3 16 2 17 1 18
REMARK H PARENT
REMARK Flexibility Score: inf
ROOT
ATOM      1  C   UNL     1      50.844  50.216   6.076  1.00  0.00     0.000 C 
ENDROOT
BRANCH   1   2
ATOM      2  C   UNL     1      49.360  50.205   6.488  1.00  0.00     0.000 C 
BRANCH   2   3
ATOM      3  C   UNL     1      48.398  50.885   5.490  1.00  0.00     0.000 C 
BRANCH   3   4
ATOM      4  C   UNL     1      49.064  51.863   4.506  1.00  0.00     0.000 C 
BRANCH   4   5
ATOM      5  C   UNL     1      48.543  51.709   3.066  1.00  0.00     0.000 C 
BRANCH   5   6
ATOM      6  C   UNL     1      48.171  50.258   2.726  1.00  0.00     0.006 C 
BRANCH   6   7
ATOM      7  C   UNL     1      49.394  49.411   2.349  1.00  0.00     0.053 C 
BRANCH   7   8
ATOM      8  C   UNL     1      49.258  48.026   2.898  1.00  0.00     0.041 C 
ATOM      9  O   UNL     1      48.342  47.267   2.484  1.00  0.00    -0.550 OA
ATOM     10  O   UNL     1      50.112  47.588   3.902  1.00  0.00    -0.550 OA
ENDBRANCH   7   8
ENDBRANCH   6   7
ENDBRANCH   5   6
ENDBRANCH   4   5
ENDBRANCH   3   4
ENDBRANCH   2   3
ENDBRANCH   1   2
BRANCH   1  11
ATOM     11  C   UNL     1      51.808  50.739   7.156  1.00  0.00     0.000 C 
BRANCH  11  12
ATOM     12  C   UNL     1      52.401  52.131   6.835  1.00  0.00    -0.000 C 
BRANCH  12  13
ATOM     13  C   UNL     1      53.802  52.360   7.430  1.00  0.00    -0.000 C 
BRANCH  13  14
ATOM     14  C   UNL     1      54.818  52.825   6.374  1.00  0.00    -0.000 C 
BRANCH  14  15
ATOM     15  C   UNL     1      54.415  52.342   4.976  1.00  0.00    -0.000 C 
BRANCH  15  16
ATOM     16  C   UNL     1      55.610  51.720   4.243  1.00  0.00    -0.000 C 
BRANCH  16  17
ATOM     17  C   UNL     1      55.316  50.270   3.842  1.00  0.00    -0.003 C 
ATOM     18  C   UNL     1      53.891  49.874   4.213  1.00  0.00     0.004 C 
ENDBRANCH  16  17
ENDBRANCH  15  16
ENDBRANCH  14  15
ENDBRANCH  13  14
ENDBRANCH  12  13
ENDBRANCH  11  12
ENDBRANCH   1  11
TORSDOF 14
ENDMDL
MODEL 6
REMARK VINA RESULT:    -5.598      2.836      6.273
REMARK INTER + INTRA:         -12.064
REMARK INTER:                  -9.805
REMARK INTRA:                  -2.259
REMARK UNBOUND:                -1.885
REMARK SMILES CCCCCCCCCCCCCCCC(=O)[O-]
REMARK SMILES IDX 9 1 10 2 11 3 12 4 13 5 14 6 15 7 16 8 17 9 18 10 8 11 7 12
REMARK SMILES IDX 6 13 5 14 4 15 3 16 2 17 1 18
REMARK H PARENT
REMARK Flexibility Score: inf
ROOT
ATOM      1  C   UNL     1      50.744  50.542   6.705  1.00  0.00     0.000 C 
ENDROOT
BRANCH   1   2
ATOM      2  C   UNL     1      50.586  52.004   7.164  1.00  0.00     0.000 C 
BRANCH   2   3
ATOM      3  C   UNL     1      51.147  53.060   6.188  1.00  0.00     0.000 C 
BRANCH   3   4
ATOM      4  C   UNL     1      51.974  52.496   5.020  1.00  0.00     0.000 C 
BRANCH   4   5
ATOM      5  C   UNL     1      53.459  52.895   5.091  1.00  0.00     0.000 C 
BRANCH   5   6
ATOM      6  C   UNL     1      54.383  51.691   5.330  1.00  0.00     0.006 C 
BRANCH   6   7
ATOM      7  C   UNL     1      55.173  51.807   6.640  1.00  0.00     0.053 C 
BRANCH   7   8
ATOM      8  C   UNL     1      54.289  51.513   7.810  1.00  0.00     0.041 C 
ATOM      9  O   UNL     1      53.967  50.325   8.078  1.00  0.00    -0.550 OA
ATOM     10  O   UNL     1      53.779  52.553   8.577  1.00  0.00    -0.550 OA
ENDBRANCH   7   8
ENDBRANCH   6   7
ENDBRANCH   5   6
ENDBRANCH   4   5
ENDBRANCH   3   4
ENDBRANCH   2   3
ENDBRANCH   1   2
BRANCH   1  11
ATOM     11  C   UNL     1      49.418  49.785   6.502  1.00  0.00     0.000 C 
BRANCH  11  12
ATOM     12  C   UNL     1      48.255  50.688   6.028  1.00  0.00    -0.000 C 
BRANCH  12  13
ATOM     13  C   UNL     1      47.858  50.467   4.558  1.00  0.00    -0.000 C 
BRANCH  13  14
ATOM     14  C   UNL     1      48.835  51.136   3.579  1.00  0.00    -0.000 C 
BRANCH  14  15
ATOM     15  C   UNL     1      49.394  50.116   2.580  1.00  0.00    -0.000 C 
BRANCH  15  16
ATOM     16  C   UNL     1      49.118  48.682   3.046  1.00  0.00    -0.000 C 
BRANCH  16  17
ATOM     17  C   UNL     1      50.407  48.000   3.520  1.00  0.00    -0.003 C 
ATOM     18  C   UNL     1      51.537  49.011   3.686  1.00  0.00     0.004 C 
ENDBRANCH  16  17
ENDBRANCH  15  16
ENDBRANCH  14  15
ENDBRANCH  13  14
ENDBRANCH  12  13
ENDBRANCH  11  12
ENDBRANCH   1  11
TORSDOF 14
ENDMDL
MODEL 7
REMARK VINA RESULT:    -5.593      2.511      6.348
REMARK INTER + INTRA:         -12.055
REMARK INTER:                 -10.160
REMARK INTRA:                  -1.894
REMARK UNBOUND:                -1.885
REMARK SMILES CCCCCCCCCCCCCCCC(=O)[O-]
REMARK SMILES IDX 9 1 10 2 11 3 12 4 13 5 14 6 15 7 16 8 17 9 18 10 8 11 7 12
REMARK SMILES IDX 6 13 5 14 4 15 3 16 2 17 1 18
REMARK H PARENT
REMARK Flexibility Score: inf
ROOT
ATOM      1  C   UNL     1      49.175  50.079   6.546  1.00  0.00     0.000 C 
ENDROOT
BRANCH   1   2
ATOM      2  C   UNL     1      50.370  51.012   6.821  1.00  0.00     0.000 C 
BRANCH   2   3
ATOM      3  C   UNL     1      50.587  52.124   5.773  1.00  0.00     0.000 C 
BRANCH   3   4
ATOM      4  C   UNL     1      52.048  52.572   5.591  1.00  0.00     0.000 C 
BRANCH   4   5
ATOM      5  C   UNL     1      52.987  51.996   6.666  1.00  0.00     0.000 C 
BRANCH   5   6
ATOM      6  C   UNL     1      54.471  52.215   6.331  1.00  0.00     0.006 C 
BRANCH   6   7
ATOM      7  C   UNL     1      54.699  52.522   4.845  1.00  0.00     0.053 C 
BRANCH   7   8
ATOM      8  C   UNL     1      55.274  51.329   4.149  1.00  0.00     0.041 C 
ATOM      9  O   UNL     1      54.562  50.310   3.946  1.00  0.00    -0.550 OA
ATOM     10  O   UNL     1      56.610  51.322   3.767  1.00  0.00    -0.550 OA
ENDBRANCH   7   8
ENDBRANCH   6   7
ENDBRANCH   5   6
ENDBRANCH   4   5
ENDBRANCH   3   4
ENDBRANCH   2   3
ENDBRANCH   1   2
BRANCH   1  11
ATOM     11  C   UNL     1      47.941  50.776   5.943  1.00  0.00     0.000 C 
BRANCH  11  12
ATOM     12  C   UNL     1      46.934  49.798   5.293  1.00  0.00    -0.000 C 
BRANCH  12  13
ATOM     13  C   UNL     1      47.030  49.739   3.758  1.00  0.00    -0.000 C 
BRANCH  13  14
ATOM     14  C   UNL     1      47.787  50.940   3.171  1.00  0.00    -0.000 C 
BRANCH  14  15
ATOM     15  C   UNL     1      49.202  50.537   2.739  1.00  0.00    -0.000 C 
BRANCH  15  16
ATOM     16  C   UNL     1      49.273  49.040   2.414  1.00  0.00    -0.000 C 
BRANCH  16  17
ATOM     17  C   UNL     1      50.164  48.300   3.420  1.00  0.00    -0.003 C 
ATOM     18  C   UNL     1      51.396  49.125   3.776  1.00  0.00     0.004 C 
ENDBRANCH  16  17
ENDBRANCH  15  16
ENDBRANCH  14  15
ENDBRANCH  13  14
ENDBRANCH  12  13
ENDBRANCH  11  12
ENDBRANCH   1  11
TORSDOF 14
ENDMDL
MODEL 8
REMARK VINA RESULT:    -5.571      1.350      2.919
REMARK INTER + INTRA:         -12.016
REMARK INTER:                 -10.160
REMARK INTRA:                  -1.856
REMARK UNBOUND:                -1.885
REMARK SMILES CCCCCCCCCCCCCCCC(=O)[O-]
REMARK SMILES IDX 9 1 10 2 11 3 12 4 13 5 14 6 15 7 16 8 17 9 18 10 8 11 7 12
REMARK SMILES IDX 6 13 5 14 4 15 3 16 2 17 1 18
REMARK H PARENT
REMARK Flexibility Score: inf
ROOT
ATOM      1  C   UNL     1      51.191  52.217   5.079  1.00  0.00     0.000 C 
ENDROOT
BRANCH   1   2
ATOM      2  C   UNL     1      49.900  52.954   4.678  1.00  0.00     0.000 C 
BRANCH   2   3
ATOM      3  C   UNL     1      49.133  52.332   3.492  1.00  0.00     0.000 C 
BRANCH   3   4
ATOM      4  C   UNL     1      47.720  51.822   3.826  1.00  0.00     0.000 C 
BRANCH   4   5
ATOM      5  C   UNL     1      47.700  50.864   5.030  1.00  0.00     0.000 C 
BRANCH   5   6
ATOM      6  C   UNL     1      48.027  49.415   4.637  1.00  0.00     0.006 C 
BRANCH   6   7
ATOM      7  C   UNL     1      49.404  48.965   5.142  1.00  0.00     0.053 C 
BRANCH   7   8
ATOM      8  C   UNL     1      50.232  48.450   4.008  1.00  0.00     0.041 C 
ATOM      9  O   UNL     1      51.181  49.141   3.551  1.00  0.00    -0.550 OA
ATOM     10  O   UNL     1      49.927  47.228   3.421  1.00  0.00    -0.550 OA
ENDBRANCH   7   8
ENDBRANCH   6   7
ENDBRANCH   5   6
ENDBRANCH   4   5
ENDBRANCH   3   4
ENDBRANCH   2   3
ENDBRANCH   1   2
BRANCH   1  11
ATOM     11  C   UNL     1      51.345  51.963   6.590  1.00  0.00     0.000 C 
BRANCH  11  12
ATOM     12  C   UNL     1      52.122  50.668   6.925  1.00  0.00    -0.000 C 
BRANCH  12  13
ATOM     13  C   UNL     1      53.470  50.918   7.623  1.00  0.00    -0.000 C 
BRANCH  13  14
ATOM     14  C   UNL     1      54.115  52.246   7.195  1.00  0.00    -0.000 C 
BRANCH  14  15
ATOM     15  C   UNL     1      55.310  52.001   6.267  1.00  0.00    -0.000 C 
BRANCH  15  16
ATOM     16  C   UNL     1      54.892  52.094   4.795  1.00  0.00    -0.000 C 
BRANCH  16  17
ATOM     17  C   UNL     1      54.651  50.701   4.202  1.00  0.00    -0.003 C 
ATOM     18  C   UNL     1      55.915  50.152   3.549  1.00  0.00     0.004 C 
ENDBRANCH  16  17
ENDBRANCH  15  16
ENDBRANCH  14  15
ENDBRANCH  13  14
ENDBRANCH  12  13
ENDBRANCH  11  12
ENDBRANCH   1  11
TORSDOF 14
ENDMDL
MODEL 9
REMARK VINA RESULT:    -5.506      1.516      3.256
REMARK INTER + INTRA:         -11.897
REMARK INTER:                 -10.138
REMARK INTRA:                  -1.760
REMARK UNBOUND:                -1.885
REMARK SMILES CCCCCCCCCCCCCCCC(=O)[O-]
REMARK SMILES IDX 9 1 10 2 11 3 12 4 13 5 14 6 15 7 16 8 17 9 18 10 8 11 7 12
REMARK SMILES IDX 6 13 5 14 4 15 3 16 2 17 1 18
REMARK H PARENT
REMARK Flexibility Score: inf
ROOT
ATOM      1  C   UNL     1      50.949  53.125   6.018  1.00  0.00     0.000 C 
ENDROOT
BRANCH   1   2
ATOM      2  C   UNL     1      50.273  51.982   5.238  1.00  0.00     0.000 C 
BRANCH   2   3
ATOM      3  C   UNL     1      49.815  50.784   6.096  1.00  0.00     0.000 C 
BRANCH   3   4
ATOM      4  C   UNL     1      49.720  49.443   5.347  1.00  0.00     0.000 C 
BRANCH   4   5
ATOM      5  C   UNL     1      50.577  49.411   4.070  1.00  0.00     0.000 C 
BRANCH   5   6
ATOM      6  C   UNL     1      49.748  49.108   2.812  1.00  0.00     0.006 C 
BRANCH   6   7
ATOM      7  C   UNL     1      49.048  47.745   2.884  1.00  0.00     0.053 C 
BRANCH   7   8
ATOM      8  C   UNL     1      47.762  47.779   2.120  1.00  0.00     0.041 C 
ATOM      9  O   UNL     1      47.383  48.842   1.562  1.00  0.00    -0.550 OA
ATOM     10  O   UNL     1      46.956  46.648   2.063  1.00  0.00    -0.550 OA
ENDBRANCH   7   8
ENDBRANCH   6   7
ENDBRANCH   5   6
ENDBRANCH   4   5
ENDBRANCH   3   4
ENDBRANCH   2   3
ENDBRANCH   1   2
BRANCH   1  11
ATOM     11  C   UNL     1      51.718  52.679   7.275  1.00  0.00     0.000 C 
BRANCH  11  12
ATOM     12  C   UNL     1      53.184  52.276   6.994  1.00  0.00    -0.000 C 
BRANCH  12  13
ATOM     13  C   UNL     1      53.516  50.826   7.390  1.00  0.00    -0.000 C 
BRANCH  13  14
ATOM     14  C   UNL     1      53.566  49.884   6.176  1.00  0.00    -0.000 C 
BRANCH  14  15
ATOM     15  C   UNL     1      53.608  50.680   4.867  1.00  0.00    -0.000 C 
BRANCH  15  16
ATOM     16  C   UNL     1      54.757  50.204   3.970  1.00  0.00    -0.000 C 
BRANCH  16  17
ATOM     17  C   UNL     1      55.971  51.132   4.092  1.00  0.00    -0.003 C 
ATOM     18  C   UNL     1      55.541  52.572   4.350  1.00  0.00     0.004 C 
ENDBRANCH  16  17
ENDBRANCH  15  16
ENDBRANCH  14  15
ENDBRANCH  13  14
ENDBRANCH  12  13
ENDBRANCH  11  12
ENDBRANCH   1  11
TORSDOF 14
ENDMDL
