MODEL 1
REMARK VINA RESULT:    -4.541      0.000      0.000
REMARK INTER + INTRA:         -15.959
REMARK INTER:                 -11.974
REMARK INTRA:                  -3.985
REMARK UNBOUND:                -3.985
REMARK SMILES CCCCCCCCCCCCCCCCCCCCCCCCCCCCCC(=O)[O-]
REMARK SMILES IDX 16 1 17 2 18 3 19 4 20 5 21 6 22 7 23 8 24 9 25 10 26 11
REMARK SMILES IDX 27 12 28 13 29 14 30 15 31 16 32 17 15 18 14 19 13 20 12 21
REMARK SMILES IDX 11 22 10 23 9 24 8 25 7 26 6 27 5 28 4 29 3 30 2 31 1 32
REMARK H PARENT
REMARK Flexibility Score: inf
ROOT
ATOM      1  C   UNL     1       0.904  -6.171   3.881  1.00  0.00     0.000 C 
ENDROOT
BRANCH   1   2
ATOM      2  C   UNL     1       1.543  -5.444   5.077  1.00  0.00     0.000 C 
BRANCH   2   3
ATOM      3  C   UNL     1       2.979  -5.912   5.372  1.00  0.00     0.000 C 
BRANCH   3   4
ATOM      4  C   UNL     1       3.072  -6.788   6.639  1.00  0.00     0.000 C 
BRANCH   4   5
ATOM      5  C   UNL     1       2.124  -6.357   7.771  1.00  0.00     0.000 C 
BRANCH   5   6
ATOM      6  C   UNL     1       1.681  -7.525   8.669  1.00  0.00     0.000 C 
BRANCH   6   7
ATOM      7  C   UNL     1       0.808  -8.548   7.914  1.00  0.00     0.000 C 
BRANCH   7   8
ATOM      8  C   UNL     1      -0.617  -8.048   7.603  1.00  0.00     0.000 C 
BRANCH   8   9
ATOM      9  C   UNL     1      -1.329  -7.378   8.798  1.00  0.00     0.000 C 
BRANCH   9  10
ATOM     10  C   UNL     1      -2.038  -6.053   8.449  1.00  0.00     0.000 C 
BRANCH  10  11
ATOM     11  C   UNL     1      -1.342  -5.216   7.355  1.00  0.00     0.000 C 
BRANCH  11  12
ATOM     12  C   UNL     1      -2.200  -4.094   6.736  1.00  0.00     0.000 C 
BRANCH  12  13
ATOM     13  C   UNL     1      -3.627  -4.507   6.332  1.00  0.00     0.006 C 
BRANCH  13  14
ATOM     14  C   UNL     1      -4.479  -3.321   5.860  1.00  0.00     0.053 C 
BRANCH  14  15
ATOM     15  C   UNL     1      -5.765  -3.258   6.623  1.00  0.00     0.041 C 
ATOM     16  O   UNL     1      -6.534  -2.269   6.490  1.00  0.00    -0.550 OA
ATOM     17  O   UNL     1      -6.132  -4.306   7.460  1.00  0.00    -0.550 OA
ENDBRANCH  14  15
ENDBRANCH  13  14
ENDBRANCH  12  13
ENDBRANCH  11  12
ENDBRANCH  10  11
ENDBRANCH   9  10
ENDBRANCH   8   9
ENDBRANCH   7   8
ENDBRANCH   6   7
ENDBRANCH   5   6
ENDBRANCH   4   5
ENDBRANCH   3   4
ENDBRANCH   2   3
ENDBRANCH   1   2
BRANCH   1  18
ATOM     18  C   UNL     1       0.355  -7.572   4.223  1.00  0.00     0.000 C 
BRANCH  18  19
ATOM     19  C   UNL     1      -1.147  -7.699   3.911  1.00  0.00     0.000 C 
BRANCH  19  20
ATOM     20  C   UNL     1      -1.876  -6.347   3.967  1.00  0.00     0.000 C 
BRANCH  20  21
ATOM     21  C   UNL     1      -3.008  -6.248   2.929  1.00  0.00     0.000 C 
BRANCH  21  22
ATOM     22  C   UNL     1      -2.738  -5.172   1.864  1.00  0.00     0.000 C 
BRANCH  22  23
ATOM     23  C   UNL     1      -1.403  -5.336   1.109  1.00  0.00     0.000 C 
BRANCH  23  24
ATOM     24  C   UNL     1      -1.063  -4.200   0.122  1.00  0.00    -0.000 C 
BRANCH  24  25
ATOM     25  C   UNL     1      -2.013  -4.067  -1.083  1.00  0.00    -0.000 C 
BRANCH  25  26
ATOM     26  C   UNL     1      -1.623  -4.978  -2.259  1.00  0.00    -0.000 C 
BRANCH  26  27
ATOM     27  C   UNL     1      -2.763  -5.925  -2.679  1.00  0.00    -0.000 C 
BRANCH  27  28
ATOM     28  C   UNL     1      -3.865  -6.137  -1.621  1.00  0.00    -0.000 C 
BRANCH  28  29
ATOM     29  C   UNL     1      -5.168  -6.765  -2.148  1.00  0.00    -0.000 C 
BRANCH  29  30
ATOM     30  C   UNL     1      -6.036  -5.767  -2.933  1.00  0.00    -0.000 C 
BRANCH  30  31
ATOM     31  C   UNL     1      -6.592  -4.643  -2.047  1.00  0.00    -0.003 C 
ATOM     32  C   UNL     1      -8.103  -4.465  -2.192  1.00  0.00     0.004 C 
ENDBRANCH  30  31
ENDBRANCH  29  30
ENDBRANCH  28  29
ENDBRANCH  27  28
ENDBRANCH  26  27
ENDBRANCH  25  26
ENDBRANCH  24  25
ENDBRANCH  23  24
ENDBRANCH  22  23
ENDBRANCH  21  22
ENDBRANCH  20  21
ENDBRANCH  19  20
ENDBRANCH  18  19
ENDBRANCH   1  18
TORSDOF 28
ENDMDL
MODEL 2
REMARK VINA RESULT:    -4.495      1.792      4.148
REMARK INTER + INTRA:         -15.838
REMARK INTER:                 -11.239
REMARK INTRA:                  -4.599
REMARK UNBOUND:                -3.985
REMARK SMILES CCCCCCCCCCCCCCCCCCCCCCCCCCCCCC(=O)[O-]
REMARK SMILES IDX 16 1 17 2 18 3 19 4 20 5 21 6 22 7 23 8 24 9 25 10 26 11
REMARK SMILES IDX 27 12 28 13 29 14 30 15 31 16 32 17 15 18 14 19 13 20 12 21
REMARK SMILES IDX 11 22 10 23 9 24 8 25 7 26 6 27 5 28 4 29 3 30 2 31 1 32
REMARK H PARENT
REMARK Flexibility Score: inf
ROOT
ATOM      1  C   UNL     1      -3.114  -3.476   2.574  1.00  0.00     0.000 C 
ENDROOT
BRANCH   1   2
ATOM      2  C   UNL     1      -2.226  -4.479   3.331  1.00  0.00     0.000 C 
BRANCH   2   3
ATOM      3  C   UNL     1      -2.804  -5.905   3.348  1.00  0.00     0.000 C 
BRANCH   3   4
ATOM      4  C   UNL     1      -1.716  -6.987   3.508  1.00  0.00     0.000 C 
BRANCH   4   5
ATOM      5  C   UNL     1      -0.355  -6.603   2.902  1.00  0.00     0.000 C 
BRANCH   5   6
ATOM      6  C   UNL     1       0.751  -6.428   3.957  1.00  0.00     0.000 C 
BRANCH   6   7
ATOM      7  C   UNL     1       1.070  -7.743   4.697  1.00  0.00     0.000 C 
BRANCH   7   8
ATOM      8  C   UNL     1       0.978  -7.635   6.233  1.00  0.00     0.000 C 
BRANCH   8   9
ATOM      9  C   UNL     1      -0.312  -8.230   6.835  1.00  0.00     0.000 C 
BRANCH   9  10
ATOM     10  C   UNL     1      -1.447  -7.205   7.038  1.00  0.00     0.000 C 
BRANCH  10  11
ATOM     11  C   UNL     1      -0.973  -5.770   7.353  1.00  0.00     0.000 C 
BRANCH  11  12
ATOM     12  C   UNL     1      -1.943  -4.647   6.933  1.00  0.00     0.000 C 
BRANCH  12  13
ATOM     13  C   UNL     1      -3.438  -4.983   7.078  1.00  0.00     0.006 C 
BRANCH  13  14
ATOM     14  C   UNL     1      -4.348  -3.969   6.369  1.00  0.00     0.053 C 
BRANCH  14  15
ATOM     15  C   UNL     1      -5.682  -3.898   7.043  1.00  0.00     0.041 C 
ATOM     16  O   UNL     1      -6.491  -2.978   6.751  1.00  0.00    -0.550 OA
ATOM     17  O   UNL     1      -6.048  -4.867   7.972  1.00  0.00    -0.550 OA
ENDBRANCH  14  15
ENDBRANCH  13  14
ENDBRANCH  12  13
ENDBRANCH  11  12
ENDBRANCH  10  11
ENDBRANCH   9  10
ENDBRANCH   8   9
ENDBRANCH   7   8
ENDBRANCH   6   7
ENDBRANCH   5   6
ENDBRANCH   4   5
ENDBRANCH   3   4
ENDBRANCH   2   3
ENDBRANCH   1   2
BRANCH   1  18
ATOM     18  C   UNL     1      -3.258  -3.782   1.068  1.00  0.00     0.000 C 
BRANCH  18  19
ATOM     19  C   UNL     1      -1.970  -3.467   0.286  1.00  0.00     0.000 C 
BRANCH  19  20
ATOM     20  C   UNL     1      -1.274  -4.734  -0.237  1.00  0.00     0.000 C 
BRANCH  20  21
ATOM     21  C   UNL     1      -2.255  -5.701  -0.923  1.00  0.00     0.000 C 
BRANCH  21  22
ATOM     22  C   UNL     1      -2.216  -5.591  -2.457  1.00  0.00     0.000 C 
BRANCH  22  23
ATOM     23  C   UNL     1      -3.504  -5.034  -3.095  1.00  0.00     0.000 C 
BRANCH  23  24
ATOM     24  C   UNL     1      -4.620  -6.071  -3.334  1.00  0.00    -0.000 C 
BRANCH  24  25
ATOM     25  C   UNL     1      -5.864  -5.921  -2.439  1.00  0.00    -0.000 C 
BRANCH  25  26
ATOM     26  C   UNL     1      -5.973  -4.531  -1.789  1.00  0.00    -0.000 C 
BRANCH  26  27
ATOM     27  C   UNL     1      -6.945  -3.601  -2.536  1.00  0.00    -0.000 C 
BRANCH  27  28
ATOM     28  C   UNL     1      -6.281  -2.464  -3.339  1.00  0.00    -0.000 C 
BRANCH  28  29
ATOM     29  C   UNL     1      -6.603  -2.448  -4.844  1.00  0.00    -0.000 C 
BRANCH  29  30
ATOM     30  C   UNL     1      -6.554  -3.848  -5.479  1.00  0.00    -0.000 C 
BRANCH  30  31
ATOM     31  C   UNL     1      -5.524  -3.946  -6.615  1.00  0.00    -0.003 C 
ATOM     32  C   UNL     1      -4.216  -3.225  -6.294  1.00  0.00     0.004 C 
ENDBRANCH  30  31
ENDBRANCH  29  30
ENDBRANCH  28  29
ENDBRANCH  27  28
ENDBRANCH  26  27
ENDBRANCH  25  26
ENDBRANCH  24  25
ENDBRANCH  23  24
ENDBRANCH  22  23
ENDBRANCH  21  22
ENDBRANCH  20  21
ENDBRANCH  19  20
ENDBRANCH  18  19
ENDBRANCH   1  18
TORSDOF 28
ENDMDL
MODEL 3
REMARK VINA RESULT:    -4.493      3.293      8.005
REMARK INTER + INTRA:         -15.831
REMARK INTER:                 -11.259
REMARK INTRA:                  -4.572
REMARK UNBOUND:                -3.985
REMARK SMILES CCCCCCCCCCCCCCCCCCCCCCCCCCCCCC(=O)[O-]
REMARK SMILES IDX 16 1 17 2 18 3 19 4 20 5 21 6 22 7 23 8 24 9 25 10 26 11
REMARK SMILES IDX 27 12 28 13 29 14 30 15 31 16 32 17 15 18 14 19 13 20 12 21
REMARK SMILES IDX 11 22 10 23 9 24 8 25 7 26 6 27 5 28 4 29 3 30 2 31 1 32
REMARK H PARENT
REMARK Flexibility Score: inf
ROOT
ATOM      1  C   UNL     1       2.265  -6.251   5.364  1.00  0.00     0.000 C 
ENDROOT
BRANCH   1   2
ATOM      2  C   UNL     1       1.132  -5.211   5.370  1.00  0.00     0.000 C 
BRANCH   2   3
ATOM      3  C   UNL     1       0.437  -5.066   4.004  1.00  0.00     0.000 C 
BRANCH   3   4
ATOM      4  C   UNL     1       0.281  -6.414   3.269  1.00  0.00     0.000 C 
BRANCH   4   5
ATOM      5  C   UNL     1      -1.111  -7.053   3.420  1.00  0.00     0.000 C 
BRANCH   5   6
ATOM      6  C   UNL     1      -2.226  -6.023   3.671  1.00  0.00     0.000 C 
BRANCH   6   7
ATOM      7  C   UNL     1      -2.980  -5.647   2.379  1.00  0.00     0.000 C 
BRANCH   7   8
ATOM      8  C   UNL     1      -2.417  -4.400   1.666  1.00  0.00     0.000 C 
BRANCH   8   9
ATOM      9  C   UNL     1      -3.115  -4.064   0.331  1.00  0.00     0.000 C 
BRANCH   9  10
ATOM     10  C   UNL     1      -3.709  -5.286  -0.398  1.00  0.00     0.000 C 
BRANCH  10  11
ATOM     11  C   UNL     1      -3.713  -5.183  -1.938  1.00  0.00     0.000 C 
BRANCH  11  12
ATOM     12  C   UNL     1      -4.262  -6.416  -2.682  1.00  0.00     0.000 C 
BRANCH  12  13
ATOM     13  C   UNL     1      -5.795  -6.552  -2.686  1.00  0.00     0.006 C 
BRANCH  13  14
ATOM     14  C   UNL     1      -6.510  -5.221  -2.957  1.00  0.00     0.053 C 
BRANCH  14  15
ATOM     15  C   UNL     1      -6.762  -5.047  -4.422  1.00  0.00     0.041 C 
ATOM     16  O   UNL     1      -5.965  -4.375  -5.127  1.00  0.00    -0.550 OA
ATOM     17  O   UNL     1      -7.863  -5.654  -5.018  1.00  0.00    -0.550 OA
ENDBRANCH  14  15
ENDBRANCH  13  14
ENDBRANCH  12  13
ENDBRANCH  11  12
ENDBRANCH  10  11
ENDBRANCH   9  10
ENDBRANCH   8   9
ENDBRANCH   7   8
ENDBRANCH   6   7
ENDBRANCH   5   6
ENDBRANCH   4   5
ENDBRANCH   3   4
ENDBRANCH   2   3
ENDBRANCH   1   2
BRANCH   1  18
ATOM     18  C   UNL     1       2.197  -7.257   6.533  1.00  0.00     0.000 C 
BRANCH  18  19
ATOM     19  C   UNL     1       1.521  -8.577   6.123  1.00  0.00     0.000 C 
BRANCH  19  20
ATOM     20  C   UNL     1       0.033  -8.622   6.507  1.00  0.00     0.000 C 
BRANCH  20  21
ATOM     21  C   UNL     1      -0.189  -8.437   8.018  1.00  0.00     0.000 C 
BRANCH  21  22
ATOM     22  C   UNL     1      -1.119  -7.254   8.337  1.00  0.00     0.000 C 
BRANCH  22  23
ATOM     23  C   UNL     1      -1.803  -6.625   7.108  1.00  0.00     0.000 C 
BRANCH  23  24
ATOM     24  C   UNL     1      -2.200  -5.142   7.263  1.00  0.00    -0.000 C 
BRANCH  24  25
ATOM     25  C   UNL     1      -3.162  -4.835   8.426  1.00  0.00    -0.000 C 
BRANCH  25  26
ATOM     26  C   UNL     1      -4.627  -4.704   7.976  1.00  0.00    -0.000 C 
BRANCH  26  27
ATOM     27  C   UNL     1      -4.851  -3.513   7.027  1.00  0.00    -0.000 C 
BRANCH  27  28
ATOM     28  C   UNL     1      -5.342  -3.882   5.613  1.00  0.00    -0.000 C 
BRANCH  28  29
ATOM     29  C   UNL     1      -4.605  -3.181   4.458  1.00  0.00    -0.000 C 
BRANCH  29  30
ATOM     30  C   UNL     1      -4.452  -1.668   4.679  1.00  0.00    -0.000 C 
BRANCH  30  31
ATOM     31  C   UNL     1      -2.982  -1.225   4.741  1.00  0.00    -0.003 C 
ATOM     32  C   UNL     1      -2.008  -2.402   4.766  1.00  0.00     0.004 C 
ENDBRANCH  30  31
ENDBRANCH  29  30
ENDBRANCH  28  29
ENDBRANCH  27  28
ENDBRANCH  26  27
ENDBRANCH  25  26
ENDBRANCH  24  25
ENDBRANCH  23  24
ENDBRANCH  22  23
ENDBRANCH  21  22
ENDBRANCH  20  21
ENDBRANCH  19  20
ENDBRANCH  18  19
ENDBRANCH   1  18
TORSDOF 28
ENDMDL
MODEL 4
REMARK VINA RESULT:    -4.444     11.627     15.042
REMARK INTER + INTRA:         -15.703
REMARK INTER:                 -11.186
REMARK INTRA:                  -4.517
REMARK UNBOUND:                -3.985
REMARK SMILES CCCCCCCCCCCCCCCCCCCCCCCCCCCCCC(=O)[O-]
REMARK SMILES IDX 16 1 17 2 18 3 19 4 20 5 21 6 22 7 23 8 24 9 25 10 26 11
REMARK SMILES IDX 27 12 28 13 29 14 30 15 31 16 32 17 15 18 14 19 13 20 12 21
REMARK SMILES IDX 11 22 10 23 9 24 8 25 7 26 6 27 5 28 4 29 3 30 2 31 1 32
REMARK H PARENT
REMARK Flexibility Score: inf
ROOT
ATOM      1  C   UNL     1       4.184   3.886   4.417  1.00  0.00     0.000 C 
ENDROOT
BRANCH   1   2
ATOM      2  C   UNL     1       3.649   5.238   3.915  1.00  0.00     0.000 C 
BRANCH   2   3
ATOM      3  C   UNL     1       2.148   5.433   4.188  1.00  0.00     0.000 C 
BRANCH   3   4
ATOM      4  C   UNL     1       1.563   6.660   3.457  1.00  0.00     0.000 C 
BRANCH   4   5
ATOM      5  C   UNL     1       0.823   6.318   2.152  1.00  0.00     0.000 C 
BRANCH   5   6
ATOM      6  C   UNL     1       0.245   4.892   2.139  1.00  0.00     0.000 C 
BRANCH   6   7
ATOM      7  C   UNL     1       0.837   4.028   1.007  1.00  0.00     0.000 C 
BRANCH   7   8
ATOM      8  C   UNL     1       2.169   4.562   0.443  1.00  0.00     0.000 C 
BRANCH   8   9
ATOM      9  C   UNL     1       2.260   4.540  -1.098  1.00  0.00     0.000 C 
BRANCH   9  10
ATOM     10  C   UNL     1       1.916   5.885  -1.771  1.00  0.00     0.000 C 
BRANCH  10  11
ATOM     11  C   UNL     1       3.090   6.554  -2.516  1.00  0.00     0.000 C 
BRANCH  11  12
ATOM     12  C   UNL     1       4.493   6.232  -1.965  1.00  0.00     0.000 C 
BRANCH  12  13
ATOM     13  C   UNL     1       5.544   5.857  -3.025  1.00  0.00     0.006 C 
BRANCH  13  14
ATOM     14  C   UNL     1       6.977   6.196  -2.590  1.00  0.00     0.053 C 
BRANCH  14  15
ATOM     15  C   UNL     1       7.755   4.947  -2.317  1.00  0.00     0.041 C 
ATOM     16  O   UNL     1       7.285   4.060  -1.556  1.00  0.00    -0.550 OA
ATOM     17  O   UNL     1       8.988   4.745  -2.929  1.00  0.00    -0.550 OA
ENDBRANCH  14  15
ENDBRANCH  13  14
ENDBRANCH  12  13
ENDBRANCH  11  12
ENDBRANCH  10  11
ENDBRANCH   9  10
ENDBRANCH   8   9
ENDBRANCH   7   8
ENDBRANCH   6   7
ENDBRANCH   5   6
ENDBRANCH   4   5
ENDBRANCH   3   4
ENDBRANCH   2   3
ENDBRANCH   1   2
BRANCH   1  18
ATOM     18  C   UNL     1       5.122   4.000   5.638  1.00  0.00     0.000 C 
BRANCH  18  19
ATOM     19  C   UNL     1       4.366   3.831   6.968  1.00  0.00     0.000 C 
BRANCH  19  20
ATOM     20  C   UNL     1       4.809   4.848   8.031  1.00  0.00     0.000 C 
BRANCH  20  21
ATOM     21  C   UNL     1       3.621   5.604   8.652  1.00  0.00     0.000 C 
BRANCH  21  22
ATOM     22  C   UNL     1       2.340   5.483   7.808  1.00  0.00     0.000 C 
BRANCH  22  23
ATOM     23  C   UNL     1       1.762   6.827   7.322  1.00  0.00     0.000 C 
BRANCH  23  24
ATOM     24  C   UNL     1       1.024   7.652   8.397  1.00  0.00    -0.000 C 
BRANCH  24  25
ATOM     25  C   UNL     1       0.017   8.686   7.860  1.00  0.00    -0.000 C 
BRANCH  25  26
ATOM     26  C   UNL     1       0.048   8.816   6.328  1.00  0.00    -0.000 C 
BRANCH  26  27
ATOM     27  C   UNL     1      -1.359   8.820   5.705  1.00  0.00    -0.000 C 
BRANCH  27  28
ATOM     28  C   UNL     1      -1.633   7.691   4.691  1.00  0.00    -0.000 C 
BRANCH  28  29
ATOM     29  C   UNL     1      -2.261   6.416   5.283  1.00  0.00    -0.000 C 
BRANCH  29  30
ATOM     30  C   UNL     1      -1.212   5.359   5.669  1.00  0.00    -0.000 C 
BRANCH  30  31
ATOM     31  C   UNL     1      -1.576   4.608   6.959  1.00  0.00    -0.003 C 
ATOM     32  C   UNL     1      -1.990   5.545   8.094  1.00  0.00     0.004 C 
ENDBRANCH  30  31
ENDBRANCH  29  30
ENDBRANCH  28  29
ENDBRANCH  27  28
ENDBRANCH  26  27
ENDBRANCH  25  26
ENDBRANCH  24  25
ENDBRANCH  23  24
ENDBRANCH  22  23
ENDBRANCH  21  22
ENDBRANCH  20  21
ENDBRANCH  19  20
ENDBRANCH  18  19
ENDBRANCH   1  18
TORSDOF 28
ENDMDL
MODEL 5
REMARK VINA RESULT:    -4.402     11.221     14.263
REMARK INTER + INTRA:         -15.593
REMARK INTER:                 -10.676
REMARK INTRA:                  -4.917
REMARK UNBOUND:                -3.985
REMARK SMILES CCCCCCCCCCCCCCCCCCCCCCCCCCCCCC(=O)[O-]
REMARK SMILES IDX 16 1 17 2 18 3 19 4 20 5 21 6 22 7 23 8 24 9 25 10 26 11
REMARK SMILES IDX 27 12 28 13 29 14 30 15 31 16 32 17 15 18 14 19 13 20 12 21
REMARK SMILES IDX 11 22 10 23 9 24 8 25 7 26 6 27 5 28 4 29 3 30 2 31 1 32
REMARK H PARENT
REMARK Flexibility Score: inf
ROOT
ATOM      1  C   UNL     1       4.935   4.026   7.618  1.00  0.00     0.000 C 
ENDROOT
BRANCH   1   2
ATOM      2  C   UNL     1       5.717   4.017   6.294  1.00  0.00     0.000 C 
BRANCH   2   3
ATOM      3  C   UNL     1       5.570   2.698   5.514  1.00  0.00     0.000 C 
BRANCH   3   4
ATOM      4  C   UNL     1       4.654   2.835   4.280  1.00  0.00     0.000 C 
BRANCH   4   5
ATOM      5  C   UNL     1       3.155   2.683   4.591  1.00  0.00     0.000 C 
BRANCH   5   6
ATOM      6  C   UNL     1       2.348   3.966   4.326  1.00  0.00     0.000 C 
BRANCH   6   7
ATOM      7  C   UNL     1       3.252   5.175   4.011  1.00  0.00     0.000 C 
BRANCH   7   8
ATOM      8  C   UNL     1       2.813   5.978   2.769  1.00  0.00     0.000 C 
BRANCH   8   9
ATOM      9  C   UNL     1       2.635   5.128   1.493  1.00  0.00     0.000 C 
BRANCH   9  10
ATOM     10  C   UNL     1       1.481   5.590   0.581  1.00  0.00     0.000 C 
BRANCH  10  11
ATOM     11  C   UNL     1       1.290   4.749  -0.699  1.00  0.00     0.000 C 
BRANCH  11  12
ATOM     12  C   UNL     1       2.501   4.714  -1.652  1.00  0.00     0.000 C 
BRANCH  12  13
ATOM     13  C   UNL     1       3.047   6.091  -2.070  1.00  0.00     0.006 C 
BRANCH  13  14
ATOM     14  C   UNL     1       4.479   6.340  -1.576  1.00  0.00     0.053 C 
BRANCH  14  15
ATOM     15  C   UNL     1       5.459   6.182  -2.697  1.00  0.00     0.041 C 
ATOM     16  O   UNL     1       5.419   5.162  -3.434  1.00  0.00    -0.550 OA
ATOM     17  O   UNL     1       6.398   7.176  -2.949  1.00  0.00    -0.550 OA
ENDBRANCH  14  15
ENDBRANCH  13  14
ENDBRANCH  12  13
ENDBRANCH  11  12
ENDBRANCH  10  11
ENDBRANCH   9  10
ENDBRANCH   8   9
ENDBRANCH   7   8
ENDBRANCH   6   7
ENDBRANCH   5   6
ENDBRANCH   4   5
ENDBRANCH   3   4
ENDBRANCH   2   3
ENDBRANCH   1   2
BRANCH   1  18
ATOM     18  C   UNL     1       3.787   5.058   7.658  1.00  0.00     0.000 C 
BRANCH  18  19
ATOM     19  C   UNL     1       2.427   4.402   7.952  1.00  0.00     0.000 C 
BRANCH  19  20
ATOM     20  C   UNL     1       1.330   5.433   8.262  1.00  0.00     0.000 C 
BRANCH  20  21
ATOM     21  C   UNL     1       1.736   6.861   7.858  1.00  0.00     0.000 C 
BRANCH  21  22
ATOM     22  C   UNL     1       1.134   7.286   6.508  1.00  0.00     0.000 C 
BRANCH  22  23
ATOM     23  C   UNL     1       0.412   8.648   6.526  1.00  0.00     0.000 C 
BRANCH  23  24
ATOM     24  C   UNL     1      -0.405   8.976   5.260  1.00  0.00    -0.000 C 
BRANCH  24  25
ATOM     25  C   UNL     1      -1.913   8.673   5.351  1.00  0.00    -0.000 C 
BRANCH  25  26
ATOM     26  C   UNL     1      -2.475   8.840   6.773  1.00  0.00    -0.000 C 
BRANCH  26  27
ATOM     27  C   UNL     1      -3.166   7.566   7.290  1.00  0.00    -0.000 C 
BRANCH  27  28
ATOM     28  C   UNL     1      -2.216   6.451   7.772  1.00  0.00    -0.000 C 
BRANCH  28  29
ATOM     29  C   UNL     1      -2.459   5.066   7.146  1.00  0.00    -0.000 C 
BRANCH  29  30
ATOM     30  C   UNL     1      -1.432   4.716   6.056  1.00  0.00    -0.000 C 
BRANCH  30  31
ATOM     31  C   UNL     1      -1.913   5.096   4.647  1.00  0.00    -0.003 C 
ATOM     32  C   UNL     1      -0.795   5.654   3.768  1.00  0.00     0.004 C 
ENDBRANCH  30  31
ENDBRANCH  29  30
ENDBRANCH  28  29
ENDBRANCH  27  28
ENDBRANCH  26  27
ENDBRANCH  25  26
ENDBRANCH  24  25
ENDBRANCH  23  24
ENDBRANCH  22  23
ENDBRANCH  21  22
ENDBRANCH  20  21
ENDBRANCH  19  20
ENDBRANCH  18  19
ENDBRANCH   1  18
TORSDOF 28
ENDMDL
MODEL 6
REMARK VINA RESULT:    -4.395      2.906      7.828
REMARK INTER + INTRA:         -15.575
REMARK INTER:                  -9.853
REMARK INTRA:                  -5.722
REMARK UNBOUND:                -3.985
REMARK SMILES CCCCCCCCCCCCCCCCCCCCCCCCCCCCCC(=O)[O-]
REMARK SMILES IDX 16 1 17 2 18 3 19 4 20 5 21 6 22 7 23 8 24 9 25 10 26 11
REMARK SMILES IDX 27 12 28 13 29 14 30 15 31 16 32 17 15 18 14 19 13 20 12 21
REMARK SMILES IDX 11 22 10 23 9 24 8 25 7 26 6 27 5 28 4 29 3 30 2 31 1 32
REMARK H PARENT
REMARK Flexibility Score: inf
ROOT
ATOM      1  C   UNL     1      -2.723  -6.389  -2.368  1.00  0.00     0.000 C 
ENDROOT
BRANCH   1   2
ATOM      2  C   UNL     1      -4.064  -5.958  -1.750  1.00  0.00     0.000 C 
BRANCH   2   3
ATOM      3  C   UNL     1      -5.275  -6.288  -2.640  1.00  0.00     0.000 C 
BRANCH   3   4
ATOM      4  C   UNL     1      -6.138  -5.049  -2.956  1.00  0.00     0.000 C 
BRANCH   4   5
ATOM      5  C   UNL     1      -6.595  -4.269  -1.711  1.00  0.00     0.000 C 
BRANCH   5   6
ATOM      6  C   UNL     1      -6.699  -2.753  -1.950  1.00  0.00     0.000 C 
BRANCH   6   7
ATOM      7  C   UNL     1      -5.449  -1.993  -1.462  1.00  0.00     0.000 C 
BRANCH   7   8
ATOM      8  C   UNL     1      -4.757  -2.642  -0.246  1.00  0.00     0.000 C 
BRANCH   8   9
ATOM      9  C   UNL     1      -3.957  -1.655   0.631  1.00  0.00     0.000 C 
BRANCH   9  10
ATOM     10  C   UNL     1      -4.771  -1.029   1.782  1.00  0.00     0.000 C 
BRANCH  10  11
ATOM     11  C   UNL     1      -4.952  -1.940   3.015  1.00  0.00     0.000 C 
BRANCH  11  12
ATOM     12  C   UNL     1      -3.655  -2.304   3.764  1.00  0.00     0.000 C 
BRANCH  12  13
ATOM     13  C   UNL     1      -3.840  -2.713   5.236  1.00  0.00     0.006 C 
BRANCH  13  14
ATOM     14  C   UNL     1      -4.856  -3.849   5.417  1.00  0.00     0.053 C 
BRANCH  14  15
ATOM     15  C   UNL     1      -5.665  -3.640   6.659  1.00  0.00     0.041 C 
ATOM     16  O   UNL     1      -5.365  -4.250   7.720  1.00  0.00    -0.550 OA
ATOM     17  O   UNL     1      -6.731  -2.748   6.657  1.00  0.00    -0.550 OA
ENDBRANCH  14  15
ENDBRANCH  13  14
ENDBRANCH  12  13
ENDBRANCH  11  12
ENDBRANCH  10  11
ENDBRANCH   9  10
ENDBRANCH   8   9
ENDBRANCH   7   8
ENDBRANCH   6   7
ENDBRANCH   5   6
ENDBRANCH   4   5
ENDBRANCH   3   4
ENDBRANCH   2   3
ENDBRANCH   1   2
BRANCH   1  18
ATOM     18  C   UNL     1      -1.863  -5.213  -2.876  1.00  0.00     0.000 C 
BRANCH  18  19
ATOM     19  C   UNL     1      -2.586  -3.862  -2.736  1.00  0.00     0.000 C 
BRANCH  19  20
ATOM     20  C   UNL     1      -2.995  -3.269  -4.094  1.00  0.00     0.000 C 
BRANCH  20  21
ATOM     21  C   UNL     1      -2.792  -1.745  -4.155  1.00  0.00     0.000 C 
BRANCH  21  22
ATOM     22  C   UNL     1      -2.328  -1.158  -2.811  1.00  0.00     0.000 C 
BRANCH  22  23
ATOM     23  C   UNL     1      -0.981  -0.411  -2.866  1.00  0.00     0.000 C 
BRANCH  23  24
ATOM     24  C   UNL     1      -0.205  -0.357  -1.534  1.00  0.00    -0.000 C 
BRANCH  24  25
ATOM     25  C   UNL     1      -0.380  -1.583  -0.618  1.00  0.00    -0.000 C 
BRANCH  25  26
ATOM     26  C   UNL     1       0.536  -2.757  -1.002  1.00  0.00    -0.000 C 
BRANCH  26  27
ATOM     27  C   UNL     1       0.256  -4.023  -0.173  1.00  0.00    -0.000 C 
BRANCH  27  28
ATOM     28  C   UNL     1      -0.977  -3.945   0.751  1.00  0.00    -0.000 C 
BRANCH  28  29
ATOM     29  C   UNL     1      -1.744  -5.267   0.934  1.00  0.00    -0.000 C 
BRANCH  29  30
ATOM     30  C   UNL     1      -2.857  -5.169   1.991  1.00  0.00    -0.000 C 
BRANCH  30  31
ATOM     31  C   UNL     1      -2.688  -6.190   3.125  1.00  0.00    -0.003 C 
ATOM     32  C   UNL     1      -1.828  -5.665   4.274  1.00  0.00     0.004 C 
ENDBRANCH  30  31
ENDBRANCH  29  30
ENDBRANCH  28  29
ENDBRANCH  27  28
ENDBRANCH  26  27
ENDBRANCH  25  26
ENDBRANCH  24  25
ENDBRANCH  23  24
ENDBRANCH  22  23
ENDBRANCH  21  22
ENDBRANCH  20  21
ENDBRANCH  19  20
ENDBRANCH  18  19
ENDBRANCH   1  18
TORSDOF 28
ENDMDL
MODEL 7
REMARK VINA RESULT:    -4.384      1.429      3.152
REMARK INTER + INTRA:         -15.544
REMARK INTER:                 -10.779
REMARK INTRA:                  -4.765
REMARK UNBOUND:                -3.985
REMARK SMILES CCCCCCCCCCCCCCCCCCCCCCCCCCCCCC(=O)[O-]
REMARK SMILES IDX 16 1 17 2 18 3 19 4 20 5 21 6 22 7 23 8 24 9 25 10 26 11
REMARK SMILES IDX 27 12 28 13 29 14 30 15 31 16 32 17 15 18 14 19 13 20 12 21
REMARK SMILES IDX 11 22 10 23 9 24 8 25 7 26 6 27 5 28 4 29 3 30 2 31 1 32
REMARK H PARENT
REMARK Flexibility Score: inf
ROOT
ATOM      1  C   UNL     1      -0.951  -7.285   3.454  1.00  0.00     0.000 C 
ENDROOT
BRANCH   1   2
ATOM      2  C   UNL     1      -0.467  -8.222   4.574  1.00  0.00     0.000 C 
BRANCH   2   3
ATOM      3  C   UNL     1      -1.018  -7.841   5.960  1.00  0.00     0.000 C 
BRANCH   3   4
ATOM      4  C   UNL     1      -0.037  -8.176   7.103  1.00  0.00     0.000 C 
BRANCH   4   5
ATOM      5  C   UNL     1       1.412  -8.406   6.640  1.00  0.00     0.000 C 
BRANCH   5   6
ATOM      6  C   UNL     1       2.356  -7.248   7.004  1.00  0.00     0.000 C 
BRANCH   6   7
ATOM      7  C   UNL     1       2.791  -6.433   5.769  1.00  0.00     0.000 C 
BRANCH   7   8
ATOM      8  C   UNL     1       1.733  -5.422   5.281  1.00  0.00     0.000 C 
BRANCH   8   9
ATOM      9  C   UNL     1       1.363  -4.341   6.318  1.00  0.00     0.000 C 
BRANCH   9  10
ATOM     10  C   UNL     1      -0.093  -4.420   6.822  1.00  0.00     0.000 C 
BRANCH  10  11
ATOM     11  C   UNL     1      -0.841  -3.070   6.856  1.00  0.00     0.000 C 
BRANCH  11  12
ATOM     12  C   UNL     1      -1.843  -2.841   5.707  1.00  0.00     0.000 C 
BRANCH  12  13
ATOM     13  C   UNL     1      -3.272  -2.477   6.146  1.00  0.00     0.006 C 
BRANCH  13  14
ATOM     14  C   UNL     1      -4.061  -3.685   6.670  1.00  0.00     0.053 C 
BRANCH  14  15
ATOM     15  C   UNL     1      -5.493  -3.607   6.241  1.00  0.00     0.041 C 
ATOM     16  O   UNL     1      -6.398  -3.395   7.090  1.00  0.00    -0.550 OA
ATOM     17  O   UNL     1      -5.827  -3.736   4.897  1.00  0.00    -0.550 OA
ENDBRANCH  14  15
ENDBRANCH  13  14
ENDBRANCH  12  13
ENDBRANCH  11  12
ENDBRANCH  10  11
ENDBRANCH   9  10
ENDBRANCH   8   9
ENDBRANCH   7   8
ENDBRANCH   6   7
ENDBRANCH   5   6
ENDBRANCH   4   5
ENDBRANCH   3   4
ENDBRANCH   2   3
ENDBRANCH   1   2
BRANCH   1  18
ATOM     18  C   UNL     1      -1.752  -6.067   3.960  1.00  0.00     0.000 C 
BRANCH  18  19
ATOM     19  C   UNL     1      -3.030  -5.829   3.136  1.00  0.00     0.000 C 
BRANCH  19  20
ATOM     20  C   UNL     1      -3.188  -4.362   2.705  1.00  0.00     0.000 C 
BRANCH  20  21
ATOM     21  C   UNL     1      -2.603  -4.096   1.307  1.00  0.00     0.000 C 
BRANCH  21  22
ATOM     22  C   UNL     1      -3.060  -5.134   0.268  1.00  0.00     0.000 C 
BRANCH  22  23
ATOM     23  C   UNL     1      -2.058  -5.384  -0.876  1.00  0.00     0.000 C 
BRANCH  23  24
ATOM     24  C   UNL     1      -2.670  -5.950  -2.174  1.00  0.00    -0.000 C 
BRANCH  24  25
ATOM     25  C   UNL     1      -4.112  -6.474  -2.049  1.00  0.00    -0.000 C 
BRANCH  25  26
ATOM     26  C   UNL     1      -4.971  -6.174  -3.289  1.00  0.00    -0.000 C 
BRANCH  26  27
ATOM     27  C   UNL     1      -6.299  -5.480  -2.937  1.00  0.00    -0.000 C 
BRANCH  27  28
ATOM     28  C   UNL     1      -6.232  -4.493  -1.754  1.00  0.00    -0.000 C 
BRANCH  28  29
ATOM     29  C   UNL     1      -6.087  -3.011  -2.143  1.00  0.00    -0.000 C 
BRANCH  29  30
ATOM     30  C   UNL     1      -4.715  -2.427  -1.768  1.00  0.00    -0.000 C 
BRANCH  30  31
ATOM     31  C   UNL     1      -3.705  -2.498  -2.924  1.00  0.00    -0.003 C 
ATOM     32  C   UNL     1      -2.281  -2.154  -2.490  1.00  0.00     0.004 C 
ENDBRANCH  30  31
ENDBRANCH  29  30
ENDBRANCH  28  29
ENDBRANCH  27  28
ENDBRANCH  26  27
ENDBRANCH  25  26
ENDBRANCH  24  25
ENDBRANCH  23  24
ENDBRANCH  22  23
ENDBRANCH  21  22
ENDBRANCH  20  21
ENDBRANCH  19  20
ENDBRANCH  18  19
ENDBRANCH   1  18
TORSDOF 28
ENDMDL
MODEL 8
REMARK VINA RESULT:    -4.365     10.900     14.711
REMARK INTER + INTRA:         -15.494
REMARK INTER:                 -10.505
REMARK INTRA:                  -4.988
REMARK UNBOUND:                -3.985
REMARK SMILES CCCCCCCCCCCCCCCCCCCCCCCCCCCCCC(=O)[O-]
REMARK SMILES IDX 16 1 17 2 18 3 19 4 20 5 21 6 22 7 23 8 24 9 25 10 26 11
REMARK SMILES IDX 27 12 28 13 29 14 30 15 31 16 32 17 15 18 14 19 13 20 12 21
REMARK SMILES IDX 11 22 10 23 9 24 8 25 7 26 6 27 5 28 4 29 3 30 2 31 1 32
REMARK H PARENT
REMARK Flexibility Score: inf
ROOT
ATOM      1  C   UNL     1       0.264   6.754   3.390  1.00  0.00     0.000 C 
ENDROOT
BRANCH   1   2
ATOM      2  C   UNL     1       0.995   6.008   2.261  1.00  0.00     0.000 C 
BRANCH   2   3
ATOM      3  C   UNL     1       2.522   5.976   2.447  1.00  0.00     0.000 C 
BRANCH   3   4
ATOM      4  C   UNL     1       3.037   4.597   2.910  1.00  0.00     0.000 C 
BRANCH   4   5
ATOM      5  C   UNL     1       3.328   3.618   1.759  1.00  0.00     0.000 C 
BRANCH   5   6
ATOM      6  C   UNL     1       2.302   2.476   1.661  1.00  0.00     0.000 C 
BRANCH   6   7
ATOM      7  C   UNL     1       1.323   2.664   0.485  1.00  0.00     0.000 C 
BRANCH   7   8
ATOM      8  C   UNL     1       1.953   3.330  -0.755  1.00  0.00     0.000 C 
BRANCH   8   9
ATOM      9  C   UNL     1       1.288   4.660  -1.168  1.00  0.00     0.000 C 
BRANCH   9  10
ATOM     10  C   UNL     1       2.247   5.665  -1.838  1.00  0.00     0.000 C 
BRANCH  10  11
ATOM     11  C   UNL     1       3.682   5.668  -1.269  1.00  0.00     0.000 C 
BRANCH  11  12
ATOM     12  C   UNL     1       4.577   6.831  -1.741  1.00  0.00     0.000 C 
BRANCH  12  13
ATOM     13  C   UNL     1       5.811   6.418  -2.562  1.00  0.00     0.006 C 
BRANCH  13  14
ATOM     14  C   UNL     1       5.476   5.421  -3.681  1.00  0.00     0.053 C 
BRANCH  14  15
ATOM     15  C   UNL     1       6.728   4.863  -4.282  1.00  0.00     0.041 C 
ATOM     16  O   UNL     1       6.884   3.617  -4.377  1.00  0.00    -0.550 OA
ATOM     17  O   UNL     1       7.712   5.718  -4.766  1.00  0.00    -0.550 OA
ENDBRANCH  14  15
ENDBRANCH  13  14
ENDBRANCH  12  13
ENDBRANCH  11  12
ENDBRANCH  10  11
ENDBRANCH   9  10
ENDBRANCH   8   9
ENDBRANCH   7   8
ENDBRANCH   6   7
ENDBRANCH   5   6
ENDBRANCH   4   5
ENDBRANCH   3   4
ENDBRANCH   2   3
ENDBRANCH   1   2
BRANCH   1  18
ATOM     18  C   UNL     1       1.113   7.853   4.064  1.00  0.00     0.000 C 
BRANCH  18  19
ATOM     19  C   UNL     1       1.084   7.748   5.600  1.00  0.00     0.000 C 
BRANCH  19  20
ATOM     20  C   UNL     1       1.059   6.292   6.090  1.00  0.00     0.000 C 
BRANCH  20  21
ATOM     21  C   UNL     1       2.470   5.739   6.358  1.00  0.00     0.000 C 
BRANCH  21  22
ATOM     22  C   UNL     1       2.856   5.804   7.845  1.00  0.00     0.000 C 
BRANCH  22  23
ATOM     23  C   UNL     1       3.295   4.458   8.455  1.00  0.00     0.000 C 
BRANCH  23  24
ATOM     24  C   UNL     1       2.150   3.470   8.760  1.00  0.00    -0.000 C 
BRANCH  24  25
ATOM     25  C   UNL     1       2.258   2.101   8.064  1.00  0.00    -0.000 C 
BRANCH  25  26
ATOM     26  C   UNL     1       1.457   2.028   6.753  1.00  0.00    -0.000 C 
BRANCH  26  27
ATOM     27  C   UNL     1       2.319   2.330   5.514  1.00  0.00    -0.000 C 
BRANCH  27  28
ATOM     28  C   UNL     1       3.146   1.142   4.983  1.00  0.00    -0.000 C 
BRANCH  28  29
ATOM     29  C   UNL     1       4.653   1.412   4.820  1.00  0.00    -0.000 C 
BRANCH  29  30
ATOM     30  C   UNL     1       5.371   1.613   6.165  1.00  0.00    -0.000 C 
BRANCH  30  31
ATOM     31  C   UNL     1       5.838   3.062   6.374  1.00  0.00    -0.003 C 
ATOM     32  C   UNL     1       5.812   3.886   5.087  1.00  0.00     0.004 C 
ENDBRANCH  30  31
ENDBRANCH  29  30
ENDBRANCH  28  29
ENDBRANCH  27  28
ENDBRANCH  26  27
ENDBRANCH  25  26
ENDBRANCH  24  25
ENDBRANCH  23  24
ENDBRANCH  22  23
ENDBRANCH  21  22
ENDBRANCH  20  21
ENDBRANCH  19  20
ENDBRANCH  18  19
ENDBRANCH   1  18
TORSDOF 28
ENDMDL
MODEL 9
REMARK VINA RESULT:    -4.342      3.067      8.128
REMARK INTER + INTRA:         -15.434
REMARK INTER:                 -10.221
REMARK INTRA:                  -5.213
REMARK UNBOUND:                -3.985
REMARK SMILES CCCCCCCCCCCCCCCCCCCCCCCCCCCCCC(=O)[O-]
REMARK SMILES IDX 16 1 17 2 18 3 19 4 20 5 21 6 22 7 23 8 24 9 25 10 26 11
REMARK SMILES IDX 27 12 28 13 29 14 30 15 31 16 32 17 15 18 14 19 13 20 12 21
REMARK SMILES IDX 11 22 10 23 9 24 8 25 7 26 6 27 5 28 4 29 3 30 2 31 1 32
REMARK H PARENT
REMARK Flexibility Score: inf
ROOT
ATOM      1  C   UNL     1      -2.018  -6.426   3.120  1.00  0.00     0.000 C 
ENDROOT
BRANCH   1   2
ATOM      2  C   UNL     1      -3.033  -5.445   3.732  1.00  0.00     0.000 C 
BRANCH   2   3
ATOM      3  C   UNL     1      -3.384  -4.276   2.794  1.00  0.00     0.000 C 
BRANCH   3   4
ATOM      4  C   UNL     1      -2.861  -2.919   3.311  1.00  0.00     0.000 C 
BRANCH   4   5
ATOM      5  C   UNL     1      -1.388  -2.943   3.754  1.00  0.00     0.000 C 
BRANCH   5   6
ATOM      6  C   UNL     1      -0.400  -2.872   2.577  1.00  0.00     0.000 C 
BRANCH   6   7
ATOM      7  C   UNL     1      -1.020  -2.214   1.327  1.00  0.00     0.000 C 
BRANCH   7   8
ATOM      8  C   UNL     1      -0.635  -2.901   0.001  1.00  0.00     0.000 C 
BRANCH   8   9
ATOM      9  C   UNL     1      -0.533  -4.439   0.089  1.00  0.00     0.000 C 
BRANCH   9  10
ATOM     10  C   UNL     1      -1.812  -5.183  -0.345  1.00  0.00     0.000 C 
BRANCH  10  11
ATOM     11  C   UNL     1      -1.996  -5.319  -1.871  1.00  0.00     0.000 C 
BRANCH  11  12
ATOM     12  C   UNL     1      -3.382  -4.912  -2.409  1.00  0.00     0.000 C 
BRANCH  12  13
ATOM     13  C   UNL     1      -4.544  -5.066  -1.410  1.00  0.00     0.006 C 
BRANCH  13  14
ATOM     14  C   UNL     1      -5.918  -4.830  -2.054  1.00  0.00     0.053 C 
BRANCH  14  15
ATOM     15  C   UNL     1      -6.177  -5.839  -3.128  1.00  0.00     0.041 C 
ATOM     16  O   UNL     1      -6.408  -7.040  -2.828  1.00  0.00    -0.550 OA
ATOM     17  O   UNL     1      -6.195  -5.449  -4.463  1.00  0.00    -0.550 OA
ENDBRANCH  14  15
ENDBRANCH  13  14
ENDBRANCH  12  13
ENDBRANCH  11  12
ENDBRANCH  10  11
ENDBRANCH   9  10
ENDBRANCH   8   9
ENDBRANCH   7   8
ENDBRANCH   6   7
ENDBRANCH   5   6
ENDBRANCH   4   5
ENDBRANCH   3   4
ENDBRANCH   2   3
ENDBRANCH   1   2
BRANCH   1  18
ATOM     18  C   UNL     1      -1.497  -7.486   4.113  1.00  0.00     0.000 C 
BRANCH  18  19
ATOM     19  C   UNL     1       0.041  -7.506   4.186  1.00  0.00     0.000 C 
BRANCH  19  20
ATOM     20  C   UNL     1       0.663  -6.131   3.895  1.00  0.00     0.000 C 
BRANCH  20  21
ATOM     21  C   UNL     1       1.514  -5.612   5.068  1.00  0.00     0.000 C 
BRANCH  21  22
ATOM     22  C   UNL     1       2.021  -6.746   5.975  1.00  0.00     0.000 C 
BRANCH  22  23
ATOM     23  C   UNL     1       1.503  -6.688   7.426  1.00  0.00     0.000 C 
BRANCH  23  24
ATOM     24  C   UNL     1       0.180  -5.920   7.621  1.00  0.00    -0.000 C 
BRANCH  24  25
ATOM     25  C   UNL     1      -1.085  -6.796   7.701  1.00  0.00    -0.000 C 
BRANCH  25  26
ATOM     26  C   UNL     1      -2.386  -5.975   7.686  1.00  0.00    -0.000 C 
BRANCH  26  27
ATOM     27  C   UNL     1      -2.247  -4.657   6.904  1.00  0.00    -0.000 C 
BRANCH  27  28
ATOM     28  C   UNL     1      -2.822  -3.411   7.606  1.00  0.00    -0.000 C 
BRANCH  28  29
ATOM     29  C   UNL     1      -4.050  -2.781   6.925  1.00  0.00    -0.000 C 
BRANCH  29  30
ATOM     30  C   UNL     1      -5.124  -3.818   6.555  1.00  0.00    -0.000 C 
BRANCH  30  31
ATOM     31  C   UNL     1      -5.978  -3.383   5.355  1.00  0.00    -0.003 C 
ATOM     32  C   UNL     1      -5.954  -1.872   5.126  1.00  0.00     0.004 C 
ENDBRANCH  30  31
ENDBRANCH  29  30
ENDBRANCH  28  29
ENDBRANCH  27  28
ENDBRANCH  26  27
ENDBRANCH  25  26
ENDBRANCH  24  25
ENDBRANCH  23  24
ENDBRANCH  22  23
ENDBRANCH  21  22
ENDBRANCH  20  21
ENDBRANCH  19  20
ENDBRANCH  18  19
ENDBRANCH   1  18
TORSDOF 28
ENDMDL
