MODEL 1
REMARK VINA RESULT:    40.044      0.000      0.000
REMARK INTER + INTRA:          46.773
REMARK INTER:                  47.067
REMARK INTRA:                  -0.294
REMARK UNBOUND:                -0.294
REMARK SMILES O=c1cc(-c2ccc(O)c(O)c2)oc2cc(O)cc(O)c12
REMARK SMILES IDX 4 1 3 2 2 3 1 4 21 5 19 6 18 7 16 8 15 9 14 10 13 11 5 12
REMARK SMILES IDX 6 13 7 14 8 15 12 16 10 17 9 18 11 20 20 22 17 24
REMARK H PARENT 9 19 11 21 20 23 17 25
REMARK Flexibility Score: inf
ROOT
ATOM      1  C   UNL     1      11.687   1.674  26.975  1.00  0.00     0.138 A 
ATOM      2  C   UNL     1      11.008   1.550  25.752  1.00  0.00     0.100 A 
ATOM      3  C   UNL     1      10.726   2.692  25.003  1.00  0.00     0.197 A 
ATOM      4  O   UNL     1      10.115   2.571  23.907  1.00  0.00    -0.289 OA
ATOM      5  C   UNL     1      11.124   3.956  25.485  1.00  0.00     0.107 A 
ATOM      6  C   UNL     1      10.878   5.163  24.789  1.00  0.00     0.134 A 
ATOM      7  C   UNL     1      11.302   6.381  25.340  1.00  0.00     0.093 A 
ATOM      8  C   UNL     1      11.964   6.414  26.573  1.00  0.00     0.123 A 
ATOM      9  C   UNL     1      12.207   5.226  27.263  1.00  0.00     0.094 A 
ATOM     10  C   UNL     1      11.794   4.001  26.730  1.00  0.00     0.146 A 
ATOM     11  O   UNL     1      12.040   2.883  27.407  1.00  0.00    -0.456 OA
ENDROOT
BRANCH   1  12
ATOM     12  C   UNL     1      12.012   0.494  27.814  1.00  0.00     0.021 A 
ATOM     13  C   UNL     1      12.843   0.597  28.946  1.00  0.00     0.016 A 
ATOM     14  C   UNL     1      13.125  -0.528  29.724  1.00  0.00     0.051 A 
ATOM     15  C   UNL     1      12.579  -1.772  29.394  1.00  0.00     0.157 A 
ATOM     16  C   UNL     1      11.455  -0.758  27.496  1.00  0.00     0.062 A 
ATOM     17  C   UNL     1      11.738  -1.889  28.276  1.00  0.00     0.158 A 
BRANCH  15  18
ATOM     18  O   UNL     1      12.880  -2.878  30.189  1.00  0.00    -0.504 OA
ATOM     19  H   UNL     1      12.306  -3.712  30.189  1.00  0.00     0.293 HD
ENDBRANCH  15  18
BRANCH  17  20
ATOM     20  O   UNL     1      11.187  -3.125  27.942  1.00  0.00    -0.504 OA
ATOM     21  H   UNL     1      11.007  -3.834  28.644  1.00  0.00     0.293 HD
ENDBRANCH  17  20
ENDBRANCH   1  12
BRANCH   6  22
ATOM     22  O   UNL     1      10.220   5.161  23.557  1.00  0.00    -0.507 OA
ATOM     23  H   UNL     1       9.637   4.386  23.266  1.00  0.00     0.293 HD
ENDBRANCH   6  22
BRANCH   8  24
ATOM     24  O   UNL     1      12.383   7.625  27.121  1.00  0.00    -0.508 OA
ATOM     25  H   UNL     1      13.145   7.669  27.788  1.00  0.00     0.293 HD
ENDBRANCH   8  24
TORSDOF 5
ENDMDL
MODEL 2
REMARK VINA RESULT:    42.711      1.080      2.668
REMARK INTER + INTRA:          49.907
REMARK INTER:                  50.224
REMARK INTRA:                  -0.317
REMARK UNBOUND:                -0.294
REMARK SMILES O=c1cc(-c2ccc(O)c(O)c2)oc2cc(O)cc(O)c12
REMARK SMILES IDX 4 1 3 2 2 3 1 4 21 5 19 6 18 7 16 8 15 9 14 10 13 11 5 12
REMARK SMILES IDX 6 13 7 14 8 15 12 16 10 17 9 18 11 20 20 22 17 24
REMARK H PARENT 9 19 11 21 20 23 17 25
REMARK Flexibility Score: inf
ROOT
ATOM      1  C   UNL     1      12.242   1.991  27.843  1.00  0.00     0.138 A 
ATOM      2  C   UNL     1      12.783   3.164  28.394  1.00  0.00     0.100 A 
ATOM      3  C   UNL     1      12.568   4.386  27.757  1.00  0.00     0.197 A 
ATOM      4  O   UNL     1      13.058   5.434  28.258  1.00  0.00    -0.289 OA
ATOM      5  C   UNL     1      11.813   4.426  26.567  1.00  0.00     0.107 A 
ATOM      6  C   UNL     1      11.547   5.622  25.859  1.00  0.00     0.134 A 
ATOM      7  C   UNL     1      10.791   5.577  24.678  1.00  0.00     0.093 A 
ATOM      8  C   UNL     1      10.299   4.359  24.193  1.00  0.00     0.123 A 
ATOM      9  C   UNL     1      10.560   3.178  24.888  1.00  0.00     0.094 A 
ATOM     10  C   UNL     1      11.310   3.202  26.067  1.00  0.00     0.146 A 
ATOM     11  O   UNL     1      11.543   2.062  26.713  1.00  0.00    -0.456 OA
ENDROOT
BRANCH   1  12
ATOM     12  C   UNL     1      12.440   0.664  28.476  1.00  0.00     0.021 A 
ATOM     13  C   UNL     1      12.953   0.536  29.782  1.00  0.00     0.016 A 
ATOM     14  C   UNL     1      13.120  -0.726  30.357  1.00  0.00     0.051 A 
ATOM     15  C   UNL     1      12.772  -1.879  29.648  1.00  0.00     0.157 A 
ATOM     16  C   UNL     1      12.079  -0.500  27.774  1.00  0.00     0.062 A 
ATOM     17  C   UNL     1      12.247  -1.767  28.351  1.00  0.00     0.158 A 
BRANCH  15  18
ATOM     18  O   UNL     1      12.951  -3.125  30.249  1.00  0.00    -0.504 OA
ATOM     19  H   UNL     1      12.408  -3.418  31.052  1.00  0.00     0.293 HD
ENDBRANCH  15  18
BRANCH  17  20
ATOM     20  O   UNL     1      11.894  -2.913  27.639  1.00  0.00    -0.504 OA
ATOM     21  H   UNL     1      12.324  -3.139  26.749  1.00  0.00     0.293 HD
ENDBRANCH  17  20
ENDBRANCH   1  12
BRANCH   6  22
ATOM     22  O   UNL     1      12.024   6.851  26.318  1.00  0.00    -0.507 OA
ATOM     23  H   UNL     1      11.526   7.715  26.143  1.00  0.00     0.293 HD
ENDBRANCH   6  22
BRANCH   8  24
ATOM     24  O   UNL     1       9.549   4.314  23.019  1.00  0.00    -0.508 OA
ATOM     25  H   UNL     1       8.870   3.581  22.851  1.00  0.00     0.293 HD
ENDBRANCH   8  24
TORSDOF 5
ENDMDL
