MODEL 1
REMARK VINA RESULT:    -3.632      0.000      0.000
REMARK INTER + INTRA:          -6.212
REMARK INTER:                  -5.543
REMARK INTRA:                  -0.669
REMARK UNBOUND:                -0.669
REMARK SMILES CCCCCCCCCCC(=O)[O-]
REMARK SMILES IDX 7 1 8 2 9 3 10 4 11 5 12 6 13 7 6 8 5 9 4 10 3 11 2 12 1 13
REMARK H PARENT
REMARK Flexibility Score: inf
ROOT
ATOM      1  C   UNL     1      61.212  32.461  59.745  1.00  0.00     0.000 C 
ENDROOT
BRANCH   1   2
ATOM      2  C   UNL     1      61.151  32.051  61.221  1.00  0.00     0.000 C 
BRANCH   2   3
ATOM      3  C   UNL     1      61.073  30.526  61.365  1.00  0.00     0.006 C 
BRANCH   3   4
ATOM      4  C   UNL     1      62.275  29.988  62.148  1.00  0.00     0.053 C 
BRANCH   4   5
ATOM      5  C   UNL     1      63.495  29.963  61.283  1.00  0.00     0.041 C 
ATOM      6  O   UNL     1      63.716  28.982  60.525  1.00  0.00    -0.550 OA
ATOM      7  O   UNL     1      64.415  31.002  61.350  1.00  0.00    -0.550 OA
ENDBRANCH   4   5
ENDBRANCH   3   4
ENDBRANCH   2   3
ENDBRANCH   1   2
BRANCH   1   8
ATOM      8  C   UNL     1      61.999  33.766  59.568  1.00  0.00     0.000 C 
BRANCH   8   9
ATOM      9  C   UNL     1      61.441  34.872  60.477  1.00  0.00    -0.000 C 
BRANCH   9  10
ATOM     10  C   UNL     1      62.537  35.578  61.290  1.00  0.00    -0.000 C 
BRANCH  10  11
ATOM     11  C   UNL     1      63.813  34.729  61.426  1.00  0.00    -0.000 C 
BRANCH  11  12
ATOM     12  C   UNL     1      64.994  35.528  61.998  1.00  0.00    -0.003 C 
ATOM     13  C   UNL     1      64.642  36.993  62.261  1.00  0.00     0.004 C 
ENDBRANCH  11  12
ENDBRANCH  10  11
ENDBRANCH   9  10
ENDBRANCH   8   9
ENDBRANCH   1   8
TORSDOF 9
ENDMDL
MODEL 2
REMARK VINA RESULT:    -3.626      1.718      2.514
REMARK INTER + INTRA:          -6.202
REMARK INTER:                  -5.526
REMARK INTRA:                  -0.676
REMARK UNBOUND:                -0.669
REMARK SMILES CCCCCCCCCCC(=O)[O-]
REMARK SMILES IDX 7 1 8 2 9 3 10 4 11 5 12 6 13 7 6 8 5 9 4 10 3 11 2 12 1 13
REMARK H PARENT
REMARK Flexibility Score: inf
ROOT
ATOM      1  C   UNL     1      61.562  30.881  61.648  1.00  0.00     0.000 C 
ENDROOT
BRANCH   1   2
ATOM      2  C   UNL     1      63.093  30.967  61.686  1.00  0.00     0.000 C 
BRANCH   2   3
ATOM      3  C   UNL     1      63.725  29.572  61.599  1.00  0.00     0.006 C 
BRANCH   3   4
ATOM      4  C   UNL     1      62.808  28.601  60.849  1.00  0.00     0.053 C 
BRANCH   4   5
ATOM      5  C   UNL     1      62.710  27.301  61.583  1.00  0.00     0.041 C 
ATOM      6  O   UNL     1      61.772  27.104  62.400  1.00  0.00    -0.550 OA
ATOM      7  O   UNL     1      63.682  26.326  61.402  1.00  0.00    -0.550 OA
ENDBRANCH   4   5
ENDBRANCH   3   4
ENDBRANCH   2   3
ENDBRANCH   1   2
BRANCH   1   8
ATOM      8  C   UNL     1      60.957  32.126  60.988  1.00  0.00     0.000 C 
BRANCH   8   9
ATOM      9  C   UNL     1      62.058  33.089  60.518  1.00  0.00    -0.000 C 
BRANCH   9  10
ATOM     10  C   UNL     1      61.617  34.560  60.566  1.00  0.00    -0.000 C 
BRANCH  10  11
ATOM     11  C   UNL     1      62.684  35.477  61.188  1.00  0.00    -0.000 C 
BRANCH  11  12
ATOM     12  C   UNL     1      63.984  34.727  61.521  1.00  0.00    -0.003 C 
ATOM     13  C   UNL     1      65.169  35.668  61.738  1.00  0.00     0.004 C 
ENDBRANCH  11  12
ENDBRANCH  10  11
ENDBRANCH   9  10
ENDBRANCH   8   9
ENDBRANCH   1   8
TORSDOF 9
ENDMDL
MODEL 3
REMARK VINA RESULT:    -3.614      1.233      2.228
REMARK INTER + INTRA:          -6.184
REMARK INTER:                  -5.236
REMARK INTRA:                  -0.948
REMARK UNBOUND:                -0.669
REMARK SMILES CCCCCCCCCCC(=O)[O-]
REMARK SMILES IDX 7 1 8 2 9 3 10 4 11 5 12 6 13 7 6 8 5 9 4 10 3 11 2 12 1 13
REMARK H PARENT
REMARK Flexibility Score: inf
ROOT
ATOM      1  C   UNL     1      63.022  33.426  59.826  1.00  0.00     0.000 C 
ENDROOT
BRANCH   1   2
ATOM      2  C   UNL     1      61.923  33.132  60.855  1.00  0.00     0.000 C 
BRANCH   2   3
ATOM      3  C   UNL     1      61.303  31.750  60.618  1.00  0.00     0.006 C 
BRANCH   3   4
ATOM      4  C   UNL     1      61.250  30.942  61.918  1.00  0.00     0.053 C 
BRANCH   4   5
ATOM      5  C   UNL     1      62.336  29.913  61.939  1.00  0.00     0.041 C 
ATOM      6  O   UNL     1      62.047  28.687  61.982  1.00  0.00    -0.550 OA
ATOM      7  O   UNL     1      63.667  30.308  61.961  1.00  0.00    -0.550 OA
ENDBRANCH   4   5
ENDBRANCH   3   4
ENDBRANCH   2   3
ENDBRANCH   1   2
BRANCH   1   8
ATOM      8  C   UNL     1      64.399  33.503  60.498  1.00  0.00     0.000 C 
BRANCH   8   9
ATOM      9  C   UNL     1      64.372  34.460  61.698  1.00  0.00    -0.000 C 
BRANCH   9  10
ATOM     10  C   UNL     1      65.155  35.756  61.439  1.00  0.00    -0.000 C 
BRANCH  10  11
ATOM     11  C   UNL     1      64.299  37.017  61.652  1.00  0.00    -0.000 C 
BRANCH  11  12
ATOM     12  C   UNL     1      62.793  36.732  61.536  1.00  0.00    -0.003 C 
ATOM     13  C   UNL     1      62.226  37.105  60.166  1.00  0.00     0.004 C 
ENDBRANCH  11  12
ENDBRANCH  10  11
ENDBRANCH   9  10
ENDBRANCH   8   9
ENDBRANCH   1   8
TORSDOF 9
ENDMDL
MODEL 4
REMARK VINA RESULT:    -3.564      2.615      4.917
REMARK INTER + INTRA:          -6.108
REMARK INTER:                  -4.840
REMARK INTRA:                  -1.267
REMARK UNBOUND:                -0.669
REMARK SMILES CCCCCCCCCCC(=O)[O-]
REMARK SMILES IDX 7 1 8 2 9 3 10 4 11 5 12 6 13 7 6 8 5 9 4 10 3 11 2 12 1 13
REMARK H PARENT
REMARK Flexibility Score: inf
ROOT
ATOM      1  C   UNL     1      61.110  32.217  60.420  1.00  0.00     0.000 C 
ENDROOT
BRANCH   1   2
ATOM      2  C   UNL     1      61.530  33.631  60.840  1.00  0.00     0.000 C 
BRANCH   2   3
ATOM      3  C   UNL     1      62.884  34.007  60.227  1.00  0.00     0.006 C 
BRANCH   3   4
ATOM      4  C   UNL     1      63.978  34.054  61.298  1.00  0.00     0.053 C 
BRANCH   4   5
ATOM      5  C   UNL     1      64.347  35.470  61.608  1.00  0.00     0.041 C 
ATOM      6  O   UNL     1      65.542  35.770  61.873  1.00  0.00    -0.550 OA
ATOM      7  O   UNL     1      63.364  36.451  61.654  1.00  0.00    -0.550 OA
ENDBRANCH   4   5
ENDBRANCH   3   4
ENDBRANCH   2   3
ENDBRANCH   1   2
BRANCH   1   8
ATOM      8  C   UNL     1      60.720  31.373  61.641  1.00  0.00     0.000 C 
BRANCH   8   9
ATOM      9  C   UNL     1      61.897  30.503  62.105  1.00  0.00    -0.000 C 
BRANCH   9  10
ATOM     10  C   UNL     1      62.797  30.056  60.943  1.00  0.00    -0.000 C 
BRANCH  10  11
ATOM     11  C   UNL     1      64.289  30.308  61.219  1.00  0.00    -0.000 C 
BRANCH  11  12
ATOM     12  C   UNL     1      65.030  30.860  59.990  1.00  0.00    -0.003 C 
ATOM     13  C   UNL     1      64.181  30.812  58.720  1.00  0.00     0.004 C 
ENDBRANCH  11  12
ENDBRANCH  10  11
ENDBRANCH   9  10
ENDBRANCH   8   9
ENDBRANCH   1   8
TORSDOF 9
ENDMDL
MODEL 5
REMARK VINA RESULT:    -3.490     12.308     13.982
REMARK INTER + INTRA:          -5.995
REMARK INTER:                  -4.974
REMARK INTRA:                  -1.021
REMARK UNBOUND:                -0.669
REMARK SMILES CCCCCCCCCCC(=O)[O-]
REMARK SMILES IDX 7 1 8 2 9 3 10 4 11 5 12 6 13 7 6 8 5 9 4 10 3 11 2 12 1 13
REMARK H PARENT
REMARK Flexibility Score: inf
ROOT
ATOM      1  C   UNL     1      57.677  28.550  51.329  1.00  0.00     0.000 C 
ENDROOT
BRANCH   1   2
ATOM      2  C   UNL     1      57.504  29.066  49.895  1.00  0.00     0.000 C 
BRANCH   2   3
ATOM      3  C   UNL     1      58.860  29.204  49.193  1.00  0.00     0.006 C 
BRANCH   3   4
ATOM      4  C   UNL     1      59.993  28.675  50.079  1.00  0.00     0.053 C 
BRANCH   4   5
ATOM      5  C   UNL     1      60.644  27.488  49.442  1.00  0.00     0.041 C 
ATOM      6  O   UNL     1      61.869  27.516  49.152  1.00  0.00    -0.550 OA
ATOM      7  O   UNL     1      59.886  26.368  49.124  1.00  0.00    -0.550 OA
ENDBRANCH   4   5
ENDBRANCH   3   4
ENDBRANCH   2   3
ENDBRANCH   1   2
BRANCH   1   8
ATOM      8  C   UNL     1      56.847  27.281  51.562  1.00  0.00     0.000 C 
BRANCH   8   9
ATOM      9  C   UNL     1      56.707  26.471  50.265  1.00  0.00    -0.000 C 
BRANCH   9  10
ATOM     10  C   UNL     1      55.243  26.283  49.840  1.00  0.00    -0.000 C 
BRANCH  10  11
ATOM     11  C   UNL     1      54.265  27.080  50.721  1.00  0.00    -0.000 C 
BRANCH  11  12
ATOM     12  C   UNL     1      53.554  28.200  49.945  1.00  0.00    -0.003 C 
ATOM     13  C   UNL     1      53.889  29.592  50.481  1.00  0.00     0.004 C 
ENDBRANCH  11  12
ENDBRANCH  10  11
ENDBRANCH   9  10
ENDBRANCH   8   9
ENDBRANCH   1   8
TORSDOF 9
ENDMDL
MODEL 6
REMARK VINA RESULT:    -3.483     12.693     14.283
REMARK INTER + INTRA:          -5.984
REMARK INTER:                  -4.775
REMARK INTRA:                  -1.209
REMARK UNBOUND:                -0.669
REMARK SMILES CCCCCCCCCCC(=O)[O-]
REMARK SMILES IDX 7 1 8 2 9 3 10 4 11 5 12 6 13 7 6 8 5 9 4 10 3 11 2 12 1 13
REMARK H PARENT
REMARK Flexibility Score: inf
ROOT
ATOM      1  C   UNL     1      57.311  28.771  51.412  1.00  0.00     0.000 C 
ENDROOT
BRANCH   1   2
ATOM      2  C   UNL     1      56.288  28.328  50.359  1.00  0.00     0.000 C 
BRANCH   2   3
ATOM      3  C   UNL     1      55.512  27.094  50.832  1.00  0.00     0.006 C 
BRANCH   3   4
ATOM      4  C   UNL     1      55.466  26.022  49.738  1.00  0.00     0.053 C 
BRANCH   4   5
ATOM      5  C   UNL     1      54.142  25.325  49.742  1.00  0.00     0.041 C 
ATOM      6  O   UNL     1      53.412  25.346  48.716  1.00  0.00    -0.550 OA
ATOM      7  O   UNL     1      53.692  24.696  50.896  1.00  0.00    -0.550 OA
ENDBRANCH   4   5
ENDBRANCH   3   4
ENDBRANCH   2   3
ENDBRANCH   1   2
BRANCH   1   8
ATOM      8  C   UNL     1      58.510  29.468  50.755  1.00  0.00     0.000 C 
BRANCH   8   9
ATOM      9  C   UNL     1      58.728  28.955  49.324  1.00  0.00    -0.000 C 
BRANCH   9  10
ATOM     10  C   UNL     1      59.879  27.942  49.227  1.00  0.00    -0.000 C 
BRANCH  10  11
ATOM     11  C   UNL     1      59.389  26.484  49.271  1.00  0.00    -0.000 C 
BRANCH  11  12
ATOM     12  C   UNL     1      59.899  25.729  50.508  1.00  0.00    -0.003 C 
ATOM     13  C   UNL     1      58.770  25.303  51.446  1.00  0.00     0.004 C 
ENDBRANCH  11  12
ENDBRANCH  10  11
ENDBRANCH   9  10
ENDBRANCH   8   9
ENDBRANCH   1   8
TORSDOF 9
ENDMDL
MODEL 7
REMARK VINA RESULT:    -3.453      1.181      2.259
REMARK INTER + INTRA:          -5.939
REMARK INTER:                  -4.840
REMARK INTRA:                  -1.099
REMARK UNBOUND:                -0.669
REMARK SMILES CCCCCCCCCCC(=O)[O-]
REMARK SMILES IDX 7 1 8 2 9 3 10 4 11 5 12 6 13 7 6 8 5 9 4 10 3 11 2 12 1 13
REMARK H PARENT
REMARK Flexibility Score: inf
ROOT
ATOM      1  C   UNL     1      60.818  30.569  61.235  1.00  0.00     0.000 C 
ENDROOT
BRANCH   1   2
ATOM      2  C   UNL     1      61.864  30.181  62.288  1.00  0.00     0.000 C 
BRANCH   2   3
ATOM      3  C   UNL     1      63.130  29.625  61.626  1.00  0.00     0.006 C 
BRANCH   3   4
ATOM      4  C   UNL     1      64.156  30.737  61.384  1.00  0.00     0.053 C 
BRANCH   4   5
ATOM      5  C   UNL     1      64.470  30.851  59.925  1.00  0.00     0.041 C 
ATOM      6  O   UNL     1      63.884  30.111  59.091  1.00  0.00    -0.550 OA
ATOM      7  O   UNL     1      65.447  31.738  59.492  1.00  0.00    -0.550 OA
ENDBRANCH   4   5
ENDBRANCH   3   4
ENDBRANCH   2   3
ENDBRANCH   1   2
BRANCH   1   8
ATOM      8  C   UNL     1      60.745  32.092  61.067  1.00  0.00     0.000 C 
BRANCH   8   9
ATOM      9  C   UNL     1      61.135  32.507  59.640  1.00  0.00    -0.000 C 
BRANCH   9  10
ATOM     10  C   UNL     1      62.113  33.692  59.615  1.00  0.00    -0.000 C 
BRANCH  10  11
ATOM     11  C   UNL     1      61.999  34.579  60.867  1.00  0.00    -0.000 C 
BRANCH  11  12
ATOM     12  C   UNL     1      63.280  35.385  61.137  1.00  0.00    -0.003 C 
ATOM     13  C   UNL     1      64.430  34.513  61.642  1.00  0.00     0.004 C 
ENDBRANCH  11  12
ENDBRANCH  10  11
ENDBRANCH   9  10
ENDBRANCH   8   9
ENDBRANCH   1   8
TORSDOF 9
ENDMDL
MODEL 8
REMARK VINA RESULT:    -3.428      2.872      5.524
REMARK INTER + INTRA:          -5.901
REMARK INTER:                  -4.920
REMARK INTRA:                  -0.982
REMARK UNBOUND:                -0.669
REMARK SMILES CCCCCCCCCCC(=O)[O-]
REMARK SMILES IDX 7 1 8 2 9 3 10 4 11 5 12 6 13 7 6 8 5 9 4 10 3 11 2 12 1 13
REMARK H PARENT
REMARK Flexibility Score: inf
ROOT
ATOM      1  C   UNL     1      64.270  32.822  59.894  1.00  0.00     0.000 C 
ENDROOT
BRANCH   1   2
ATOM      2  C   UNL     1      63.857  33.657  61.113  1.00  0.00     0.000 C 
BRANCH   2   3
ATOM      3  C   UNL     1      62.623  34.511  60.802  1.00  0.00     0.006 C 
BRANCH   3   4
ATOM      4  C   UNL     1      62.762  35.914  61.402  1.00  0.00     0.053 C 
BRANCH   4   5
ATOM      5  C   UNL     1      64.134  36.456  61.155  1.00  0.00     0.041 C 
ATOM      6  O   UNL     1      64.497  36.753  59.986  1.00  0.00    -0.550 OA
ATOM      7  O   UNL     1      65.030  36.586  62.208  1.00  0.00    -0.550 OA
ENDBRANCH   4   5
ENDBRANCH   3   4
ENDBRANCH   2   3
ENDBRANCH   1   2
BRANCH   1   8
ATOM      8  C   UNL     1      64.811  31.452  60.323  1.00  0.00     0.000 C 
BRANCH   8   9
ATOM      9  C   UNL     1      64.122  30.967  61.607  1.00  0.00    -0.000 C 
BRANCH   9  10
ATOM     10  C   UNL     1      63.259  29.716  61.379  1.00  0.00    -0.000 C 
BRANCH  10  11
ATOM     11  C   UNL     1      61.876  29.824  62.045  1.00  0.00    -0.000 C 
BRANCH  11  12
ATOM     12  C   UNL     1      61.183  31.164  61.751  1.00  0.00    -0.003 C 
ATOM     13  C   UNL     1      60.679  31.264  60.311  1.00  0.00     0.004 C 
ENDBRANCH  11  12
ENDBRANCH  10  11
ENDBRANCH   9  10
ENDBRANCH   8   9
ENDBRANCH   1   8
TORSDOF 9
ENDMDL
MODEL 9
REMARK VINA RESULT:    -3.394      1.523      2.094
REMARK INTER + INTRA:          -5.849
REMARK INTER:                  -4.810
REMARK INTRA:                  -1.039
REMARK UNBOUND:                -0.669
REMARK SMILES CCCCCCCCCCC(=O)[O-]
REMARK SMILES IDX 7 1 8 2 9 3 10 4 11 5 12 6 13 7 6 8 5 9 4 10 3 11 2 12 1 13
REMARK H PARENT
REMARK Flexibility Score: inf
ROOT
ATOM      1  C   UNL     1      62.037  32.433  59.226  1.00  0.00     0.000 C 
ENDROOT
BRANCH   1   2
ATOM      2  C   UNL     1      63.473  32.254  59.735  1.00  0.00     0.000 C 
BRANCH   2   3
ATOM      3  C   UNL     1      63.491  31.982  61.244  1.00  0.00     0.006 C 
BRANCH   3   4
ATOM      4  C   UNL     1      63.624  30.483  61.529  1.00  0.00     0.053 C 
BRANCH   4   5
ATOM      5  C   UNL     1      62.307  29.911  61.951  1.00  0.00     0.041 C 
ATOM      6  O   UNL     1      61.359  30.674  62.274  1.00  0.00    -0.550 OA
ATOM      7  O   UNL     1      62.143  28.534  62.035  1.00  0.00    -0.550 OA
ENDBRANCH   4   5
ENDBRANCH   3   4
ENDBRANCH   2   3
ENDBRANCH   1   2
BRANCH   1   8
ATOM      8  C   UNL     1      61.264  33.431  60.097  1.00  0.00     0.000 C 
BRANCH   8   9
ATOM      9  C   UNL     1      61.598  34.878  59.703  1.00  0.00    -0.000 C 
BRANCH   9  10
ATOM     10  C   UNL     1      61.338  35.875  60.843  1.00  0.00    -0.000 C 
BRANCH  10  11
ATOM     11  C   UNL     1      62.638  36.427  61.453  1.00  0.00    -0.000 C 
BRANCH  11  12
ATOM     12  C   UNL     1      63.894  35.791  60.836  1.00  0.00    -0.003 C 
ATOM     13  C   UNL     1      64.933  35.397  61.886  1.00  0.00     0.004 C 
ENDBRANCH  11  12
ENDBRANCH  10  11
ENDBRANCH   9  10
ENDBRANCH   8   9
ENDBRANCH   1   8
TORSDOF 9
ENDMDL
