MODEL 1
REMARK VINA RESULT:    -4.326      0.000      0.000
REMARK INTER + INTRA:          -5.003
REMARK INTER:                  -4.958
REMARK INTRA:                  -0.045
REMARK UNBOUND:                -0.045
REMARK SMILES O=C([O-])c1cc(O)c(O)c(O)c1
REMARK SMILES IDX 4 1 5 2 12 3 6 4 10 5 8 6 2 7 1 8 3 9 7 10 11 12 9 14
REMARK H PARENT 7 11 11 13 9 15
REMARK Flexibility Score: inf
ROOT
ATOM      1  C   UNL     1       3.937 -15.909  15.018  1.00  0.00     0.005 A 
ATOM      2  C   UNL     1       2.590 -15.612  14.752  1.00  0.00     0.060 A 
ATOM      3  C   UNL     1       4.779 -14.888  15.495  1.00  0.00     0.060 A 
ATOM      4  C   UNL     1       2.089 -14.323  14.957  1.00  0.00     0.162 A 
ATOM      5  C   UNL     1       4.284 -13.593  15.703  1.00  0.00     0.162 A 
ATOM      6  C   UNL     1       2.934 -13.307  15.434  1.00  0.00     0.200 A 
ENDROOT
BRANCH   1   7
ATOM      7  C   UNL     1       4.458 -17.276  14.799  1.00  0.00     0.072 C 
ATOM      8  O   UNL     1       5.010 -17.583  13.709  1.00  0.00    -0.545 OA
ATOM      9  O   UNL     1       4.345 -18.241  15.792  1.00  0.00    -0.545 OA
ENDBRANCH   1   7
BRANCH   4  10
ATOM     10  O   UNL     1       0.745 -14.069  14.680  1.00  0.00    -0.504 OA
ATOM     11  H   UNL     1       0.099 -14.806  14.424  1.00  0.00     0.293 HD
ENDBRANCH   4  10
BRANCH   5  12
ATOM     12  O   UNL     1       5.128 -12.590  16.176  1.00  0.00    -0.504 OA
ATOM     13  H   UNL     1       5.367 -12.516  17.158  1.00  0.00     0.293 HD
ENDBRANCH   5  12
BRANCH   6  14
ATOM     14  O   UNL     1       2.426 -12.023  15.635  1.00  0.00    -0.502 OA
ATOM     15  H   UNL     1       2.222 -11.661  16.558  1.00  0.00     0.293 HD
ENDBRANCH   6  14
TORSDOF 4
ENDMDL
MODEL 2
REMARK VINA RESULT:    -4.301      0.040      2.430
REMARK INTER + INTRA:          -4.974
REMARK INTER:                  -4.929
REMARK INTRA:                  -0.045
REMARK UNBOUND:                -0.045
REMARK SMILES O=C([O-])c1cc(O)c(O)c(O)c1
REMARK SMILES IDX 4 1 5 2 12 3 6 4 10 5 8 6 2 7 1 8 3 9 7 10 11 12 9 14
REMARK H PARENT 7 11 11 13 9 15
REMARK Flexibility Score: inf
ROOT
ATOM      1  C   UNL     1       3.963 -15.922  15.028  1.00  0.00     0.005 A 
ATOM      2  C   UNL     1       4.802 -14.898  15.501  1.00  0.00     0.060 A 
ATOM      3  C   UNL     1       2.615 -15.628  14.756  1.00  0.00     0.060 A 
ATOM      4  C   UNL     1       4.308 -13.605  15.700  1.00  0.00     0.162 A 
ATOM      5  C   UNL     1       2.113 -14.334  14.952  1.00  0.00     0.162 A 
ATOM      6  C   UNL     1       2.960 -13.317  15.426  1.00  0.00     0.200 A 
ENDROOT
BRANCH   1   7
ATOM      7  C   UNL     1       4.495 -17.287  14.821  1.00  0.00     0.072 C 
ATOM      8  O   UNL     1       5.040 -17.603  13.730  1.00  0.00    -0.545 OA
ATOM      9  O   UNL     1       4.398 -18.241  15.827  1.00  0.00    -0.545 OA
ENDBRANCH   1   7
BRANCH   4  10
ATOM     10  O   UNL     1       5.173 -12.617  16.171  1.00  0.00    -0.504 OA
ATOM     11  H   UNL     1       5.686 -12.719  17.038  1.00  0.00     0.293 HD
ENDBRANCH   4  10
BRANCH   5  12
ATOM     12  O   UNL     1       0.775 -14.055  14.678  1.00  0.00    -0.504 OA
ATOM     13  H   UNL     1       0.497 -13.545  13.848  1.00  0.00     0.293 HD
ENDBRANCH   5  12
BRANCH   6  14
ATOM     14  O   UNL     1       2.475 -12.024  15.627  1.00  0.00    -0.502 OA
ATOM     15  H   UNL     1       1.911 -11.545  14.936  1.00  0.00     0.293 HD
ENDBRANCH   6  14
TORSDOF 4
ENDMDL
MODEL 3
REMARK VINA RESULT:    -4.102      1.872      4.459
REMARK INTER + INTRA:          -4.746
REMARK INTER:                  -4.699
REMARK INTRA:                  -0.047
REMARK UNBOUND:                -0.045
REMARK SMILES O=C([O-])c1cc(O)c(O)c(O)c1
REMARK SMILES IDX 4 1 5 2 12 3 6 4 10 5 8 6 2 7 1 8 3 9 7 10 11 12 9 14
REMARK H PARENT 7 11 11 13 9 15
REMARK Flexibility Score: inf
ROOT
ATOM      1  C   UNL     1       4.155 -15.435  14.806  1.00  0.00     0.005 A 
ATOM      2  C   UNL     1       4.000 -16.776  14.417  1.00  0.00     0.060 A 
ATOM      3  C   UNL     1       5.446 -14.882  14.849  1.00  0.00     0.060 A 
ATOM      4  C   UNL     1       5.112 -17.553  14.075  1.00  0.00     0.162 A 
ATOM      5  C   UNL     1       6.565 -15.654  14.508  1.00  0.00     0.162 A 
ATOM      6  C   UNL     1       6.400 -16.994  14.119  1.00  0.00     0.200 A 
ENDROOT
BRANCH   1   7
ATOM      7  C   UNL     1       2.972 -14.621  15.166  1.00  0.00     0.072 C 
ATOM      8  O   UNL     1       2.916 -14.029  16.276  1.00  0.00    -0.545 OA
ATOM      9  O   UNL     1       1.905 -14.500  14.283  1.00  0.00    -0.545 OA
ENDBRANCH   1   7
BRANCH   4  10
ATOM     10  O   UNL     1       4.916 -18.880  13.693  1.00  0.00    -0.504 OA
ATOM     11  H   UNL     1       4.025 -19.348  13.806  1.00  0.00     0.293 HD
ENDBRANCH   4  10
BRANCH   5  12
ATOM     12  O   UNL     1       7.841 -15.093  14.554  1.00  0.00    -0.504 OA
ATOM     13  H   UNL     1       8.666 -15.628  14.308  1.00  0.00     0.293 HD
ENDBRANCH   5  12
BRANCH   6  14
ATOM     14  O   UNL     1       7.504 -17.776  13.777  1.00  0.00    -0.502 OA
ATOM     15  H   UNL     1       8.304 -17.397  13.286  1.00  0.00     0.293 HD
ENDBRANCH   6  14
TORSDOF 4
ENDMDL
MODEL 4
REMARK VINA RESULT:    -4.097      1.833      4.943
REMARK INTER + INTRA:          -4.740
REMARK INTER:                  -4.693
REMARK INTRA:                  -0.047
REMARK UNBOUND:                -0.045
REMARK SMILES O=C([O-])c1cc(O)c(O)c(O)c1
REMARK SMILES IDX 4 1 5 2 12 3 6 4 10 5 8 6 2 7 1 8 3 9 7 10 11 12 9 14
REMARK H PARENT 7 11 11 13 9 15
REMARK Flexibility Score: inf
ROOT
ATOM      1  C   UNL     1       4.043 -15.491  14.854  1.00  0.00     0.005 A 
ATOM      2  C   UNL     1       5.323 -14.914  14.900  1.00  0.00     0.060 A 
ATOM      3  C   UNL     1       3.916 -16.841  14.480  1.00  0.00     0.060 A 
ATOM      4  C   UNL     1       6.457 -15.666  14.581  1.00  0.00     0.162 A 
ATOM      5  C   UNL     1       5.049 -17.601  14.158  1.00  0.00     0.162 A 
ATOM      6  C   UNL     1       6.325 -17.014  14.208  1.00  0.00     0.200 A 
ENDROOT
BRANCH   1   7
ATOM      7  C   UNL     1       2.848 -14.687  15.194  1.00  0.00     0.072 C 
ATOM      8  O   UNL     1       2.745 -14.139  16.323  1.00  0.00    -0.545 OA
ATOM      9  O   UNL     1       1.820 -14.527  14.271  1.00  0.00    -0.545 OA
ENDBRANCH   1   7
BRANCH   4  10
ATOM     10  O   UNL     1       7.711 -15.056  14.639  1.00  0.00    -0.504 OA
ATOM     11  H   UNL     1       7.987 -14.466  15.415  1.00  0.00     0.293 HD
ENDBRANCH   4  10
BRANCH   5  12
ATOM     12  O   UNL     1       4.911 -18.938  13.789  1.00  0.00    -0.504 OA
ATOM     13  H   UNL     1       4.375 -19.212  12.973  1.00  0.00     0.293 HD
ENDBRANCH   5  12
BRANCH   6  14
ATOM     14  O   UNL     1       7.463 -17.758  13.891  1.00  0.00    -0.502 OA
ATOM     15  H   UNL     1       7.502 -18.763  14.009  1.00  0.00     0.293 HD
ENDBRANCH   6  14
TORSDOF 4
ENDMDL
MODEL 5
REMARK VINA RESULT:    -4.085     13.449     14.552
REMARK INTER + INTRA:          -4.726
REMARK INTER:                  -4.681
REMARK INTRA:                  -0.045
REMARK UNBOUND:                -0.045
REMARK SMILES O=C([O-])c1cc(O)c(O)c(O)c1
REMARK SMILES IDX 4 1 5 2 12 3 6 4 10 5 8 6 2 7 1 8 3 9 7 10 11 12 9 14
REMARK H PARENT 7 11 11 13 9 15
REMARK Flexibility Score: inf
ROOT
ATOM      1  C   UNL     1       2.849 -23.490   3.801  1.00  0.00     0.005 A 
ATOM      2  C   UNL     1       1.611 -23.694   3.168  1.00  0.00     0.060 A 
ATOM      3  C   UNL     1       3.012 -23.914   5.132  1.00  0.00     0.060 A 
ATOM      4  C   UNL     1       0.554 -24.309   3.846  1.00  0.00     0.162 A 
ATOM      5  C   UNL     1       1.957 -24.531   5.818  1.00  0.00     0.162 A 
ATOM      6  C   UNL     1       0.723 -24.731   5.176  1.00  0.00     0.200 A 
ENDROOT
BRANCH   1   7
ATOM      7  C   UNL     1       3.961 -22.838   3.074  1.00  0.00     0.072 C 
ATOM      8  O   UNL     1       4.153 -21.597   3.177  1.00  0.00    -0.545 OA
ATOM      9  O   UNL     1       4.809 -23.587   2.267  1.00  0.00    -0.545 OA
ENDBRANCH   1   7
BRANCH   4  10
ATOM     10  O   UNL     1      -0.659 -24.493   3.182  1.00  0.00    -0.504 OA
ATOM     11  H   UNL     1      -0.845 -25.312   2.616  1.00  0.00     0.293 HD
ENDBRANCH   4  10
BRANCH   5  12
ATOM     12  O   UNL     1       2.132 -24.947   7.137  1.00  0.00    -0.504 OA
ATOM     13  H   UNL     1       2.924 -24.640   7.691  1.00  0.00     0.293 HD
ENDBRANCH   5  12
BRANCH   6  14
ATOM     14  O   UNL     1      -0.336 -25.344   5.846  1.00  0.00    -0.502 OA
ATOM     15  H   UNL     1      -0.383 -26.346   5.982  1.00  0.00     0.293 HD
ENDBRANCH   6  14
TORSDOF 4
ENDMDL
MODEL 6
REMARK VINA RESULT:    -4.077     13.467     14.696
REMARK INTER + INTRA:          -4.718
REMARK INTER:                  -4.673
REMARK INTRA:                  -0.045
REMARK UNBOUND:                -0.045
REMARK SMILES O=C([O-])c1cc(O)c(O)c(O)c1
REMARK SMILES IDX 4 1 5 2 12 3 6 4 10 5 8 6 2 7 1 8 3 9 7 10 11 12 9 14
REMARK H PARENT 7 11 11 13 9 15
REMARK Flexibility Score: inf
ROOT
ATOM      1  C   UNL     1       2.850 -23.491   3.809  1.00  0.00     0.005 A 
ATOM      2  C   UNL     1       3.001 -23.932   5.135  1.00  0.00     0.060 A 
ATOM      3  C   UNL     1       1.615 -23.676   3.165  1.00  0.00     0.060 A 
ATOM      4  C   UNL     1       1.940 -24.546   5.808  1.00  0.00     0.162 A 
ATOM      5  C   UNL     1       0.547 -24.291   3.833  1.00  0.00     0.162 A 
ATOM      6  C   UNL     1       0.707 -24.728   5.159  1.00  0.00     0.200 A 
ENDROOT
BRANCH   1   7
ATOM      7  C   UNL     1       3.979 -22.842   3.106  1.00  0.00     0.072 C 
ATOM      8  O   UNL     1       4.158 -21.598   3.193  1.00  0.00    -0.545 OA
ATOM      9  O   UNL     1       4.857 -23.597   2.336  1.00  0.00    -0.545 OA
ENDBRANCH   1   7
BRANCH   4  10
ATOM     10  O   UNL     1       2.130 -24.969   7.124  1.00  0.00    -0.504 OA
ATOM     11  H   UNL     1       2.577 -25.850   7.347  1.00  0.00     0.293 HD
ENDBRANCH   4  10
BRANCH   5  12
ATOM     12  O   UNL     1      -0.674 -24.468   3.183  1.00  0.00    -0.504 OA
ATOM     13  H   UNL     1      -1.348 -23.716   3.104  1.00  0.00     0.293 HD
ENDBRANCH   5  12
BRANCH   6  14
ATOM     14  O   UNL     1      -0.347 -25.342   5.838  1.00  0.00    -0.502 OA
ATOM     15  H   UNL     1      -0.636 -26.292   5.641  1.00  0.00     0.293 HD
ENDBRANCH   6  14
TORSDOF 4
ENDMDL
MODEL 7
REMARK VINA RESULT:    -4.006     12.835     14.704
REMARK INTER + INTRA:          -4.636
REMARK INTER:                  -4.592
REMARK INTRA:                  -0.045
REMARK UNBOUND:                -0.045
REMARK SMILES O=C([O-])c1cc(O)c(O)c(O)c1
REMARK SMILES IDX 4 1 5 2 12 3 6 4 10 5 8 6 2 7 1 8 3 9 7 10 11 12 9 14
REMARK H PARENT 7 11 11 13 9 15
REMARK Flexibility Score: inf
ROOT
ATOM      1  C   UNL     1       0.938 -24.347   3.514  1.00  0.00     0.005 A 
ATOM      2  C   UNL     1       0.668 -24.896   4.779  1.00  0.00     0.060 A 
ATOM      3  C   UNL     1       2.068 -23.526   3.354  1.00  0.00     0.060 A 
ATOM      4  C   UNL     1       1.508 -24.634   5.866  1.00  0.00     0.162 A 
ATOM      5  C   UNL     1       2.914 -23.258   4.439  1.00  0.00     0.162 A 
ATOM      6  C   UNL     1       2.636 -23.813   5.700  1.00  0.00     0.200 A 
ENDROOT
BRANCH   1   7
ATOM      7  C   UNL     1       0.043 -24.631   2.371  1.00  0.00     0.072 C 
ATOM      8  O   UNL     1      -0.940 -23.882   2.125  1.00  0.00    -0.545 OA
ATOM      9  O   UNL     1       0.274 -25.730   1.551  1.00  0.00    -0.545 OA
ENDBRANCH   1   7
BRANCH   4  10
ATOM     10  O   UNL     1       1.205 -25.198   7.105  1.00  0.00    -0.504 OA
ATOM     11  H   UNL     1       1.765 -25.020   7.930  1.00  0.00     0.293 HD
ENDBRANCH   4  10
BRANCH   5  12
ATOM     12  O   UNL     1       4.032 -22.442   4.267  1.00  0.00    -0.504 OA
ATOM     13  H   UNL     1       4.545 -22.071   5.058  1.00  0.00     0.293 HD
ENDBRANCH   5  12
BRANCH   6  14
ATOM     14  O   UNL     1       3.469 -23.555   6.789  1.00  0.00    -0.502 OA
ATOM     15  H   UNL     1       3.388 -24.059   7.664  1.00  0.00     0.293 HD
ENDBRANCH   6  14
TORSDOF 4
ENDMDL
MODEL 8
REMARK VINA RESULT:    -3.944      1.842      2.753
REMARK INTER + INTRA:          -4.565
REMARK INTER:                  -4.515
REMARK INTRA:                  -0.050
REMARK UNBOUND:                -0.045
REMARK SMILES O=C([O-])c1cc(O)c(O)c(O)c1
REMARK SMILES IDX 4 1 5 2 12 3 6 4 10 5 8 6 2 7 1 8 3 9 7 10 11 12 9 14
REMARK H PARENT 7 11 11 13 9 15
REMARK Flexibility Score: inf
ROOT
ATOM      1  C   UNL     1       4.587 -17.043  15.395  1.00  0.00     0.005 A 
ATOM      2  C   UNL     1       4.530 -16.574  16.718  1.00  0.00     0.060 A 
ATOM      3  C   UNL     1       3.798 -16.415  14.414  1.00  0.00     0.060 A 
ATOM      4  C   UNL     1       3.704 -15.499  17.060  1.00  0.00     0.162 A 
ATOM      5  C   UNL     1       2.967 -15.338  14.750  1.00  0.00     0.162 A 
ATOM      6  C   UNL     1       2.918 -14.876  16.076  1.00  0.00     0.200 A 
ENDROOT
BRANCH   1   7
ATOM      7  C   UNL     1       5.465 -18.181  15.043  1.00  0.00     0.072 C 
ATOM      8  O   UNL     1       6.560 -18.354  15.641  1.00  0.00    -0.545 OA
ATOM      9  O   UNL     1       5.094 -19.075  14.045  1.00  0.00    -0.545 OA
ENDBRANCH   1   7
BRANCH   4  10
ATOM     10  O   UNL     1       3.677 -15.064  18.385  1.00  0.00    -0.504 OA
ATOM     11  H   UNL     1       4.403 -14.476  18.774  1.00  0.00     0.293 HD
ENDBRANCH   4  10
BRANCH   5  12
ATOM     12  O   UNL     1       2.190 -14.724  13.768  1.00  0.00    -0.504 OA
ATOM     13  H   UNL     1       1.932 -15.207  12.915  1.00  0.00     0.293 HD
ENDBRANCH   5  12
BRANCH   6  14
ATOM     14  O   UNL     1       2.096 -13.803  16.426  1.00  0.00    -0.502 OA
ATOM     15  H   UNL     1       2.090 -12.935  15.906  1.00  0.00     0.293 HD
ENDBRANCH   6  14
TORSDOF 4
ENDMDL
MODEL 9
REMARK VINA RESULT:    -3.877      1.328      4.540
REMARK INTER + INTRA:          -4.488
REMARK INTER:                  -4.440
REMARK INTRA:                  -0.048
REMARK UNBOUND:                -0.045
REMARK SMILES O=C([O-])c1cc(O)c(O)c(O)c1
REMARK SMILES IDX 4 1 5 2 12 3 6 4 10 5 8 6 2 7 1 8 3 9 7 10 11 12 9 14
REMARK H PARENT 7 11 11 13 9 15
REMARK Flexibility Score: inf
ROOT
ATOM      1  C   UNL     1       3.260 -15.391  15.534  1.00  0.00     0.005 A 
ATOM      2  C   UNL     1       3.625 -16.100  14.377  1.00  0.00     0.060 A 
ATOM      3  C   UNL     1       3.617 -15.909  16.791  1.00  0.00     0.060 A 
ATOM      4  C   UNL     1       4.333 -17.302  14.469  1.00  0.00     0.162 A 
ATOM      5  C   UNL     1       4.326 -17.114  16.892  1.00  0.00     0.162 A 
ATOM      6  C   UNL     1       4.687 -17.815  15.728  1.00  0.00     0.200 A 
ENDROOT
BRANCH   1   7
ATOM      7  C   UNL     1       2.512 -14.120  15.426  1.00  0.00     0.072 C 
ATOM      8  O   UNL     1       1.493 -14.037  14.690  1.00  0.00    -0.545 OA
ATOM      9  O   UNL     1       2.924 -12.997  16.135  1.00  0.00    -0.545 OA
ENDBRANCH   1   7
BRANCH   4  10
ATOM     10  O   UNL     1       4.676 -17.976  13.296  1.00  0.00    -0.504 OA
ATOM     11  H   UNL     1       5.243 -17.547  12.575  1.00  0.00     0.293 HD
ENDBRANCH   4  10
BRANCH   5  12
ATOM     12  O   UNL     1       4.673 -17.617  18.145  1.00  0.00    -0.504 OA
ATOM     13  H   UNL     1       4.204 -18.422  18.544  1.00  0.00     0.293 HD
ENDBRANCH   5  12
BRANCH   6  14
ATOM     14  O   UNL     1       5.392 -19.016  15.812  1.00  0.00    -0.502 OA
ATOM     15  H   UNL     1       6.099 -19.180  16.519  1.00  0.00     0.293 HD
ENDBRANCH   6  14
TORSDOF 4
ENDMDL
