MODEL 1
REMARK VINA RESULT:    -6.753      0.000      0.000
REMARK INTER + INTRA:          -8.459
REMARK INTER:                  -8.134
REMARK INTRA:                  -0.325
REMARK UNBOUND:                -0.325
REMARK SMILES O=c1c(O)c(-c2ccc(O)c(O)c2)oc2cc(O)cc(O)c12
REMARK SMILES IDX 5 1 3 2 2 3 1 4 22 5 20 6 19 7 17 8 16 9 15 10 14 11 6 12
REMARK SMILES IDX 7 13 8 14 9 15 13 16 11 17 10 18 12 20 4 22 21 24 18 26
REMARK H PARENT 10 19 12 21 4 23 21 25 18 27
REMARK Flexibility Score: inf
ROOT
ATOM      1  C   UNL     1      23.419  47.964  38.951  1.00  0.00     0.180 A 
ATOM      2  C   UNL     1      23.763  46.605  38.860  1.00  0.00     0.208 A 
ATOM      3  C   UNL     1      23.963  46.037  37.592  1.00  0.00     0.238 A 
ATOM      4  O   UNL     1      24.326  44.833  37.519  1.00  0.00    -0.285 OA
ATOM      5  C   UNL     1      23.801  46.830  36.430  1.00  0.00     0.111 A 
ATOM      6  C   UNL     1      23.939  46.348  35.094  1.00  0.00     0.134 A 
ATOM      7  C   UNL     1      23.884  47.251  34.025  1.00  0.00     0.093 A 
ATOM      8  C   UNL     1      23.630  48.608  34.242  1.00  0.00     0.123 A 
ATOM      9  C   UNL     1      23.435  49.077  35.538  1.00  0.00     0.094 A 
ATOM     10  C   UNL     1      23.520  48.207  36.627  1.00  0.00     0.146 A 
ATOM     11  O   UNL     1      23.338  48.698  37.847  1.00  0.00    -0.452 OA
ENDROOT
BRANCH   1  12
ATOM     12  C   UNL     1      23.168  48.628  40.251  1.00  0.00     0.025 A 
ATOM     13  C   UNL     1      21.914  48.553  40.881  1.00  0.00     0.016 A 
ATOM     14  C   UNL     1      21.694  49.207  42.096  1.00  0.00     0.051 A 
ATOM     15  C   UNL     1      22.716  49.958  42.690  1.00  0.00     0.157 A 
ATOM     16  C   UNL     1      24.184  49.399  40.840  1.00  0.00     0.062 A 
ATOM     17  C   UNL     1      23.966  50.056  42.058  1.00  0.00     0.158 A 
BRANCH  15  18
ATOM     18  O   UNL     1      22.492  50.608  43.904  1.00  0.00    -0.504 OA
ATOM     19  H   UNL     1      23.040  51.412  44.183  1.00  0.00     0.293 HD
ENDBRANCH  15  18
BRANCH  17  20
ATOM     20  O   UNL     1      25.002  50.801  42.620  1.00  0.00    -0.504 OA
ATOM     21  H   UNL     1      25.226  50.751  43.606  1.00  0.00     0.293 HD
ENDBRANCH  17  20
ENDBRANCH   1  12
BRANCH   2  22
ATOM     22  O   UNL     1      23.941  45.845  40.020  1.00  0.00    -0.502 OA
ATOM     23  H   UNL     1      23.278  45.139  40.315  1.00  0.00     0.293 HD
ENDBRANCH   2  22
BRANCH   6  24
ATOM     24  O   UNL     1      24.103  45.000  34.764  1.00  0.00    -0.507 OA
ATOM     25  H   UNL     1      23.610  44.525  34.023  1.00  0.00     0.293 HD
ENDBRANCH   6  24
BRANCH   8  26
ATOM     26  O   UNL     1      23.561  49.498  33.171  1.00  0.00    -0.508 OA
ATOM     27  H   UNL     1      23.915  50.445  33.245  1.00  0.00     0.293 HD
ENDBRANCH   8  26
TORSDOF 6
ENDMDL
MODEL 2
REMARK VINA RESULT:    -6.600     19.878     22.021
REMARK INTER + INTRA:          -8.275
REMARK INTER:                  -7.940
REMARK INTRA:                  -0.335
REMARK UNBOUND:                -0.325
REMARK SMILES O=c1c(O)c(-c2ccc(O)c(O)c2)oc2cc(O)cc(O)c12
REMARK SMILES IDX 5 1 3 2 2 3 1 4 22 5 20 6 19 7 17 8 16 9 15 10 14 11 6 12
REMARK SMILES IDX 7 13 8 14 9 15 13 16 11 17 10 18 12 20 4 22 21 24 18 26
REMARK H PARENT 10 19 12 21 4 23 21 25 18 27
REMARK Flexibility Score: inf
ROOT
ATOM      1  C   UNL     1      38.674  35.079  44.616  1.00  0.00     0.180 A 
ATOM      2  C   UNL     1      37.450  34.407  44.457  1.00  0.00     0.208 A 
ATOM      3  C   UNL     1      36.952  33.640  45.523  1.00  0.00     0.238 A 
ATOM      4  O   UNL     1      35.829  33.085  45.394  1.00  0.00    -0.285 OA
ATOM      5  C   UNL     1      37.690  33.543  46.728  1.00  0.00     0.111 A 
ATOM      6  C   UNL     1      37.299  32.762  47.857  1.00  0.00     0.134 A 
ATOM      7  C   UNL     1      38.039  32.843  49.042  1.00  0.00     0.093 A 
ATOM      8  C   UNL     1      39.194  33.627  49.117  1.00  0.00     0.123 A 
ATOM      9  C   UNL     1      39.616  34.345  48.002  1.00  0.00     0.094 A 
ATOM     10  C   UNL     1      38.878  34.313  46.816  1.00  0.00     0.146 A 
ATOM     11  O   UNL     1      39.310  35.022  45.780  1.00  0.00    -0.452 OA
ENDROOT
BRANCH   1  12
ATOM     12  C   UNL     1      39.276  35.886  43.530  1.00  0.00     0.025 A 
ATOM     13  C   UNL     1      40.140  35.310  42.583  1.00  0.00     0.016 A 
ATOM     14  C   UNL     1      40.715  36.097  41.581  1.00  0.00     0.051 A 
ATOM     15  C   UNL     1      40.448  37.470  41.520  1.00  0.00     0.157 A 
ATOM     16  C   UNL     1      39.027  37.268  43.476  1.00  0.00     0.062 A 
ATOM     17  C   UNL     1      39.601  38.058  42.473  1.00  0.00     0.158 A 
BRANCH  15  18
ATOM     18  O   UNL     1      41.022  38.251  40.517  1.00  0.00    -0.504 OA
ATOM     19  H   UNL     1      42.026  38.348  40.430  1.00  0.00     0.293 HD
ENDBRANCH  15  18
BRANCH  17  20
ATOM     20  O   UNL     1      39.320  39.424  42.443  1.00  0.00    -0.504 OA
ATOM     21  H   UNL     1      39.844  40.068  41.864  1.00  0.00     0.293 HD
ENDBRANCH  17  20
ENDBRANCH   1  12
BRANCH   2  22
ATOM     22  O   UNL     1      36.726  34.534  43.268  1.00  0.00    -0.502 OA
ATOM     23  H   UNL     1      36.104  33.811  42.930  1.00  0.00     0.293 HD
ENDBRANCH   2  22
BRANCH   6  24
ATOM     24  O   UNL     1      36.216  31.878  47.857  1.00  0.00    -0.507 OA
ATOM     25  H   UNL     1      35.987  31.249  47.102  1.00  0.00     0.293 HD
ENDBRANCH   6  24
BRANCH   8  26
ATOM     26  O   UNL     1      39.935  33.689  50.296  1.00  0.00    -0.508 OA
ATOM     27  H   UNL     1      40.827  33.216  50.387  1.00  0.00     0.293 HD
ENDBRANCH   8  26
TORSDOF 6
ENDMDL
MODEL 3
REMARK VINA RESULT:    -6.558      1.764      3.653
REMARK INTER + INTRA:          -8.225
REMARK INTER:                  -7.894
REMARK INTRA:                  -0.331
REMARK UNBOUND:                -0.325
REMARK SMILES O=c1c(O)c(-c2ccc(O)c(O)c2)oc2cc(O)cc(O)c12
REMARK SMILES IDX 5 1 3 2 2 3 1 4 22 5 20 6 19 7 17 8 16 9 15 10 14 11 6 12
REMARK SMILES IDX 7 13 8 14 9 15 13 16 11 17 10 18 12 20 4 22 21 24 18 26
REMARK H PARENT 10 19 12 21 4 23 21 25 18 27
REMARK Flexibility Score: inf
ROOT
ATOM      1  C   UNL     1      23.667  49.192  40.178  1.00  0.00     0.180 A 
ATOM      2  C   UNL     1      23.500  49.900  38.976  1.00  0.00     0.208 A 
ATOM      3  C   UNL     1      23.507  49.193  37.763  1.00  0.00     0.238 A 
ATOM      4  O   UNL     1      23.302  49.825  36.693  1.00  0.00    -0.285 OA
ATOM      5  C   UNL     1      23.695  47.789  37.765  1.00  0.00     0.111 A 
ATOM      6  C   UNL     1      23.759  46.977  36.593  1.00  0.00     0.134 A 
ATOM      7  C   UNL     1      23.818  45.585  36.721  1.00  0.00     0.093 A 
ATOM      8  C   UNL     1      23.881  44.979  37.979  1.00  0.00     0.123 A 
ATOM      9  C   UNL     1      23.879  45.766  39.127  1.00  0.00     0.094 A 
ATOM     10  C   UNL     1      23.785  47.156  39.033  1.00  0.00     0.146 A 
ATOM     11  O   UNL     1      23.775  47.869  40.152  1.00  0.00    -0.452 OA
ENDROOT
BRANCH   1  12
ATOM     12  C   UNL     1      23.696  49.871  41.494  1.00  0.00     0.025 A 
ATOM     13  C   UNL     1      24.899  50.340  42.049  1.00  0.00     0.016 A 
ATOM     14  C   UNL     1      24.905  50.956  43.303  1.00  0.00     0.051 A 
ATOM     15  C   UNL     1      23.714  51.098  44.027  1.00  0.00     0.157 A 
ATOM     16  C   UNL     1      22.507  49.997  42.232  1.00  0.00     0.062 A 
ATOM     17  C   UNL     1      22.510  50.614  43.490  1.00  0.00     0.158 A 
BRANCH  15  18
ATOM     18  O   UNL     1      23.724  51.715  45.278  1.00  0.00    -0.504 OA
ATOM     19  H   UNL     1      23.771  52.722  45.373  1.00  0.00     0.293 HD
ENDBRANCH  15  18
BRANCH  17  20
ATOM     20  O   UNL     1      21.309  50.734  44.188  1.00  0.00    -0.504 OA
ATOM     21  H   UNL     1      20.698  51.532  44.072  1.00  0.00     0.293 HD
ENDBRANCH  17  20
ENDBRANCH   1  12
BRANCH   2  22
ATOM     22  O   UNL     1      23.293  51.283  38.996  1.00  0.00    -0.502 OA
ATOM     23  H   UNL     1      23.163  51.826  38.151  1.00  0.00     0.293 HD
ENDBRANCH   2  22
BRANCH   6  24
ATOM     24  O   UNL     1      23.795  47.488  35.292  1.00  0.00    -0.507 OA
ATOM     25  H   UNL     1      24.402  47.152  34.560  1.00  0.00     0.293 HD
ENDBRANCH   6  24
BRANCH   8  26
ATOM     26  O   UNL     1      23.956  43.592  38.096  1.00  0.00    -0.508 OA
ATOM     27  H   UNL     1      23.258  43.065  38.609  1.00  0.00     0.293 HD
ENDBRANCH   8  26
TORSDOF 6
ENDMDL
MODEL 4
REMARK VINA RESULT:    -6.219      1.546      3.044
REMARK INTER + INTRA:          -7.817
REMARK INTER:                  -7.611
REMARK INTRA:                  -0.206
REMARK UNBOUND:                -0.325
REMARK SMILES O=c1c(O)c(-c2ccc(O)c(O)c2)oc2cc(O)cc(O)c12
REMARK SMILES IDX 5 1 3 2 2 3 1 4 22 5 20 6 19 7 17 8 16 9 15 10 14 11 6 12
REMARK SMILES IDX 7 13 8 14 9 15 13 16 11 17 10 18 12 20 4 22 21 24 18 26
REMARK H PARENT 10 19 12 21 4 23 21 25 18 27
REMARK Flexibility Score: inf
ROOT
ATOM      1  C   UNL     1      22.374  48.602  39.490  1.00  0.00     0.180 A 
ATOM      2  C   UNL     1      21.702  49.164  38.391  1.00  0.00     0.208 A 
ATOM      3  C   UNL     1      21.844  48.567  37.129  1.00  0.00     0.238 A 
ATOM      4  O   UNL     1      21.197  49.042  36.158  1.00  0.00    -0.285 OA
ATOM      5  C   UNL     1      22.668  47.425  36.977  1.00  0.00     0.111 A 
ATOM      6  C   UNL     1      22.916  46.762  35.738  1.00  0.00     0.134 A 
ATOM      7  C   UNL     1      23.642  45.566  35.728  1.00  0.00     0.093 A 
ATOM      8  C   UNL     1      24.185  45.043  36.905  1.00  0.00     0.123 A 
ATOM      9  C   UNL     1      23.999  45.714  38.110  1.00  0.00     0.094 A 
ATOM     10  C   UNL     1      23.248  46.891  38.158  1.00  0.00     0.146 A 
ATOM     11  O   UNL     1      23.085  47.493  39.329  1.00  0.00    -0.452 OA
ENDROOT
BRANCH   1  12
ATOM     12  C   UNL     1      22.292  49.190  40.847  1.00  0.00     0.025 A 
ATOM     13  C   UNL     1      21.099  49.154  41.589  1.00  0.00     0.016 A 
ATOM     14  C   UNL     1      21.039  49.737  42.858  1.00  0.00     0.051 A 
ATOM     15  C   UNL     1      22.163  50.376  43.397  1.00  0.00     0.157 A 
ATOM     16  C   UNL     1      23.410  49.850  41.383  1.00  0.00     0.062 A 
ATOM     17  C   UNL     1      23.353  50.435  42.654  1.00  0.00     0.158 A 
BRANCH  15  18
ATOM     18  O   UNL     1      22.100  50.955  44.664  1.00  0.00    -0.504 OA
ATOM     19  H   UNL     1      22.376  51.916  44.822  1.00  0.00     0.293 HD
ENDBRANCH  15  18
BRANCH  17  20
ATOM     20  O   UNL     1      24.488  51.069  43.159  1.00  0.00    -0.504 OA
ATOM     21  H   UNL     1      25.128  50.604  43.790  1.00  0.00     0.293 HD
ENDBRANCH  17  20
ENDBRANCH   1  12
BRANCH   2  22
ATOM     22  O   UNL     1      20.876  50.279  38.566  1.00  0.00    -0.502 OA
ATOM     23  H   UNL     1      21.192  51.224  38.387  1.00  0.00     0.293 HD
ENDBRANCH   2  22
BRANCH   6  24
ATOM     24  O   UNL     1      22.497  47.249  34.496  1.00  0.00    -0.507 OA
ATOM     25  H   UNL     1      23.031  47.184  33.643  1.00  0.00     0.293 HD
ENDBRANCH   6  24
BRANCH   8  26
ATOM     26  O   UNL     1      24.921  43.860  36.883  1.00  0.00    -0.508 OA
ATOM     27  H   UNL     1      24.975  43.283  36.051  1.00  0.00     0.293 HD
ENDBRANCH   8  26
TORSDOF 6
ENDMDL
MODEL 5
REMARK VINA RESULT:    -6.115     19.560     21.635
REMARK INTER + INTRA:          -7.692
REMARK INTER:                  -7.370
REMARK INTRA:                  -0.321
REMARK UNBOUND:                -0.325
REMARK SMILES O=c1c(O)c(-c2ccc(O)c(O)c2)oc2cc(O)cc(O)c12
REMARK SMILES IDX 5 1 3 2 2 3 1 4 22 5 20 6 19 7 17 8 16 9 15 10 14 11 6 12
REMARK SMILES IDX 7 13 8 14 9 15 13 16 11 17 10 18 12 20 4 22 21 24 18 26
REMARK H PARENT 10 19 12 21 4 23 21 25 18 27
REMARK Flexibility Score: inf
ROOT
ATOM      1  C   UNL     1      39.119  35.494  44.322  1.00  0.00     0.180 A 
ATOM      2  C   UNL     1      39.888  35.432  45.497  1.00  0.00     0.208 A 
ATOM      3  C   UNL     1      39.412  34.680  46.583  1.00  0.00     0.238 A 
ATOM      4  O   UNL     1      40.131  34.583  47.612  1.00  0.00    -0.285 OA
ATOM      5  C   UNL     1      38.167  34.012  46.487  1.00  0.00     0.111 A 
ATOM      6  C   UNL     1      37.570  33.254  47.539  1.00  0.00     0.134 A 
ATOM      7  C   UNL     1      36.399  32.529  47.289  1.00  0.00     0.093 A 
ATOM      8  C   UNL     1      35.768  32.587  46.043  1.00  0.00     0.123 A 
ATOM      9  C   UNL     1      36.311  33.371  45.029  1.00  0.00     0.094 A 
ATOM     10  C   UNL     1      37.499  34.077  45.236  1.00  0.00     0.146 A 
ATOM     11  O   UNL     1      37.988  34.803  44.239  1.00  0.00    -0.452 OA
ENDROOT
BRANCH   1  12
ATOM     12  C   UNL     1      39.542  36.286  43.145  1.00  0.00     0.025 A 
ATOM     13  C   UNL     1      40.320  35.717  42.122  1.00  0.00     0.016 A 
ATOM     14  C   UNL     1      40.728  36.492  41.032  1.00  0.00     0.051 A 
ATOM     15  C   UNL     1      40.380  37.846  40.956  1.00  0.00     0.157 A 
ATOM     16  C   UNL     1      39.213  37.650  43.075  1.00  0.00     0.062 A 
ATOM     17  C   UNL     1      39.620  38.428  41.984  1.00  0.00     0.158 A 
BRANCH  15  18
ATOM     18  O   UNL     1      40.788  38.614  39.866  1.00  0.00    -0.504 OA
ATOM     19  H   UNL     1      41.177  38.190  39.034  1.00  0.00     0.293 HD
ENDBRANCH  15  18
BRANCH  17  20
ATOM     20  O   UNL     1      39.262  39.775  41.942  1.00  0.00    -0.504 OA
ATOM     21  H   UNL     1      39.084  40.310  42.783  1.00  0.00     0.293 HD
ENDBRANCH  17  20
ENDBRANCH   1  12
BRANCH   2  22
ATOM     22  O   UNL     1      41.125  36.080  45.563  1.00  0.00    -0.502 OA
ATOM     23  H   UNL     1      41.337  36.776  46.267  1.00  0.00     0.293 HD
ENDBRANCH   2  22
BRANCH   6  24
ATOM     24  O   UNL     1      38.069  33.204  48.844  1.00  0.00    -0.507 OA
ATOM     25  H   UNL     1      38.935  33.623  49.145  1.00  0.00     0.293 HD
ENDBRANCH   6  24
BRANCH   8  26
ATOM     26  O   UNL     1      34.594  31.875  45.807  1.00  0.00    -0.508 OA
ATOM     27  H   UNL     1      34.589  31.030  45.246  1.00  0.00     0.293 HD
ENDBRANCH   8  26
TORSDOF 6
ENDMDL
MODEL 6
REMARK VINA RESULT:    -6.099     20.261     21.712
REMARK INTER + INTRA:          -7.672
REMARK INTER:                  -7.337
REMARK INTRA:                  -0.335
REMARK UNBOUND:                -0.325
REMARK SMILES O=c1c(O)c(-c2ccc(O)c(O)c2)oc2cc(O)cc(O)c12
REMARK SMILES IDX 5 1 3 2 2 3 1 4 22 5 20 6 19 7 17 8 16 9 15 10 14 11 6 12
REMARK SMILES IDX 7 13 8 14 9 15 13 16 11 17 10 18 12 20 4 22 21 24 18 26
REMARK H PARENT 10 19 12 21 4 23 21 25 18 27
REMARK Flexibility Score: inf
ROOT
ATOM      1  C   UNL     1      39.403  34.645  44.886  1.00  0.00     0.180 A 
ATOM      2  C   UNL     1      40.093  33.897  43.917  1.00  0.00     0.208 A 
ATOM      3  C   UNL     1      40.459  34.518  42.712  1.00  0.00     0.238 A 
ATOM      4  O   UNL     1      41.125  33.859  41.870  1.00  0.00    -0.285 OA
ATOM      5  C   UNL     1      40.117  35.873  42.485  1.00  0.00     0.111 A 
ATOM      6  C   UNL     1      40.403  36.591  41.284  1.00  0.00     0.134 A 
ATOM      7  C   UNL     1      40.135  37.963  41.220  1.00  0.00     0.093 A 
ATOM      8  C   UNL     1      39.531  38.630  42.290  1.00  0.00     0.123 A 
ATOM      9  C   UNL     1      39.194  37.925  43.443  1.00  0.00     0.094 A 
ATOM     10  C   UNL     1      39.483  36.563  43.551  1.00  0.00     0.146 A 
ATOM     11  O   UNL     1      39.155  35.931  44.671  1.00  0.00    -0.452 OA
ENDROOT
BRANCH   1  12
ATOM     12  C   UNL     1      38.963  34.053  46.171  1.00  0.00     0.025 A 
ATOM     13  C   UNL     1      37.708  33.433  46.298  1.00  0.00     0.016 A 
ATOM     14  C   UNL     1      37.304  32.902  47.526  1.00  0.00     0.051 A 
ATOM     15  C   UNL     1      38.138  32.998  48.646  1.00  0.00     0.157 A 
ATOM     16  C   UNL     1      39.788  34.164  47.302  1.00  0.00     0.062 A 
ATOM     17  C   UNL     1      39.385  33.634  48.534  1.00  0.00     0.158 A 
BRANCH  15  18
ATOM     18  O   UNL     1      37.732  32.466  49.870  1.00  0.00    -0.504 OA
ATOM     19  H   UNL     1      37.073  31.700  49.923  1.00  0.00     0.293 HD
ENDBRANCH  15  18
BRANCH  17  20
ATOM     20  O   UNL     1      40.237  33.751  49.632  1.00  0.00    -0.504 OA
ATOM     21  H   UNL     1      40.137  34.494  50.313  1.00  0.00     0.293 HD
ENDBRANCH  17  20
ENDBRANCH   1  12
BRANCH   2  22
ATOM     22  O   UNL     1      40.441  32.567  44.170  1.00  0.00    -0.502 OA
ATOM     23  H   UNL     1      40.033  32.033  44.928  1.00  0.00     0.293 HD
ENDBRANCH   2  22
BRANCH   6  24
ATOM     24  O   UNL     1      40.920  36.002  40.127  1.00  0.00    -0.507 OA
ATOM     25  H   UNL     1      41.888  35.752  39.993  1.00  0.00     0.293 HD
ENDBRANCH   6  24
BRANCH   8  26
ATOM     26  O   UNL     1      39.252  39.993  42.212  1.00  0.00    -0.508 OA
ATOM     27  H   UNL     1      39.954  40.662  41.912  1.00  0.00     0.293 HD
ENDBRANCH   8  26
TORSDOF 6
ENDMDL
MODEL 7
REMARK VINA RESULT:    -5.733      1.695      2.509
REMARK INTER + INTRA:          -7.231
REMARK INTER:                  -7.225
REMARK INTRA:                  -0.006
REMARK UNBOUND:                -0.325
REMARK SMILES O=c1c(O)c(-c2ccc(O)c(O)c2)oc2cc(O)cc(O)c12
REMARK SMILES IDX 5 1 3 2 2 3 1 4 22 5 20 6 19 7 17 8 16 9 15 10 14 11 6 12
REMARK SMILES IDX 7 13 8 14 9 15 13 16 11 17 10 18 12 20 4 22 21 24 18 26
REMARK H PARENT 10 19 12 21 4 23 21 25 18 27
REMARK Flexibility Score: inf
ROOT
ATOM      1  C   UNL     1      23.273  47.895  36.706  1.00  0.00     0.180 A 
ATOM      2  C   UNL     1      23.003  46.628  36.160  1.00  0.00     0.208 A 
ATOM      3  C   UNL     1      23.345  46.377  34.822  1.00  0.00     0.238 A 
ATOM      4  O   UNL     1      23.151  45.224  34.354  1.00  0.00    -0.285 OA
ATOM      5  C   UNL     1      23.939  47.400  34.042  1.00  0.00     0.111 A 
ATOM      6  C   UNL     1      24.290  47.268  32.664  1.00  0.00     0.134 A 
ATOM      7  C   UNL     1      24.991  48.300  32.029  1.00  0.00     0.093 A 
ATOM      8  C   UNL     1      25.294  49.486  32.704  1.00  0.00     0.123 A 
ATOM      9  C   UNL     1      24.903  49.647  34.030  1.00  0.00     0.094 A 
ATOM     10  C   UNL     1      24.235  48.621  34.702  1.00  0.00     0.146 A 
ATOM     11  O   UNL     1      23.890  48.811  35.970  1.00  0.00    -0.452 OA
ENDROOT
BRANCH   1  12
ATOM     12  C   UNL     1      22.919  48.242  38.102  1.00  0.00     0.025 A 
ATOM     13  C   UNL     1      21.638  47.979  38.618  1.00  0.00     0.016 A 
ATOM     14  C   UNL     1      21.319  48.338  39.931  1.00  0.00     0.051 A 
ATOM     15  C   UNL     1      22.267  48.977  40.739  1.00  0.00     0.157 A 
ATOM     16  C   UNL     1      23.859  48.901  38.910  1.00  0.00     0.062 A 
ATOM     17  C   UNL     1      23.543  49.262  40.226  1.00  0.00     0.158 A 
BRANCH  15  18
ATOM     18  O   UNL     1      21.945  49.332  42.049  1.00  0.00    -0.504 OA
ATOM     19  H   UNL     1      22.510  49.987  42.575  1.00  0.00     0.293 HD
ENDBRANCH  15  18
BRANCH  17  20
ATOM     20  O   UNL     1      24.507  49.902  41.003  1.00  0.00    -0.504 OA
ATOM     21  H   UNL     1      24.720  50.886  40.892  1.00  0.00     0.293 HD
ENDBRANCH  17  20
ENDBRANCH   1  12
BRANCH   2  22
ATOM     22  O   UNL     1      22.437  45.626  36.953  1.00  0.00    -0.502 OA
ATOM     23  H   UNL     1      21.450  45.602  37.177  1.00  0.00     0.293 HD
ENDBRANCH   2  22
BRANCH   6  24
ATOM     24  O   UNL     1      23.953  46.165  31.875  1.00  0.00    -0.507 OA
ATOM     25  H   UNL     1      23.890  45.216  32.211  1.00  0.00     0.293 HD
ENDBRANCH   6  24
BRANCH   8  26
ATOM     26  O   UNL     1      25.978  50.516  32.059  1.00  0.00    -0.508 OA
ATOM     27  H   UNL     1      25.681  50.865  31.155  1.00  0.00     0.293 HD
ENDBRANCH   8  26
TORSDOF 6
ENDMDL
MODEL 8
REMARK VINA RESULT:    -5.613      2.008      6.668
REMARK INTER + INTRA:          -7.086
REMARK INTER:                  -6.811
REMARK INTRA:                  -0.275
REMARK UNBOUND:                -0.325
REMARK SMILES O=c1c(O)c(-c2ccc(O)c(O)c2)oc2cc(O)cc(O)c12
REMARK SMILES IDX 5 1 3 2 2 3 1 4 22 5 20 6 19 7 17 8 16 9 15 10 14 11 6 12
REMARK SMILES IDX 7 13 8 14 9 15 13 16 11 17 10 18 12 20 4 22 21 24 18 26
REMARK H PARENT 10 19 12 21 4 23 21 25 18 27
REMARK Flexibility Score: inf
ROOT
ATOM      1  C   UNL     1      23.434  47.289  37.044  1.00  0.00     0.180 A 
ATOM      2  C   UNL     1      23.674  46.524  38.197  1.00  0.00     0.208 A 
ATOM      3  C   UNL     1      23.343  47.061  39.452  1.00  0.00     0.238 A 
ATOM      4  O   UNL     1      23.508  46.350  40.478  1.00  0.00    -0.285 OA
ATOM      5  C   UNL     1      22.791  48.363  39.538  1.00  0.00     0.111 A 
ATOM      6  C   UNL     1      22.455  49.022  40.758  1.00  0.00     0.134 A 
ATOM      7  C   UNL     1      21.796  50.256  40.718  1.00  0.00     0.093 A 
ATOM      8  C   UNL     1      21.518  50.885  39.500  1.00  0.00     0.123 A 
ATOM      9  C   UNL     1      21.895  50.276  38.306  1.00  0.00     0.094 A 
ATOM     10  C   UNL     1      22.522  49.028  38.313  1.00  0.00     0.146 A 
ATOM     11  O   UNL     1      22.856  48.479  37.152  1.00  0.00    -0.452 OA
ENDROOT
BRANCH   1  12
ATOM     12  C   UNL     1      23.780  46.800  35.689  1.00  0.00     0.025 A 
ATOM     13  C   UNL     1      22.985  45.845  35.032  1.00  0.00     0.016 A 
ATOM     14  C   UNL     1      23.344  45.380  33.763  1.00  0.00     0.051 A 
ATOM     15  C   UNL     1      24.507  45.850  33.141  1.00  0.00     0.157 A 
ATOM     16  C   UNL     1      24.956  47.252  35.070  1.00  0.00     0.062 A 
ATOM     17  C   UNL     1      25.319  46.789  33.799  1.00  0.00     0.158 A 
BRANCH  15  18
ATOM     18  O   UNL     1      24.861  45.384  31.875  1.00  0.00    -0.504 OA
ATOM     19  H   UNL     1      24.163  45.091  31.203  1.00  0.00     0.293 HD
ENDBRANCH  15  18
BRANCH  17  20
ATOM     20  O   UNL     1      26.487  47.271  33.210  1.00  0.00    -0.504 OA
ATOM     21  H   UNL     1      26.485  48.074  32.592  1.00  0.00     0.293 HD
ENDBRANCH  17  20
ENDBRANCH   1  12
BRANCH   2  22
ATOM     22  O   UNL     1      24.198  45.232  38.089  1.00  0.00    -0.502 OA
ATOM     23  H   UNL     1      24.845  44.849  38.768  1.00  0.00     0.293 HD
ENDBRANCH   2  22
BRANCH   6  24
ATOM     24  O   UNL     1      22.770  48.524  42.026  1.00  0.00    -0.507 OA
ATOM     25  H   UNL     1      22.102  48.136  42.674  1.00  0.00     0.293 HD
ENDBRANCH   6  24
BRANCH   8  26
ATOM     26  O   UNL     1      20.875  52.121  39.469  1.00  0.00    -0.508 OA
ATOM     27  H   UNL     1      20.597  52.596  40.321  1.00  0.00     0.293 HD
ENDBRANCH   8  26
TORSDOF 6
ENDMDL
MODEL 9
REMARK VINA RESULT:    -5.379      1.877      3.414
REMARK INTER + INTRA:          -6.805
REMARK INTER:                  -6.606
REMARK INTRA:                  -0.199
REMARK UNBOUND:                -0.325
REMARK SMILES O=c1c(O)c(-c2ccc(O)c(O)c2)oc2cc(O)cc(O)c12
REMARK SMILES IDX 5 1 3 2 2 3 1 4 22 5 20 6 19 7 17 8 16 9 15 10 14 11 6 12
REMARK SMILES IDX 7 13 8 14 9 15 13 16 11 17 10 18 12 20 4 22 21 24 18 26
REMARK H PARENT 10 19 12 21 4 23 21 25 18 27
REMARK Flexibility Score: inf
ROOT
ATOM      1  C   UNL     1      23.350  48.758  36.909  1.00  0.00     0.180 A 
ATOM      2  C   UNL     1      23.696  49.923  36.204  1.00  0.00     0.208 A 
ATOM      3  C   UNL     1      24.077  49.815  34.857  1.00  0.00     0.238 A 
ATOM      4  O   UNL     1      24.333  50.867  34.214  1.00  0.00    -0.285 OA
ATOM      5  C   UNL     1      24.122  48.542  34.237  1.00  0.00     0.111 A 
ATOM      6  C   UNL     1      24.532  48.310  32.889  1.00  0.00     0.134 A 
ATOM      7  C   UNL     1      24.413  47.028  32.342  1.00  0.00     0.093 A 
ATOM      8  C   UNL     1      23.961  45.954  33.115  1.00  0.00     0.123 A 
ATOM      9  C   UNL     1      23.615  46.159  34.448  1.00  0.00     0.094 A 
ATOM     10  C   UNL     1      23.688  47.435  35.012  1.00  0.00     0.146 A 
ATOM     11  O   UNL     1      23.338  47.588  36.283  1.00  0.00    -0.452 OA
ENDROOT
BRANCH   1  12
ATOM     12  C   UNL     1      22.961  48.790  38.339  1.00  0.00     0.025 A 
ATOM     13  C   UNL     1      21.638  48.544  38.742  1.00  0.00     0.016 A 
ATOM     14  C   UNL     1      21.289  48.603  40.095  1.00  0.00     0.051 A 
ATOM     15  C   UNL     1      22.253  48.924  41.059  1.00  0.00     0.157 A 
ATOM     16  C   UNL     1      23.919  49.132  39.307  1.00  0.00     0.062 A 
ATOM     17  C   UNL     1      23.573  49.192  40.663  1.00  0.00     0.158 A 
BRANCH  15  18
ATOM     18  O   UNL     1      21.902  48.981  42.408  1.00  0.00    -0.504 OA
ATOM     19  H   UNL     1      21.207  49.634  42.748  1.00  0.00     0.293 HD
ENDBRANCH  15  18
BRANCH  17  20
ATOM     20  O   UNL     1      24.554  49.521  41.598  1.00  0.00    -0.504 OA
ATOM     21  H   UNL     1      25.389  48.962  41.720  1.00  0.00     0.293 HD
ENDBRANCH  17  20
ENDBRANCH   1  12
BRANCH   2  22
ATOM     22  O   UNL     1      23.623  51.172  36.827  1.00  0.00    -0.502 OA
ATOM     23  H   UNL     1      22.823  51.460  37.377  1.00  0.00     0.293 HD
ENDBRANCH   2  22
BRANCH   6  24
ATOM     24  O   UNL     1      25.084  49.293  32.062  1.00  0.00    -0.507 OA
ATOM     25  H   UNL     1      25.643  49.108  31.243  1.00  0.00     0.293 HD
ENDBRANCH   6  24
BRANCH   8  26
ATOM     26  O   UNL     1      23.860  44.677  32.567  1.00  0.00    -0.508 OA
ATOM     27  H   UNL     1      24.253  43.867  33.035  1.00  0.00     0.293 HD
ENDBRANCH   8  26
TORSDOF 6
ENDMDL
