MODEL 1
REMARK VINA RESULT:    -4.395      0.000      0.000
REMARK INTER + INTRA:         -13.733
REMARK INTER:                 -10.049
REMARK INTRA:                  -3.685
REMARK UNBOUND:                -3.685
REMARK SMILES CCCCCCCCCCCCCCCCCCCCCCCC(=O)[O-]
REMARK SMILES IDX 13 1 14 2 15 3 16 4 17 5 18 6 19 7 20 8 21 9 22 10 23 11
REMARK SMILES IDX 24 12 25 13 26 14 12 15 11 16 10 17 9 18 8 19 7 20 6 21 5 22
REMARK SMILES IDX 4 23 3 24 2 25 1 26
REMARK H PARENT
REMARK Flexibility Score: inf
ROOT
ATOM      1  C   UNL     1       5.232  -5.452 -21.383  1.00  0.00     0.000 C 
ENDROOT
BRANCH   1   2
ATOM      2  C   UNL     1       5.111  -6.984 -21.509  1.00  0.00     0.000 C 
BRANCH   2   3
ATOM      3  C   UNL     1       5.940  -7.609 -22.648  1.00  0.00     0.000 C 
BRANCH   3   4
ATOM      4  C   UNL     1       6.024  -9.148 -22.626  1.00  0.00     0.000 C 
BRANCH   4   5
ATOM      5  C   UNL     1       7.100  -9.753 -23.544  1.00  0.00     0.000 C 
BRANCH   5   6
ATOM      6  C   UNL     1       6.689 -11.112 -24.130  1.00  0.00     0.000 C 
BRANCH   6   7
ATOM      7  C   UNL     1       5.356 -11.590 -23.534  1.00  0.00     0.000 C 
BRANCH   7   8
ATOM      8  C   UNL     1       5.532 -12.715 -22.499  1.00  0.00     0.000 C 
BRANCH   8   9
ATOM      9  C   UNL     1       4.290 -13.009 -21.634  1.00  0.00     0.000 C 
BRANCH   9  10
ATOM     10  C   UNL     1       3.151 -13.759 -22.355  1.00  0.00     0.006 C 
BRANCH  10  11
ATOM     11  C   UNL     1       2.330 -14.683 -21.445  1.00  0.00     0.053 C 
BRANCH  11  12
ATOM     12  C   UNL     1       2.771 -16.110 -21.554  1.00  0.00     0.041 C 
ATOM     13  O   UNL     1       3.591 -16.454 -22.446  1.00  0.00    -0.550 OA
ATOM     14  O   UNL     1       2.252 -17.066 -20.690  1.00  0.00    -0.550 OA
ENDBRANCH  11  12
ENDBRANCH  10  11
ENDBRANCH   9  10
ENDBRANCH   8   9
ENDBRANCH   7   8
ENDBRANCH   6   7
ENDBRANCH   5   6
ENDBRANCH   4   5
ENDBRANCH   3   4
ENDBRANCH   2   3
ENDBRANCH   1   2
BRANCH   1  15
ATOM     15  C   UNL     1       4.727  -4.867 -20.049  1.00  0.00     0.000 C 
BRANCH  15  16
ATOM     16  C   UNL     1       4.397  -5.909 -18.960  1.00  0.00     0.000 C 
BRANCH  16  17
ATOM     17  C   UNL     1       2.904  -6.047 -18.614  1.00  0.00     0.000 C 
BRANCH  17  18
ATOM     18  C   UNL     1       1.982  -5.534 -19.733  1.00  0.00    -0.000 C 
BRANCH  18  19
ATOM     19  C   UNL     1       1.040  -6.622 -20.279  1.00  0.00    -0.000 C 
BRANCH  19  20
ATOM     20  C   UNL     1       0.482  -6.358 -21.693  1.00  0.00    -0.000 C 
BRANCH  20  21
ATOM     21  C   UNL     1       1.537  -5.990 -22.754  1.00  0.00    -0.000 C 
BRANCH  21  22
ATOM     22  C   UNL     1       2.284  -7.186 -23.378  1.00  0.00    -0.000 C 
BRANCH  22  23
ATOM     23  C   UNL     1       1.463  -8.484 -23.485  1.00  0.00    -0.000 C 
BRANCH  23  24
ATOM     24  C   UNL     1       2.212  -9.711 -22.939  1.00  0.00    -0.000 C 
BRANCH  24  25
ATOM     25  C   UNL     1       1.874 -10.003 -21.469  1.00  0.00    -0.003 C 
ATOM     26  C   UNL     1       3.062  -9.784 -20.531  1.00  0.00     0.004 C 
ENDBRANCH  24  25
ENDBRANCH  23  24
ENDBRANCH  22  23
ENDBRANCH  21  22
ENDBRANCH  20  21
ENDBRANCH  19  20
ENDBRANCH  18  19
ENDBRANCH  17  18
ENDBRANCH  16  17
ENDBRANCH  15  16
ENDBRANCH   1  15
TORSDOF 22
ENDMDL
MODEL 2
REMARK VINA RESULT:    -4.371      1.300      3.615
REMARK INTER + INTRA:         -13.678
REMARK INTER:                  -9.941
REMARK INTRA:                  -3.737
REMARK UNBOUND:                -3.685
REMARK SMILES CCCCCCCCCCCCCCCCCCCCCCCC(=O)[O-]
REMARK SMILES IDX 13 1 14 2 15 3 16 4 17 5 18 6 19 7 20 8 21 9 22 10 23 11
REMARK SMILES IDX 24 12 25 13 26 14 12 15 11 16 10 17 9 18 8 19 7 20 6 21 5 22
REMARK SMILES IDX 4 23 3 24 2 25 1 26
REMARK H PARENT
REMARK Flexibility Score: inf
ROOT
ATOM      1  C   UNL     1       6.987  -9.684 -23.665  1.00  0.00     0.000 C 
ENDROOT
BRANCH   1   2
ATOM      2  C   UNL     1       6.559 -11.115 -24.047  1.00  0.00     0.000 C 
BRANCH   2   3
ATOM      3  C   UNL     1       5.395 -11.688 -23.214  1.00  0.00     0.000 C 
BRANCH   3   4
ATOM      4  C   UNL     1       4.003 -11.562 -23.865  1.00  0.00     0.000 C 
BRANCH   4   5
ATOM      5  C   UNL     1       2.945 -10.852 -23.003  1.00  0.00     0.000 C 
BRANCH   5   6
ATOM      6  C   UNL     1       3.266 -10.901 -21.502  1.00  0.00     0.000 C 
BRANCH   6   7
ATOM      7  C   UNL     1       1.984 -11.038 -20.668  1.00  0.00     0.000 C 
BRANCH   7   8
ATOM      8  C   UNL     1       0.972 -12.022 -21.282  1.00  0.00     0.000 C 
BRANCH   8   9
ATOM      9  C   UNL     1       0.925 -13.412 -20.615  1.00  0.00     0.000 C 
BRANCH   9  10
ATOM     10  C   UNL     1       1.456 -14.573 -21.481  1.00  0.00     0.006 C 
BRANCH  10  11
ATOM     11  C   UNL     1       2.972 -14.535 -21.725  1.00  0.00     0.053 C 
BRANCH  11  12
ATOM     12  C   UNL     1       3.541 -15.907 -21.912  1.00  0.00     0.041 C 
ATOM     13  O   UNL     1       4.740 -16.054 -22.270  1.00  0.00    -0.550 OA
ATOM     14  O   UNL     1       2.738 -17.025 -21.719  1.00  0.00    -0.550 OA
ENDBRANCH  11  12
ENDBRANCH  10  11
ENDBRANCH   9  10
ENDBRANCH   8   9
ENDBRANCH   7   8
ENDBRANCH   6   7
ENDBRANCH   5   6
ENDBRANCH   4   5
ENDBRANCH   3   4
ENDBRANCH   2   3
ENDBRANCH   1   2
BRANCH   1  15
ATOM     15  C   UNL     1       6.275  -9.099 -22.429  1.00  0.00     0.000 C 
BRANCH  15  16
ATOM     16  C   UNL     1       5.908  -7.604 -22.531  1.00  0.00     0.000 C 
BRANCH  16  17
ATOM     17  C   UNL     1       4.563  -7.214 -21.893  1.00  0.00     0.000 C 
BRANCH  17  18
ATOM     18  C   UNL     1       4.476  -7.594 -20.405  1.00  0.00    -0.000 C 
BRANCH  18  19
ATOM     19  C   UNL     1       4.310  -6.372 -19.483  1.00  0.00    -0.000 C 
BRANCH  19  20
ATOM     20  C   UNL     1       2.877  -6.127 -18.967  1.00  0.00    -0.000 C 
BRANCH  20  21
ATOM     21  C   UNL     1       2.047  -5.125 -19.793  1.00  0.00    -0.000 C 
BRANCH  21  22
ATOM     22  C   UNL     1       0.894  -5.745 -20.607  1.00  0.00    -0.000 C 
BRANCH  22  23
ATOM     23  C   UNL     1       0.883  -7.283 -20.658  1.00  0.00    -0.000 C 
BRANCH  23  24
ATOM     24  C   UNL     1       0.897  -7.833 -22.094  1.00  0.00    -0.000 C 
BRANCH  24  25
ATOM     25  C   UNL     1      -0.368  -8.640 -22.428  1.00  0.00    -0.003 C 
ATOM     26  C   UNL     1      -1.185  -9.004 -21.188  1.00  0.00     0.004 C 
ENDBRANCH  24  25
ENDBRANCH  23  24
ENDBRANCH  22  23
ENDBRANCH  21  22
ENDBRANCH  20  21
ENDBRANCH  19  20
ENDBRANCH  18  19
ENDBRANCH  17  18
ENDBRANCH  16  17
ENDBRANCH  15  16
ENDBRANCH   1  15
TORSDOF 22
ENDMDL
MODEL 3
REMARK VINA RESULT:    -4.360      1.699      4.504
REMARK INTER + INTRA:         -13.652
REMARK INTER:                  -9.750
REMARK INTRA:                  -3.902
REMARK UNBOUND:                -3.685
REMARK SMILES CCCCCCCCCCCCCCCCCCCCCCCC(=O)[O-]
REMARK SMILES IDX 13 1 14 2 15 3 16 4 17 5 18 6 19 7 20 8 21 9 22 10 23 11
REMARK SMILES IDX 24 12 25 13 26 14 12 15 11 16 10 17 9 18 8 19 7 20 6 21 5 22
REMARK SMILES IDX 4 23 3 24 2 25 1 26
REMARK H PARENT
REMARK Flexibility Score: inf
ROOT
ATOM      1  C   UNL     1       5.005  -8.911 -22.069  1.00  0.00     0.000 C 
ENDROOT
BRANCH   1   2
ATOM      2  C   UNL     1       4.356  -8.766 -20.678  1.00  0.00     0.000 C 
BRANCH   2   3
ATOM      3  C   UNL     1       2.978  -9.441 -20.531  1.00  0.00     0.000 C 
BRANCH   3   4
ATOM      4  C   UNL     1       1.771  -8.532 -20.834  1.00  0.00     0.000 C 
BRANCH   4   5
ATOM      5  C   UNL     1       0.900  -8.983 -22.020  1.00  0.00     0.000 C 
BRANCH   5   6
ATOM      6  C   UNL     1       1.353  -8.377 -23.357  1.00  0.00     0.000 C 
BRANCH   6   7
ATOM      7  C   UNL     1       1.258  -9.409 -24.491  1.00  0.00     0.000 C 
BRANCH   7   8
ATOM      8  C   UNL     1       1.518 -10.849 -24.013  1.00  0.00     0.000 C 
BRANCH   8   9
ATOM      9  C   UNL     1       3.005 -11.238 -23.893  1.00  0.00     0.000 C 
BRANCH   9  10
ATOM     10  C   UNL     1       3.271 -12.622 -23.266  1.00  0.00     0.006 C 
BRANCH  10  11
ATOM     11  C   UNL     1       4.337 -12.620 -22.160  1.00  0.00     0.053 C 
BRANCH  11  12
ATOM     12  C   UNL     1       4.722 -14.009 -21.753  1.00  0.00     0.041 C 
ATOM     13  O   UNL     1       3.862 -14.928 -21.739  1.00  0.00    -0.550 OA
ATOM     14  O   UNL     1       6.027 -14.281 -21.361  1.00  0.00    -0.550 OA
ENDBRANCH  11  12
ENDBRANCH  10  11
ENDBRANCH   9  10
ENDBRANCH   8   9
ENDBRANCH   7   8
ENDBRANCH   6   7
ENDBRANCH   5   6
ENDBRANCH   4   5
ENDBRANCH   3   4
ENDBRANCH   2   3
ENDBRANCH   1   2
BRANCH   1  15
ATOM     15  C   UNL     1       5.967  -7.771 -22.460  1.00  0.00     0.000 C 
BRANCH  15  16
ATOM     16  C   UNL     1       5.458  -6.349 -22.147  1.00  0.00     0.000 C 
BRANCH  16  17
ATOM     17  C   UNL     1       4.258  -5.881 -22.990  1.00  0.00     0.000 C 
BRANCH  17  18
ATOM     18  C   UNL     1       3.963  -4.381 -22.827  1.00  0.00    -0.000 C 
BRANCH  18  19
ATOM     19  C   UNL     1       3.013  -4.081 -21.653  1.00  0.00    -0.000 C 
BRANCH  19  20
ATOM     20  C   UNL     1       1.878  -5.105 -21.449  1.00  0.00    -0.000 C 
BRANCH  20  21
ATOM     21  C   UNL     1       1.208  -5.070 -20.062  1.00  0.00    -0.000 C 
BRANCH  21  22
ATOM     22  C   UNL     1       2.137  -4.676 -18.896  1.00  0.00    -0.000 C 
BRANCH  22  23
ATOM     23  C   UNL     1       3.091  -5.785 -18.417  1.00  0.00    -0.000 C 
BRANCH  23  24
ATOM     24  C   UNL     1       4.551  -5.538 -18.835  1.00  0.00    -0.000 C 
BRANCH  24  25
ATOM     25  C   UNL     1       5.197  -4.378 -18.061  1.00  0.00    -0.003 C 
ATOM     26  C   UNL     1       5.477  -3.160 -18.941  1.00  0.00     0.004 C 
ENDBRANCH  24  25
ENDBRANCH  23  24
ENDBRANCH  22  23
ENDBRANCH  21  22
ENDBRANCH  20  21
ENDBRANCH  19  20
ENDBRANCH  18  19
ENDBRANCH  17  18
ENDBRANCH  16  17
ENDBRANCH  15  16
ENDBRANCH   1  15
TORSDOF 22
ENDMDL
MODEL 4
REMARK VINA RESULT:    -4.341      3.946      7.886
REMARK INTER + INTRA:         -13.609
REMARK INTER:                 -10.397
REMARK INTRA:                  -3.212
REMARK UNBOUND:                -3.685
REMARK SMILES CCCCCCCCCCCCCCCCCCCCCCCC(=O)[O-]
REMARK SMILES IDX 13 1 14 2 15 3 16 4 17 5 18 6 19 7 20 8 21 9 22 10 23 11
REMARK SMILES IDX 24 12 25 13 26 14 12 15 11 16 10 17 9 18 8 19 7 20 6 21 5 22
REMARK SMILES IDX 4 23 3 24 2 25 1 26
REMARK H PARENT
REMARK Flexibility Score: inf
ROOT
ATOM      1  C   UNL     1       4.759  -8.456 -20.747  1.00  0.00     0.000 C 
ENDROOT
BRANCH   1   2
ATOM      2  C   UNL     1       3.386  -9.153 -20.688  1.00  0.00     0.000 C 
BRANCH   2   3
ATOM      3  C   UNL     1       2.547  -9.046 -21.977  1.00  0.00     0.000 C 
BRANCH   3   4
ATOM      4  C   UNL     1       1.101  -9.567 -21.860  1.00  0.00     0.000 C 
BRANCH   4   5
ATOM      5  C   UNL     1       0.242  -8.864 -20.794  1.00  0.00     0.000 C 
BRANCH   5   6
ATOM      6  C   UNL     1      -0.384  -7.556 -21.300  1.00  0.00     0.000 C 
BRANCH   6   7
ATOM      7  C   UNL     1       0.260  -6.338 -20.620  1.00  0.00     0.000 C 
BRANCH   7   8
ATOM      8  C   UNL     1       1.252  -5.597 -21.534  1.00  0.00     0.000 C 
BRANCH   8   9
ATOM      9  C   UNL     1       2.561  -5.150 -20.853  1.00  0.00     0.000 C 
BRANCH   9  10
ATOM     10  C   UNL     1       2.626  -5.397 -19.332  1.00  0.00     0.006 C 
BRANCH  10  11
ATOM     11  C   UNL     1       4.050  -5.530 -18.774  1.00  0.00     0.053 C 
BRANCH  11  12
ATOM     12  C   UNL     1       4.615  -4.206 -18.363  1.00  0.00     0.041 C 
ATOM     13  O   UNL     1       5.592  -4.150 -17.571  1.00  0.00    -0.550 OA
ATOM     14  O   UNL     1       4.041  -3.030 -18.832  1.00  0.00    -0.550 OA
ENDBRANCH  11  12
ENDBRANCH  10  11
ENDBRANCH   9  10
ENDBRANCH   8   9
ENDBRANCH   7   8
ENDBRANCH   6   7
ENDBRANCH   5   6
ENDBRANCH   4   5
ENDBRANCH   3   4
ENDBRANCH   2   3
ENDBRANCH   1   2
BRANCH   1  15
ATOM     15  C   UNL     1       4.993  -7.583 -21.996  1.00  0.00     0.000 C 
BRANCH  15  16
ATOM     16  C   UNL     1       6.170  -8.023 -22.891  1.00  0.00     0.000 C 
BRANCH  16  17
ATOM     17  C   UNL     1       6.688  -9.451 -22.639  1.00  0.00     0.000 C 
BRANCH  17  18
ATOM     18  C   UNL     1       6.923 -10.238 -23.939  1.00  0.00    -0.000 C 
BRANCH  18  19
ATOM     19  C   UNL     1       6.234 -11.615 -23.938  1.00  0.00    -0.000 C 
BRANCH  19  20
ATOM     20  C   UNL     1       4.762 -11.612 -23.477  1.00  0.00    -0.000 C 
BRANCH  20  21
ATOM     21  C   UNL     1       4.492 -12.346 -22.148  1.00  0.00    -0.000 C 
BRANCH  21  22
ATOM     22  C   UNL     1       5.415 -13.548 -21.866  1.00  0.00    -0.000 C 
BRANCH  22  23
ATOM     23  C   UNL     1       4.719 -14.921 -21.873  1.00  0.00    -0.000 C 
BRANCH  23  24
ATOM     24  C   UNL     1       3.219 -14.829 -22.197  1.00  0.00    -0.000 C 
BRANCH  24  25
ATOM     25  C   UNL     1       2.349 -15.586 -21.182  1.00  0.00    -0.003 C 
ATOM     26  C   UNL     1       1.881 -16.947 -21.699  1.00  0.00     0.004 C 
ENDBRANCH  24  25
ENDBRANCH  23  24
ENDBRANCH  22  23
ENDBRANCH  21  22
ENDBRANCH  20  21
ENDBRANCH  19  20
ENDBRANCH  18  19
ENDBRANCH  17  18
ENDBRANCH  16  17
ENDBRANCH  15  16
ENDBRANCH   1  15
TORSDOF 22
ENDMDL
MODEL 5
REMARK VINA RESULT:    -4.276      2.375      4.164
REMARK INTER + INTRA:         -13.459
REMARK INTER:                  -9.657
REMARK INTRA:                  -3.802
REMARK UNBOUND:                -3.685
REMARK SMILES CCCCCCCCCCCCCCCCCCCCCCCC(=O)[O-]
REMARK SMILES IDX 13 1 14 2 15 3 16 4 17 5 18 6 19 7 20 8 21 9 22 10 23 11
REMARK SMILES IDX 24 12 25 13 26 14 12 15 11 16 10 17 9 18 8 19 7 20 6 21 5 22
REMARK SMILES IDX 4 23 3 24 2 25 1 26
REMARK H PARENT
REMARK Flexibility Score: inf
ROOT
ATOM      1  C   UNL     1       5.120  -5.773 -22.897  1.00  0.00     0.000 C 
ENDROOT
BRANCH   1   2
ATOM      2  C   UNL     1       5.119  -7.131 -22.167  1.00  0.00     0.000 C 
BRANCH   2   3
ATOM      3  C   UNL     1       6.276  -8.074 -22.550  1.00  0.00     0.000 C 
BRANCH   3   4
ATOM      4  C   UNL     1       5.921  -9.575 -22.554  1.00  0.00     0.000 C 
BRANCH   4   5
ATOM      5  C   UNL     1       6.554 -10.389 -23.695  1.00  0.00     0.000 C 
BRANCH   5   6
ATOM      6  C   UNL     1       5.901 -11.767 -23.879  1.00  0.00     0.000 C 
BRANCH   6   7
ATOM      7  C   UNL     1       4.977 -12.101 -22.698  1.00  0.00     0.000 C 
BRANCH   7   8
ATOM      8  C   UNL     1       3.530 -12.391 -23.134  1.00  0.00     0.000 C 
BRANCH   8   9
ATOM      9  C   UNL     1       2.895 -11.323 -24.048  1.00  0.00     0.000 C 
BRANCH   9  10
ATOM     10  C   UNL     1       1.803 -10.459 -23.385  1.00  0.00     0.006 C 
BRANCH  10  11
ATOM     11  C   UNL     1       2.310  -9.572 -22.238  1.00  0.00     0.053 C 
BRANCH  11  12
ATOM     12  C   UNL     1       1.839 -10.062 -20.904  1.00  0.00     0.041 C 
ATOM     13  O   UNL     1       2.667 -10.470 -20.048  1.00  0.00    -0.550 OA
ATOM     14  O   UNL     1       0.479 -10.097 -20.617  1.00  0.00    -0.550 OA
ENDBRANCH  11  12
ENDBRANCH  10  11
ENDBRANCH   9  10
ENDBRANCH   8   9
ENDBRANCH   7   8
ENDBRANCH   6   7
ENDBRANCH   5   6
ENDBRANCH   4   5
ENDBRANCH   3   4
ENDBRANCH   2   3
ENDBRANCH   1   2
BRANCH   1  15
ATOM     15  C   UNL     1       3.772  -5.025 -22.882  1.00  0.00     0.000 C 
BRANCH  15  16
ATOM     16  C   UNL     1       3.876  -3.490 -22.773  1.00  0.00     0.000 C 
BRANCH  16  17
ATOM     17  C   UNL     1       3.267  -2.879 -21.498  1.00  0.00     0.000 C 
BRANCH  17  18
ATOM     18  C   UNL     1       4.331  -2.354 -20.520  1.00  0.00    -0.000 C 
BRANCH  18  19
ATOM     19  C   UNL     1       4.173  -2.926 -19.100  1.00  0.00    -0.000 C 
BRANCH  19  20
ATOM     20  C   UNL     1       5.188  -4.023 -18.717  1.00  0.00    -0.000 C 
BRANCH  20  21
ATOM     21  C   UNL     1       4.723  -5.467 -18.991  1.00  0.00    -0.000 C 
BRANCH  21  22
ATOM     22  C   UNL     1       3.264  -5.770 -18.598  1.00  0.00    -0.000 C 
BRANCH  22  23
ATOM     23  C   UNL     1       2.459  -6.568 -19.640  1.00  0.00    -0.000 C 
BRANCH  23  24
ATOM     24  C   UNL     1       1.328  -5.745 -20.279  1.00  0.00    -0.000 C 
BRANCH  24  25
ATOM     25  C   UNL     1       0.329  -6.619 -21.053  1.00  0.00    -0.003 C 
ATOM     26  C   UNL     1       0.315  -6.320 -22.553  1.00  0.00     0.004 C 
ENDBRANCH  24  25
ENDBRANCH  23  24
ENDBRANCH  22  23
ENDBRANCH  21  22
ENDBRANCH  20  21
ENDBRANCH  19  20
ENDBRANCH  18  19
ENDBRANCH  17  18
ENDBRANCH  16  17
ENDBRANCH  15  16
ENDBRANCH   1  15
TORSDOF 22
ENDMDL
MODEL 6
REMARK VINA RESULT:    -4.274      3.825      7.692
REMARK INTER + INTRA:         -13.457
REMARK INTER:                  -9.764
REMARK INTRA:                  -3.693
REMARK UNBOUND:                -3.685
REMARK SMILES CCCCCCCCCCCCCCCCCCCCCCCC(=O)[O-]
REMARK SMILES IDX 13 1 14 2 15 3 16 4 17 5 18 6 19 7 20 8 21 9 22 10 23 11
REMARK SMILES IDX 24 12 25 13 26 14 12 15 11 16 10 17 9 18 8 19 7 20 6 21 5 22
REMARK SMILES IDX 4 23 3 24 2 25 1 26
REMARK H PARENT
REMARK Flexibility Score: inf
ROOT
ATOM      1  C   UNL     1       4.361  -7.358 -20.362  1.00  0.00     0.000 C 
ENDROOT
BRANCH   1   2
ATOM      2  C   UNL     1       3.065  -6.809 -19.731  1.00  0.00     0.000 C 
BRANCH   2   3
ATOM      3  C   UNL     1       3.261  -5.601 -18.795  1.00  0.00     0.000 C 
BRANCH   3   4
ATOM      4  C   UNL     1       4.728  -5.252 -18.476  1.00  0.00     0.000 C 
BRANCH   4   5
ATOM      5  C   UNL     1       5.131  -3.799 -18.779  1.00  0.00     0.000 C 
BRANCH   5   6
ATOM      6  C   UNL     1       3.966  -2.957 -19.320  1.00  0.00     0.000 C 
BRANCH   6   7
ATOM      7  C   UNL     1       4.302  -2.375 -20.701  1.00  0.00     0.000 C 
BRANCH   7   8
ATOM      8  C   UNL     1       4.436  -3.455 -21.790  1.00  0.00     0.000 C 
BRANCH   8   9
ATOM      9  C   UNL     1       3.234  -3.571 -22.748  1.00  0.00     0.000 C 
BRANCH   9  10
ATOM     10  C   UNL     1       2.033  -4.367 -22.200  1.00  0.00     0.006 C 
BRANCH  10  11
ATOM     11  C   UNL     1       0.947  -3.501 -21.545  1.00  0.00     0.053 C 
BRANCH  11  12
ATOM     12  C   UNL     1       0.237  -4.231 -20.447  1.00  0.00     0.041 C 
ATOM     13  O   UNL     1       0.251  -3.779 -19.272  1.00  0.00    -0.550 OA
ATOM     14  O   UNL     1      -0.414  -5.428 -20.717  1.00  0.00    -0.550 OA
ENDBRANCH  11  12
ENDBRANCH  10  11
ENDBRANCH   9  10
ENDBRANCH   8   9
ENDBRANCH   7   8
ENDBRANCH   6   7
ENDBRANCH   5   6
ENDBRANCH   4   5
ENDBRANCH   3   4
ENDBRANCH   2   3
ENDBRANCH   1   2
BRANCH   1  15
ATOM     15  C   UNL     1       4.506  -7.103 -21.876  1.00  0.00     0.000 C 
BRANCH  15  16
ATOM     16  C   UNL     1       5.874  -7.488 -22.476  1.00  0.00     0.000 C 
BRANCH  16  17
ATOM     17  C   UNL     1       6.245  -8.978 -22.359  1.00  0.00     0.000 C 
BRANCH  17  18
ATOM     18  C   UNL     1       7.039  -9.491 -23.572  1.00  0.00    -0.000 C 
BRANCH  18  19
ATOM     19  C   UNL     1       6.661 -10.930 -23.970  1.00  0.00    -0.000 C 
BRANCH  19  20
ATOM     20  C   UNL     1       5.210 -11.341 -23.645  1.00  0.00    -0.000 C 
BRANCH  20  21
ATOM     21  C   UNL     1       5.067 -12.441 -22.575  1.00  0.00    -0.000 C 
BRANCH  21  22
ATOM     22  C   UNL     1       3.949 -12.204 -21.539  1.00  0.00    -0.000 C 
BRANCH  22  23
ATOM     23  C   UNL     1       3.337 -10.792 -21.550  1.00  0.00    -0.000 C 
BRANCH  23  24
ATOM     24  C   UNL     1       2.441 -10.520 -20.329  1.00  0.00    -0.000 C 
BRANCH  24  25
ATOM     25  C   UNL     1       0.989 -10.206 -20.722  1.00  0.00    -0.003 C 
ATOM     26  C   UNL     1       0.877  -9.022 -21.683  1.00  0.00     0.004 C 
ENDBRANCH  24  25
ENDBRANCH  23  24
ENDBRANCH  22  23
ENDBRANCH  21  22
ENDBRANCH  20  21
ENDBRANCH  19  20
ENDBRANCH  18  19
ENDBRANCH  17  18
ENDBRANCH  16  17
ENDBRANCH  15  16
ENDBRANCH   1  15
TORSDOF 22
ENDMDL
MODEL 7
REMARK VINA RESULT:    -4.264      2.643      4.663
REMARK INTER + INTRA:         -13.434
REMARK INTER:                  -9.559
REMARK INTRA:                  -3.875
REMARK UNBOUND:                -3.685
REMARK SMILES CCCCCCCCCCCCCCCCCCCCCCCC(=O)[O-]
REMARK SMILES IDX 13 1 14 2 15 3 16 4 17 5 18 6 19 7 20 8 21 9 22 10 23 11
REMARK SMILES IDX 24 12 25 13 26 14 12 15 11 16 10 17 9 18 8 19 7 20 6 21 5 22
REMARK SMILES IDX 4 23 3 24 2 25 1 26
REMARK H PARENT
REMARK Flexibility Score: inf
ROOT
ATOM      1  C   UNL     1       5.488  -7.065 -22.176  1.00  0.00     0.000 C 
ENDROOT
BRANCH   1   2
ATOM      2  C   UNL     1       6.409  -8.250 -22.531  1.00  0.00     0.000 C 
BRANCH   2   3
ATOM      3  C   UNL     1       5.713  -9.624 -22.571  1.00  0.00     0.000 C 
BRANCH   3   4
ATOM      4  C   UNL     1       6.269 -10.608 -23.620  1.00  0.00     0.000 C 
BRANCH   4   5
ATOM      5  C   UNL     1       5.576 -11.981 -23.655  1.00  0.00     0.000 C 
BRANCH   5   6
ATOM      6  C   UNL     1       4.718 -12.248 -22.409  1.00  0.00     0.000 C 
BRANCH   6   7
ATOM      7  C   UNL     1       3.281 -12.626 -22.800  1.00  0.00     0.000 C 
BRANCH   7   8
ATOM      8  C   UNL     1       2.922 -12.208 -24.237  1.00  0.00     0.000 C 
BRANCH   8   9
ATOM      9  C   UNL     1       1.836 -11.120 -24.350  1.00  0.00     0.000 C 
BRANCH   9  10
ATOM     10  C   UNL     1       2.029  -9.902 -23.424  1.00  0.00     0.006 C 
BRANCH  10  11
ATOM     11  C   UNL     1       0.725  -9.339 -22.839  1.00  0.00     0.053 C 
BRANCH  11  12
ATOM     12  C   UNL     1       0.636  -9.560 -21.361  1.00  0.00     0.041 C 
ATOM     13  O   UNL     1       1.120 -10.601 -20.844  1.00  0.00    -0.550 OA
ATOM     14  O   UNL     1      -0.010  -8.630 -20.557  1.00  0.00    -0.550 OA
ENDBRANCH  11  12
ENDBRANCH  10  11
ENDBRANCH   9  10
ENDBRANCH   8   9
ENDBRANCH   7   8
ENDBRANCH   6   7
ENDBRANCH   5   6
ENDBRANCH   4   5
ENDBRANCH   3   4
ENDBRANCH   2   3
ENDBRANCH   1   2
BRANCH   1  15
ATOM     15  C   UNL     1       4.012  -7.439 -21.933  1.00  0.00     0.000 C 
BRANCH  15  16
ATOM     16  C   UNL     1       3.598  -7.540 -20.451  1.00  0.00     0.000 C 
BRANCH  16  17
ATOM     17  C   UNL     1       4.244  -6.501 -19.517  1.00  0.00     0.000 C 
BRANCH  17  18
ATOM     18  C   UNL     1       3.238  -5.870 -18.539  1.00  0.00    -0.000 C 
BRANCH  18  19
ATOM     19  C   UNL     1       3.661  -4.467 -18.067  1.00  0.00    -0.000 C 
BRANCH  19  20
ATOM     20  C   UNL     1       5.113  -4.070 -18.406  1.00  0.00    -0.000 C 
BRANCH  20  21
ATOM     21  C   UNL     1       5.259  -2.812 -19.283  1.00  0.00    -0.000 C 
BRANCH  21  22
ATOM     22  C   UNL     1       4.117  -2.583 -20.293  1.00  0.00    -0.000 C 
BRANCH  22  23
ATOM     23  C   UNL     1       4.374  -3.140 -21.705  1.00  0.00    -0.000 C 
BRANCH  23  24
ATOM     24  C   UNL     1       3.209  -3.998 -22.229  1.00  0.00    -0.000 C 
BRANCH  24  25
ATOM     25  C   UNL     1       1.957  -3.896 -21.343  1.00  0.00    -0.003 C 
ATOM     26  C   UNL     1       1.019  -5.094 -21.499  1.00  0.00     0.004 C 
ENDBRANCH  24  25
ENDBRANCH  23  24
ENDBRANCH  22  23
ENDBRANCH  21  22
ENDBRANCH  20  21
ENDBRANCH  19  20
ENDBRANCH  18  19
ENDBRANCH  17  18
ENDBRANCH  16  17
ENDBRANCH  15  16
ENDBRANCH   1  15
TORSDOF 22
ENDMDL
MODEL 8
REMARK VINA RESULT:    -4.220      2.521      4.319
REMARK INTER + INTRA:         -13.333
REMARK INTER:                  -9.421
REMARK INTRA:                  -3.911
REMARK UNBOUND:                -3.685
REMARK SMILES CCCCCCCCCCCCCCCCCCCCCCCC(=O)[O-]
REMARK SMILES IDX 13 1 14 2 15 3 16 4 17 5 18 6 19 7 20 8 21 9 22 10 23 11
REMARK SMILES IDX 24 12 25 13 26 14 12 15 11 16 10 17 9 18 8 19 7 20 6 21 5 22
REMARK SMILES IDX 4 23 3 24 2 25 1 26
REMARK H PARENT
REMARK Flexibility Score: inf
ROOT
ATOM      1  C   UNL     1       4.393  -8.182 -20.613  1.00  0.00     0.000 C 
ENDROOT
BRANCH   1   2
ATOM      2  C   UNL     1       4.882  -7.151 -21.650  1.00  0.00     0.000 C 
BRANCH   2   3
ATOM      3  C   UNL     1       5.910  -7.688 -22.665  1.00  0.00     0.000 C 
BRANCH   3   4
ATOM      4  C   UNL     1       6.282  -9.174 -22.493  1.00  0.00     0.000 C 
BRANCH   4   5
ATOM      5  C   UNL     1       6.993  -9.809 -23.701  1.00  0.00     0.000 C 
BRANCH   5   6
ATOM      6  C   UNL     1       6.432 -11.192 -24.065  1.00  0.00     0.000 C 
BRANCH   6   7
ATOM      7  C   UNL     1       5.321 -11.610 -23.089  1.00  0.00     0.000 C 
BRANCH   7   8
ATOM      8  C   UNL     1       3.923 -11.595 -23.731  1.00  0.00     0.000 C 
BRANCH   8   9
ATOM      9  C   UNL     1       2.808 -10.989 -22.854  1.00  0.00     0.000 C 
BRANCH   9  10
ATOM     10  C   UNL     1       2.104  -9.753 -23.450  1.00  0.00     0.006 C 
BRANCH  10  11
ATOM     11  C   UNL     1       1.332 -10.030 -24.748  1.00  0.00     0.053 C 
BRANCH  11  12
ATOM     12  C   UNL     1       0.158 -10.931 -24.517  1.00  0.00     0.041 C 
ATOM     13  O   UNL     1       0.145 -12.093 -25.000  1.00  0.00    -0.550 OA
ATOM     14  O   UNL     1      -0.937 -10.474 -23.793  1.00  0.00    -0.550 OA
ENDBRANCH  11  12
ENDBRANCH  10  11
ENDBRANCH   9  10
ENDBRANCH   8   9
ENDBRANCH   7   8
ENDBRANCH   6   7
ENDBRANCH   5   6
ENDBRANCH   4   5
ENDBRANCH   3   4
ENDBRANCH   2   3
ENDBRANCH   1   2
BRANCH   1  15
ATOM     15  C   UNL     1       2.892  -8.100 -20.272  1.00  0.00     0.000 C 
BRANCH  15  16
ATOM     16  C   UNL     1       2.443  -6.782 -19.609  1.00  0.00     0.000 C 
BRANCH  16  17
ATOM     17  C   UNL     1       1.402  -5.970 -20.402  1.00  0.00     0.000 C 
BRANCH  17  18
ATOM     18  C   UNL     1       1.092  -6.580 -21.779  1.00  0.00    -0.000 C 
BRANCH  18  19
ATOM     19  C   UNL     1       1.563  -5.694 -22.946  1.00  0.00    -0.000 C 
BRANCH  19  20
ATOM     20  C   UNL     1       2.150  -4.327 -22.538  1.00  0.00    -0.000 C 
BRANCH  20  21
ATOM     21  C   UNL     1       3.522  -3.994 -23.155  1.00  0.00    -0.000 C 
BRANCH  21  22
ATOM     22  C   UNL     1       4.606  -3.567 -22.145  1.00  0.00    -0.000 C 
BRANCH  22  23
ATOM     23  C   UNL     1       4.130  -3.449 -20.686  1.00  0.00    -0.000 C 
BRANCH  23  24
ATOM     24  C   UNL     1       5.034  -4.206 -19.699  1.00  0.00    -0.000 C 
BRANCH  24  25
ATOM     25  C   UNL     1       4.565  -4.063 -18.242  1.00  0.00    -0.003 C 
ATOM     26  C   UNL     1       5.725  -4.011 -17.247  1.00  0.00     0.004 C 
ENDBRANCH  24  25
ENDBRANCH  23  24
ENDBRANCH  22  23
ENDBRANCH  21  22
ENDBRANCH  20  21
ENDBRANCH  19  20
ENDBRANCH  18  19
ENDBRANCH  17  18
ENDBRANCH  16  17
ENDBRANCH  15  16
ENDBRANCH   1  15
TORSDOF 22
ENDMDL
MODEL 9
REMARK VINA RESULT:    -4.193      3.874      7.356
REMARK INTER + INTRA:         -13.270
REMARK INTER:                  -9.481
REMARK INTRA:                  -3.789
REMARK UNBOUND:                -3.685
REMARK SMILES CCCCCCCCCCCCCCCCCCCCCCCC(=O)[O-]
REMARK SMILES IDX 13 1 14 2 15 3 16 4 17 5 18 6 19 7 20 8 21 9 22 10 23 11
REMARK SMILES IDX 24 12 25 13 26 14 12 15 11 16 10 17 9 18 8 19 7 20 6 21 5 22
REMARK SMILES IDX 4 23 3 24 2 25 1 26
REMARK H PARENT
REMARK Flexibility Score: inf
ROOT
ATOM      1  C   UNL     1       6.503 -10.825 -23.622  1.00  0.00     0.000 C 
ENDROOT
BRANCH   1   2
ATOM      2  C   UNL     1       6.834  -9.363 -23.265  1.00  0.00     0.000 C 
BRANCH   2   3
ATOM      3  C   UNL     1       5.955  -8.751 -22.156  1.00  0.00     0.000 C 
BRANCH   3   4
ATOM      4  C   UNL     1       5.381  -7.356 -22.473  1.00  0.00     0.000 C 
BRANCH   4   5
ATOM      5  C   UNL     1       5.141  -6.458 -21.246  1.00  0.00     0.000 C 
BRANCH   5   6
ATOM      6  C   UNL     1       4.135  -7.060 -20.254  1.00  0.00     0.000 C 
BRANCH   6   7
ATOM      7  C   UNL     1       3.644  -6.001 -19.256  1.00  0.00     0.000 C 
BRANCH   7   8
ATOM      8  C   UNL     1       4.796  -5.242 -18.573  1.00  0.00     0.000 C 
BRANCH   8   9
ATOM      9  C   UNL     1       4.814  -3.720 -18.822  1.00  0.00     0.000 C 
BRANCH   9  10
ATOM     10  C   UNL     1       3.440  -3.090 -19.128  1.00  0.00     0.006 C 
BRANCH  10  11
ATOM     11  C   UNL     1       3.401  -2.259 -20.419  1.00  0.00     0.053 C 
BRANCH  11  12
ATOM     12  C   UNL     1       3.624  -3.105 -21.634  1.00  0.00     0.041 C 
ATOM     13  O   UNL     1       4.666  -2.961 -22.326  1.00  0.00    -0.550 OA
ATOM     14  O   UNL     1       2.665  -4.034 -22.020  1.00  0.00    -0.550 OA
ENDBRANCH  11  12
ENDBRANCH  10  11
ENDBRANCH   9  10
ENDBRANCH   8   9
ENDBRANCH   7   8
ENDBRANCH   6   7
ENDBRANCH   5   6
ENDBRANCH   4   5
ENDBRANCH   3   4
ENDBRANCH   2   3
ENDBRANCH   1   2
BRANCH   1  15
ATOM     15  C   UNL     1       5.013 -11.203 -23.504  1.00  0.00     0.000 C 
BRANCH  15  16
ATOM     16  C   UNL     1       4.667 -12.142 -22.330  1.00  0.00     0.000 C 
BRANCH  16  17
ATOM     17  C   UNL     1       3.309 -11.877 -21.656  1.00  0.00     0.000 C 
BRANCH  17  18
ATOM     18  C   UNL     1       3.317 -10.619 -20.772  1.00  0.00    -0.000 C 
BRANCH  18  19
ATOM     19  C   UNL     1       2.057 -10.495 -19.894  1.00  0.00    -0.000 C 
BRANCH  19  20
ATOM     20  C   UNL     1       0.717 -10.622 -20.648  1.00  0.00    -0.000 C 
BRANCH  20  21
ATOM     21  C   UNL     1      -0.143  -9.343 -20.671  1.00  0.00    -0.000 C 
BRANCH  21  22
ATOM     22  C   UNL     1       0.648  -8.024 -20.779  1.00  0.00    -0.000 C 
BRANCH  22  23
ATOM     23  C   UNL     1       0.725  -7.423 -22.193  1.00  0.00    -0.000 C 
BRANCH  23  24
ATOM     24  C   UNL     1       1.815  -8.076 -23.061  1.00  0.00    -0.000 C 
BRANCH  24  25
ATOM     25  C   UNL     1       1.242  -8.748 -24.319  1.00  0.00    -0.003 C 
ATOM     26  C   UNL     1       1.447 -10.263 -24.329  1.00  0.00     0.004 C 
ENDBRANCH  24  25
ENDBRANCH  23  24
ENDBRANCH  22  23
ENDBRANCH  21  22
ENDBRANCH  20  21
ENDBRANCH  19  20
ENDBRANCH  18  19
ENDBRANCH  17  18
ENDBRANCH  16  17
ENDBRANCH  15  16
ENDBRANCH   1  15
TORSDOF 22
ENDMDL
