MODEL 1
REMARK VINA RESULT:    -4.273      0.000      0.000
REMARK INTER + INTRA:          -4.635
REMARK INTER:                  -5.273
REMARK INTRA:                   0.638
REMARK UNBOUND:                 0.638
REMARK SMILES C=C1[C@@H]2CC[C@H]3[C@@H]2C(C)(C)CCC[C@@]13C
REMARK SMILES IDX 14 1 6 2 7 3 3 4 2 5 1 6 4 7 5 8 15 9 8 10 9 11 10 12 11 13
REMARK SMILES IDX 13 15 12 16
REMARK H PARENT
REMARK Flexibility Score: 80.00
ROOT
ATOM      1  C   UNL     1     -42.374 -49.923  30.363  1.00  0.00    -0.008 C 
ATOM      2  C   UNL     1     -43.699 -49.065  30.413  1.00  0.00     0.003 C 
ATOM      3  C   UNL     1     -44.838 -50.099  30.306  1.00  0.00     0.006 C 
ATOM      4  C   UNL     1     -44.259 -50.755  29.052  1.00  0.00     0.019 C 
ATOM      5  C   UNL     1     -42.846 -51.046  29.473  1.00  0.00    -0.068 C 
ATOM      6  C   UNL     1     -42.114 -52.082  29.046  1.00  0.00     0.009 C 
ATOM      7  C   UNL     1     -44.193 -49.544  28.092  1.00  0.00     0.008 C 
ATOM      8  C   UNL     1     -43.909 -48.356  29.047  1.00  0.00     0.005 C 
ATOM      9  C   UNL     1     -41.175 -49.177  29.715  1.00  0.00     0.016 C 
ENDROOT
BRANCH   3  10
ATOM     10  C   UNL     1     -45.216 -50.994  31.564  1.00  0.00    -0.032 C 
ATOM     11  C   UNL     1     -46.546 -50.449  32.154  1.00  0.00     0.011 C 
ATOM     12  C   UNL     1     -45.498 -52.463  31.153  1.00  0.00     0.011 C 
BRANCH  10  13
ATOM     13  C   UNL     1     -44.195 -50.943  32.736  1.00  0.00     0.007 CG0
ATOM     14  G   UNL     1     -42.793 -51.456  32.421  1.00  0.00     0.000 G0
ENDBRANCH  10  13
ENDBRANCH   3  10
BRANCH   1  15
ATOM     15  C   UNL     1     -41.916 -50.404  31.766  1.00  0.00     0.011 C 
BRANCH  15  16
ATOM     16  C   UNL     1     -42.797 -51.458  32.431  1.00  0.00     0.001 CG0
ATOM     17  G   UNL     1     -44.200 -50.938  32.734  1.00  0.00     0.000 G0
ENDBRANCH  15  16
ENDBRANCH   1  15
TORSDOF 0
ENDMDL
MODEL 2
REMARK VINA RESULT:    -4.262     10.912     12.919
REMARK INTER + INTRA:          -4.621
REMARK INTER:                  -5.258
REMARK INTRA:                   0.638
REMARK UNBOUND:                 0.638
REMARK SMILES C=C1[C@@H]2CC[C@H]3[C@@H]2C(C)(C)CCC[C@@]13C
REMARK SMILES IDX 14 1 6 2 7 3 3 4 2 5 1 6 4 7 5 8 15 9 8 10 9 11 10 12 11 13
REMARK SMILES IDX 13 15 12 16
REMARK H PARENT
REMARK Flexibility Score: 80.00
ROOT
ATOM      1  C   UNL     1     -50.151 -47.969  21.131  1.00  0.00    -0.008 C 
ATOM      2  C   UNL     1     -50.214 -48.005  19.553  1.00  0.00     0.003 C 
ATOM      3  C   UNL     1     -50.482 -49.484  19.207  1.00  0.00     0.006 C 
ATOM      4  C   UNL     1     -49.318 -49.996  20.055  1.00  0.00     0.019 C 
ATOM      5  C   UNL     1     -49.583 -49.344  21.382  1.00  0.00    -0.068 C 
ATOM      6  C   UNL     1     -49.276 -49.870  22.574  1.00  0.00     0.009 C 
ATOM      7  C   UNL     1     -48.132 -49.233  19.417  1.00  0.00     0.008 C 
ATOM      8  C   UNL     1     -48.777 -47.894  18.975  1.00  0.00     0.005 C 
ATOM      9  C   UNL     1     -49.202 -46.873  21.690  1.00  0.00     0.016 C 
ENDROOT
BRANCH   3  10
ATOM     10  C   UNL     1     -51.936 -50.093  19.409  1.00  0.00    -0.032 C 
ATOM     11  C   UNL     1     -52.582 -50.258  18.005  1.00  0.00     0.011 C 
ATOM     12  C   UNL     1     -51.876 -51.516  20.024  1.00  0.00     0.011 C 
BRANCH  10  13
ATOM     13  C   UNL     1     -52.920 -49.194  20.210  1.00  0.00     0.007 CG0
ATOM     14  G   UNL     1     -52.531 -48.908  21.658  1.00  0.00     0.000 G0
ENDBRANCH  10  13
ENDBRANCH   3  10
BRANCH   1  15
ATOM     15  C   UNL     1     -51.542 -47.752  21.784  1.00  0.00     0.011 C 
BRANCH  15  16
ATOM     16  C   UNL     1     -52.528 -48.911  21.657  1.00  0.00     0.001 CG0
ATOM     17  G   UNL     1     -52.912 -49.193  20.207  1.00  0.00     0.000 G0
ENDBRANCH  15  16
ENDBRANCH   1  15
TORSDOF 0
ENDMDL
MODEL 3
REMARK VINA RESULT:    -4.245      9.935     12.031
REMARK INTER + INTRA:          -4.600
REMARK INTER:                  -5.230
REMARK INTRA:                   0.630
REMARK UNBOUND:                 0.638
REMARK SMILES C=C1[C@@H]2CC[C@H]3[C@@H]2C(C)(C)CCC[C@@]13C
REMARK SMILES IDX 14 1 6 2 7 3 3 4 2 5 1 6 4 7 5 8 15 9 8 10 9 11 10 12 11 13
REMARK SMILES IDX 13 15 12 16
REMARK H PARENT
REMARK Flexibility Score: 80.00
ROOT
ATOM      1  C   UNL     1     -49.053 -48.298  22.032  1.00  0.00    -0.008 C 
ATOM      2  C   UNL     1     -49.406 -49.801  22.368  1.00  0.00     0.003 C 
ATOM      3  C   UNL     1     -50.907 -49.933  22.037  1.00  0.00     0.006 C 
ATOM      4  C   UNL     1     -51.301 -48.723  22.885  1.00  0.00     0.019 C 
ATOM      5  C   UNL     1     -50.378 -47.658  22.365  1.00  0.00    -0.068 C 
ATOM      6  C   UNL     1     -50.666 -46.353  22.302  1.00  0.00     0.009 C 
ATOM      7  C   UNL     1     -50.752 -49.145  24.270  1.00  0.00     0.008 C 
ATOM      8  C   UNL     1     -49.497 -49.980  23.908  1.00  0.00     0.005 C 
ATOM      9  C   UNL     1     -47.922 -47.713  22.922  1.00  0.00     0.016 C 
ENDROOT
BRANCH   3  10
ATOM     10  C   UNL     1     -51.379 -50.023  20.522  1.00  0.00    -0.032 C 
ATOM     11  C   UNL     1     -51.776 -51.498  20.235  1.00  0.00     0.011 C 
ATOM     12  C   UNL     1     -52.655 -49.178  20.272  1.00  0.00     0.011 C 
BRANCH  10  13
ATOM     13  C   UNL     1     -50.284 -49.681  19.472  1.00  0.00     0.007 CG0
ATOM     14  G   UNL     1     -49.741 -48.255  19.516  1.00  0.00     0.000 G0
ENDBRANCH  10  13
ENDBRANCH   3  10
BRANCH   1  15
ATOM     15  C   UNL     1     -48.629 -48.096  20.553  1.00  0.00     0.011 C 
BRANCH  15  16
ATOM     16  C   UNL     1     -49.733 -48.264  19.513  1.00  0.00     0.001 CG0
ATOM     17  G   UNL     1     -50.285 -49.686  19.474  1.00  0.00     0.000 G0
ENDBRANCH  15  16
ENDBRANCH   1  15
TORSDOF 0
ENDMDL
MODEL 4
REMARK VINA RESULT:    -4.098      3.234      5.451
REMARK INTER + INTRA:          -4.419
REMARK INTER:                  -5.051
REMARK INTRA:                   0.632
REMARK UNBOUND:                 0.638
REMARK SMILES C=C1[C@@H]2CC[C@H]3[C@@H]2C(C)(C)CCC[C@@]13C
REMARK SMILES IDX 14 1 6 2 7 3 3 4 2 5 1 6 4 7 5 8 15 9 8 10 9 11 10 12 11 13
REMARK SMILES IDX 13 15 12 16
REMARK H PARENT
REMARK Flexibility Score: 80.00
ROOT
ATOM      1  C   UNL     1     -44.964 -47.685  26.024  1.00  0.00    -0.008 C 
ATOM      2  C   UNL     1     -45.049 -49.208  26.430  1.00  0.00     0.003 C 
ATOM      3  C   UNL     1     -43.586 -49.629  26.678  1.00  0.00     0.006 C 
ATOM      4  C   UNL     1     -43.102 -49.102  25.327  1.00  0.00     0.019 C 
ATOM      5  C   UNL     1     -43.623 -47.693  25.332  1.00  0.00    -0.068 C 
ATOM      6  C   UNL     1     -43.031 -46.651  24.738  1.00  0.00     0.009 C 
ATOM      7  C   UNL     1     -44.006 -49.903  24.359  1.00  0.00     0.008 C 
ATOM      8  C   UNL     1     -45.320 -50.068  25.165  1.00  0.00     0.005 C 
ATOM      9  C   UNL     1     -46.084 -47.240  25.043  1.00  0.00     0.016 C 
ENDROOT
BRANCH   3  10
ATOM     10  C   UNL     1     -42.848 -49.179  28.012  1.00  0.00    -0.032 C 
ATOM     11  C   UNL     1     -42.755 -50.418  28.945  1.00  0.00     0.011 C 
ATOM     12  C   UNL     1     -41.386 -48.741  27.733  1.00  0.00     0.011 C 
BRANCH  10  13
ATOM     13  C   UNL     1     -43.593 -48.095  28.841  1.00  0.00     0.007 CG0
ATOM     14  G   UNL     1     -43.791 -46.748  28.151  1.00  0.00     0.000 G0
ENDBRANCH  10  13
ENDBRANCH   3  10
BRANCH   1  15
ATOM     15  C   UNL     1     -45.016 -46.731  27.248  1.00  0.00     0.011 C 
BRANCH  15  16
ATOM     16  C   UNL     1     -43.791 -46.744  28.157  1.00  0.00     0.001 CG0
ATOM     17  G   UNL     1     -43.593 -48.089  28.851  1.00  0.00     0.000 G0
ENDBRANCH  15  16
ENDBRANCH   1  15
TORSDOF 0
ENDMDL
MODEL 5
REMARK VINA RESULT:    -4.090      9.458     11.442
REMARK INTER + INTRA:          -4.409
REMARK INTER:                  -5.035
REMARK INTRA:                   0.626
REMARK UNBOUND:                 0.638
REMARK SMILES C=C1[C@@H]2CC[C@H]3[C@@H]2C(C)(C)CCC[C@@]13C
REMARK SMILES IDX 14 1 6 2 7 3 3 4 2 5 1 6 4 7 5 8 15 9 8 10 9 11 10 12 11 13
REMARK SMILES IDX 13 15 12 16
REMARK H PARENT
REMARK Flexibility Score: 80.00
ROOT
ATOM      1  C   UNL     1     -50.562 -47.811  24.074  1.00  0.00    -0.008 C 
ATOM      2  C   UNL     1     -52.016 -48.180  23.580  1.00  0.00     0.003 C 
ATOM      3  C   UNL     1     -51.967 -47.994  22.049  1.00  0.00     0.006 C 
ATOM      4  C   UNL     1     -51.399 -46.578  22.140  1.00  0.00     0.019 C 
ATOM      5  C   UNL     1     -50.211 -46.771  23.039  1.00  0.00    -0.068 C 
ATOM      6  C   UNL     1     -49.076 -46.065  22.977  1.00  0.00     0.009 C 
ATOM      7  C   UNL     1     -52.488 -45.880  22.991  1.00  0.00     0.008 C 
ATOM      8  C   UNL     1     -52.989 -47.017  23.918  1.00  0.00     0.005 C 
ATOM      9  C   UNL     1     -50.528 -47.198  25.501  1.00  0.00     0.016 C 
ENDROOT
BRANCH   3  10
ATOM     10  C   UNL     1     -51.242 -49.080  21.143  1.00  0.00    -0.032 C 
ATOM     11  C   UNL     1     -52.341 -49.917  20.431  1.00  0.00     0.011 C 
ATOM     12  C   UNL     1     -50.411 -48.415  20.015  1.00  0.00     0.011 C 
BRANCH  10  13
ATOM     13  C   UNL     1     -50.378 -50.113  21.920  1.00  0.00     0.007 CG0
ATOM     14  G   UNL     1     -49.188 -49.543  22.687  1.00  0.00     0.000 G0
ENDBRANCH  10  13
ENDBRANCH   3  10
BRANCH   1  15
ATOM     15  C   UNL     1     -49.598 -49.028  24.071  1.00  0.00     0.011 C 
BRANCH  15  16
ATOM     16  C   UNL     1     -49.191 -49.553  22.697  1.00  0.00     0.001 CG0
ATOM     17  G   UNL     1     -50.375 -50.114  21.913  1.00  0.00     0.000 G0
ENDBRANCH  15  16
ENDBRANCH   1  15
TORSDOF 0
ENDMDL
MODEL 6
REMARK VINA RESULT:    -4.087      2.895      4.917
REMARK INTER + INTRA:          -4.405
REMARK INTER:                  -5.041
REMARK INTRA:                   0.635
REMARK UNBOUND:                 0.638
REMARK SMILES C=C1[C@@H]2CC[C@H]3[C@@H]2C(C)(C)CCC[C@@]13C
REMARK SMILES IDX 14 1 6 2 7 3 3 4 2 5 1 6 4 7 5 8 15 9 8 10 9 11 10 12 11 13
REMARK SMILES IDX 13 15 12 16
REMARK H PARENT
REMARK Flexibility Score: 80.00
ROOT
ATOM      1  C   UNL     1     -43.245 -48.094  26.095  1.00  0.00    -0.008 C 
ATOM      2  C   UNL     1     -41.852 -48.243  26.824  1.00  0.00     0.003 C 
ATOM      3  C   UNL     1     -42.173 -48.059  28.322  1.00  0.00     0.006 C 
ATOM      4  C   UNL     1     -42.917 -46.742  28.102  1.00  0.00     0.019 C 
ATOM      5  C   UNL     1     -43.904 -47.112  27.031  1.00  0.00    -0.068 C 
ATOM      6  C   UNL     1     -45.125 -46.581  26.893  1.00  0.00     0.009 C 
ATOM      7  C   UNL     1     -41.818 -45.896  27.415  1.00  0.00     0.008 C 
ATOM      8  C   UNL     1     -41.016 -46.952  26.612  1.00  0.00     0.005 C 
ATOM      9  C   UNL     1     -43.136 -47.500  24.664  1.00  0.00     0.016 C 
ENDROOT
BRANCH   3  10
ATOM     10  C   UNL     1     -42.871 -49.236  29.132  1.00  0.00    -0.032 C 
ATOM     11  C   UNL     1     -41.794 -49.891  30.040  1.00  0.00     0.011 C 
ATOM     12  C   UNL     1     -43.967 -48.696  30.087  1.00  0.00     0.011 C 
BRANCH  10  13
ATOM     13  C   UNL     1     -43.431 -50.393  28.258  1.00  0.00     0.007 CG0
ATOM     14  G   UNL     1     -44.542 -50.014  27.283  1.00  0.00     0.000 G0
ENDBRANCH  10  13
ENDBRANCH   3  10
BRANCH   1  15
ATOM     15  C   UNL     1     -44.011 -49.439  25.980  1.00  0.00     0.011 C 
BRANCH  15  16
ATOM     16  C   UNL     1     -44.546 -50.017  27.287  1.00  0.00     0.001 CG0
ATOM     17  G   UNL     1     -43.431 -50.395  28.258  1.00  0.00     0.000 G0
ENDBRANCH  15  16
ENDBRANCH   1  15
TORSDOF 0
ENDMDL
MODEL 7
REMARK VINA RESULT:    -4.069      2.660      5.001
REMARK INTER + INTRA:          -4.383
REMARK INTER:                  -5.018
REMARK INTRA:                   0.635
REMARK UNBOUND:                 0.638
REMARK SMILES C=C1[C@@H]2CC[C@H]3[C@@H]2C(C)(C)CCC[C@@]13C
REMARK SMILES IDX 14 1 6 2 7 3 3 4 2 5 1 6 4 7 5 8 15 9 8 10 9 11 10 12 11 13
REMARK SMILES IDX 13 15 12 16
REMARK H PARENT
REMARK Flexibility Score: 80.00
ROOT
ATOM      1  C   UNL     1     -43.996 -49.042  29.463  1.00  0.00    -0.008 C 
ATOM      2  C   UNL     1     -42.529 -49.138  30.042  1.00  0.00     0.003 C 
ATOM      3  C   UNL     1     -41.632 -49.331  28.802  1.00  0.00     0.006 C 
ATOM      4  C   UNL     1     -42.450 -50.508  28.271  1.00  0.00     0.019 C 
ATOM      5  C   UNL     1     -43.844 -49.949  28.267  1.00  0.00    -0.068 C 
ATOM      6  C   UNL     1     -44.804 -50.281  27.397  1.00  0.00     0.009 C 
ATOM      7  C   UNL     1     -42.370 -51.484  29.470  1.00  0.00     0.008 C 
ATOM      8  C   UNL     1     -42.319 -50.532  30.692  1.00  0.00     0.005 C 
ATOM      9  C   UNL     1     -45.082 -49.587  30.431  1.00  0.00     0.016 C 
ENDROOT
BRANCH   3  10
ATOM     10  C   UNL     1     -41.317 -48.095  27.853  1.00  0.00    -0.032 C 
ATOM     11  C   UNL     1     -39.854 -47.648  28.125  1.00  0.00     0.011 C 
ATOM     12  C   UNL     1     -41.371 -48.500  26.357  1.00  0.00     0.011 C 
BRANCH  10  13
ATOM     13  C   UNL     1     -42.187 -46.832  28.108  1.00  0.00     0.007 CG0
ATOM     14  G   UNL     1     -43.687 -46.999  27.881  1.00  0.00     0.000 G0
ENDBRANCH  10  13
ENDBRANCH   3  10
BRANCH   1  15
ATOM     15  C   UNL     1     -44.400 -47.592  29.086  1.00  0.00     0.011 C 
BRANCH  15  16
ATOM     16  C   UNL     1     -43.684 -46.992  27.878  1.00  0.00     0.001 CG0
ATOM     17  G   UNL     1     -42.184 -46.830  28.109  1.00  0.00     0.000 G0
ENDBRANCH  15  16
ENDBRANCH   1  15
TORSDOF 0
ENDMDL
MODEL 8
REMARK VINA RESULT:    -4.053      3.448      5.389
REMARK INTER + INTRA:          -4.363
REMARK INTER:                  -4.995
REMARK INTRA:                   0.632
REMARK UNBOUND:                 0.638
REMARK SMILES C=C1[C@@H]2CC[C@H]3[C@@H]2C(C)(C)CCC[C@@]13C
REMARK SMILES IDX 14 1 6 2 7 3 3 4 2 5 1 6 4 7 5 8 15 9 8 10 9 11 10 12 11 13
REMARK SMILES IDX 13 15 12 16
REMARK H PARENT
REMARK Flexibility Score: 80.00
ROOT
ATOM      1  C   UNL     1     -43.491 -47.488  27.338  1.00  0.00    -0.008 C 
ATOM      2  C   UNL     1     -43.267 -47.768  28.876  1.00  0.00     0.003 C 
ATOM      3  C   UNL     1     -42.184 -48.867  28.919  1.00  0.00     0.006 C 
ATOM      4  C   UNL     1     -42.937 -49.784  27.954  1.00  0.00     0.019 C 
ATOM      5  C   UNL     1     -43.212 -48.867  26.796  1.00  0.00    -0.068 C 
ATOM      6  C   UNL     1     -43.286 -49.247  25.515  1.00  0.00     0.009 C 
ATOM      7  C   UNL     1     -44.278 -49.961  28.705  1.00  0.00     0.008 C 
ATOM      8  C   UNL     1     -44.456 -48.602  29.429  1.00  0.00     0.005 C 
ATOM      9  C   UNL     1     -44.940 -47.045  26.992  1.00  0.00     0.016 C 
ENDROOT
BRANCH   3  10
ATOM     10  C   UNL     1     -40.666 -48.493  28.632  1.00  0.00    -0.032 C 
ATOM     11  C   UNL     1     -39.910 -48.500  29.990  1.00  0.00     0.011 C 
ATOM     12  C   UNL     1     -39.974 -49.565  27.750  1.00  0.00     0.011 C 
BRANCH  10  13
ATOM     13  C   UNL     1     -40.439 -47.072  28.043  1.00  0.00     0.007 CG0
ATOM     14  G   UNL     1     -41.061 -46.813  26.673  1.00  0.00     0.000 G0
ENDBRANCH  10  13
ENDBRANCH   3  10
BRANCH   1  15
ATOM     15  C   UNL     1     -42.531 -46.404  26.778  1.00  0.00     0.011 C 
BRANCH  15  16
ATOM     16  C   UNL     1     -41.062 -46.804  26.673  1.00  0.00     0.001 CG0
ATOM     17  G   UNL     1     -40.429 -47.067  28.037  1.00  0.00     0.000 G0
ENDBRANCH  15  16
ENDBRANCH   1  15
TORSDOF 0
ENDMDL
MODEL 9
REMARK VINA RESULT:    -4.039      8.939     11.024
REMARK INTER + INTRA:          -4.345
REMARK INTER:                  -4.978
REMARK INTRA:                   0.632
REMARK UNBOUND:                 0.638
REMARK SMILES C=C1[C@@H]2CC[C@H]3[C@@H]2C(C)(C)CCC[C@@]13C
REMARK SMILES IDX 14 1 6 2 7 3 3 4 2 5 1 6 4 7 5 8 15 9 8 10 9 11 10 12 11 13
REMARK SMILES IDX 13 15 12 16
REMARK H PARENT
REMARK Flexibility Score: 80.00
ROOT
ATOM      1  C   UNL     1     -49.330 -47.618  23.974  1.00  0.00    -0.008 C 
ATOM      2  C   UNL     1     -49.089 -49.108  23.507  1.00  0.00     0.003 C 
ATOM      3  C   UNL     1     -50.480 -49.610  23.070  1.00  0.00     0.006 C 
ATOM      4  C   UNL     1     -51.151 -49.193  24.380  1.00  0.00     0.019 C 
ATOM      5  C   UNL     1     -50.736 -47.755  24.503  1.00  0.00    -0.068 C 
ATOM      6  C   UNL     1     -51.466 -46.789  25.073  1.00  0.00     0.009 C 
ATOM      7  C   UNL     1     -50.306 -49.986  25.406  1.00  0.00     0.008 C 
ATOM      8  C   UNL     1     -48.901 -50.017  24.752  1.00  0.00     0.005 C 
ATOM      9  C   UNL     1     -48.363 -47.156  25.099  1.00  0.00     0.016 C 
ENDROOT
BRANCH   3  10
ATOM     10  C   UNL     1     -51.093 -49.136  21.682  1.00  0.00    -0.032 C 
ATOM     11  C   UNL     1     -50.989 -50.323  20.686  1.00  0.00     0.011 C 
ATOM     12  C   UNL     1     -52.605 -48.813  21.809  1.00  0.00     0.011 C 
BRANCH  10  13
ATOM     13  C   UNL     1     -50.340 -47.959  20.999  1.00  0.00     0.007 CG0
ATOM     14  G   UNL     1     -50.319 -46.643  21.773  1.00  0.00     0.000 G0
ENDBRANCH  10  13
ENDBRANCH   3  10
BRANCH   1  15
ATOM     15  C   UNL     1     -49.208 -46.596  22.812  1.00  0.00     0.011 C 
BRANCH  15  16
ATOM     16  C   UNL     1     -50.320 -46.639  21.767  1.00  0.00     0.001 CG0
ATOM     17  G   UNL     1     -50.343 -47.954  20.993  1.00  0.00     0.000 G0
ENDBRANCH  15  16
ENDBRANCH   1  15
TORSDOF 0
ENDMDL
