MODEL 1
REMARK VINA RESULT:    -3.375      0.000      0.000
REMARK INTER + INTRA:          -3.671
REMARK INTER:                  -3.671
REMARK INTRA:                   0.000
REMARK UNBOUND:                 0.000
REMARK SMILES [NH3+]CC(=O)[O-]
REMARK SMILES IDX 2 1 1 2 3 6 4 7 5 8
REMARK H PARENT 1 3 1 4 1 5
REMARK Flexibility Score: inf
ROOT
ATOM      1  C   UNL     1     102.984  71.560  75.155  1.00  0.00     0.312 C 
ENDROOT
BRANCH   1   2
ATOM      2  N   UNL     1     102.680  72.919  74.713  1.00  0.00    -0.353 N 
ATOM      3  H   UNL     1     102.889  73.002  73.692  1.00  0.00     0.344 HD
ATOM      4  H   UNL     1     103.269  73.608  75.237  1.00  0.00     0.344 HD
ATOM      5  H   UNL     1     101.667  73.130  74.869  1.00  0.00     0.344 HD
ENDBRANCH   1   2
BRANCH   1   6
ATOM      6  C   UNL     1     101.747  70.715  75.153  1.00  0.00     0.096 C 
ATOM      7  O   UNL     1     100.976  70.718  76.149  1.00  0.00    -0.544 OA
ATOM      8  O   UNL     1     101.418  69.966  74.031  1.00  0.00    -0.544 OA
ENDBRANCH   1   6
TORSDOF 2
ENDMDL
MODEL 2
REMARK VINA RESULT:    -3.267      6.605      6.761
REMARK INTER + INTRA:          -3.553
REMARK INTER:                  -3.553
REMARK INTRA:                   0.000
REMARK UNBOUND:                 0.000
REMARK SMILES [NH3+]CC(=O)[O-]
REMARK SMILES IDX 2 1 1 2 3 6 4 7 5 8
REMARK H PARENT 1 3 1 4 1 5
REMARK Flexibility Score: inf
ROOT
ATOM      1  C   UNL     1      99.926  70.125  69.697  1.00  0.00     0.312 C 
ENDROOT
BRANCH   1   2
ATOM      2  N   UNL     1     100.578  69.666  68.473  1.00  0.00    -0.353 N 
ATOM      3  H   UNL     1     100.116  70.115  67.650  1.00  0.00     0.344 HD
ATOM      4  H   UNL     1     100.490  68.627  68.386  1.00  0.00     0.344 HD
ATOM      5  H   UNL     1     101.590  69.935  68.481  1.00  0.00     0.344 HD
ENDBRANCH   1   2
BRANCH   1   6
ATOM      6  C   UNL     1      98.877  71.146  69.385  1.00  0.00     0.096 C 
ATOM      7  O   UNL     1      97.660  70.820  69.368  1.00  0.00    -0.544 OA
ATOM      8  O   UNL     1      99.237  72.470  69.164  1.00  0.00    -0.544 OA
ENDBRANCH   1   6
TORSDOF 2
ENDMDL
MODEL 3
REMARK VINA RESULT:    -3.119      5.908      6.496
REMARK INTER + INTRA:          -3.392
REMARK INTER:                  -3.392
REMARK INTRA:                   0.000
REMARK UNBOUND:                 0.000
REMARK SMILES [NH3+]CC(=O)[O-]
REMARK SMILES IDX 2 1 1 2 3 6 4 7 5 8
REMARK H PARENT 1 3 1 4 1 5
REMARK Flexibility Score: inf
ROOT
ATOM      1  C   UNL     1      99.046  70.963  69.404  1.00  0.00     0.312 C 
ENDROOT
BRANCH   1   2
ATOM      2  N   UNL     1      97.714  70.364  69.329  1.00  0.00    -0.353 N 
ATOM      3  H   UNL     1      97.753  69.395  69.719  1.00  0.00     0.344 HD
ATOM      4  H   UNL     1      97.397  70.317  68.333  1.00  0.00     0.344 HD
ATOM      5  H   UNL     1      97.035  70.928  69.890  1.00  0.00     0.344 HD
ENDBRANCH   1   2
BRANCH   1   6
ATOM      6  C   UNL     1     100.083  69.912  69.652  1.00  0.00     0.096 C 
ATOM      7  O   UNL     1     100.686  69.375  68.686  1.00  0.00    -0.544 OA
ATOM      8  O   UNL     1     100.422  69.562  70.954  1.00  0.00    -0.544 OA
ENDBRANCH   1   6
TORSDOF 2
ENDMDL
MODEL 4
REMARK VINA RESULT:    -2.918      2.208      2.404
REMARK INTER + INTRA:          -3.174
REMARK INTER:                  -3.174
REMARK INTRA:                   0.000
REMARK UNBOUND:                 0.000
REMARK SMILES [NH3+]CC(=O)[O-]
REMARK SMILES IDX 2 1 1 2 3 6 4 7 5 8
REMARK H PARENT 1 3 1 4 1 5
REMARK Flexibility Score: inf
ROOT
ATOM      1  C   UNL     1     101.725  69.907  74.163  1.00  0.00     0.312 C 
ENDROOT
BRANCH   1   2
ATOM      2  N   UNL     1     102.738  68.875  74.375  1.00  0.00    -0.353 N 
ATOM      3  H   UNL     1     103.686  69.290  74.223  1.00  0.00     0.344 HD
ATOM      4  H   UNL     1     102.599  68.090  73.698  1.00  0.00     0.344 HD
ATOM      5  H   UNL     1     102.681  68.512  75.355  1.00  0.00     0.344 HD
ENDBRANCH   1   2
BRANCH   1   6
ATOM      6  C   UNL     1     101.726  70.888  75.295  1.00  0.00     0.096 C 
ATOM      7  O   UNL     1     100.880  70.785  76.223  1.00  0.00    -0.544 OA
ATOM      8  O   UNL     1     102.692  71.884  75.353  1.00  0.00    -0.544 OA
ENDBRANCH   1   6
TORSDOF 2
ENDMDL
MODEL 5
REMARK VINA RESULT:    -2.462      7.697      8.034
REMARK INTER + INTRA:          -2.678
REMARK INTER:                  -2.678
REMARK INTRA:                   0.000
REMARK UNBOUND:                 0.000
REMARK SMILES [NH3+]CC(=O)[O-]
REMARK SMILES IDX 2 1 1 2 3 6 4 7 5 8
REMARK H PARENT 1 3 1 4 1 5
REMARK Flexibility Score: inf
ROOT
ATOM      1  C   UNL     1      99.649  71.540  82.890  1.00  0.00     0.312 C 
ENDROOT
BRANCH   1   2
ATOM      2  N   UNL     1      99.772  72.005  84.270  1.00  0.00    -0.353 N 
ATOM      3  H   UNL     1      99.046  72.736  84.451  1.00  0.00     0.344 HD
ATOM      4  H   UNL     1     100.719  72.422  84.426  1.00  0.00     0.344 HD
ATOM      5  H   UNL     1      99.622  71.209  84.932  1.00  0.00     0.344 HD
ENDBRANCH   1   2
BRANCH   1   6
ATOM      6  C   UNL     1     100.999  71.399  82.258  1.00  0.00     0.096 C 
ATOM      7  O   UNL     1     101.816  72.357  82.287  1.00  0.00    -0.544 OA
ATOM      8  O   UNL     1     101.376  70.192  81.682  1.00  0.00    -0.544 OA
ENDBRANCH   1   6
TORSDOF 2
ENDMDL
MODEL 6
REMARK VINA RESULT:    -2.407      8.166      8.708
REMARK INTER + INTRA:          -2.618
REMARK INTER:                  -2.618
REMARK INTRA:                   0.000
REMARK UNBOUND:                 0.000
REMARK SMILES [NH3+]CC(=O)[O-]
REMARK SMILES IDX 2 1 1 2 3 6 4 7 5 8
REMARK H PARENT 1 3 1 4 1 5
REMARK Flexibility Score: inf
ROOT
ATOM      1  C   UNL     1     100.302  71.140  82.901  1.00  0.00     0.312 C 
ENDROOT
BRANCH   1   2
ATOM      2  N   UNL     1     100.925  72.191  82.099  1.00  0.00    -0.353 N 
ATOM      3  H   UNL     1     101.963  72.142  82.217  1.00  0.00     0.344 HD
ATOM      4  H   UNL     1     100.592  73.131  82.417  1.00  0.00     0.344 HD
ATOM      5  H   UNL     1     100.692  72.057  81.088  1.00  0.00     0.344 HD
ENDBRANCH   1   2
BRANCH   1   6
ATOM      6  C   UNL     1      98.964  71.584  83.405  1.00  0.00     0.096 C 
ATOM      7  O   UNL     1      97.911  71.198  82.832  1.00  0.00    -0.544 OA
ATOM      8  O   UNL     1      98.876  72.381  84.539  1.00  0.00    -0.544 OA
ENDBRANCH   1   6
TORSDOF 2
ENDMDL
MODEL 7
REMARK VINA RESULT:    -2.386      1.998      2.436
REMARK INTER + INTRA:          -2.595
REMARK INTER:                  -2.595
REMARK INTRA:                   0.000
REMARK UNBOUND:                 0.000
REMARK SMILES [NH3+]CC(=O)[O-]
REMARK SMILES IDX 2 1 1 2 3 6 4 7 5 8
REMARK H PARENT 1 3 1 4 1 5
REMARK Flexibility Score: inf
ROOT
ATOM      1  C   UNL     1     101.288  70.222  76.212  1.00  0.00     0.312 C 
ENDROOT
BRANCH   1   2
ATOM      2  N   UNL     1     100.264  71.239  76.444  1.00  0.00    -0.353 N 
ATOM      3  H   UNL     1      99.683  70.956  77.266  1.00  0.00     0.344 HD
ATOM      4  H   UNL     1      99.645  71.324  75.605  1.00  0.00     0.344 HD
ATOM      5  H   UNL     1     100.713  72.161  76.648  1.00  0.00     0.344 HD
ENDBRANCH   1   2
BRANCH   1   6
ATOM      6  C   UNL     1     102.061  70.527  74.966  1.00  0.00     0.096 C 
ATOM      7  O   UNL     1     101.630  70.150  73.844  1.00  0.00    -0.544 OA
ATOM      8  O   UNL     1     103.230  71.274  75.037  1.00  0.00    -0.544 OA
ENDBRANCH   1   6
TORSDOF 2
ENDMDL
MODEL 8
REMARK VINA RESULT:    -2.354      8.204      8.626
REMARK INTER + INTRA:          -2.560
REMARK INTER:                  -2.560
REMARK INTRA:                   0.000
REMARK UNBOUND:                 0.000
REMARK SMILES [NH3+]CC(=O)[O-]
REMARK SMILES IDX 2 1 1 2 3 6 4 7 5 8
REMARK H PARENT 1 3 1 4 1 5
REMARK Flexibility Score: inf
ROOT
ATOM      1  C   UNL     1     100.282  71.134  82.919  1.00  0.00     0.312 C 
ENDROOT
BRANCH   1   2
ATOM      2  N   UNL     1     100.862  72.176  82.075  1.00  0.00    -0.353 N 
ATOM      3  H   UNL     1     101.844  72.358  82.383  1.00  0.00     0.344 HD
ATOM      4  H   UNL     1     100.309  73.060  82.164  1.00  0.00     0.344 HD
ATOM      5  H   UNL     1     100.873  71.865  81.076  1.00  0.00     0.344 HD
ENDBRANCH   1   2
BRANCH   1   6
ATOM      6  C   UNL     1      98.960  71.574  83.469  1.00  0.00     0.096 C 
ATOM      7  O   UNL     1      98.913  72.355  84.456  1.00  0.00    -0.544 OA
ATOM      8  O   UNL     1      97.781  71.164  82.860  1.00  0.00    -0.544 OA
ENDBRANCH   1   6
TORSDOF 2
ENDMDL
MODEL 9
REMARK VINA RESULT:    -2.291      3.039      3.250
REMARK INTER + INTRA:          -2.492
REMARK INTER:                  -2.492
REMARK INTRA:                   0.000
REMARK UNBOUND:                 0.000
REMARK SMILES [NH3+]CC(=O)[O-]
REMARK SMILES IDX 2 1 1 2 3 6 4 7 5 8
REMARK H PARENT 1 3 1 4 1 5
REMARK Flexibility Score: inf
ROOT
ATOM      1  C   UNL     1     103.227  71.612  75.147  1.00  0.00     0.312 C 
ENDROOT
BRANCH   1   2
ATOM      2  N   UNL     1     101.803  71.800  75.414  1.00  0.00    -0.353 N 
ATOM      3  H   UNL     1     101.405  70.909  75.790  1.00  0.00     0.344 HD
ATOM      4  H   UNL     1     101.301  72.049  74.531  1.00  0.00     0.344 HD
ATOM      5  H   UNL     1     101.667  72.557  76.124  1.00  0.00     0.344 HD
ENDBRANCH   1   2
BRANCH   1   6
ATOM      6  C   UNL     1     103.854  72.896  74.699  1.00  0.00     0.096 C 
ATOM      7  O   UNL     1     105.007  73.211  75.096  1.00  0.00    -0.544 OA
ATOM      8  O   UNL     1     103.188  73.719  73.801  1.00  0.00    -0.544 OA
ENDBRANCH   1   6
TORSDOF 2
ENDMDL
