MODEL 1
REMARK VINA RESULT:    -5.298      0.000      0.000
REMARK INTER + INTRA:          -5.705
REMARK INTER:                  -5.607
REMARK INTRA:                  -0.098
REMARK UNBOUND:                -0.098
REMARK SMILES C=C(C)[C@@H]1CC=C(C)C(=O)C1
REMARK SMILES IDX 8 1 7 2 6 3 5 4 4 5 11 6 9 7 10 8 2 9 1 10 3 11
REMARK H PARENT
REMARK Flexibility Score: inf
ROOT
ATOM      1  C   UNL     1     102.730 130.628  53.361  1.00  0.00     0.048 C 
ATOM      2  C   UNL     1     102.712 131.882  52.531  1.00  0.00    -0.012 C 
ATOM      3  C   UNL     1     103.769 132.714  52.540  1.00  0.00    -0.019 C 
ATOM      4  C   UNL     1     103.830 133.937  51.664  1.00  0.00     0.036 C 
ATOM      5  C   UNL     1     102.423 134.509  51.408  1.00  0.00     0.025 C 
ATOM      6  C   UNL     1     101.500 133.423  50.828  1.00  0.00     0.089 C 
ATOM      7  C   UNL     1     101.533 132.185  51.683  1.00  0.00     0.158 C 
ATOM      8  O   UNL     1     100.563 131.382  51.637  1.00  0.00    -0.295 OA
ENDROOT
BRANCH   5   9
ATOM      9  C   UNL     1     102.475 135.735  50.508  1.00  0.00    -0.077 C 
ATOM     10  C   UNL     1     103.639 136.374  50.305  1.00  0.00     0.008 C 
ATOM     11  C   UNL     1     101.236 136.264  49.827  1.00  0.00     0.039 C 
ENDBRANCH   5   9
TORSDOF 1
ENDMDL
MODEL 2
REMARK VINA RESULT:    -5.204      1.937      2.778
REMARK INTER + INTRA:          -5.606
REMARK INTER:                  -5.508
REMARK INTRA:                  -0.098
REMARK UNBOUND:                -0.098
REMARK SMILES C=C(C)[C@@H]1CC=C(C)C(=O)C1
REMARK SMILES IDX 8 1 7 2 6 3 5 4 4 5 11 6 9 7 10 8 2 9 1 10 3 11
REMARK H PARENT
REMARK Flexibility Score: inf
ROOT
ATOM      1  C   UNL     1      99.370 131.379  53.101  1.00  0.00     0.048 C 
ATOM      2  C   UNL     1     100.004 132.590  52.473  1.00  0.00    -0.012 C 
ATOM      3  C   UNL     1      99.504 133.101  51.334  1.00  0.00    -0.019 C 
ATOM      4  C   UNL     1     100.054 134.357  50.713  1.00  0.00     0.036 C 
ATOM      5  C   UNL     1     101.556 134.516  51.014  1.00  0.00     0.025 C 
ATOM      6  C   UNL     1     101.807 134.457  52.532  1.00  0.00     0.089 C 
ATOM      7  C   UNL     1     101.169 133.233  53.130  1.00  0.00     0.158 C 
ATOM      8  O   UNL     1     101.607 132.784  54.222  1.00  0.00    -0.295 OA
ENDROOT
BRANCH   5   9
ATOM      9  C   UNL     1     102.115 135.795  50.407  1.00  0.00    -0.077 C 
ATOM     10  C   UNL     1     101.329 136.583  49.656  1.00  0.00     0.008 C 
ATOM     11  C   UNL     1     103.550 136.207  50.623  1.00  0.00     0.039 C 
ENDBRANCH   5   9
TORSDOF 1
ENDMDL
MODEL 3
REMARK VINA RESULT:    -5.149      1.682      4.384
REMARK INTER + INTRA:          -5.548
REMARK INTER:                  -5.450
REMARK INTRA:                  -0.099
REMARK UNBOUND:                -0.098
REMARK SMILES C=C(C)[C@@H]1CC=C(C)C(=O)C1
REMARK SMILES IDX 8 1 7 2 6 3 5 4 4 5 11 6 9 7 10 8 2 9 1 10 3 11
REMARK H PARENT
REMARK Flexibility Score: inf
ROOT
ATOM      1  C   UNL     1     103.267 136.563  49.809  1.00  0.00     0.048 C 
ATOM      2  C   UNL     1     102.766 135.347  50.538  1.00  0.00    -0.012 C 
ATOM      3  C   UNL     1     103.569 134.694  51.397  1.00  0.00    -0.019 C 
ATOM      4  C   UNL     1     103.087 133.522  52.209  1.00  0.00     0.036 C 
ATOM      5  C   UNL     1     101.990 132.740  51.461  1.00  0.00     0.025 C 
ATOM      6  C   UNL     1     100.841 133.682  51.057  1.00  0.00     0.089 C 
ATOM      7  C   UNL     1     101.373 134.884  50.324  1.00  0.00     0.158 C 
ATOM      8  O   UNL     1     100.604 135.523  49.557  1.00  0.00    -0.295 OA
ENDROOT
BRANCH   5   9
ATOM      9  C   UNL     1     101.483 131.565  52.285  1.00  0.00    -0.077 C 
ATOM     10  C   UNL     1     100.164 131.378  52.452  1.00  0.00     0.008 C 
ATOM     11  C   UNL     1     102.435 130.590  52.933  1.00  0.00     0.039 C 
ENDBRANCH   5   9
TORSDOF 1
ENDMDL
MODEL 4
REMARK VINA RESULT:    -5.108      1.654      4.029
REMARK INTER + INTRA:          -5.504
REMARK INTER:                  -5.411
REMARK INTRA:                  -0.093
REMARK UNBOUND:                -0.098
REMARK SMILES C=C(C)[C@@H]1CC=C(C)C(=O)C1
REMARK SMILES IDX 8 1 7 2 6 3 5 4 4 5 11 6 9 7 10 8 2 9 1 10 3 11
REMARK H PARENT
REMARK Flexibility Score: inf
ROOT
ATOM      1  C   UNL     1     101.005 135.805  49.743  1.00  0.00     0.048 C 
ATOM      2  C   UNL     1     102.125 135.370  50.647  1.00  0.00    -0.012 C 
ATOM      3  C   UNL     1     103.126 136.218  50.940  1.00  0.00    -0.019 C 
ATOM      4  C   UNL     1     104.225 135.855  51.904  1.00  0.00     0.036 C 
ATOM      5  C   UNL     1     104.502 134.340  51.887  1.00  0.00     0.025 C 
ATOM      6  C   UNL     1     103.206 133.555  52.158  1.00  0.00     0.089 C 
ATOM      7  C   UNL     1     102.108 134.007  51.234  1.00  0.00     0.158 C 
ATOM      8  O   UNL     1     101.145 133.229  50.998  1.00  0.00    -0.295 OA
ENDROOT
BRANCH   5   9
ATOM      9  C   UNL     1     105.598 133.963  52.873  1.00  0.00    -0.077 C 
ATOM     10  C   UNL     1     106.808 134.540  52.790  1.00  0.00     0.008 C 
ATOM     11  C   UNL     1     105.362 132.940  53.958  1.00  0.00     0.039 C 
ENDBRANCH   5   9
TORSDOF 1
ENDMDL
MODEL 5
REMARK VINA RESULT:    -5.060      2.694      3.581
REMARK INTER + INTRA:          -5.454
REMARK INTER:                  -5.358
REMARK INTRA:                  -0.096
REMARK UNBOUND:                -0.098
REMARK SMILES C=C(C)[C@@H]1CC=C(C)C(=O)C1
REMARK SMILES IDX 8 1 7 2 6 3 5 4 4 5 11 6 9 7 10 8 2 9 1 10 3 11
REMARK H PARENT
REMARK Flexibility Score: inf
ROOT
ATOM      1  C   UNL     1     106.418 133.983  53.109  1.00  0.00     0.048 C 
ATOM      2  C   UNL     1     105.082 134.335  52.515  1.00  0.00    -0.012 C 
ATOM      3  C   UNL     1     104.166 133.376  52.293  1.00  0.00    -0.019 C 
ATOM      4  C   UNL     1     102.787 133.692  51.777  1.00  0.00     0.036 C 
ATOM      5  C   UNL     1     102.803 134.942  50.876  1.00  0.00     0.025 C 
ATOM      6  C   UNL     1     103.433 136.132  51.623  1.00  0.00     0.089 C 
ATOM      7  C   UNL     1     104.769 135.751  52.198  1.00  0.00     0.158 C 
ATOM      8  O   UNL     1     105.609 136.656  52.451  1.00  0.00    -0.295 OA
ENDROOT
BRANCH   5   9
ATOM      9  C   UNL     1     101.409 135.279  50.367  1.00  0.00    -0.077 C 
ATOM     10  C   UNL     1     101.209 136.384  49.631  1.00  0.00     0.008 C 
ATOM     11  C   UNL     1     100.225 134.394  50.672  1.00  0.00     0.039 C 
ENDBRANCH   5   9
TORSDOF 1
ENDMDL
MODEL 6
REMARK VINA RESULT:    -5.047      1.431      1.918
REMARK INTER + INTRA:          -5.440
REMARK INTER:                  -5.348
REMARK INTRA:                  -0.092
REMARK UNBOUND:                -0.098
REMARK SMILES C=C(C)[C@@H]1CC=C(C)C(=O)C1
REMARK SMILES IDX 8 1 7 2 6 3 5 4 4 5 11 6 9 7 10 8 2 9 1 10 3 11
REMARK H PARENT
REMARK Flexibility Score: inf
ROOT
ATOM      1  C   UNL     1      99.915 131.372  52.373  1.00  0.00     0.048 C 
ATOM      2  C   UNL     1     100.868 132.462  51.966  1.00  0.00    -0.012 C 
ATOM      3  C   UNL     1     102.173 132.369  52.274  1.00  0.00    -0.019 C 
ATOM      4  C   UNL     1     103.177 133.394  51.817  1.00  0.00     0.036 C 
ATOM      5  C   UNL     1     102.531 134.787  51.687  1.00  0.00     0.025 C 
ATOM      6  C   UNL     1     101.301 134.723  50.763  1.00  0.00     0.089 C 
ATOM      7  C   UNL     1     100.365 133.630  51.200  1.00  0.00     0.158 C 
ATOM      8  O   UNL     1      99.150 133.693  50.869  1.00  0.00    -0.295 OA
ENDROOT
BRANCH   5   9
ATOM      9  C   UNL     1     103.535 135.825  51.207  1.00  0.00    -0.077 C 
ATOM     10  C   UNL     1     104.601 136.132  51.963  1.00  0.00     0.008 C 
ATOM     11  C   UNL     1     103.363 136.533  49.885  1.00  0.00     0.039 C 
ENDBRANCH   5   9
TORSDOF 1
ENDMDL
MODEL 7
REMARK VINA RESULT:    -4.976      2.526      4.988
REMARK INTER + INTRA:          -5.365
REMARK INTER:                  -5.268
REMARK INTRA:                  -0.097
REMARK UNBOUND:                -0.098
REMARK SMILES C=C(C)[C@@H]1CC=C(C)C(=O)C1
REMARK SMILES IDX 8 1 7 2 6 3 5 4 4 5 11 6 9 7 10 8 2 9 1 10 3 11
REMARK H PARENT
REMARK Flexibility Score: inf
ROOT
ATOM      1  C   UNL     1     101.562 136.607  49.456  1.00  0.00     0.048 C 
ATOM      2  C   UNL     1     101.122 135.516  50.393  1.00  0.00    -0.012 C 
ATOM      3  C   UNL     1      99.979 134.846  50.162  1.00  0.00    -0.019 C 
ATOM      4  C   UNL     1      99.539 133.693  51.025  1.00  0.00     0.036 C 
ATOM      5  C   UNL     1     100.033 133.863  52.474  1.00  0.00     0.025 C 
ATOM      6  C   UNL     1     101.559 134.063  52.501  1.00  0.00     0.089 C 
ATOM      7  C   UNL     1     101.967 135.164  51.561  1.00  0.00     0.158 C 
ATOM      8  O   UNL     1     103.063 135.758  51.751  1.00  0.00    -0.295 OA
ENDROOT
BRANCH   5   9
ATOM      9  C   UNL     1      99.609 132.691  53.348  1.00  0.00    -0.077 C 
ATOM     10  C   UNL     1      99.627 131.442  52.856  1.00  0.00     0.008 C 
ATOM     11  C   UNL     1      99.159 132.896  54.774  1.00  0.00     0.039 C 
ENDBRANCH   5   9
TORSDOF 1
ENDMDL
MODEL 8
REMARK VINA RESULT:    -4.933      2.599      3.791
REMARK INTER + INTRA:          -5.319
REMARK INTER:                  -5.222
REMARK INTRA:                  -0.097
REMARK UNBOUND:                -0.098
REMARK SMILES C=C(C)[C@@H]1CC=C(C)C(=O)C1
REMARK SMILES IDX 8 1 7 2 6 3 5 4 4 5 11 6 9 7 10 8 2 9 1 10 3 11
REMARK H PARENT
REMARK Flexibility Score: inf
ROOT
ATOM      1  C   UNL     1      98.715 132.922  55.030  1.00  0.00     0.048 C 
ATOM      2  C   UNL     1      99.668 132.823  53.871  1.00  0.00    -0.012 C 
ATOM      3  C   UNL     1      99.710 131.706  53.124  1.00  0.00    -0.019 C 
ATOM      4  C   UNL     1     100.588 131.592  51.906  1.00  0.00     0.036 C 
ATOM      5  C   UNL     1     101.861 132.446  52.056  1.00  0.00     0.025 C 
ATOM      6  C   UNL     1     101.492 133.906  52.374  1.00  0.00     0.089 C 
ATOM      7  C   UNL     1     100.546 133.973  53.541  1.00  0.00     0.158 C 
ATOM      8  O   UNL     1     100.473 135.038  54.211  1.00  0.00    -0.295 OA
ENDROOT
BRANCH   5   9
ATOM      9  C   UNL     1     102.745 132.351  50.820  1.00  0.00    -0.077 C 
ATOM     10  C   UNL     1     102.717 131.248  50.055  1.00  0.00     0.008 C 
ATOM     11  C   UNL     1     103.668 133.477  50.425  1.00  0.00     0.039 C 
ENDBRANCH   5   9
TORSDOF 1
ENDMDL
MODEL 9
REMARK VINA RESULT:    -4.853      2.220      4.940
REMARK INTER + INTRA:          -5.235
REMARK INTER:                  -5.137
REMARK INTRA:                  -0.098
REMARK UNBOUND:                -0.098
REMARK SMILES C=C(C)[C@@H]1CC=C(C)C(=O)C1
REMARK SMILES IDX 8 1 7 2 6 3 5 4 4 5 11 6 9 7 10 8 2 9 1 10 3 11
REMARK H PARENT
REMARK Flexibility Score: inf
ROOT
ATOM      1  C   UNL     1     103.188 136.270  50.147  1.00  0.00     0.048 C 
ATOM      2  C   UNL     1     103.336 134.986  50.915  1.00  0.00    -0.012 C 
ATOM      3  C   UNL     1     102.621 133.902  50.566  1.00  0.00    -0.019 C 
ATOM      4  C   UNL     1     102.795 132.574  51.253  1.00  0.00     0.036 C 
ATOM      5  C   UNL     1     103.211 132.759  52.725  1.00  0.00     0.025 C 
ATOM      6  C   UNL     1     104.474 133.634  52.819  1.00  0.00     0.089 C 
ATOM      7  C   UNL     1     104.293 134.913  52.047  1.00  0.00     0.158 C 
ATOM      8  O   UNL     1     104.999 135.914  52.345  1.00  0.00    -0.295 OA
ENDROOT
BRANCH   5   9
ATOM      9  C   UNL     1     103.408 131.420  53.421  1.00  0.00    -0.077 C 
ATOM     10  C   UNL     1     102.802 130.319  52.948  1.00  0.00     0.008 C 
ATOM     11  C   UNL     1     104.275 131.292  54.650  1.00  0.00     0.039 C 
ENDBRANCH   5   9
TORSDOF 1
ENDMDL
