MODEL 1
REMARK VINA RESULT:    -3.007      0.000      0.000
REMARK INTER + INTRA:          -3.563
REMARK INTER:                  -3.534
REMARK INTRA:                  -0.029
REMARK UNBOUND:                -0.029
REMARK SMILES CCCCC(=O)[O-]
REMARK SMILES IDX 4 1 5 2 6 3 7 4 3 5 2 6 1 7
REMARK H PARENT
REMARK Flexibility Score: inf
ROOT
ATOM      1  C   UNL     1      -3.914  -3.613  35.472  1.00  0.00     0.053 C 
ENDROOT
BRANCH   1   2
ATOM      2  C   UNL     1      -3.605  -3.058  34.119  1.00  0.00     0.041 C 
ATOM      3  O   UNL     1      -3.960  -3.678  33.083  1.00  0.00    -0.550 OA
ATOM      4  O   UNL     1      -2.880  -1.878  34.000  1.00  0.00    -0.550 OA
ENDBRANCH   1   2
BRANCH   1   5
ATOM      5  C   UNL     1      -5.345  -3.249  35.887  1.00  0.00     0.006 C 
BRANCH   5   6
ATOM      6  C   UNL     1      -5.394  -2.432  37.187  1.00  0.00    -0.003 C 
ATOM      7  C   UNL     1      -6.502  -1.379  37.182  1.00  0.00     0.004 C 
ENDBRANCH   5   6
ENDBRANCH   1   5
TORSDOF 3
ENDMDL
MODEL 2
REMARK VINA RESULT:    -2.983      0.539      1.460
REMARK INTER + INTRA:          -3.534
REMARK INTER:                  -3.481
REMARK INTRA:                  -0.054
REMARK UNBOUND:                -0.029
REMARK SMILES CCCCC(=O)[O-]
REMARK SMILES IDX 4 1 5 2 6 3 7 4 3 5 2 6 1 7
REMARK H PARENT
REMARK Flexibility Score: inf
ROOT
ATOM      1  C   UNL     1      -3.876  -3.361  35.575  1.00  0.00     0.053 C 
ENDROOT
BRANCH   1   2
ATOM      2  C   UNL     1      -3.515  -2.934  34.188  1.00  0.00     0.041 C 
ATOM      3  O   UNL     1      -2.891  -1.858  33.998  1.00  0.00    -0.550 OA
ATOM      4  O   UNL     1      -3.911  -3.701  33.099  1.00  0.00    -0.550 OA
ENDBRANCH   1   2
BRANCH   1   5
ATOM      5  C   UNL     1      -5.400  -3.372  35.752  1.00  0.00     0.006 C 
BRANCH   5   6
ATOM      6  C   UNL     1      -5.875  -2.389  36.833  1.00  0.00    -0.003 C 
ATOM      7  C   UNL     1      -4.817  -2.133  37.905  1.00  0.00     0.004 C 
ENDBRANCH   5   6
ENDBRANCH   1   5
TORSDOF 3
ENDMDL
MODEL 3
REMARK VINA RESULT:    -2.881      1.881      3.112
REMARK INTER + INTRA:          -3.415
REMARK INTER:                  -3.340
REMARK INTRA:                  -0.075
REMARK UNBOUND:                -0.029
REMARK SMILES CCCCC(=O)[O-]
REMARK SMILES IDX 4 1 5 2 6 3 7 4 3 5 2 6 1 7
REMARK H PARENT
REMARK Flexibility Score: inf
ROOT
ATOM      1  C   UNL     1      -4.376  -3.487  35.567  1.00  0.00     0.053 C 
ENDROOT
BRANCH   1   2
ATOM      2  C   UNL     1      -4.496  -2.979  34.165  1.00  0.00     0.041 C 
ATOM      3  O   UNL     1      -5.184  -1.954  33.920  1.00  0.00    -0.550 OA
ATOM      4  O   UNL     1      -3.888  -3.666  33.122  1.00  0.00    -0.550 OA
ENDBRANCH   1   2
BRANCH   1   5
ATOM      5  C   UNL     1      -2.910  -3.784  35.906  1.00  0.00     0.006 C 
BRANCH   5   6
ATOM      6  C   UNL     1      -2.031  -2.524  35.882  1.00  0.00    -0.003 C 
ATOM      7  C   UNL     1      -0.609  -2.787  36.374  1.00  0.00     0.004 C 
ENDBRANCH   5   6
ENDBRANCH   1   5
TORSDOF 3
ENDMDL
MODEL 4
REMARK VINA RESULT:    -2.871      1.340      1.570
REMARK INTER + INTRA:          -3.403
REMARK INTER:                  -3.340
REMARK INTRA:                  -0.063
REMARK UNBOUND:                -0.029
REMARK SMILES CCCCC(=O)[O-]
REMARK SMILES IDX 4 1 5 2 6 3 7 4 3 5 2 6 1 7
REMARK H PARENT
REMARK Flexibility Score: inf
ROOT
ATOM      1  C   UNL     1      -5.302  -2.516  35.037  1.00  0.00     0.053 C 
ENDROOT
BRANCH   1   2
ATOM      2  C   UNL     1      -4.131  -3.348  34.622  1.00  0.00     0.041 C 
ATOM      3  O   UNL     1      -3.875  -3.519  33.401  1.00  0.00    -0.550 OA
ATOM      4  O   UNL     1      -3.349  -3.977  35.583  1.00  0.00    -0.550 OA
ENDBRANCH   1   2
BRANCH   1   5
ATOM      5  C   UNL     1      -5.725  -2.863  36.470  1.00  0.00     0.006 C 
BRANCH   5   6
ATOM      6  C   UNL     1      -5.869  -1.619  37.360  1.00  0.00    -0.003 C 
ATOM      7  C   UNL     1      -4.849  -1.585  38.498  1.00  0.00     0.004 C 
ENDBRANCH   5   6
ENDBRANCH   1   5
TORSDOF 3
ENDMDL
MODEL 5
REMARK VINA RESULT:    -2.720      1.795      2.424
REMARK INTER + INTRA:          -3.226
REMARK INTER:                  -3.146
REMARK INTRA:                  -0.080
REMARK UNBOUND:                -0.029
REMARK SMILES CCCCC(=O)[O-]
REMARK SMILES IDX 4 1 5 2 6 3 7 4 3 5 2 6 1 7
REMARK H PARENT
REMARK Flexibility Score: inf
ROOT
ATOM      1  C   UNL     1      -2.851  -3.614  36.103  1.00  0.00     0.053 C 
ENDROOT
BRANCH   1   2
ATOM      2  C   UNL     1      -1.684  -2.738  35.777  1.00  0.00     0.041 C 
ATOM      3  O   UNL     1      -1.800  -1.819  34.926  1.00  0.00    -0.550 OA
ATOM      4  O   UNL     1      -0.452  -2.969  36.378  1.00  0.00    -0.550 OA
ENDBRANCH   1   2
BRANCH   1   5
ATOM      5  C   UNL     1      -3.926  -3.502  35.014  1.00  0.00     0.006 C 
BRANCH   5   6
ATOM      6  C   UNL     1      -5.339  -3.339  35.594  1.00  0.00    -0.003 C 
ATOM      7  C   UNL     1      -5.365  -2.470  36.851  1.00  0.00     0.004 C 
ENDBRANCH   5   6
ENDBRANCH   1   5
TORSDOF 3
ENDMDL
MODEL 6
REMARK VINA RESULT:    -2.659      3.083      3.688
REMARK INTER + INTRA:          -3.153
REMARK INTER:                  -3.128
REMARK INTRA:                  -0.026
REMARK UNBOUND:                -0.029
REMARK SMILES CCCCC(=O)[O-]
REMARK SMILES IDX 4 1 5 2 6 3 7 4 3 5 2 6 1 7
REMARK H PARENT
REMARK Flexibility Score: inf
ROOT
ATOM      1  C   UNL     1      -2.013  -2.501  35.399  1.00  0.00     0.053 C 
ENDROOT
BRANCH   1   2
ATOM      2  C   UNL     1      -0.982  -2.126  36.416  1.00  0.00     0.041 C 
ATOM      3  O   UNL     1       0.016  -2.868  36.609  1.00  0.00    -0.550 OA
ATOM      4  O   UNL     1      -1.149  -0.983  37.188  1.00  0.00    -0.550 OA
ENDBRANCH   1   2
BRANCH   1   5
ATOM      5  C   UNL     1      -2.990  -3.531  35.981  1.00  0.00     0.006 C 
BRANCH   5   6
ATOM      6  C   UNL     1      -4.278  -3.656  35.153  1.00  0.00    -0.003 C 
ATOM      7  C   UNL     1      -4.067  -3.317  33.678  1.00  0.00     0.004 C 
ENDBRANCH   5   6
ENDBRANCH   1   5
TORSDOF 3
ENDMDL
MODEL 7
REMARK VINA RESULT:    -2.540     11.904     12.741
REMARK INTER + INTRA:          -3.014
REMARK INTER:                  -2.991
REMARK INTRA:                  -0.023
REMARK UNBOUND:                -0.029
REMARK SMILES CCCCC(=O)[O-]
REMARK SMILES IDX 4 1 5 2 6 3 7 4 3 5 2 6 1 7
REMARK H PARENT
REMARK Flexibility Score: inf
ROOT
ATOM      1  C   UNL     1     -10.861 -12.299  36.869  1.00  0.00     0.053 C 
ENDROOT
BRANCH   1   2
ATOM      2  C   UNL     1     -11.830 -11.637  37.796  1.00  0.00     0.041 C 
ATOM      3  O   UNL     1     -11.671 -11.715  39.042  1.00  0.00    -0.550 OA
ATOM      4  O   UNL     1     -12.940 -10.974  37.284  1.00  0.00    -0.550 OA
ENDBRANCH   1   2
BRANCH   1   5
ATOM      5  C   UNL     1      -9.831 -13.112  37.664  1.00  0.00     0.006 C 
BRANCH   5   6
ATOM      6  C   UNL     1     -10.253 -14.578  37.851  1.00  0.00    -0.003 C 
ATOM      7  C   UNL     1     -11.238 -15.049  36.782  1.00  0.00     0.004 C 
ENDBRANCH   5   6
ENDBRANCH   1   5
TORSDOF 3
ENDMDL
MODEL 8
REMARK VINA RESULT:    -2.490      2.399      2.770
REMARK INTER + INTRA:          -2.955
REMARK INTER:                  -2.908
REMARK INTRA:                  -0.047
REMARK UNBOUND:                -0.029
REMARK SMILES CCCCC(=O)[O-]
REMARK SMILES IDX 4 1 5 2 6 3 7 4 3 5 2 6 1 7
REMARK H PARENT
REMARK Flexibility Score: inf
ROOT
ATOM      1  C   UNL     1      -5.111  -2.201  34.627  1.00  0.00     0.053 C 
ENDROOT
BRANCH   1   2
ATOM      2  C   UNL     1      -4.212  -3.358  34.326  1.00  0.00     0.041 C 
ATOM      3  O   UNL     1      -3.921  -3.641  33.134  1.00  0.00    -0.550 OA
ATOM      4  O   UNL     1      -3.732  -4.154  35.359  1.00  0.00    -0.550 OA
ENDBRANCH   1   2
BRANCH   1   5
ATOM      5  C   UNL     1      -4.376  -0.875  34.392  1.00  0.00     0.006 C 
BRANCH   5   6
ATOM      6  C   UNL     1      -5.222   0.138  33.606  1.00  0.00    -0.003 C 
ATOM      7  C   UNL     1      -6.723  -0.045  33.832  1.00  0.00     0.004 C 
ENDBRANCH   5   6
ENDBRANCH   1   5
TORSDOF 3
ENDMDL
MODEL 9
REMARK VINA RESULT:    -2.473      2.737      3.904
REMARK INTER + INTRA:          -2.936
REMARK INTER:                  -2.837
REMARK INTRA:                  -0.098
REMARK UNBOUND:                -0.029
REMARK SMILES CCCCC(=O)[O-]
REMARK SMILES IDX 4 1 5 2 6 3 7 4 3 5 2 6 1 7
REMARK H PARENT
REMARK Flexibility Score: inf
ROOT
ATOM      1  C   UNL     1      -5.434  -1.731  35.358  1.00  0.00     0.053 C 
ENDROOT
BRANCH   1   2
ATOM      2  C   UNL     1      -5.814  -1.935  36.790  1.00  0.00     0.041 C 
ATOM      3  O   UNL     1      -5.116  -2.675  37.532  1.00  0.00    -0.550 OA
ATOM      4  O   UNL     1      -6.968  -1.347  37.294  1.00  0.00    -0.550 OA
ENDBRANCH   1   2
BRANCH   1   5
ATOM      5  C   UNL     1      -5.088  -3.072  34.699  1.00  0.00     0.006 C 
BRANCH   5   6
ATOM      6  C   UNL     1      -3.784  -3.013  33.889  1.00  0.00    -0.003 C 
ATOM      7  C   UNL     1      -2.638  -2.363  34.663  1.00  0.00     0.004 C 
ENDBRANCH   5   6
ENDBRANCH   1   5
TORSDOF 3
ENDMDL
