MODEL 1
REMARK VINA RESULT:    -3.189      0.000      0.000
REMARK INTER + INTRA:          -7.846
REMARK INTER:                  -5.612
REMARK INTRA:                  -2.234
REMARK UNBOUND:                -2.234
REMARK SMILES CCCCCCC=CCCCCCCCC(=O)[O-]
REMARK SMILES IDX 10 1 11 2 12 3 13 4 14 5 15 6 16 7 17 8 18 9 9 10 8 11 7 12
REMARK SMILES IDX 6 13 5 14 4 15 3 16 2 17 1 18
REMARK H PARENT
REMARK Flexibility Score: inf
ROOT
ATOM      1  C   UNL     1      60.381  18.212  52.076  1.00  0.00     0.004 C 
ENDROOT
BRANCH   1   2
ATOM      2  C   UNL     1      60.992  19.517  51.528  1.00  0.00     0.000 C 
BRANCH   2   3
ATOM      3  C   UNL     1      59.993  20.337  50.695  1.00  0.00     0.000 C 
BRANCH   3   4
ATOM      4  C   UNL     1      60.182  20.141  49.182  1.00  0.00     0.000 C 
BRANCH   4   5
ATOM      5  C   UNL     1      60.785  21.375  48.494  1.00  0.00     0.006 C 
BRANCH   5   6
ATOM      6  C   UNL     1      60.683  22.609  49.396  1.00  0.00     0.053 C 
BRANCH   6   7
ATOM      7  C   UNL     1      62.019  23.271  49.532  1.00  0.00     0.041 C 
ATOM      8  O   UNL     1      62.116  24.391  50.097  1.00  0.00    -0.550 OA
ATOM      9  O   UNL     1      63.163  22.626  49.079  1.00  0.00    -0.550 OA
ENDBRANCH   6   7
ENDBRANCH   5   6
ENDBRANCH   4   5
ENDBRANCH   3   4
ENDBRANCH   2   3
ENDBRANCH   1   2
BRANCH   1  10
ATOM     10  C   UNL     1      60.462  17.033  51.092  1.00  0.00     0.027 C 
BRANCH  10  11
ATOM     11  C   UNL     1      59.265  16.120  51.206  1.00  0.00    -0.031 C 
ATOM     12  C   UNL     1      58.119  16.251  50.511  1.00  0.00    -0.031 C 
BRANCH  12  13
ATOM     13  C   UNL     1      57.848  17.318  49.479  1.00  0.00     0.027 C 
BRANCH  13  14
ATOM     14  C   UNL     1      56.617  18.173  49.827  1.00  0.00     0.004 C 
BRANCH  14  15
ATOM     15  C   UNL     1      56.215  18.119  51.312  1.00  0.00     0.000 C 
BRANCH  15  16
ATOM     16  C   UNL     1      56.824  19.269  52.135  1.00  0.00    -0.000 C 
BRANCH  16  17
ATOM     17  C   UNL     1      56.830  18.973  53.643  1.00  0.00    -0.003 C 
ATOM     18  C   UNL     1      57.243  17.535  53.960  1.00  0.00     0.004 C 
ENDBRANCH  16  17
ENDBRANCH  15  16
ENDBRANCH  14  15
ENDBRANCH  13  14
ENDBRANCH  12  13
ENDBRANCH  10  11
ENDBRANCH   1  10
TORSDOF 13
ENDMDL
MODEL 2
REMARK VINA RESULT:    -3.078     13.148     15.566
REMARK INTER + INTRA:          -7.651
REMARK INTER:                  -5.536
REMARK INTRA:                  -2.114
REMARK UNBOUND:                -2.234
REMARK SMILES CCCCCCC=CCCCCCCCC(=O)[O-]
REMARK SMILES IDX 10 1 11 2 12 3 13 4 14 5 15 6 16 7 17 8 18 9 9 10 8 11 7 12
REMARK SMILES IDX 6 13 5 14 4 15 3 16 2 17 1 18
REMARK H PARENT
REMARK Flexibility Score: inf
ROOT
ATOM      1  C   UNL     1      61.820  28.512  60.474  1.00  0.00     0.004 C 
ENDROOT
BRANCH   1   2
ATOM      2  C   UNL     1      62.941  29.396  61.057  1.00  0.00     0.000 C 
BRANCH   2   3
ATOM      3  C   UNL     1      64.346  28.920  60.651  1.00  0.00     0.000 C 
BRANCH   3   4
ATOM      4  C   UNL     1      64.325  27.991  59.426  1.00  0.00     0.000 C 
BRANCH   4   5
ATOM      5  C   UNL     1      64.986  28.621  58.191  1.00  0.00     0.006 C 
BRANCH   5   6
ATOM      6  C   UNL     1      66.005  29.689  58.600  1.00  0.00     0.053 C 
BRANCH   6   7
ATOM      7  C   UNL     1      67.393  29.133  58.553  1.00  0.00     0.041 C 
ATOM      8  O   UNL     1      67.840  28.462  59.520  1.00  0.00    -0.550 OA
ATOM      9  O   UNL     1      68.176  29.312  57.420  1.00  0.00    -0.550 OA
ENDBRANCH   6   7
ENDBRANCH   5   6
ENDBRANCH   4   5
ENDBRANCH   3   4
ENDBRANCH   2   3
ENDBRANCH   1   2
BRANCH   1  10
ATOM     10  C   UNL     1      60.773  29.298  59.668  1.00  0.00     0.027 C 
BRANCH  10  11
ATOM     11  C   UNL     1      61.212  29.523  58.241  1.00  0.00    -0.031 C 
ATOM     12  C   UNL     1      61.757  30.659  57.766  1.00  0.00    -0.031 C 
BRANCH  12  13
ATOM     13  C   UNL     1      62.047  31.891  58.588  1.00  0.00     0.027 C 
BRANCH  13  14
ATOM     14  C   UNL     1      63.532  32.293  58.540  1.00  0.00     0.004 C 
BRANCH  14  15
ATOM     15  C   UNL     1      64.104  32.744  59.897  1.00  0.00     0.000 C 
BRANCH  15  16
ATOM     16  C   UNL     1      63.888  34.245  60.163  1.00  0.00    -0.000 C 
BRANCH  16  17
ATOM     17  C   UNL     1      64.522  34.704  61.485  1.00  0.00    -0.003 C 
ATOM     18  C   UNL     1      63.704  35.789  62.186  1.00  0.00     0.004 C 
ENDBRANCH  16  17
ENDBRANCH  15  16
ENDBRANCH  14  15
ENDBRANCH  13  14
ENDBRANCH  12  13
ENDBRANCH  10  11
ENDBRANCH   1  10
TORSDOF 13
ENDMDL
MODEL 3
REMARK VINA RESULT:    -3.051     13.196     15.981
REMARK INTER + INTRA:          -7.604
REMARK INTER:                  -6.224
REMARK INTRA:                  -1.380
REMARK UNBOUND:                -2.234
REMARK SMILES CCCCCCC=CCCCCCCCC(=O)[O-]
REMARK SMILES IDX 10 1 11 2 12 3 13 4 14 5 15 6 16 7 17 8 18 9 9 10 8 11 7 12
REMARK SMILES IDX 6 13 5 14 4 15 3 16 2 17 1 18
REMARK H PARENT
REMARK Flexibility Score: inf
ROOT
ATOM      1  C   UNL     1      63.146  28.292  60.335  1.00  0.00     0.004 C 
ENDROOT
BRANCH   1   2
ATOM      2  C   UNL     1      62.102  29.034  61.192  1.00  0.00     0.000 C 
BRANCH   2   3
ATOM      3  C   UNL     1      60.767  29.241  60.456  1.00  0.00     0.000 C 
BRANCH   3   4
ATOM      4  C   UNL     1      60.587  28.277  59.272  1.00  0.00     0.000 C 
BRANCH   4   5
ATOM      5  C   UNL     1      59.304  27.439  59.378  1.00  0.00     0.006 C 
BRANCH   5   6
ATOM      6  C   UNL     1      59.633  25.966  59.639  1.00  0.00     0.053 C 
BRANCH   6   7
ATOM      7  C   UNL     1      59.755  25.709  61.109  1.00  0.00     0.041 C 
ATOM      8  O   UNL     1      58.737  25.413  61.787  1.00  0.00    -0.550 OA
ATOM      9  O   UNL     1      61.003  25.747  61.719  1.00  0.00    -0.550 OA
ENDBRANCH   6   7
ENDBRANCH   5   6
ENDBRANCH   4   5
ENDBRANCH   3   4
ENDBRANCH   2   3
ENDBRANCH   1   2
BRANCH   1  10
ATOM     10  C   UNL     1      64.046  29.230  59.513  1.00  0.00     0.027 C 
BRANCH  10  11
ATOM     11  C   UNL     1      64.377  30.496  60.265  1.00  0.00    -0.031 C 
ATOM     12  C   UNL     1      63.884  31.718  59.985  1.00  0.00    -0.031 C 
BRANCH  12  13
ATOM     13  C   UNL     1      62.894  32.021  58.888  1.00  0.00     0.027 C 
BRANCH  13  14
ATOM     14  C   UNL     1      62.904  33.506  58.483  1.00  0.00     0.004 C 
BRANCH  14  15
ATOM     15  C   UNL     1      63.541  34.438  59.530  1.00  0.00     0.000 C 
BRANCH  15  16
ATOM     16  C   UNL     1      62.521  35.392  60.176  1.00  0.00    -0.000 C 
BRANCH  16  17
ATOM     17  C   UNL     1      62.962  35.866  61.570  1.00  0.00    -0.003 C 
ATOM     18  C   UNL     1      64.292  35.253  62.008  1.00  0.00     0.004 C 
ENDBRANCH  16  17
ENDBRANCH  15  16
ENDBRANCH  14  15
ENDBRANCH  13  14
ENDBRANCH  12  13
ENDBRANCH  10  11
ENDBRANCH   1  10
TORSDOF 13
ENDMDL
MODEL 4
REMARK VINA RESULT:    -3.031      4.316      7.766
REMARK INTER + INTRA:          -7.568
REMARK INTER:                  -6.246
REMARK INTRA:                  -1.322
REMARK UNBOUND:                -2.234
REMARK SMILES CCCCCCC=CCCCCCCCC(=O)[O-]
REMARK SMILES IDX 10 1 11 2 12 3 13 4 14 5 15 6 16 7 17 8 18 9 9 10 8 11 7 12
REMARK SMILES IDX 6 13 5 14 4 15 3 16 2 17 1 18
REMARK H PARENT
REMARK Flexibility Score: inf
ROOT
ATOM      1  C   UNL     1      61.514  23.904  49.768  1.00  0.00     0.004 C 
ENDROOT
BRANCH   1   2
ATOM      2  C   UNL     1      61.957  22.512  49.275  1.00  0.00     0.000 C 
BRANCH   2   3
ATOM      3  C   UNL     1      61.339  21.367  50.096  1.00  0.00     0.000 C 
BRANCH   3   4
ATOM      4  C   UNL     1      60.302  20.559  49.299  1.00  0.00     0.000 C 
BRANCH   4   5
ATOM      5  C   UNL     1      59.876  19.269  50.016  1.00  0.00     0.006 C 
BRANCH   5   6
ATOM      6  C   UNL     1      59.112  18.342  49.066  1.00  0.00     0.053 C 
BRANCH   6   7
ATOM      7  C   UNL     1      57.910  17.768  49.750  1.00  0.00     0.041 C 
ATOM      8  O   UNL     1      57.660  16.537  49.662  1.00  0.00    -0.550 OA
ATOM      9  O   UNL     1      57.096  18.583  50.525  1.00  0.00    -0.550 OA
ENDBRANCH   6   7
ENDBRANCH   5   6
ENDBRANCH   4   5
ENDBRANCH   3   4
ENDBRANCH   2   3
ENDBRANCH   1   2
BRANCH   1  10
ATOM     10  C   UNL     1      60.069  24.262  49.385  1.00  0.00     0.027 C 
BRANCH  10  11
ATOM     11  C   UNL     1      59.146  24.237  50.579  1.00  0.00    -0.031 C 
ATOM     12  C   UNL     1      57.991  24.922  50.684  1.00  0.00    -0.031 C 
BRANCH  12  13
ATOM     13  C   UNL     1      57.411  25.810  49.611  1.00  0.00     0.027 C 
BRANCH  13  14
ATOM     14  C   UNL     1      57.085  27.222  50.130  1.00  0.00     0.004 C 
BRANCH  14  15
ATOM     15  C   UNL     1      57.699  28.357  49.289  1.00  0.00     0.000 C 
BRANCH  15  16
ATOM     16  C   UNL     1      59.076  27.988  48.709  1.00  0.00    -0.000 C 
BRANCH  16  17
ATOM     17  C   UNL     1      60.235  28.547  49.548  1.00  0.00    -0.003 C 
ATOM     18  C   UNL     1      61.478  27.657  49.504  1.00  0.00     0.004 C 
ENDBRANCH  16  17
ENDBRANCH  15  16
ENDBRANCH  14  15
ENDBRANCH  13  14
ENDBRANCH  12  13
ENDBRANCH  10  11
ENDBRANCH   1  10
TORSDOF 13
ENDMDL
MODEL 5
REMARK VINA RESULT:    -2.995     14.346     17.698
REMARK INTER + INTRA:          -7.506
REMARK INTER:                  -5.748
REMARK INTRA:                  -1.758
REMARK UNBOUND:                -2.234
REMARK SMILES CCCCCCC=CCCCCCCCC(=O)[O-]
REMARK SMILES IDX 10 1 11 2 12 3 13 4 14 5 15 6 16 7 17 8 18 9 9 10 8 11 7 12
REMARK SMILES IDX 6 13 5 14 4 15 3 16 2 17 1 18
REMARK H PARENT
REMARK Flexibility Score: inf
ROOT
ATOM      1  C   UNL     1      69.328  28.264  61.033  1.00  0.00     0.004 C 
ENDROOT
BRANCH   1   2
ATOM      2  C   UNL     1      69.529  27.231  59.908  1.00  0.00     0.000 C 
BRANCH   2   3
ATOM      3  C   UNL     1      68.772  27.599  58.620  1.00  0.00     0.000 C 
BRANCH   3   4
ATOM      4  C   UNL     1      67.843  28.810  58.805  1.00  0.00     0.000 C 
BRANCH   4   5
ATOM      5  C   UNL     1      66.356  28.431  58.754  1.00  0.00     0.006 C 
BRANCH   5   6
ATOM      6  C   UNL     1      65.618  28.940  59.996  1.00  0.00     0.053 C 
BRANCH   6   7
ATOM      7  C   UNL     1      64.912  30.225  59.695  1.00  0.00     0.041 C 
ATOM      8  O   UNL     1      64.956  30.716  58.537  1.00  0.00    -0.550 OA
ATOM      9  O   UNL     1      64.162  30.852  60.682  1.00  0.00    -0.550 OA
ENDBRANCH   6   7
ENDBRANCH   5   6
ENDBRANCH   4   5
ENDBRANCH   3   4
ENDBRANCH   2   3
ENDBRANCH   1   2
BRANCH   1  10
ATOM     10  C   UNL     1      70.620  28.995  61.435  1.00  0.00     0.027 C 
BRANCH  10  11
ATOM     11  C   UNL     1      71.850  28.300  60.906  1.00  0.00    -0.031 C 
ATOM     12  C   UNL     1      72.757  28.849  60.075  1.00  0.00    -0.031 C 
BRANCH  12  13
ATOM     13  C   UNL     1      72.710  30.265  59.555  1.00  0.00     0.027 C 
BRANCH  13  14
ATOM     14  C   UNL     1      71.821  30.403  58.306  1.00  0.00     0.004 C 
BRANCH  14  15
ATOM     15  C   UNL     1      70.579  31.288  58.515  1.00  0.00     0.000 C 
BRANCH  15  16
ATOM     16  C   UNL     1      70.663  32.621  57.750  1.00  0.00    -0.000 C 
BRANCH  16  17
ATOM     17  C   UNL     1      70.484  33.838  58.670  1.00  0.00    -0.003 C 
ATOM     18  C   UNL     1      70.956  33.570  60.100  1.00  0.00     0.004 C 
ENDBRANCH  16  17
ENDBRANCH  15  16
ENDBRANCH  14  15
ENDBRANCH  13  14
ENDBRANCH  12  13
ENDBRANCH  10  11
ENDBRANCH   1  10
TORSDOF 13
ENDMDL
MODEL 6
REMARK VINA RESULT:    -2.987      7.079      9.857
REMARK INTER + INTRA:          -7.492
REMARK INTER:                  -5.175
REMARK INTRA:                  -2.317
REMARK UNBOUND:                -2.234
REMARK SMILES CCCCCCC=CCCCCCCCC(=O)[O-]
REMARK SMILES IDX 10 1 11 2 12 3 13 4 14 5 15 6 16 7 17 8 18 9 9 10 8 11 7 12
REMARK SMILES IDX 6 13 5 14 4 15 3 16 2 17 1 18
REMARK H PARENT
REMARK Flexibility Score: inf
ROOT
ATOM      1  C   UNL     1      58.819  27.567  52.419  1.00  0.00     0.004 C 
ENDROOT
BRANCH   1   2
ATOM      2  C   UNL     1      59.618  28.805  51.970  1.00  0.00     0.000 C 
BRANCH   2   3
ATOM      3  C   UNL     1      60.668  28.477  50.895  1.00  0.00     0.000 C 
BRANCH   3   4
ATOM      4  C   UNL     1      60.101  28.557  49.469  1.00  0.00     0.000 C 
BRANCH   4   5
ATOM      5  C   UNL     1      60.425  27.311  48.630  1.00  0.00     0.006 C 
BRANCH   5   6
ATOM      6  C   UNL     1      59.425  26.186  48.913  1.00  0.00     0.053 C 
BRANCH   6   7
ATOM      7  C   UNL     1      60.126  24.994  49.486  1.00  0.00     0.041 C 
ATOM      8  O   UNL     1      59.462  24.017  49.922  1.00  0.00    -0.550 OA
ATOM      9  O   UNL     1      61.514  24.941  49.492  1.00  0.00    -0.550 OA
ENDBRANCH   6   7
ENDBRANCH   5   6
ENDBRANCH   4   5
ENDBRANCH   3   4
ENDBRANCH   2   3
ENDBRANCH   1   2
BRANCH   1  10
ATOM     10  C   UNL     1      57.295  27.760  52.351  1.00  0.00     0.027 C 
BRANCH  10  11
ATOM     11  C   UNL     1      56.710  27.188  51.083  1.00  0.00    -0.031 C 
ATOM     12  C   UNL     1      56.376  27.902  49.991  1.00  0.00    -0.031 C 
BRANCH  12  13
ATOM     13  C   UNL     1      56.557  29.392  49.841  1.00  0.00     0.027 C 
BRANCH  13  14
ATOM     14  C   UNL     1      55.215  30.143  49.777  1.00  0.00     0.004 C 
BRANCH  14  15
ATOM     15  C   UNL     1      54.638  30.517  51.154  1.00  0.00     0.000 C 
BRANCH  15  16
ATOM     16  C   UNL     1      55.326  31.747  51.773  1.00  0.00    -0.000 C 
BRANCH  16  17
ATOM     17  C   UNL     1      56.285  31.372  52.913  1.00  0.00    -0.003 C 
ATOM     18  C   UNL     1      57.735  31.755  52.614  1.00  0.00     0.004 C 
ENDBRANCH  16  17
ENDBRANCH  15  16
ENDBRANCH  14  15
ENDBRANCH  13  14
ENDBRANCH  12  13
ENDBRANCH  10  11
ENDBRANCH   1  10
TORSDOF 13
ENDMDL
MODEL 7
REMARK VINA RESULT:    -2.972      3.622      6.188
REMARK INTER + INTRA:          -7.464
REMARK INTER:                  -5.204
REMARK INTRA:                  -2.260
REMARK UNBOUND:                -2.234
REMARK SMILES CCCCCCC=CCCCCCCCC(=O)[O-]
REMARK SMILES IDX 10 1 11 2 12 3 13 4 14 5 15 6 16 7 17 8 18 9 9 10 8 11 7 12
REMARK SMILES IDX 6 13 5 14 4 15 3 16 2 17 1 18
REMARK H PARENT
REMARK Flexibility Score: inf
ROOT
ATOM      1  C   UNL     1      58.131  16.201  50.472  1.00  0.00     0.004 C 
ENDROOT
BRANCH   1   2
ATOM      2  C   UNL     1      57.902  17.281  49.397  1.00  0.00     0.000 C 
BRANCH   2   3
ATOM      3  C   UNL     1      57.062  18.463  49.911  1.00  0.00     0.000 C 
BRANCH   3   4
ATOM      4  C   UNL     1      56.034  18.041  50.974  1.00  0.00     0.000 C 
BRANCH   4   5
ATOM      5  C   UNL     1      56.054  18.950  52.211  1.00  0.00     0.006 C 
BRANCH   5   6
ATOM      6  C   UNL     1      54.876  18.637  53.139  1.00  0.00     0.053 C 
BRANCH   6   7
ATOM      7  C   UNL     1      53.851  19.726  53.070  1.00  0.00     0.041 C 
ATOM      8  O   UNL     1      53.694  20.382  52.008  1.00  0.00    -0.550 OA
ATOM      9  O   UNL     1      53.035  19.981  54.165  1.00  0.00    -0.550 OA
ENDBRANCH   6   7
ENDBRANCH   5   6
ENDBRANCH   4   5
ENDBRANCH   3   4
ENDBRANCH   2   3
ENDBRANCH   1   2
BRANCH   1  10
ATOM     10  C   UNL     1      59.429  16.396  51.274  1.00  0.00     0.027 C 
BRANCH  10  11
ATOM     11  C   UNL     1      59.155  16.787  52.705  1.00  0.00    -0.031 C 
ATOM     12  C   UNL     1      59.577  17.922  53.296  1.00  0.00    -0.031 C 
BRANCH  12  13
ATOM     13  C   UNL     1      60.373  19.008  52.615  1.00  0.00     0.027 C 
BRANCH  13  14
ATOM     14  C   UNL     1      59.604  20.339  52.538  1.00  0.00     0.004 C 
BRANCH  14  15
ATOM     15  C   UNL     1      59.522  20.935  51.121  1.00  0.00     0.000 C 
BRANCH  15  16
ATOM     16  C   UNL     1      60.332  20.129  50.089  1.00  0.00    -0.000 C 
BRANCH  16  17
ATOM     17  C   UNL     1      60.633  20.938  48.818  1.00  0.00    -0.003 C 
ATOM     18  C   UNL     1      61.401  22.227  49.108  1.00  0.00     0.004 C 
ENDBRANCH  16  17
ENDBRANCH  15  16
ENDBRANCH  14  15
ENDBRANCH  13  14
ENDBRANCH  12  13
ENDBRANCH  10  11
ENDBRANCH   1  10
TORSDOF 13
ENDMDL
MODEL 8
REMARK VINA RESULT:    -2.963      3.349      6.235
REMARK INTER + INTRA:          -7.450
REMARK INTER:                  -5.766
REMARK INTRA:                  -1.683
REMARK UNBOUND:                -2.234
REMARK SMILES CCCCCCC=CCCCCCCCC(=O)[O-]
REMARK SMILES IDX 10 1 11 2 12 3 13 4 14 5 15 6 16 7 17 8 18 9 9 10 8 11 7 12
REMARK SMILES IDX 6 13 5 14 4 15 3 16 2 17 1 18
REMARK H PARENT
REMARK Flexibility Score: inf
ROOT
ATOM      1  C   UNL     1      59.943  16.465  51.776  1.00  0.00     0.004 C 
ENDROOT
BRANCH   1   2
ATOM      2  C   UNL     1      58.609  16.014  51.150  1.00  0.00     0.000 C 
BRANCH   2   3
ATOM      3  C   UNL     1      58.188  16.886  49.954  1.00  0.00     0.000 C 
BRANCH   3   4
ATOM      4  C   UNL     1      56.833  17.578  50.174  1.00  0.00     0.000 C 
BRANCH   4   5
ATOM      5  C   UNL     1      56.906  18.711  51.208  1.00  0.00     0.006 C 
BRANCH   5   6
ATOM      6  C   UNL     1      55.996  18.418  52.405  1.00  0.00     0.053 C 
BRANCH   6   7
ATOM      7  C   UNL     1      54.825  19.351  52.412  1.00  0.00     0.041 C 
ATOM      8  O   UNL     1      54.100  19.466  51.390  1.00  0.00    -0.550 OA
ATOM      9  O   UNL     1      54.504  20.054  53.567  1.00  0.00    -0.550 OA
ENDBRANCH   6   7
ENDBRANCH   5   6
ENDBRANCH   4   5
ENDBRANCH   3   4
ENDBRANCH   2   3
ENDBRANCH   1   2
BRANCH   1  10
ATOM     10  C   UNL     1      60.725  17.464  50.907  1.00  0.00     0.027 C 
BRANCH  10  11
ATOM     11  C   UNL     1      60.793  18.831  51.541  1.00  0.00    -0.031 C 
ATOM     12  C   UNL     1      60.501  19.991  50.921  1.00  0.00    -0.031 C 
BRANCH  12  13
ATOM     13  C   UNL     1      60.028  20.115  49.494  1.00  0.00     0.027 C 
BRANCH  13  14
ATOM     14  C   UNL     1      60.793  21.200  48.714  1.00  0.00     0.004 C 
BRANCH  14  15
ATOM     15  C   UNL     1      61.726  22.059  49.586  1.00  0.00     0.000 C 
BRANCH  15  16
ATOM     16  C   UNL     1      61.393  23.560  49.513  1.00  0.00    -0.000 C 
BRANCH  16  17
ATOM     17  C   UNL     1      59.925  23.853  49.857  1.00  0.00    -0.003 C 
ATOM     18  C   UNL     1      59.467  25.227  49.367  1.00  0.00     0.004 C 
ENDBRANCH  16  17
ENDBRANCH  15  16
ENDBRANCH  14  15
ENDBRANCH  13  14
ENDBRANCH  12  13
ENDBRANCH  10  11
ENDBRANCH   1  10
TORSDOF 13
ENDMDL
MODEL 9
REMARK VINA RESULT:    -2.921      4.078      6.261
REMARK INTER + INTRA:          -7.375
REMARK INTER:                  -4.637
REMARK INTRA:                  -2.738
REMARK UNBOUND:                -2.234
REMARK SMILES CCCCCCC=CCCCCCCCC(=O)[O-]
REMARK SMILES IDX 10 1 11 2 12 3 13 4 14 5 15 6 16 7 17 8 18 9 9 10 8 11 7 12
REMARK SMILES IDX 6 13 5 14 4 15 3 16 2 17 1 18
REMARK H PARENT
REMARK Flexibility Score: inf
ROOT
ATOM      1  C   UNL     1      57.873  17.553  49.693  1.00  0.00     0.004 C 
ENDROOT
BRANCH   1   2
ATOM      2  C   UNL     1      56.501  18.232  49.874  1.00  0.00     0.000 C 
BRANCH   2   3
ATOM      3  C   UNL     1      55.935  18.059  51.294  1.00  0.00     0.000 C 
BRANCH   3   4
ATOM      4  C   UNL     1      55.525  19.393  51.936  1.00  0.00     0.000 C 
BRANCH   4   5
ATOM      5  C   UNL     1      54.484  19.221  53.052  1.00  0.00     0.006 C 
BRANCH   5   6
ATOM      6  C   UNL     1      54.761  17.955  53.869  1.00  0.00     0.053 C 
BRANCH   6   7
ATOM      7  C   UNL     1      54.947  18.294  55.315  1.00  0.00     0.041 C 
ATOM      8  O   UNL     1      54.507  19.382  55.772  1.00  0.00    -0.550 OA
ATOM      9  O   UNL     1      55.562  17.387  56.167  1.00  0.00    -0.550 OA
ENDBRANCH   6   7
ENDBRANCH   5   6
ENDBRANCH   4   5
ENDBRANCH   3   4
ENDBRANCH   2   3
ENDBRANCH   1   2
BRANCH   1  10
ATOM     10  C   UNL     1      58.034  16.262  50.513  1.00  0.00     0.027 C 
BRANCH  10  11
ATOM     11  C   UNL     1      59.361  16.211  51.229  1.00  0.00    -0.031 C 
ATOM     12  C   UNL     1      59.542  16.418  52.547  1.00  0.00    -0.031 C 
BRANCH  12  13
ATOM     13  C   UNL     1      58.441  16.709  53.537  1.00  0.00     0.027 C 
BRANCH  13  14
ATOM     14  C   UNL     1      58.478  18.161  54.047  1.00  0.00     0.004 C 
BRANCH  14  15
ATOM     15  C   UNL     1      59.588  19.020  53.414  1.00  0.00     0.000 C 
BRANCH  15  16
ATOM     16  C   UNL     1      59.032  20.191  52.585  1.00  0.00    -0.000 C 
BRANCH  16  17
ATOM     17  C   UNL     1      59.628  20.243  51.169  1.00  0.00    -0.003 C 
ATOM     18  C   UNL     1      61.002  19.577  51.083  1.00  0.00     0.004 C 
ENDBRANCH  16  17
ENDBRANCH  15  16
ENDBRANCH  14  15
ENDBRANCH  13  14
ENDBRANCH  12  13
ENDBRANCH  10  11
ENDBRANCH   1  10
TORSDOF 13
ENDMDL
