MODEL 1
REMARK VINA RESULT:    -2.911      0.000      0.000
REMARK INTER + INTRA:          -3.456
REMARK INTER:                  -3.421
REMARK INTRA:                  -0.035
REMARK UNBOUND:                -0.035
REMARK SMILES O=C([O-])CCC(=O)[O-]
REMARK SMILES IDX 4 1 2 2 1 3 3 4 5 5 6 6 7 7 8 8
REMARK H PARENT
REMARK Flexibility Score: inf
ROOT
ATOM      1  C   UNL     1      20.099  22.928  45.222  1.00  0.00     0.059 C 
ENDROOT
BRANCH   1   2
ATOM      2  C   UNL     1      21.235  22.253  45.924  1.00  0.00     0.042 C 
ATOM      3  O   UNL     1      21.012  21.321  46.740  1.00  0.00    -0.550 OA
ATOM      4  O   UNL     1      22.545  22.621  45.639  1.00  0.00    -0.550 OA
ENDBRANCH   1   2
BRANCH   1   5
ATOM      5  C   UNL     1      19.130  23.538  46.237  1.00  0.00     0.059 C 
BRANCH   5   6
ATOM      6  C   UNL     1      17.866  23.967  45.561  1.00  0.00     0.042 C 
ATOM      7  O   UNL     1      16.875  24.335  46.246  1.00  0.00    -0.550 OA
ATOM      8  O   UNL     1      17.798  24.009  44.175  1.00  0.00    -0.550 OA
ENDBRANCH   5   6
ENDBRANCH   1   5
TORSDOF 3
ENDMDL
MODEL 2
REMARK VINA RESULT:    -2.837      0.303      1.631
REMARK INTER + INTRA:          -3.370
REMARK INTER:                  -3.332
REMARK INTRA:                  -0.038
REMARK UNBOUND:                -0.035
REMARK SMILES O=C([O-])CCC(=O)[O-]
REMARK SMILES IDX 4 1 2 2 1 3 3 4 5 5 6 6 7 7 8 8
REMARK H PARENT
REMARK Flexibility Score: inf
ROOT
ATOM      1  C   UNL     1      20.047  23.173  45.274  1.00  0.00     0.059 C 
ENDROOT
BRANCH   1   2
ATOM      2  C   UNL     1      21.099  22.324  45.914  1.00  0.00     0.042 C 
ATOM      3  O   UNL     1      22.312  22.494  45.627  1.00  0.00    -0.550 OA
ATOM      4  O   UNL     1      20.743  21.374  46.865  1.00  0.00    -0.550 OA
ENDBRANCH   1   2
BRANCH   1   5
ATOM      5  C   UNL     1      18.939  23.497  46.277  1.00  0.00     0.059 C 
BRANCH   5   6
ATOM      6  C   UNL     1      17.783  24.153  45.588  1.00  0.00     0.042 C 
ATOM      7  O   UNL     1      17.605  23.986  44.353  1.00  0.00    -0.550 OA
ATOM      8  O   UNL     1      16.875  24.908  46.319  1.00  0.00    -0.550 OA
ENDBRANCH   5   6
ENDBRANCH   1   5
TORSDOF 3
ENDMDL
MODEL 3
REMARK VINA RESULT:    -2.826      0.923      4.052
REMARK INTER + INTRA:          -3.357
REMARK INTER:                  -3.317
REMARK INTRA:                  -0.040
REMARK UNBOUND:                -0.035
REMARK SMILES O=C([O-])CCC(=O)[O-]
REMARK SMILES IDX 4 1 2 2 1 3 3 4 5 5 6 6 7 7 8 8
REMARK H PARENT
REMARK Flexibility Score: inf
ROOT
ATOM      1  C   UNL     1      19.345  23.910  44.882  1.00  0.00     0.059 C 
ENDROOT
BRANCH   1   2
ATOM      2  C   UNL     1      17.922  24.073  44.450  1.00  0.00     0.042 C 
ATOM      3  O   UNL     1      16.993  24.026  45.297  1.00  0.00    -0.550 OA
ATOM      4  O   UNL     1      17.625  24.325  43.115  1.00  0.00    -0.550 OA
ENDBRANCH   1   2
BRANCH   1   5
ATOM      5  C   UNL     1      19.415  23.194  46.231  1.00  0.00     0.059 C 
BRANCH   5   6
ATOM      6  C   UNL     1      20.626  22.316  46.295  1.00  0.00     0.042 C 
ATOM      7  O   UNL     1      20.636  21.306  47.047  1.00  0.00    -0.550 OA
ATOM      8  O   UNL     1      21.723  22.584  45.488  1.00  0.00    -0.550 OA
ENDBRANCH   5   6
ENDBRANCH   1   5
TORSDOF 3
ENDMDL
MODEL 4
REMARK VINA RESULT:    -2.376      1.338      3.960
REMARK INTER + INTRA:          -2.827
REMARK INTER:                  -2.745
REMARK INTRA:                  -0.082
REMARK UNBOUND:                -0.035
REMARK SMILES O=C([O-])CCC(=O)[O-]
REMARK SMILES IDX 4 1 2 2 1 3 3 4 5 5 6 6 7 7 8 8
REMARK H PARENT
REMARK Flexibility Score: inf
ROOT
ATOM      1  C   UNL     1      19.737  22.899  46.957  1.00  0.00     0.059 C 
ENDROOT
BRANCH   1   2
ATOM      2  C   UNL     1      18.775  23.906  46.411  1.00  0.00     0.042 C 
ATOM      3  O   UNL     1      18.172  23.686  45.329  1.00  0.00    -0.550 OA
ATOM      4  O   UNL     1      18.507  25.069  47.124  1.00  0.00    -0.550 OA
ENDBRANCH   1   2
BRANCH   1   5
ATOM      5  C   UNL     1      20.380  22.103  45.820  1.00  0.00     0.059 C 
BRANCH   5   6
ATOM      6  C   UNL     1      21.553  22.845  45.260  1.00  0.00     0.042 C 
ATOM      7  O   UNL     1      21.403  23.619  44.279  1.00  0.00    -0.550 OA
ATOM      8  O   UNL     1      22.803  22.719  45.852  1.00  0.00    -0.550 OA
ENDBRANCH   5   6
ENDBRANCH   1   5
TORSDOF 3
ENDMDL
MODEL 5
REMARK VINA RESULT:    -2.244     17.868     19.130
REMARK INTER + INTRA:          -2.672
REMARK INTER:                  -2.601
REMARK INTRA:                  -0.071
REMARK UNBOUND:                -0.035
REMARK SMILES O=C([O-])CCC(=O)[O-]
REMARK SMILES IDX 4 1 2 2 1 3 3 4 5 5 6 6 7 7 8 8
REMARK H PARENT
REMARK Flexibility Score: inf
ROOT
ATOM      1  C   UNL     1      31.241  24.933  30.753  1.00  0.00     0.059 C 
ENDROOT
BRANCH   1   2
ATOM      2  C   UNL     1      30.647  24.927  32.126  1.00  0.00     0.042 C 
ATOM      3  O   UNL     1      29.409  24.762  32.280  1.00  0.00    -0.550 OA
ATOM      4  O   UNL     1      31.468  25.055  33.240  1.00  0.00    -0.550 OA
ENDBRANCH   1   2
BRANCH   1   5
ATOM      5  C   UNL     1      30.146  24.784  29.696  1.00  0.00     0.059 C 
BRANCH   5   6
ATOM      6  C   UNL     1      30.487  23.685  28.739  1.00  0.00     0.042 C 
ATOM      7  O   UNL     1      29.750  23.460  27.744  1.00  0.00    -0.550 OA
ATOM      8  O   UNL     1      31.646  22.941  28.919  1.00  0.00    -0.550 OA
ENDBRANCH   5   6
ENDBRANCH   1   5
TORSDOF 3
ENDMDL
MODEL 6
REMARK VINA RESULT:    -2.227     17.985     19.224
REMARK INTER + INTRA:          -2.653
REMARK INTER:                  -2.536
REMARK INTRA:                  -0.117
REMARK UNBOUND:                -0.035
REMARK SMILES O=C([O-])CCC(=O)[O-]
REMARK SMILES IDX 4 1 2 2 1 3 3 4 5 5 6 6 7 7 8 8
REMARK H PARENT
REMARK Flexibility Score: inf
ROOT
ATOM      1  C   UNL     1      30.767  23.864  29.656  1.00  0.00     0.059 C 
ENDROOT
BRANCH   1   2
ATOM      2  C   UNL     1      30.005  24.239  28.424  1.00  0.00     0.042 C 
ATOM      3  O   UNL     1      30.301  23.725  27.314  1.00  0.00    -0.550 OA
ATOM      4  O   UNL     1      28.934  25.121  28.511  1.00  0.00    -0.550 OA
ENDBRANCH   1   2
BRANCH   1   5
ATOM      5  C   UNL     1      31.081  25.107  30.490  1.00  0.00     0.059 C 
BRANCH   5   6
ATOM      6  C   UNL     1      30.470  24.993  31.851  1.00  0.00     0.042 C 
ATOM      7  O   UNL     1      31.203  24.843  32.864  1.00  0.00    -0.550 OA
ATOM      8  O   UNL     1      29.095  25.103  32.007  1.00  0.00    -0.550 OA
ENDBRANCH   5   6
ENDBRANCH   1   5
TORSDOF 3
ENDMDL
MODEL 7
REMARK VINA RESULT:    -2.219     17.854     19.057
REMARK INTER + INTRA:          -2.643
REMARK INTER:                  -2.583
REMARK INTRA:                  -0.060
REMARK UNBOUND:                -0.035
REMARK SMILES O=C([O-])CCC(=O)[O-]
REMARK SMILES IDX 4 1 2 2 1 3 3 4 5 5 6 6 7 7 8 8
REMARK H PARENT
REMARK Flexibility Score: inf
ROOT
ATOM      1  C   UNL     1      31.403  24.581  29.942  1.00  0.00     0.059 C 
ENDROOT
BRANCH   1   2
ATOM      2  C   UNL     1      31.159  23.496  28.942  1.00  0.00     0.042 C 
ATOM      3  O   UNL     1      30.100  23.487  28.262  1.00  0.00    -0.550 OA
ATOM      4  O   UNL     1      32.124  22.519  28.726  1.00  0.00    -0.550 OA
ENDBRANCH   1   2
BRANCH   1   5
ATOM      5  C   UNL     1      30.078  25.095  30.508  1.00  0.00     0.059 C 
BRANCH   5   6
ATOM      6  C   UNL     1      30.028  24.894  31.990  1.00  0.00     0.042 C 
ATOM      7  O   UNL     1      28.919  24.822  32.582  1.00  0.00    -0.550 OA
ATOM      8  O   UNL     1      31.204  24.736  32.711  1.00  0.00    -0.550 OA
ENDBRANCH   5   6
ENDBRANCH   1   5
TORSDOF 3
ENDMDL
MODEL 8
REMARK VINA RESULT:    -2.212     18.313     19.734
REMARK INTER + INTRA:          -2.635
REMARK INTER:                  -2.568
REMARK INTRA:                  -0.067
REMARK UNBOUND:                -0.035
REMARK SMILES O=C([O-])CCC(=O)[O-]
REMARK SMILES IDX 4 1 2 2 1 3 3 4 5 5 6 6 7 7 8 8
REMARK H PARENT
REMARK Flexibility Score: inf
ROOT
ATOM      1  C   UNL     1      30.533  24.243  30.427  1.00  0.00     0.059 C 
ENDROOT
BRANCH   1   2
ATOM      2  C   UNL     1      30.403  24.698  31.846  1.00  0.00     0.042 C 
ATOM      3  O   UNL     1      29.273  24.738  32.398  1.00  0.00    -0.550 OA
ATOM      4  O   UNL     1      31.538  25.031  32.576  1.00  0.00    -0.550 OA
ENDBRANCH   1   2
BRANCH   1   5
ATOM      5  C   UNL     1      31.777  24.854  29.781  1.00  0.00     0.059 C 
BRANCH   5   6
ATOM      6  C   UNL     1      32.593  23.795  29.109  1.00  0.00     0.042 C 
ATOM      7  O   UNL     1      32.080  22.677  28.838  1.00  0.00    -0.550 OA
ATOM      8  O   UNL     1      33.904  24.059  28.736  1.00  0.00    -0.550 OA
ENDBRANCH   5   6
ENDBRANCH   1   5
TORSDOF 3
ENDMDL
MODEL 9
REMARK VINA RESULT:    -2.046     20.037     21.452
REMARK INTER + INTRA:          -2.440
REMARK INTER:                  -2.352
REMARK INTRA:                  -0.088
REMARK UNBOUND:                -0.035
REMARK SMILES O=C([O-])CCC(=O)[O-]
REMARK SMILES IDX 4 1 2 2 1 3 3 4 5 5 6 6 7 7 8 8
REMARK H PARENT
REMARK Flexibility Score: inf
ROOT
ATOM      1  C   UNL     1      30.850  23.788  29.195  1.00  0.00     0.059 C 
ENDROOT
BRANCH   1   2
ATOM      2  C   UNL     1      30.001  24.314  28.081  1.00  0.00     0.042 C 
ATOM      3  O   UNL     1      30.247  23.990  26.890  1.00  0.00    -0.550 OA
ATOM      4  O   UNL     1      28.908  25.125  28.363  1.00  0.00    -0.550 OA
ENDBRANCH   1   2
BRANCH   1   5
ATOM      5  C   UNL     1      32.056  23.030  28.637  1.00  0.00     0.059 C 
BRANCH   5   6
ATOM      6  C   UNL     1      33.312  23.816  28.848  1.00  0.00     0.042 C 
ATOM      7  O   UNL     1      34.338  23.566  28.163  1.00  0.00    -0.550 OA
ATOM      8  O   UNL     1      33.334  24.859  29.765  1.00  0.00    -0.550 OA
ENDBRANCH   5   6
ENDBRANCH   1   5
TORSDOF 3
ENDMDL
