MODEL 1
REMARK VINA RESULT:    -6.746      0.000      0.000
REMARK INTER + INTRA:         -11.562
REMARK INTER:                 -10.098
REMARK INTRA:                  -1.464
REMARK UNBOUND:                -1.464
REMARK SMILES O=c1c(O[C@@H]2O[C@H](CO)[C@@H](O)[C@H](O)[C@H]2O)c(-c2cc(O)c(O)c(O)c2)oc2cc(O)cc(O)c12
REMARK SMILES IDX 4 1 3 2 16 3 26 4 2 5 27 6 1 7 34 8 28 9 32 10 29 11 31 12
REMARK SMILES IDX 17 13 18 14 19 15 25 16 21 17 23 18 20 19 22 21 24 23 33 25
REMARK SMILES IDX 30 27 5 29 14 30 6 31 12 32 7 33 10 34 15 35 13 37 8 39 9 40
REMARK SMILES IDX 11 42
REMARK H PARENT 20 20 22 22 24 24 33 26 30 28 15 36 13 38 9 41 11 43
REMARK Flexibility Score: inf
ROOT
ATOM      1  O   UNL     1     -37.789   5.266  81.820  1.00  0.00    -0.454 OA
ENDROOT
BRANCH   1   2
ATOM      2  C   UNL     1     -38.657   4.801  80.804  1.00  0.00     0.214 A 
ATOM      3  C   UNL     1     -38.148   4.763  79.488  1.00  0.00     0.181 A 
ATOM      4  O   UNL     1     -38.873   4.254  78.499  1.00  0.00    -0.452 OA
ATOM      5  C   UNL     1     -39.983   4.347  81.014  1.00  0.00     0.239 A 
ATOM      6  C   UNL     1     -40.107   3.799  78.658  1.00  0.00     0.146 A 
ATOM      7  O   UNL     1     -40.510   4.396  82.157  1.00  0.00    -0.285 OA
ATOM      8  C   UNL     1     -40.729   3.841  79.927  1.00  0.00     0.111 A 
ATOM      9  C   UNL     1     -40.789   3.285  77.551  1.00  0.00     0.094 A 
ATOM     10  C   UNL     1     -42.061   3.372  80.053  1.00  0.00     0.134 A 
ATOM     11  C   UNL     1     -42.100   2.820  77.683  1.00  0.00     0.123 A 
ATOM     12  C   UNL     1     -42.731   2.868  78.927  1.00  0.00     0.093 A 
BRANCH   3  13
ATOM     13  C   UNL     1     -36.800   5.277  79.163  1.00  0.00     0.029 A 
ATOM     14  C   UNL     1     -35.653   4.518  79.447  1.00  0.00     0.062 A 
ATOM     15  C   UNL     1     -34.377   5.030  79.182  1.00  0.00     0.162 A 
ATOM     16  C   UNL     1     -36.655   6.566  78.633  1.00  0.00     0.062 A 
ATOM     17  C   UNL     1     -34.239   6.317  78.631  1.00  0.00     0.200 A 
ATOM     18  C   UNL     1     -35.382   7.086  78.358  1.00  0.00     0.162 A 
BRANCH  15  19
ATOM     19  O   UNL     1     -33.263   4.247  79.477  1.00  0.00    -0.504 OA
ATOM     20  H   UNL     1     -32.954   3.495  78.871  1.00  0.00     0.293 HD
ENDBRANCH  15  19
BRANCH  17  21
ATOM     21  O   UNL     1     -32.964   6.819  78.368  1.00  0.00    -0.502 OA
ATOM     22  H   UNL     1     -32.748   7.806  78.420  1.00  0.00     0.293 HD
ENDBRANCH  17  21
BRANCH  18  23
ATOM     23  O   UNL     1     -35.252   8.369  77.823  1.00  0.00    -0.504 OA
ATOM     24  H   UNL     1     -34.373   8.691  77.429  1.00  0.00     0.293 HD
ENDBRANCH  18  23
ENDBRANCH   3  13
BRANCH  10  25
ATOM     25  O   UNL     1     -42.725   3.406  81.281  1.00  0.00    -0.507 OA
ATOM     26  H   UNL     1     -43.731   3.508  81.339  1.00  0.00     0.293 HD
ENDBRANCH  10  25
BRANCH  11  27
ATOM     27  O   UNL     1     -42.786   2.306  76.584  1.00  0.00    -0.508 OA
ATOM     28  H   UNL     1     -43.008   2.883  75.779  1.00  0.00     0.293 HD
ENDBRANCH  11  27
ENDBRANCH   1   2
BRANCH   1  29
ATOM     29  C   UNL     1     -37.372   6.599  82.135  1.00  0.00     0.339 C 
ATOM     30  C   UNL     1     -38.021   7.080  83.456  1.00  0.00     0.214 C 
ATOM     31  O   UNL     1     -35.958   6.676  82.162  1.00  0.00    -0.332 OA
ATOM     32  C   UNL     1     -37.514   8.492  83.816  1.00  0.00     0.180 C 
ATOM     33  C   UNL     1     -35.525   8.015  82.335  1.00  0.00     0.179 C 
ATOM     34  C   UNL     1     -35.978   8.549  83.716  1.00  0.00     0.177 C 
BRANCH  30  35
ATOM     35  O   UNL     1     -39.423   7.063  83.350  1.00  0.00    -0.384 OA
ATOM     36  H   UNL     1     -39.778   7.809  83.901  1.00  0.00     0.211 HD
ENDBRANCH  30  35
BRANCH  32  37
ATOM     37  O   UNL     1     -37.905   8.823  85.125  1.00  0.00    -0.387 OA
ATOM     38  H   UNL     1     -37.429   9.660  85.370  1.00  0.00     0.211 HD
ENDBRANCH  32  37
BRANCH  33  39
ATOM     39  C   UNL     1     -33.995   8.031  82.197  1.00  0.00     0.191 C 
BRANCH  39  40
ATOM     40  O   UNL     1     -33.421   6.997  82.951  1.00  0.00    -0.394 OA
ATOM     41  H   UNL     1     -33.834   6.155  82.627  1.00  0.00     0.210 HD
ENDBRANCH  39  40
ENDBRANCH  33  39
BRANCH  34  42
ATOM     42  O   UNL     1     -35.550   9.878  83.880  1.00  0.00    -0.387 OA
ATOM     43  H   UNL     1     -34.747   9.853  84.463  1.00  0.00     0.211 HD
ENDBRANCH  34  42
ENDBRANCH   1  29
TORSDOF 13
ENDMDL
MODEL 2
REMARK VINA RESULT:    -6.726      1.143      1.956
REMARK INTER + INTRA:         -11.532
REMARK INTER:                 -10.282
REMARK INTRA:                  -1.249
REMARK UNBOUND:                -1.464
REMARK SMILES O=c1c(O[C@@H]2O[C@H](CO)[C@@H](O)[C@H](O)[C@H]2O)c(-c2cc(O)c(O)c(O)c2)oc2cc(O)cc(O)c12
REMARK SMILES IDX 4 1 3 2 16 3 26 4 2 5 27 6 1 7 34 8 28 9 32 10 29 11 31 12
REMARK SMILES IDX 17 13 18 14 19 15 25 16 21 17 23 18 20 19 22 21 24 23 33 25
REMARK SMILES IDX 30 27 5 29 14 30 6 31 12 32 7 33 10 34 15 35 13 37 8 39 9 40
REMARK SMILES IDX 11 42
REMARK H PARENT 20 20 22 22 24 24 33 26 30 28 15 36 13 38 9 41 11 43
REMARK Flexibility Score: inf
ROOT
ATOM      1  O   UNL     1     -37.825   5.304  81.840  1.00  0.00    -0.454 OA
ENDROOT
BRANCH   1   2
ATOM      2  C   UNL     1     -38.684   4.832  80.820  1.00  0.00     0.214 A 
ATOM      3  C   UNL     1     -38.162   4.785  79.509  1.00  0.00     0.181 A 
ATOM      4  O   UNL     1     -38.877   4.269  78.516  1.00  0.00    -0.452 OA
ATOM      5  C   UNL     1     -40.011   4.379  81.020  1.00  0.00     0.239 A 
ATOM      6  C   UNL     1     -40.113   3.814  78.667  1.00  0.00     0.146 A 
ATOM      7  O   UNL     1     -40.549   4.434  82.157  1.00  0.00    -0.285 OA
ATOM      8  C   UNL     1     -40.747   3.864  79.930  1.00  0.00     0.111 A 
ATOM      9  C   UNL     1     -40.784   3.293  77.557  1.00  0.00     0.094 A 
ATOM     10  C   UNL     1     -42.080   3.396  80.046  1.00  0.00     0.134 A 
ATOM     11  C   UNL     1     -42.096   2.828  77.680  1.00  0.00     0.123 A 
ATOM     12  C   UNL     1     -42.739   2.883  78.918  1.00  0.00     0.093 A 
BRANCH   3  13
ATOM     13  C   UNL     1     -36.811   5.298  79.193  1.00  0.00     0.029 A 
ATOM     14  C   UNL     1     -35.674   4.499  79.394  1.00  0.00     0.062 A 
ATOM     15  C   UNL     1     -34.394   5.006  79.139  1.00  0.00     0.162 A 
ATOM     16  C   UNL     1     -36.652   6.620  78.756  1.00  0.00     0.062 A 
ATOM     17  C   UNL     1     -34.242   6.328  78.682  1.00  0.00     0.200 A 
ATOM     18  C   UNL     1     -35.376   7.136  78.492  1.00  0.00     0.162 A 
BRANCH  15  19
ATOM     19  O   UNL     1     -33.289   4.183  79.350  1.00  0.00    -0.504 OA
ATOM     20  H   UNL     1     -32.344   4.482  79.137  1.00  0.00     0.293 HD
ENDBRANCH  15  19
BRANCH  17  21
ATOM     21  O   UNL     1     -32.963   6.825  78.429  1.00  0.00    -0.502 OA
ATOM     22  H   UNL     1     -32.128   6.276  78.579  1.00  0.00     0.293 HD
ENDBRANCH  17  21
BRANCH  18  23
ATOM     23  O   UNL     1     -35.231   8.453  78.052  1.00  0.00    -0.504 OA
ATOM     24  H   UNL     1     -34.678   8.678  77.230  1.00  0.00     0.293 HD
ENDBRANCH  18  23
ENDBRANCH   3  13
BRANCH  10  25
ATOM     25  O   UNL     1     -42.755   3.438  81.268  1.00  0.00    -0.507 OA
ATOM     26  H   UNL     1     -42.373   3.006  82.101  1.00  0.00     0.293 HD
ENDBRANCH  10  25
BRANCH  11  27
ATOM     27  O   UNL     1     -42.772   2.306  76.578  1.00  0.00    -0.508 OA
ATOM     28  H   UNL     1     -42.785   1.310  76.386  1.00  0.00     0.293 HD
ENDBRANCH  11  27
ENDBRANCH   1   2
BRANCH   1  29
ATOM     29  C   UNL     1     -37.986   6.405  82.741  1.00  0.00     0.339 C 
ATOM     30  C   UNL     1     -36.684   6.656  83.539  1.00  0.00     0.214 C 
ATOM     31  O   UNL     1     -38.425   7.553  82.038  1.00  0.00    -0.332 OA
ATOM     32  C   UNL     1     -36.850   7.884  84.459  1.00  0.00     0.180 C 
ATOM     33  C   UNL     1     -38.723   8.614  82.930  1.00  0.00     0.179 C 
ATOM     34  C   UNL     1     -37.439   9.067  83.669  1.00  0.00     0.177 C 
BRANCH  30  35
ATOM     35  O   UNL     1     -36.334   5.516  84.284  1.00  0.00    -0.384 OA
ATOM     36  H   UNL     1     -36.065   4.805  83.645  1.00  0.00     0.211 HD
ENDBRANCH  30  35
BRANCH  32  37
ATOM     37  O   UNL     1     -35.604   8.257  84.991  1.00  0.00    -0.387 OA
ATOM     38  H   UNL     1     -35.578   9.251  85.008  1.00  0.00     0.211 HD
ENDBRANCH  32  37
BRANCH  33  39
ATOM     39  C   UNL     1     -39.335   9.757  82.107  1.00  0.00     0.191 C 
BRANCH  39  40
ATOM     40  O   UNL     1     -39.819   9.279  80.881  1.00  0.00    -0.394 OA
ATOM     41  H   UNL     1     -39.263   9.706  80.178  1.00  0.00     0.210 HD
ENDBRANCH  39  40
ENDBRANCH  33  39
BRANCH  34  42
ATOM     42  O   UNL     1     -37.741  10.115  84.555  1.00  0.00    -0.387 OA
ATOM     43  H   UNL     1     -37.208   9.961  85.378  1.00  0.00     0.211 HD
ENDBRANCH  34  42
ENDBRANCH   1  29
TORSDOF 13
ENDMDL
MODEL 3
REMARK VINA RESULT:    -6.666      2.125      6.533
REMARK INTER + INTRA:         -11.443
REMARK INTER:                  -9.973
REMARK INTRA:                  -1.470
REMARK UNBOUND:                -1.464
REMARK SMILES O=c1c(O[C@@H]2O[C@H](CO)[C@@H](O)[C@H](O)[C@H]2O)c(-c2cc(O)c(O)c(O)c2)oc2cc(O)cc(O)c12
REMARK SMILES IDX 4 1 3 2 16 3 26 4 2 5 27 6 1 7 34 8 28 9 32 10 29 11 31 12
REMARK SMILES IDX 17 13 18 14 19 15 25 16 21 17 23 18 20 19 22 21 24 23 33 25
REMARK SMILES IDX 30 27 5 29 14 30 6 31 12 32 7 33 10 34 15 35 13 37 8 39 9 40
REMARK SMILES IDX 11 42
REMARK H PARENT 20 20 22 22 24 24 33 26 30 28 15 36 13 38 9 41 11 43
REMARK Flexibility Score: inf
ROOT
ATOM      1  O   UNL     1     -36.391   4.100  81.717  1.00  0.00    -0.454 OA
ENDROOT
BRANCH   1   2
ATOM      2  C   UNL     1     -35.940   5.134  80.863  1.00  0.00     0.214 A 
ATOM      3  C   UNL     1     -36.662   5.346  79.669  1.00  0.00     0.181 A 
ATOM      4  O   UNL     1     -36.353   6.355  78.863  1.00  0.00    -0.452 OA
ATOM      5  C   UNL     1     -34.839   5.986  81.130  1.00  0.00     0.239 A 
ATOM      6  C   UNL     1     -35.347   7.187  79.089  1.00  0.00     0.146 A 
ATOM      7  O   UNL     1     -34.129   5.822  82.157  1.00  0.00    -0.285 OA
ATOM      8  C   UNL     1     -34.528   7.029  80.231  1.00  0.00     0.111 A 
ATOM      9  C   UNL     1     -35.100   8.217  78.177  1.00  0.00     0.094 A 
ATOM     10  C   UNL     1     -33.442   7.920  80.424  1.00  0.00     0.134 A 
ATOM     11  C   UNL     1     -34.031   9.095  78.376  1.00  0.00     0.123 A 
ATOM     12  C   UNL     1     -33.207   8.943  79.492  1.00  0.00     0.093 A 
BRANCH   3  13
ATOM     13  C   UNL     1     -37.783   4.465  79.274  1.00  0.00     0.029 A 
ATOM     14  C   UNL     1     -37.542   3.180  78.764  1.00  0.00     0.062 A 
ATOM     15  C   UNL     1     -38.605   2.369  78.347  1.00  0.00     0.162 A 
ATOM     16  C   UNL     1     -39.100   4.941  79.341  1.00  0.00     0.062 A 
ATOM     17  C   UNL     1     -39.926   2.844  78.435  1.00  0.00     0.200 A 
ATOM     18  C   UNL     1     -40.171   4.135  78.932  1.00  0.00     0.162 A 
BRANCH  15  19
ATOM     19  O   UNL     1     -38.326   1.099  77.845  1.00  0.00    -0.504 OA
ATOM     20  H   UNL     1     -37.404   0.840  77.512  1.00  0.00     0.293 HD
ENDBRANCH  15  19
BRANCH  17  21
ATOM     21  O   UNL     1     -40.979   2.030  78.018  1.00  0.00    -0.502 OA
ATOM     22  H   UNL     1     -41.805   1.880  78.582  1.00  0.00     0.293 HD
ENDBRANCH  17  21
BRANCH  18  23
ATOM     23  O   UNL     1     -41.479   4.619  79.010  1.00  0.00    -0.504 OA
ATOM     24  H   UNL     1     -42.248   4.019  79.293  1.00  0.00     0.293 HD
ENDBRANCH  18  23
ENDBRANCH   3  13
BRANCH  10  25
ATOM     25  O   UNL     1     -32.596   7.797  81.528  1.00  0.00    -0.507 OA
ATOM     26  H   UNL     1     -32.664   8.422  82.322  1.00  0.00     0.293 HD
ENDBRANCH  10  25
BRANCH  11  27
ATOM     27  O   UNL     1     -33.780  10.125  77.471  1.00  0.00    -0.508 OA
ATOM     28  H   UNL     1     -32.849  10.295  77.105  1.00  0.00     0.293 HD
ENDBRANCH  11  27
ENDBRANCH   1   2
BRANCH   1  29
ATOM     29  C   UNL     1     -37.400   4.120  82.732  1.00  0.00     0.339 C 
ATOM     30  C   UNL     1     -37.470   5.511  83.409  1.00  0.00     0.214 C 
ATOM     31  O   UNL     1     -38.645   3.714  82.193  1.00  0.00    -0.332 OA
ATOM     32  C   UNL     1     -38.603   5.538  84.456  1.00  0.00     0.180 C 
ATOM     33  C   UNL     1     -39.625   3.594  83.210  1.00  0.00     0.179 C 
ATOM     34  C   UNL     1     -39.903   4.977  83.850  1.00  0.00     0.177 C 
BRANCH  30  35
ATOM     35  O   UNL     1     -36.235   5.833  84.000  1.00  0.00    -0.384 OA
ATOM     36  H   UNL     1     -36.080   6.805  83.869  1.00  0.00     0.211 HD
ENDBRANCH  30  35
BRANCH  32  37
ATOM     37  O   UNL     1     -38.825   6.857  84.888  1.00  0.00    -0.387 OA
ATOM     38  H   UNL     1     -37.941   7.238  85.134  1.00  0.00     0.211 HD
ENDBRANCH  32  37
BRANCH  33  39
ATOM     39  C   UNL     1     -40.891   3.003  82.571  1.00  0.00     0.191 C 
BRANCH  39  40
ATOM     40  O   UNL     1     -41.688   4.019  82.025  1.00  0.00    -0.394 OA
ATOM     41  H   UNL     1     -41.201   4.355  81.228  1.00  0.00     0.210 HD
ENDBRANCH  39  40
ENDBRANCH  33  39
BRANCH  34  42
ATOM     42  O   UNL     1     -40.871   4.852  84.861  1.00  0.00    -0.387 OA
ATOM     43  H   UNL     1     -41.189   3.912  84.843  1.00  0.00     0.211 HD
ENDBRANCH  34  42
ENDBRANCH   1  29
TORSDOF 13
ENDMDL
MODEL 4
REMARK VINA RESULT:    -6.592      2.320      6.483
REMARK INTER + INTRA:         -11.331
REMARK INTER:                  -9.863
REMARK INTRA:                  -1.469
REMARK UNBOUND:                -1.464
REMARK SMILES O=c1c(O[C@@H]2O[C@H](CO)[C@@H](O)[C@H](O)[C@H]2O)c(-c2cc(O)c(O)c(O)c2)oc2cc(O)cc(O)c12
REMARK SMILES IDX 4 1 3 2 16 3 26 4 2 5 27 6 1 7 34 8 28 9 32 10 29 11 31 12
REMARK SMILES IDX 17 13 18 14 19 15 25 16 21 17 23 18 20 19 22 21 24 23 33 25
REMARK SMILES IDX 30 27 5 29 14 30 6 31 12 32 7 33 10 34 15 35 13 37 8 39 9 40
REMARK SMILES IDX 11 42
REMARK H PARENT 20 20 22 22 24 24 33 26 30 28 15 36 13 38 9 41 11 43
REMARK Flexibility Score: inf
ROOT
ATOM      1  O   UNL     1     -39.243   6.018  81.562  1.00  0.00    -0.454 OA
ENDROOT
BRANCH   1   2
ATOM      2  C   UNL     1     -38.270   6.587  80.707  1.00  0.00     0.214 A 
ATOM      3  C   UNL     1     -38.193   6.084  79.391  1.00  0.00     0.181 A 
ATOM      4  O   UNL     1     -37.368   6.630  78.506  1.00  0.00    -0.452 OA
ATOM      5  C   UNL     1     -37.391   7.640  81.065  1.00  0.00     0.239 A 
ATOM      6  C   UNL     1     -36.547   7.629  78.795  1.00  0.00     0.146 A 
ATOM      7  O   UNL     1     -37.380   8.104  82.236  1.00  0.00    -0.285 OA
ATOM      8  C   UNL     1     -36.507   8.172  80.100  1.00  0.00     0.111 A 
ATOM      9  C   UNL     1     -35.713   8.133  77.792  1.00  0.00     0.094 A 
ATOM     10  C   UNL     1     -35.595   9.221  80.379  1.00  0.00     0.134 A 
ATOM     11  C   UNL     1     -34.819   9.170  78.073  1.00  0.00     0.123 A 
ATOM     12  C   UNL     1     -34.761   9.707  79.360  1.00  0.00     0.093 A 
BRANCH   3  13
ATOM     13  C   UNL     1     -39.025   4.943  78.948  1.00  0.00     0.029 A 
ATOM     14  C   UNL     1     -40.421   5.060  78.866  1.00  0.00     0.062 A 
ATOM     15  C   UNL     1     -41.207   3.963  78.493  1.00  0.00     0.162 A 
ATOM     16  C   UNL     1     -38.423   3.707  78.674  1.00  0.00     0.062 A 
ATOM     17  C   UNL     1     -40.596   2.730  78.200  1.00  0.00     0.200 A 
ATOM     18  C   UNL     1     -39.200   2.604  78.294  1.00  0.00     0.162 A 
BRANCH  15  19
ATOM     19  O   UNL     1     -42.591   4.118  78.424  1.00  0.00    -0.504 OA
ATOM     20  H   UNL     1     -43.151   4.340  79.239  1.00  0.00     0.293 HD
ENDBRANCH  15  19
BRANCH  17  21
ATOM     21  O   UNL     1     -41.386   1.642  77.828  1.00  0.00    -0.502 OA
ATOM     22  H   UNL     1     -41.619   1.447  76.864  1.00  0.00     0.293 HD
ENDBRANCH  17  21
BRANCH  18  23
ATOM     23  O   UNL     1     -38.587   1.380  78.018  1.00  0.00    -0.504 OA
ATOM     24  H   UNL     1     -37.710   1.330  77.508  1.00  0.00     0.293 HD
ENDBRANCH  18  23
ENDBRANCH   3  13
BRANCH  10  25
ATOM     25  O   UNL     1     -35.508   9.779  81.656  1.00  0.00    -0.507 OA
ATOM     26  H   UNL     1     -35.078  10.683  81.811  1.00  0.00     0.293 HD
ENDBRANCH  10  25
BRANCH  11  27
ATOM     27  O   UNL     1     -33.985   9.678  77.079  1.00  0.00    -0.508 OA
ATOM     28  H   UNL     1     -34.170   9.514  76.095  1.00  0.00     0.293 HD
ENDBRANCH  11  27
ENDBRANCH   1   2
BRANCH   1  29
ATOM     29  C   UNL     1     -39.100   5.033  82.592  1.00  0.00     0.339 C 
ATOM     30  C   UNL     1     -39.801   3.713  82.190  1.00  0.00     0.214 C 
ATOM     31  O   UNL     1     -37.731   4.850  82.906  1.00  0.00    -0.332 OA
ATOM     32  C   UNL     1     -39.585   2.642  83.279  1.00  0.00     0.180 C 
ATOM     33  C   UNL     1     -37.576   3.983  84.017  1.00  0.00     0.179 C 
ATOM     34  C   UNL     1     -38.096   2.566  83.665  1.00  0.00     0.177 C 
BRANCH  30  35
ATOM     35  O   UNL     1     -41.173   3.932  81.968  1.00  0.00    -0.384 OA
ATOM     36  H   UNL     1     -41.663   3.123  82.270  1.00  0.00     0.211 HD
ENDBRANCH  30  35
BRANCH  32  37
ATOM     37  O   UNL     1     -40.005   1.386  82.807  1.00  0.00    -0.387 OA
ATOM     38  H   UNL     1     -39.750   0.714  83.494  1.00  0.00     0.211 HD
ENDBRANCH  32  37
BRANCH  33  39
ATOM     39  C   UNL     1     -36.086   3.961  84.387  1.00  0.00     0.191 C 
BRANCH  39  40
ATOM     40  O   UNL     1     -35.435   2.894  83.752  1.00  0.00    -0.394 OA
ATOM     41  H   UNL     1     -35.214   3.210  82.837  1.00  0.00     0.210 HD
ENDBRANCH  39  40
ENDBRANCH  33  39
BRANCH  34  42
ATOM     42  O   UNL     1     -37.945   1.712  84.771  1.00  0.00    -0.387 OA
ATOM     43  H   UNL     1     -38.853   1.552  85.140  1.00  0.00     0.211 HD
ENDBRANCH  34  42
ENDBRANCH   1  29
TORSDOF 13
ENDMDL
MODEL 5
REMARK VINA RESULT:    -6.585      1.726      2.615
REMARK INTER + INTRA:         -11.320
REMARK INTER:                 -10.167
REMARK INTRA:                  -1.154
REMARK UNBOUND:                -1.464
REMARK SMILES O=c1c(O[C@@H]2O[C@H](CO)[C@@H](O)[C@H](O)[C@H]2O)c(-c2cc(O)c(O)c(O)c2)oc2cc(O)cc(O)c12
REMARK SMILES IDX 4 1 3 2 16 3 26 4 2 5 27 6 1 7 34 8 28 9 32 10 29 11 31 12
REMARK SMILES IDX 17 13 18 14 19 15 25 16 21 17 23 18 20 19 22 21 24 23 33 25
REMARK SMILES IDX 30 27 5 29 14 30 6 31 12 32 7 33 10 34 15 35 13 37 8 39 9 40
REMARK SMILES IDX 11 42
REMARK H PARENT 20 20 22 22 24 24 33 26 30 28 15 36 13 38 9 41 11 43
REMARK Flexibility Score: inf
ROOT
ATOM      1  O   UNL     1     -38.175   5.741  81.501  1.00  0.00    -0.454 OA
ENDROOT
BRANCH   1   2
ATOM      2  C   UNL     1     -38.995   5.133  80.521  1.00  0.00     0.214 A 
ATOM      3  C   UNL     1     -38.461   5.007  79.221  1.00  0.00     0.181 A 
ATOM      4  O   UNL     1     -39.135   4.366  78.273  1.00  0.00    -0.452 OA
ATOM      5  C   UNL     1     -40.295   4.619  80.754  1.00  0.00     0.239 A 
ATOM      6  C   UNL     1     -40.342   3.853  78.458  1.00  0.00     0.146 A 
ATOM      7  O   UNL     1     -40.845   4.739  81.881  1.00  0.00    -0.285 OA
ATOM      8  C   UNL     1     -40.989   3.971  79.709  1.00  0.00     0.111 A 
ATOM      9  C   UNL     1     -40.972   3.200  77.393  1.00  0.00     0.094 A 
ATOM     10  C   UNL     1     -42.293   3.435  79.860  1.00  0.00     0.134 A 
ATOM     11  C   UNL     1     -42.255   2.669  77.551  1.00  0.00     0.123 A 
ATOM     12  C   UNL     1     -42.910   2.790  78.777  1.00  0.00     0.093 A 
BRANCH   3  13
ATOM     13  C   UNL     1     -37.140   5.571  78.868  1.00  0.00     0.029 A 
ATOM     14  C   UNL     1     -35.964   4.829  79.065  1.00  0.00     0.062 A 
ATOM     15  C   UNL     1     -34.713   5.386  78.774  1.00  0.00     0.162 A 
ATOM     16  C   UNL     1     -37.048   6.888  78.397  1.00  0.00     0.062 A 
ATOM     17  C   UNL     1     -34.629   6.702  78.284  1.00  0.00     0.200 A 
ATOM     18  C   UNL     1     -35.801   7.454  78.097  1.00  0.00     0.162 A 
BRANCH  15  19
ATOM     19  O   UNL     1     -33.569   4.618  78.984  1.00  0.00    -0.504 OA
ATOM     20  H   UNL     1     -32.946   4.358  78.227  1.00  0.00     0.293 HD
ENDBRANCH  15  19
BRANCH  17  21
ATOM     21  O   UNL     1     -33.378   7.249  77.995  1.00  0.00    -0.502 OA
ATOM     22  H   UNL     1     -32.726   7.521  78.718  1.00  0.00     0.293 HD
ENDBRANCH  17  21
BRANCH  18  23
ATOM     23  O   UNL     1     -35.724   8.765  77.624  1.00  0.00    -0.504 OA
ATOM     24  H   UNL     1     -35.739   9.558  78.259  1.00  0.00     0.293 HD
ENDBRANCH  18  23
ENDBRANCH   3  13
BRANCH  10  25
ATOM     25  O   UNL     1     -42.980   3.540  81.072  1.00  0.00    -0.507 OA
ATOM     26  H   UNL     1     -42.550   3.950  81.892  1.00  0.00     0.293 HD
ENDBRANCH  10  25
BRANCH  11  27
ATOM     27  O   UNL     1     -42.888   2.016  76.495  1.00  0.00    -0.508 OA
ATOM     28  H   UNL     1     -43.409   1.157  76.637  1.00  0.00     0.293 HD
ENDBRANCH  11  27
ENDBRANCH   1   2
BRANCH   1  29
ATOM     29  C   UNL     1     -37.022   5.232  82.180  1.00  0.00     0.339 C 
ATOM     30  C   UNL     1     -36.174   6.388  82.763  1.00  0.00     0.214 C 
ATOM     31  O   UNL     1     -37.409   4.290  83.164  1.00  0.00    -0.332 OA
ATOM     32  C   UNL     1     -34.969   5.824  83.545  1.00  0.00     0.180 C 
ATOM     33  C   UNL     1     -36.276   3.673  83.751  1.00  0.00     0.179 C 
ATOM     34  C   UNL     1     -35.432   4.723  84.517  1.00  0.00     0.177 C 
BRANCH  30  35
ATOM     35  O   UNL     1     -35.746   7.250  81.737  1.00  0.00    -0.384 OA
ATOM     36  H   UNL     1     -36.507   7.385  81.115  1.00  0.00     0.211 HD
ENDBRANCH  30  35
BRANCH  32  37
ATOM     37  O   UNL     1     -34.347   6.852  84.274  1.00  0.00    -0.387 OA
ATOM     38  H   UNL     1     -34.925   7.657  84.197  1.00  0.00     0.211 HD
ENDBRANCH  32  37
BRANCH  33  39
ATOM     39  C   UNL     1     -36.781   2.564  84.686  1.00  0.00     0.191 C 
BRANCH  39  40
ATOM     40  O   UNL     1     -37.888   1.912  84.126  1.00  0.00    -0.394 OA
ATOM     41  H   UNL     1     -38.459   2.624  83.734  1.00  0.00     0.210 HD
ENDBRANCH  39  40
ENDBRANCH  33  39
BRANCH  34  42
ATOM     42  O   UNL     1     -34.308   4.107  85.092  1.00  0.00    -0.387 OA
ATOM     43  H   UNL     1     -34.194   4.500  85.997  1.00  0.00     0.211 HD
ENDBRANCH  34  42
ENDBRANCH   1  29
TORSDOF 13
ENDMDL
MODEL 6
REMARK VINA RESULT:    -6.536      1.521      2.159
REMARK INTER + INTRA:         -11.248
REMARK INTER:                 -10.198
REMARK INTRA:                  -1.050
REMARK UNBOUND:                -1.464
REMARK SMILES O=c1c(O[C@@H]2O[C@H](CO)[C@@H](O)[C@H](O)[C@H]2O)c(-c2cc(O)c(O)c(O)c2)oc2cc(O)cc(O)c12
REMARK SMILES IDX 4 1 3 2 16 3 26 4 2 5 27 6 1 7 34 8 28 9 32 10 29 11 31 12
REMARK SMILES IDX 17 13 18 14 19 15 25 16 21 17 23 18 20 19 22 21 24 23 33 25
REMARK SMILES IDX 30 27 5 29 14 30 6 31 12 32 7 33 10 34 15 35 13 37 8 39 9 40
REMARK SMILES IDX 11 42
REMARK H PARENT 20 20 22 22 24 24 33 26 30 28 15 36 13 38 9 41 11 43
REMARK Flexibility Score: inf
ROOT
ATOM      1  O   UNL     1     -38.245   6.176  81.525  1.00  0.00    -0.454 OA
ENDROOT
BRANCH   1   2
ATOM      2  C   UNL     1     -38.980   5.389  80.606  1.00  0.00     0.214 A 
ATOM      3  C   UNL     1     -38.358   5.083  79.377  1.00  0.00     0.181 A 
ATOM      4  O   UNL     1     -38.948   4.275  78.504  1.00  0.00    -0.452 OA
ATOM      5  C   UNL     1     -40.276   4.864  80.840  1.00  0.00     0.239 A 
ATOM      6  C   UNL     1     -40.148   3.747  78.696  1.00  0.00     0.146 A 
ATOM      7  O   UNL     1     -40.901   5.136  81.899  1.00  0.00    -0.285 OA
ATOM      8  C   UNL     1     -40.879   4.033  79.871  1.00  0.00     0.111 A 
ATOM      9  C   UNL     1     -40.686   2.910  77.713  1.00  0.00     0.094 A 
ATOM     10  C   UNL     1     -42.172   3.473  80.028  1.00  0.00     0.134 A 
ATOM     11  C   UNL     1     -41.959   2.357  77.876  1.00  0.00     0.123 A 
ATOM     12  C   UNL     1     -42.697   2.642  79.026  1.00  0.00     0.093 A 
BRANCH   3  13
ATOM     13  C   UNL     1     -37.035   5.639  79.018  1.00  0.00     0.029 A 
ATOM     14  C   UNL     1     -35.856   4.934  79.307  1.00  0.00     0.062 A 
ATOM     15  C   UNL     1     -34.604   5.487  79.009  1.00  0.00     0.162 A 
ATOM     16  C   UNL     1     -36.948   6.917  78.447  1.00  0.00     0.062 A 
ATOM     17  C   UNL     1     -34.524   6.762  78.418  1.00  0.00     0.200 A 
ATOM     18  C   UNL     1     -35.701   7.477  78.139  1.00  0.00     0.162 A 
BRANCH  15  19
ATOM     19  O   UNL     1     -33.456   4.757  79.311  1.00  0.00    -0.504 OA
ATOM     20  H   UNL     1     -32.688   4.662  78.657  1.00  0.00     0.293 HD
ENDBRANCH  15  19
BRANCH  17  21
ATOM     21  O   UNL     1     -33.273   7.305  78.123  1.00  0.00    -0.502 OA
ATOM     22  H   UNL     1     -32.490   7.238  78.758  1.00  0.00     0.293 HD
ENDBRANCH  17  21
BRANCH  18  23
ATOM     23  O   UNL     1     -35.628   8.748  77.565  1.00  0.00    -0.504 OA
ATOM     24  H   UNL     1     -35.517   9.580  78.137  1.00  0.00     0.293 HD
ENDBRANCH  18  23
ENDBRANCH   3  13
BRANCH  10  25
ATOM     25  O   UNL     1     -42.940   3.738  81.164  1.00  0.00    -0.507 OA
ATOM     26  H   UNL     1     -43.947   3.829  81.115  1.00  0.00     0.293 HD
ENDBRANCH  10  25
BRANCH  11  27
ATOM     27  O   UNL     1     -42.501   1.522  76.901  1.00  0.00    -0.508 OA
ATOM     28  H   UNL     1     -43.500   1.485  76.728  1.00  0.00     0.293 HD
ENDBRANCH  11  27
ENDBRANCH   1   2
BRANCH   1  29
ATOM     29  C   UNL     1     -37.338   5.777  82.558  1.00  0.00     0.339 C 
ATOM     30  C   UNL     1     -37.444   4.256  82.824  1.00  0.00     0.214 C 
ATOM     31  O   UNL     1     -36.021   6.184  82.236  1.00  0.00    -0.332 OA
ATOM     32  C   UNL     1     -36.416   3.830  83.894  1.00  0.00     0.180 C 
ATOM     33  C   UNL     1     -35.131   5.923  83.308  1.00  0.00     0.179 C 
ATOM     34  C   UNL     1     -35.026   4.397  83.554  1.00  0.00     0.177 C 
BRANCH  30  35
ATOM     35  O   UNL     1     -38.749   3.915  83.219  1.00  0.00    -0.384 OA
ATOM     36  H   UNL     1     -39.379   4.305  82.559  1.00  0.00     0.211 HD
ENDBRANCH  30  35
BRANCH  32  37
ATOM     37  O   UNL     1     -36.342   2.428  83.955  1.00  0.00    -0.387 OA
ATOM     38  H   UNL     1     -36.035   2.111  83.063  1.00  0.00     0.211 HD
ENDBRANCH  32  37
BRANCH  33  39
ATOM     39  C   UNL     1     -33.768   6.531  82.942  1.00  0.00     0.191 C 
BRANCH  39  40
ATOM     40  O   UNL     1     -33.032   6.824  84.099  1.00  0.00    -0.394 OA
ATOM     41  H   UNL     1     -32.630   5.965  84.395  1.00  0.00     0.210 HD
ENDBRANCH  39  40
ENDBRANCH  33  39
BRANCH  34  42
ATOM     42  O   UNL     1     -34.147   4.143  84.621  1.00  0.00    -0.387 OA
ATOM     43  H   UNL     1     -33.691   3.284  84.422  1.00  0.00     0.211 HD
ENDBRANCH  34  42
ENDBRANCH   1  29
TORSDOF 13
ENDMDL
MODEL 7
REMARK VINA RESULT:    -6.418     10.434     14.179
REMARK INTER + INTRA:         -11.071
REMARK INTER:                  -9.885
REMARK INTRA:                  -1.187
REMARK UNBOUND:                -1.464
REMARK SMILES O=c1c(O[C@@H]2O[C@H](CO)[C@@H](O)[C@H](O)[C@H]2O)c(-c2cc(O)c(O)c(O)c2)oc2cc(O)cc(O)c12
REMARK SMILES IDX 4 1 3 2 16 3 26 4 2 5 27 6 1 7 34 8 28 9 32 10 29 11 31 12
REMARK SMILES IDX 17 13 18 14 19 15 25 16 21 17 23 18 20 19 22 21 24 23 33 25
REMARK SMILES IDX 30 27 5 29 14 30 6 31 12 32 7 33 10 34 15 35 13 37 8 39 9 40
REMARK SMILES IDX 11 42
REMARK H PARENT 20 20 22 22 24 24 33 26 30 28 15 36 13 38 9 41 11 43
REMARK Flexibility Score: inf
ROOT
ATOM      1  O   UNL     1     -40.477  -7.350  83.192  1.00  0.00    -0.454 OA
ENDROOT
BRANCH   1   2
ATOM      2  C   UNL     1     -40.471  -5.935  83.169  1.00  0.00     0.214 A 
ATOM      3  C   UNL     1     -41.505  -5.297  82.450  1.00  0.00     0.181 A 
ATOM      4  O   UNL     1     -41.616  -3.975  82.459  1.00  0.00    -0.452 OA
ATOM      5  C   UNL     1     -39.525  -5.116  83.833  1.00  0.00     0.239 A 
ATOM      6  C   UNL     1     -40.766  -3.175  83.086  1.00  0.00     0.146 A 
ATOM      7  O   UNL     1     -38.555  -5.623  84.456  1.00  0.00    -0.285 OA
ATOM      8  C   UNL     1     -39.664  -3.711  83.792  1.00  0.00     0.111 A 
ATOM      9  C   UNL     1     -40.968  -1.793  83.031  1.00  0.00     0.094 A 
ATOM     10  C   UNL     1     -38.759  -2.823  84.427  1.00  0.00     0.134 A 
ATOM     11  C   UNL     1     -40.074  -0.923  83.664  1.00  0.00     0.123 A 
ATOM     12  C   UNL     1     -38.976  -1.439  84.353  1.00  0.00     0.093 A 
BRANCH   3  13
ATOM     13  C   UNL     1     -42.498  -6.069  81.671  1.00  0.00     0.029 A 
ATOM     14  C   UNL     1     -42.474  -6.061  80.267  1.00  0.00     0.062 A 
ATOM     15  C   UNL     1     -43.446  -6.755  79.535  1.00  0.00     0.162 A 
ATOM     16  C   UNL     1     -43.520  -6.760  82.336  1.00  0.00     0.062 A 
ATOM     17  C   UNL     1     -44.458  -7.462  80.209  1.00  0.00     0.200 A 
ATOM     18  C   UNL     1     -44.495  -7.462  81.613  1.00  0.00     0.162 A 
BRANCH  15  19
ATOM     19  O   UNL     1     -43.390  -6.723  78.143  1.00  0.00    -0.504 OA
ATOM     20  H   UNL     1     -43.882  -6.024  77.598  1.00  0.00     0.293 HD
ENDBRANCH  15  19
BRANCH  17  21
ATOM     21  O   UNL     1     -45.422  -8.151  79.472  1.00  0.00    -0.502 OA
ATOM     22  H   UNL     1     -46.411  -7.963  79.562  1.00  0.00     0.293 HD
ENDBRANCH  17  21
BRANCH  18  23
ATOM     23  O   UNL     1     -45.504  -8.151  82.287  1.00  0.00    -0.504 OA
ATOM     24  H   UNL     1     -46.192  -8.706  81.786  1.00  0.00     0.293 HD
ENDBRANCH  18  23
ENDBRANCH   3  13
BRANCH  10  25
ATOM     25  O   UNL     1     -37.648  -3.303  85.123  1.00  0.00    -0.507 OA
ATOM     26  H   UNL     1     -37.550  -4.284  85.356  1.00  0.00     0.293 HD
ENDBRANCH  10  25
BRANCH  11  27
ATOM     27  O   UNL     1     -40.270   0.456  83.614  1.00  0.00    -0.508 OA
ATOM     28  H   UNL     1     -41.110   0.859  83.213  1.00  0.00     0.293 HD
ENDBRANCH  11  27
ENDBRANCH   1   2
BRANCH   1  29
ATOM     29  C   UNL     1     -39.586  -8.284  82.573  1.00  0.00     0.339 C 
ATOM     30  C   UNL     1     -40.090  -8.670  81.161  1.00  0.00     0.214 C 
ATOM     31  O   UNL     1     -38.268  -7.767  82.559  1.00  0.00    -0.332 OA
ATOM     32  C   UNL     1     -39.088  -9.627  80.481  1.00  0.00     0.180 C 
ATOM     33  C   UNL     1     -37.348  -8.732  82.078  1.00  0.00     0.179 C 
ATOM     34  C   UNL     1     -37.657  -9.072  80.598  1.00  0.00     0.177 C 
BRANCH  30  35
ATOM     35  O   UNL     1     -41.367  -9.253  81.236  1.00  0.00    -0.384 OA
ATOM     36  H   UNL     1     -41.746  -9.042  82.129  1.00  0.00     0.211 HD
ENDBRANCH  30  35
BRANCH  32  37
ATOM     37  O   UNL     1     -39.416  -9.778  79.123  1.00  0.00    -0.387 OA
ATOM     38  H   UNL     1     -38.611  -9.525  78.597  1.00  0.00     0.211 HD
ENDBRANCH  32  37
BRANCH  33  39
ATOM     39  C   UNL     1     -35.935  -8.152  82.241  1.00  0.00     0.191 C 
BRANCH  39  40
ATOM     40  O   UNL     1     -35.472  -7.630  81.025  1.00  0.00    -0.394 OA
ATOM     41  H   UNL     1     -35.998  -6.804  80.860  1.00  0.00     0.210 HD
ENDBRANCH  39  40
ENDBRANCH  33  39
BRANCH  34  42
ATOM     42  O   UNL     1     -36.745 -10.032  80.126  1.00  0.00    -0.387 OA
ATOM     43  H   UNL     1     -36.067 -10.163  80.839  1.00  0.00     0.211 HD
ENDBRANCH  34  42
ENDBRANCH   1  29
TORSDOF 13
ENDMDL
MODEL 8
REMARK VINA RESULT:    -6.330      2.286      7.891
REMARK INTER + INTRA:         -10.939
REMARK INTER:                  -9.759
REMARK INTRA:                  -1.179
REMARK UNBOUND:                -1.464
REMARK SMILES O=c1c(O[C@@H]2O[C@H](CO)[C@@H](O)[C@H](O)[C@H]2O)c(-c2cc(O)c(O)c(O)c2)oc2cc(O)cc(O)c12
REMARK SMILES IDX 4 1 3 2 16 3 26 4 2 5 27 6 1 7 34 8 28 9 32 10 29 11 31 12
REMARK SMILES IDX 17 13 18 14 19 15 25 16 21 17 23 18 20 19 22 21 24 23 33 25
REMARK SMILES IDX 30 27 5 29 14 30 6 31 12 32 7 33 10 34 15 35 13 37 8 39 9 40
REMARK SMILES IDX 11 42
REMARK H PARENT 20 20 22 22 24 24 33 26 30 28 15 36 13 38 9 41 11 43
REMARK Flexibility Score: inf
ROOT
ATOM      1  O   UNL     1     -36.834   3.980  79.843  1.00  0.00    -0.454 OA
ENDROOT
BRANCH   1   2
ATOM      2  C   UNL     1     -35.949   4.928  80.410  1.00  0.00     0.214 A 
ATOM      3  C   UNL     1     -36.058   5.163  81.798  1.00  0.00     0.181 A 
ATOM      4  O   UNL     1     -35.203   5.969  82.415  1.00  0.00    -0.452 OA
ATOM      5  C   UNL     1     -34.949   5.633  79.697  1.00  0.00     0.239 A 
ATOM      6  C   UNL     1     -34.240   6.629  81.787  1.00  0.00     0.146 A 
ATOM      7  O   UNL     1     -34.828   5.500  78.450  1.00  0.00    -0.285 OA
ATOM      8  C   UNL     1     -34.078   6.504  80.389  1.00  0.00     0.111 A 
ATOM      9  C   UNL     1     -33.392   7.458  82.528  1.00  0.00     0.094 A 
ATOM     10  C   UNL     1     -33.056   7.248  79.748  1.00  0.00     0.134 A 
ATOM     11  C   UNL     1     -32.383   8.185  81.891  1.00  0.00     0.123 A 
ATOM     12  C   UNL     1     -32.220   8.081  80.508  1.00  0.00     0.093 A 
BRANCH   3  13
ATOM     13  C   UNL     1     -37.114   4.522  82.612  1.00  0.00     0.029 A 
ATOM     14  C   UNL     1     -37.221   3.124  82.680  1.00  0.00     0.062 A 
ATOM     15  C   UNL     1     -38.252   2.524  83.414  1.00  0.00     0.162 A 
ATOM     16  C   UNL     1     -38.066   5.316  83.267  1.00  0.00     0.062 A 
ATOM     17  C   UNL     1     -39.193   3.326  84.085  1.00  0.00     0.200 A 
ATOM     18  C   UNL     1     -39.099   4.725  84.009  1.00  0.00     0.162 A 
BRANCH  15  19
ATOM     19  O   UNL     1     -38.325   1.133  83.457  1.00  0.00    -0.504 OA
ATOM     20  H   UNL     1     -38.666   0.635  84.273  1.00  0.00     0.293 HD
ENDBRANCH  15  19
BRANCH  17  21
ATOM     21  O   UNL     1     -40.217   2.720  84.814  1.00  0.00    -0.502 OA
ATOM     22  H   UNL     1     -41.148   2.595  84.441  1.00  0.00     0.293 HD
ENDBRANCH  17  21
BRANCH  18  23
ATOM     23  O   UNL     1     -40.037   5.527  84.661  1.00  0.00    -0.504 OA
ATOM     24  H   UNL     1     -39.780   6.099  85.460  1.00  0.00     0.293 HD
ENDBRANCH  18  23
ENDBRANCH   3  13
BRANCH  10  25
ATOM     25  O   UNL     1     -32.866   7.171  78.367  1.00  0.00    -0.507 OA
ATOM     26  H   UNL     1     -33.444   7.694  77.721  1.00  0.00     0.293 HD
ENDBRANCH  10  25
BRANCH  11  27
ATOM     27  O   UNL     1     -31.533   9.013  82.622  1.00  0.00    -0.508 OA
ATOM     28  H   UNL     1     -31.380   9.981  82.361  1.00  0.00     0.293 HD
ENDBRANCH  11  27
ENDBRANCH   1   2
BRANCH   1  29
ATOM     29  C   UNL     1     -38.079   4.176  79.164  1.00  0.00     0.339 C 
ATOM     30  C   UNL     1     -38.824   2.831  78.986  1.00  0.00     0.214 C 
ATOM     31  O   UNL     1     -38.858   5.146  79.840  1.00  0.00    -0.332 OA
ATOM     32  C   UNL     1     -40.192   3.065  78.310  1.00  0.00     0.180 C 
ATOM     33  C   UNL     1     -40.033   5.456  79.108  1.00  0.00     0.179 C 
ATOM     34  C   UNL     1     -40.946   4.208  79.013  1.00  0.00     0.177 C 
BRANCH  30  35
ATOM     35  O   UNL     1     -38.044   1.931  78.239  1.00  0.00    -0.384 OA
ATOM     36  H   UNL     1     -37.252   1.687  78.787  1.00  0.00     0.211 HD
ENDBRANCH  30  35
BRANCH  32  37
ATOM     37  O   UNL     1     -40.965   1.893  78.373  1.00  0.00    -0.387 OA
ATOM     38  H   UNL     1     -40.335   1.124  78.332  1.00  0.00     0.211 HD
ENDBRANCH  32  37
BRANCH  33  39
ATOM     39  C   UNL     1     -40.736   6.618  79.825  1.00  0.00     0.191 C 
BRANCH  39  40
ATOM     40  O   UNL     1     -41.401   7.437  78.902  1.00  0.00    -0.394 OA
ATOM     41  H   UNL     1     -41.476   8.330  79.329  1.00  0.00     0.210 HD
ENDBRANCH  39  40
ENDBRANCH  33  39
BRANCH  34  42
ATOM     42  O   UNL     1     -42.107   4.518  78.283  1.00  0.00    -0.387 OA
ATOM     43  H   UNL     1     -42.401   3.682  77.838  1.00  0.00     0.211 HD
ENDBRANCH  34  42
ENDBRANCH   1  29
TORSDOF 13
ENDMDL
MODEL 9
REMARK VINA RESULT:    -6.088      2.983      5.758
REMARK INTER + INTRA:         -10.577
REMARK INTER:                  -8.976
REMARK INTRA:                  -1.601
REMARK UNBOUND:                -1.464
REMARK SMILES O=c1c(O[C@@H]2O[C@H](CO)[C@@H](O)[C@H](O)[C@H]2O)c(-c2cc(O)c(O)c(O)c2)oc2cc(O)cc(O)c12
REMARK SMILES IDX 4 1 3 2 16 3 26 4 2 5 27 6 1 7 34 8 28 9 32 10 29 11 31 12
REMARK SMILES IDX 17 13 18 14 19 15 25 16 21 17 23 18 20 19 22 21 24 23 33 25
REMARK SMILES IDX 30 27 5 29 14 30 6 31 12 32 7 33 10 34 15 35 13 37 8 39 9 40
REMARK SMILES IDX 11 42
REMARK H PARENT 20 20 22 22 24 24 33 26 30 28 15 36 13 38 9 41 11 43
REMARK Flexibility Score: inf
ROOT
ATOM      1  O   UNL     1     -37.343   5.444  79.732  1.00  0.00    -0.454 OA
ENDROOT
BRANCH   1   2
ATOM      2  C   UNL     1     -38.442   6.218  79.289  1.00  0.00     0.214 A 
ATOM      3  C   UNL     1     -39.565   6.290  80.139  1.00  0.00     0.181 A 
ATOM      4  O   UNL     1     -40.595   7.070  79.833  1.00  0.00    -0.452 OA
ATOM      5  C   UNL     1     -38.485   6.946  78.074  1.00  0.00     0.239 A 
ATOM      6  C   UNL     1     -40.664   7.783  78.718  1.00  0.00     0.146 A 
ATOM      7  O   UNL     1     -37.532   6.890  77.252  1.00  0.00    -0.285 OA
ATOM      8  C   UNL     1     -39.613   7.740  77.773  1.00  0.00     0.111 A 
ATOM      9  C   UNL     1     -41.796   8.571  78.486  1.00  0.00     0.094 A 
ATOM     10  C   UNL     1     -39.735   8.494  76.579  1.00  0.00     0.134 A 
ATOM     11  C   UNL     1     -41.907   9.315  77.308  1.00  0.00     0.123 A 
ATOM     12  C   UNL     1     -40.883   9.272  76.361  1.00  0.00     0.093 A 
BRANCH   3  13
ATOM     13  C   UNL     1     -39.638   5.512  81.396  1.00  0.00     0.029 A 
ATOM     14  C   UNL     1     -40.127   4.196  81.400  1.00  0.00     0.062 A 
ATOM     15  C   UNL     1     -40.239   3.481  82.598  1.00  0.00     0.162 A 
ATOM     16  C   UNL     1     -39.282   6.115  82.610  1.00  0.00     0.062 A 
ATOM     17  C   UNL     1     -39.862   4.085  83.812  1.00  0.00     0.200 A 
ATOM     18  C   UNL     1     -39.384   5.406  83.815  1.00  0.00     0.162 A 
BRANCH  15  19
ATOM     19  O   UNL     1     -40.730   2.178  82.562  1.00  0.00    -0.504 OA
ATOM     20  H   UNL     1     -41.054   1.746  81.704  1.00  0.00     0.293 HD
ENDBRANCH  15  19
BRANCH  17  21
ATOM     21  O   UNL     1     -39.974   3.366  85.002  1.00  0.00    -0.502 OA
ATOM     22  H   UNL     1     -39.228   3.322  85.682  1.00  0.00     0.293 HD
ENDBRANCH  17  21
BRANCH  18  23
ATOM     23  O   UNL     1     -39.021   6.016  85.017  1.00  0.00    -0.504 OA
ATOM     24  H   UNL     1     -38.439   5.538  85.699  1.00  0.00     0.293 HD
ENDBRANCH  18  23
ENDBRANCH   3  13
BRANCH  10  25
ATOM     25  O   UNL     1     -38.732   8.473  75.608  1.00  0.00    -0.507 OA
ATOM     26  H   UNL     1     -38.525   7.637  75.076  1.00  0.00     0.293 HD
ENDBRANCH  10  25
BRANCH  11  27
ATOM     27  O   UNL     1     -43.031  10.103  77.070  1.00  0.00    -0.508 OA
ATOM     28  H   UNL     1     -43.606   9.973  76.244  1.00  0.00     0.293 HD
ENDBRANCH  11  27
ENDBRANCH   1   2
BRANCH   1  29
ATOM     29  C   UNL     1     -36.090   5.857  80.285  1.00  0.00     0.339 C 
ATOM     30  C   UNL     1     -34.965   5.764  79.226  1.00  0.00     0.214 C 
ATOM     31  O   UNL     1     -36.205   7.153  80.844  1.00  0.00    -0.332 OA
ATOM     32  C   UNL     1     -33.633   6.272  79.816  1.00  0.00     0.180 C 
ATOM     33  C   UNL     1     -35.015   7.525  81.519  1.00  0.00     0.179 C 
ATOM     34  C   UNL     1     -33.842   7.630  80.513  1.00  0.00     0.177 C 
BRANCH  30  35
ATOM     35  O   UNL     1     -34.834   4.443  78.762  1.00  0.00    -0.384 OA
ATOM     36  H   UNL     1     -35.147   3.835  79.481  1.00  0.00     0.211 HD
ENDBRANCH  30  35
BRANCH  32  37
ATOM     37  O   UNL     1     -32.680   6.419  78.794  1.00  0.00    -0.387 OA
ATOM     38  H   UNL     1     -32.092   7.179  79.048  1.00  0.00     0.211 HD
ENDBRANCH  32  37
BRANCH  33  39
ATOM     39  C   UNL     1     -35.277   8.865  82.223  1.00  0.00     0.191 C 
BRANCH  39  40
ATOM     40  O   UNL     1     -34.458   8.996  83.353  1.00  0.00    -0.394 OA
ATOM     41  H   UNL     1     -34.519   9.948  83.630  1.00  0.00     0.210 HD
ENDBRANCH  39  40
ENDBRANCH  33  39
BRANCH  34  42
ATOM     42  O   UNL     1     -32.663   7.993  81.187  1.00  0.00    -0.387 OA
ATOM     43  H   UNL     1     -31.943   8.041  80.506  1.00  0.00     0.211 HD
ENDBRANCH  34  42
ENDBRANCH   1  29
TORSDOF 13
ENDMDL
