MODEL 1
REMARK VINA RESULT:    -8.618      0.000      0.000
REMARK INTER + INTRA:         -10.450
REMARK INTER:                 -10.130
REMARK INTRA:                  -0.321
REMARK UNBOUND:                -0.321
REMARK SMILES O=c1c(O)c(-c2ccc(O)c(O)c2)oc2cc(O)ccc12
REMARK SMILES IDX 5 1 3 2 2 3 1 4 21 5 15 6 14 7 16 8 17 9 19 10 20 11 6 12
REMARK SMILES IDX 7 13 8 14 9 15 13 16 11 17 10 18 12 20 4 22 18 24
REMARK H PARENT 10 19 12 21 4 23 18 25
REMARK Flexibility Score: inf
ROOT
ATOM      1  C   UNL     1     137.398 -17.999  79.601  1.00  0.00     0.180 A 
ATOM      2  C   UNL     1     138.526 -18.453  78.887  1.00  0.00     0.208 A 
ATOM      3  C   UNL     1     139.718 -17.716  78.965  1.00  0.00     0.235 A 
ATOM      4  O   UNL     1     140.739 -18.096  78.329  1.00  0.00    -0.285 OA
ATOM      5  C   UNL     1     139.765 -16.561  79.763  1.00  0.00     0.069 A 
ATOM      6  C   UNL     1     138.598 -16.185  80.464  1.00  0.00     0.142 A 
ATOM      7  O   UNL     1     137.488 -16.906  80.357  1.00  0.00    -0.452 OA
ATOM      8  C   UNL     1     138.608 -15.047  81.277  1.00  0.00     0.094 A 
ATOM      9  C   UNL     1     139.768 -14.275  81.398  1.00  0.00     0.119 A 
ATOM     10  C   UNL     1     140.926 -14.643  80.701  1.00  0.00     0.047 A 
ATOM     11  C   UNL     1     140.928 -15.781  79.887  1.00  0.00     0.020 A 
ENDROOT
BRANCH   1  12
ATOM     12  C   UNL     1     136.101 -18.710  79.554  1.00  0.00     0.025 A 
ATOM     13  C   UNL     1     135.762 -19.597  80.589  1.00  0.00     0.016 A 
ATOM     14  C   UNL     1     134.534 -20.264  80.577  1.00  0.00     0.051 A 
ATOM     15  C   UNL     1     133.620 -20.041  79.538  1.00  0.00     0.157 A 
ATOM     16  C   UNL     1     135.172 -18.474  78.525  1.00  0.00     0.062 A 
ATOM     17  C   UNL     1     133.938 -19.140  78.513  1.00  0.00     0.158 A 
BRANCH  15  18
ATOM     18  O   UNL     1     132.395 -20.704  79.521  1.00  0.00    -0.504 OA
ATOM     19  H   UNL     1     131.999 -21.062  78.659  1.00  0.00     0.293 HD
ENDBRANCH  15  18
BRANCH  17  20
ATOM     20  O   UNL     1     133.021 -18.911  77.489  1.00  0.00    -0.504 OA
ATOM     21  H   UNL     1     132.405 -18.106  77.500  1.00  0.00     0.293 HD
ENDBRANCH  17  20
ENDBRANCH   1  12
BRANCH   2  22
ATOM     22  O   UNL     1     138.465 -19.633  78.142  1.00  0.00    -0.502 OA
ATOM     23  H   UNL     1     139.295 -20.146  77.869  1.00  0.00     0.293 HD
ENDBRANCH   2  22
BRANCH   9  24
ATOM     24  O   UNL     1     139.758 -13.143  82.211  1.00  0.00    -0.508 OA
ATOM     25  H   UNL     1     140.356 -12.347  82.017  1.00  0.00     0.293 HD
ENDBRANCH   9  24
TORSDOF 5
ENDMDL
MODEL 2
REMARK VINA RESULT:    -7.411      2.901      5.992
REMARK INTER + INTRA:          -9.031
REMARK INTER:                  -8.710
REMARK INTRA:                  -0.322
REMARK UNBOUND:                -0.321
REMARK SMILES O=c1c(O)c(-c2ccc(O)c(O)c2)oc2cc(O)ccc12
REMARK SMILES IDX 5 1 3 2 2 3 1 4 21 5 15 6 14 7 16 8 17 9 19 10 20 11 6 12
REMARK SMILES IDX 7 13 8 14 9 15 13 16 11 17 10 18 12 20 4 22 18 24
REMARK H PARENT 10 19 12 21 4 23 18 25
REMARK Flexibility Score: inf
ROOT
ATOM      1  C   UNL     1     138.899 -19.442  78.833  1.00  0.00     0.180 A 
ATOM      2  C   UNL     1     137.621 -19.831  78.381  1.00  0.00     0.208 A 
ATOM      3  C   UNL     1     136.490 -19.373  79.075  1.00  0.00     0.235 A 
ATOM      4  O   UNL     1     135.336 -19.715  78.697  1.00  0.00    -0.285 OA
ATOM      5  C   UNL     1     136.655 -18.528  80.185  1.00  0.00     0.069 A 
ATOM      6  C   UNL     1     137.968 -18.167  80.560  1.00  0.00     0.142 A 
ATOM      7  O   UNL     1     139.012 -18.628  79.882  1.00  0.00    -0.452 OA
ATOM      8  C   UNL     1     138.174 -17.318  81.653  1.00  0.00     0.094 A 
ATOM      9  C   UNL     1     137.084 -16.827  82.380  1.00  0.00     0.119 A 
ATOM     10  C   UNL     1     135.781 -17.185  82.012  1.00  0.00     0.047 A 
ATOM     11  C   UNL     1     135.564 -18.031  80.920  1.00  0.00     0.020 A 
ENDROOT
BRANCH   1  12
ATOM     12  C   UNL     1     140.140 -19.898  78.168  1.00  0.00     0.025 A 
ATOM     13  C   UNL     1     140.690 -19.128  77.130  1.00  0.00     0.016 A 
ATOM     14  C   UNL     1     141.872 -19.528  76.501  1.00  0.00     0.051 A 
ATOM     15  C   UNL     1     142.529 -20.695  76.910  1.00  0.00     0.157 A 
ATOM     16  C   UNL     1     140.815 -21.057  78.590  1.00  0.00     0.062 A 
ATOM     17  C   UNL     1     142.003 -21.458  77.961  1.00  0.00     0.158 A 
BRANCH  15  18
ATOM     18  O   UNL     1     143.708 -21.099  76.286  1.00  0.00    -0.504 OA
ATOM     19  H   UNL     1     143.874 -20.919  75.302  1.00  0.00     0.293 HD
ENDBRANCH  15  18
BRANCH  17  20
ATOM     20  O   UNL     1     142.667 -22.611  78.376  1.00  0.00    -0.504 OA
ATOM     21  H   UNL     1     143.670 -22.621  78.525  1.00  0.00     0.293 HD
ENDBRANCH  17  20
ENDBRANCH   1  12
BRANCH   2  22
ATOM     22  O   UNL     1     137.486 -20.631  77.245  1.00  0.00    -0.502 OA
ATOM     23  H   UNL     1     137.675 -21.627  77.257  1.00  0.00     0.293 HD
ENDBRANCH   2  22
BRANCH   9  24
ATOM     24  O   UNL     1     137.308 -15.984  83.467  1.00  0.00    -0.508 OA
ATOM     25  H   UNL     1     138.244 -15.694  83.728  1.00  0.00     0.293 HD
ENDBRANCH   9  24
TORSDOF 5
ENDMDL
MODEL 3
REMARK VINA RESULT:    -7.140      1.444      6.387
REMARK INTER + INTRA:          -8.713
REMARK INTER:                  -8.899
REMARK INTRA:                   0.186
REMARK UNBOUND:                -0.321
REMARK SMILES O=c1c(O)c(-c2ccc(O)c(O)c2)oc2cc(O)ccc12
REMARK SMILES IDX 5 1 3 2 2 3 1 4 21 5 15 6 14 7 16 8 17 9 19 10 20 11 6 12
REMARK SMILES IDX 7 13 8 14 9 15 13 16 11 17 10 18 12 20 4 22 18 24
REMARK H PARENT 10 19 12 21 4 23 18 25
REMARK Flexibility Score: inf
ROOT
ATOM      1  C   UNL     1     137.646 -17.036  79.821  1.00  0.00     0.180 A 
ATOM      2  C   UNL     1     138.554 -17.959  79.262  1.00  0.00     0.208 A 
ATOM      3  C   UNL     1     138.079 -19.218  78.860  1.00  0.00     0.235 A 
ATOM      4  O   UNL     1     138.874 -20.064  78.367  1.00  0.00    -0.285 OA
ATOM      5  C   UNL     1     136.716 -19.520  79.006  1.00  0.00     0.069 A 
ATOM      6  C   UNL     1     135.867 -18.534  79.554  1.00  0.00     0.142 A 
ATOM      7  O   UNL     1     136.357 -17.357  79.929  1.00  0.00    -0.452 OA
ATOM      8  C   UNL     1     134.500 -18.793  79.705  1.00  0.00     0.094 A 
ATOM      9  C   UNL     1     133.969 -20.028  79.318  1.00  0.00     0.119 A 
ATOM     10  C   UNL     1     134.809 -21.010  78.777  1.00  0.00     0.047 A 
ATOM     11  C   UNL     1     136.176 -20.760  78.619  1.00  0.00     0.020 A 
ENDROOT
BRANCH   1  12
ATOM     12  C   UNL     1     138.071 -15.697  80.286  1.00  0.00     0.025 A 
ATOM     13  C   UNL     1     139.309 -15.552  80.933  1.00  0.00     0.016 A 
ATOM     14  C   UNL     1     139.740 -14.294  81.363  1.00  0.00     0.051 A 
ATOM     15  C   UNL     1     138.948 -13.161  81.137  1.00  0.00     0.157 A 
ATOM     16  C   UNL     1     137.288 -14.554  80.043  1.00  0.00     0.062 A 
ATOM     17  C   UNL     1     137.722 -13.291  80.471  1.00  0.00     0.158 A 
BRANCH  15  18
ATOM     18  O   UNL     1     139.373 -11.905  81.564  1.00  0.00    -0.504 OA
ATOM     19  H   UNL     1     139.621 -11.730  82.532  1.00  0.00     0.293 HD
ENDBRANCH  15  18
BRANCH  17  20
ATOM     20  O   UNL     1     136.942 -12.160  80.236  1.00  0.00    -0.504 OA
ATOM     21  H   UNL     1     135.971 -12.116  80.523  1.00  0.00     0.293 HD
ENDBRANCH  17  20
ENDBRANCH   1  12
BRANCH   2  22
ATOM     22  O   UNL     1     139.895 -17.612  79.083  1.00  0.00    -0.502 OA
ATOM     23  H   UNL     1     140.316 -16.817  79.551  1.00  0.00     0.293 HD
ENDBRANCH   2  22
BRANCH   9  24
ATOM     24  O   UNL     1     132.606 -20.269  79.478  1.00  0.00    -0.508 OA
ATOM     25  H   UNL     1     132.262 -21.165  79.805  1.00  0.00     0.293 HD
ENDBRANCH   9  24
TORSDOF 5
ENDMDL
MODEL 4
REMARK VINA RESULT:    -7.124      2.931      5.486
REMARK INTER + INTRA:          -8.694
REMARK INTER:                  -8.752
REMARK INTRA:                   0.058
REMARK UNBOUND:                -0.321
REMARK SMILES O=c1c(O)c(-c2ccc(O)c(O)c2)oc2cc(O)ccc12
REMARK SMILES IDX 5 1 3 2 2 3 1 4 21 5 15 6 14 7 16 8 17 9 19 10 20 11 6 12
REMARK SMILES IDX 7 13 8 14 9 15 13 16 11 17 10 18 12 20 4 22 18 24
REMARK H PARENT 10 19 12 21 4 23 18 25
REMARK Flexibility Score: inf
ROOT
ATOM      1  C   UNL     1     134.020 -18.750  77.304  1.00  0.00     0.180 A 
ATOM      2  C   UNL     1     133.588 -19.498  78.418  1.00  0.00     0.208 A 
ATOM      3  C   UNL     1     134.519 -19.823  79.418  1.00  0.00     0.235 A 
ATOM      4  O   UNL     1     134.159 -20.500  80.420  1.00  0.00    -0.285 OA
ATOM      5  C   UNL     1     135.846 -19.381  79.295  1.00  0.00     0.069 A 
ATOM      6  C   UNL     1     136.194 -18.617  78.160  1.00  0.00     0.142 A 
ATOM      7  O   UNL     1     135.285 -18.338  77.232  1.00  0.00    -0.452 OA
ATOM      8  C   UNL     1     137.504 -18.150  78.006  1.00  0.00     0.094 A 
ATOM      9  C   UNL     1     138.474 -18.438  78.972  1.00  0.00     0.119 A 
ATOM     10  C   UNL     1     138.133 -19.198  80.099  1.00  0.00     0.047 A 
ATOM     11  C   UNL     1     136.825 -19.668  80.262  1.00  0.00     0.020 A 
ENDROOT
BRANCH   1  12
ATOM     12  C   UNL     1     133.105 -18.384  76.200  1.00  0.00     0.025 A 
ATOM     13  C   UNL     1     131.866 -17.793  76.497  1.00  0.00     0.016 A 
ATOM     14  C   UNL     1     130.994 -17.421  75.470  1.00  0.00     0.051 A 
ATOM     15  C   UNL     1     131.355 -17.620  74.131  1.00  0.00     0.157 A 
ATOM     16  C   UNL     1     133.471 -18.563  74.854  1.00  0.00     0.062 A 
ATOM     17  C   UNL     1     132.598 -18.187  73.823  1.00  0.00     0.158 A 
BRANCH  15  18
ATOM     18  O   UNL     1     130.489 -17.252  73.104  1.00  0.00    -0.504 OA
ATOM     19  H   UNL     1     129.892 -16.436  73.181  1.00  0.00     0.293 HD
ENDBRANCH  15  18
BRANCH  17  20
ATOM     20  O   UNL     1     132.960 -18.370  72.489  1.00  0.00    -0.504 OA
ATOM     21  H   UNL     1     133.925 -18.300  72.187  1.00  0.00     0.293 HD
ENDBRANCH  17  20
ENDBRANCH   1  12
BRANCH   2  22
ATOM     22  O   UNL     1     132.250 -19.881  78.538  1.00  0.00    -0.502 OA
ATOM     23  H   UNL     1     131.842 -20.612  77.967  1.00  0.00     0.293 HD
ENDBRANCH   2  22
BRANCH   9  24
ATOM     24  O   UNL     1     139.774 -17.966  78.802  1.00  0.00    -0.508 OA
ATOM     25  H   UNL     1     140.323 -17.632  79.586  1.00  0.00     0.293 HD
ENDBRANCH   9  24
TORSDOF 5
ENDMDL
MODEL 5
REMARK VINA RESULT:    -7.024      2.675      5.416
REMARK INTER + INTRA:          -8.576
REMARK INTER:                  -8.390
REMARK INTRA:                  -0.186
REMARK UNBOUND:                -0.321
REMARK SMILES O=c1c(O)c(-c2ccc(O)c(O)c2)oc2cc(O)ccc12
REMARK SMILES IDX 5 1 3 2 2 3 1 4 21 5 15 6 14 7 16 8 17 9 19 10 20 11 6 12
REMARK SMILES IDX 7 13 8 14 9 15 13 16 11 17 10 18 12 20 4 22 18 24
REMARK H PARENT 10 19 12 21 4 23 18 25
REMARK Flexibility Score: inf
ROOT
ATOM      1  C   UNL     1     139.288 -18.732  78.732  1.00  0.00     0.180 A 
ATOM      2  C   UNL     1     137.928 -18.908  78.402  1.00  0.00     0.208 A 
ATOM      3  C   UNL     1     136.996 -17.954  78.838  1.00  0.00     0.235 A 
ATOM      4  O   UNL     1     135.773 -18.094  78.564  1.00  0.00    -0.285 OA
ATOM      5  C   UNL     1     137.439 -16.842  79.572  1.00  0.00     0.069 A 
ATOM      6  C   UNL     1     138.820 -16.726  79.842  1.00  0.00     0.142 A 
ATOM      7  O   UNL     1     139.669 -17.656  79.418  1.00  0.00    -0.452 OA
ATOM      8  C   UNL     1     139.302 -15.627  80.562  1.00  0.00     0.094 A 
ATOM      9  C   UNL     1     138.422 -14.641  81.019  1.00  0.00     0.119 A 
ATOM     10  C   UNL     1     137.050 -14.754  80.755  1.00  0.00     0.047 A 
ATOM     11  C   UNL     1     136.559 -15.848  80.034  1.00  0.00     0.020 A 
ENDROOT
BRANCH   1  12
ATOM     12  C   UNL     1     140.328 -19.703  78.325  1.00  0.00     0.025 A 
ATOM     13  C   UNL     1     140.317 -20.997  78.873  1.00  0.00     0.016 A 
ATOM     14  C   UNL     1     141.277 -21.937  78.488  1.00  0.00     0.051 A 
ATOM     15  C   UNL     1     142.252 -21.602  77.540  1.00  0.00     0.157 A 
ATOM     16  C   UNL     1     141.296 -19.379  77.358  1.00  0.00     0.062 A 
ATOM     17  C   UNL     1     142.258 -20.322  76.970  1.00  0.00     0.158 A 
BRANCH  15  18
ATOM     18  O   UNL     1     143.212 -22.535  77.154  1.00  0.00    -0.504 OA
ATOM     19  H   UNL     1     144.197 -22.392  77.346  1.00  0.00     0.293 HD
ENDBRANCH  15  18
BRANCH  17  20
ATOM     20  O   UNL     1     143.221 -19.997  76.016  1.00  0.00    -0.504 OA
ATOM     21  H   UNL     1     144.164 -20.363  76.069  1.00  0.00     0.293 HD
ENDBRANCH  17  20
ENDBRANCH   1  12
BRANCH   2  22
ATOM     22  O   UNL     1     137.524 -19.999  77.627  1.00  0.00    -0.502 OA
ATOM     23  H   UNL     1     136.592 -20.393  77.691  1.00  0.00     0.293 HD
ENDBRANCH   2  22
BRANCH   9  24
ATOM     24  O   UNL     1     138.919 -13.555  81.735  1.00  0.00    -0.508 OA
ATOM     25  H   UNL     1     138.462 -13.221  82.577  1.00  0.00     0.293 HD
ENDBRANCH   9  24
TORSDOF 5
ENDMDL
MODEL 6
REMARK VINA RESULT:    -6.853      1.725      6.926
REMARK INTER + INTRA:          -8.376
REMARK INTER:                  -8.078
REMARK INTRA:                  -0.297
REMARK UNBOUND:                -0.321
REMARK SMILES O=c1c(O)c(-c2ccc(O)c(O)c2)oc2cc(O)ccc12
REMARK SMILES IDX 5 1 3 2 2 3 1 4 21 5 15 6 14 7 16 8 17 9 19 10 20 11 6 12
REMARK SMILES IDX 7 13 8 14 9 15 13 16 11 17 10 18 12 20 4 22 18 24
REMARK H PARENT 10 19 12 21 4 23 18 25
REMARK Flexibility Score: inf
ROOT
ATOM      1  C   UNL     1     137.330 -17.249  80.254  1.00  0.00     0.180 A 
ATOM      2  C   UNL     1     136.823 -18.143  81.219  1.00  0.00     0.208 A 
ATOM      3  C   UNL     1     135.827 -19.057  80.839  1.00  0.00     0.235 A 
ATOM      4  O   UNL     1     135.350 -19.860  81.686  1.00  0.00    -0.285 OA
ATOM      5  C   UNL     1     135.376 -19.072  79.509  1.00  0.00     0.069 A 
ATOM      6  C   UNL     1     135.951 -18.160  78.597  1.00  0.00     0.142 A 
ATOM      7  O   UNL     1     136.885 -17.306  78.999  1.00  0.00    -0.452 OA
ATOM      8  C   UNL     1     135.536 -18.151  77.261  1.00  0.00     0.094 A 
ATOM      9  C   UNL     1     134.550 -19.042  76.822  1.00  0.00     0.119 A 
ATOM     10  C   UNL     1     133.976 -19.947  77.724  1.00  0.00     0.047 A 
ATOM     11  C   UNL     1     134.385 -19.965  79.062  1.00  0.00     0.020 A 
ENDROOT
BRANCH   1  12
ATOM     12  C   UNL     1     138.366 -16.245  80.581  1.00  0.00     0.025 A 
ATOM     13  C   UNL     1     137.991 -15.043  81.204  1.00  0.00     0.016 A 
ATOM     14  C   UNL     1     138.955 -14.089  81.541  1.00  0.00     0.051 A 
ATOM     15  C   UNL     1     140.309 -14.328  81.273  1.00  0.00     0.157 A 
ATOM     16  C   UNL     1     139.729 -16.490  80.334  1.00  0.00     0.062 A 
ATOM     17  C   UNL     1     140.697 -15.534  80.673  1.00  0.00     0.158 A 
BRANCH  15  18
ATOM     18  O   UNL     1     141.274 -13.379  81.606  1.00  0.00    -0.504 OA
ATOM     19  H   UNL     1     141.651 -12.743  80.913  1.00  0.00     0.293 HD
ENDBRANCH  15  18
BRANCH  17  20
ATOM     20  O   UNL     1     142.046 -15.775  80.422  1.00  0.00    -0.504 OA
ATOM     21  H   UNL     1     142.390 -16.707  80.219  1.00  0.00     0.293 HD
ENDBRANCH  17  20
ENDBRANCH   1  12
BRANCH   2  22
ATOM     22  O   UNL     1     137.326 -18.139  82.522  1.00  0.00    -0.502 OA
ATOM     23  H   UNL     1     137.208 -17.349  83.146  1.00  0.00     0.293 HD
ENDBRANCH   2  22
BRANCH   9  24
ATOM     24  O   UNL     1     134.148 -19.018  75.488  1.00  0.00    -0.508 OA
ATOM     25  H   UNL     1     134.260 -18.188  74.916  1.00  0.00     0.293 HD
ENDBRANCH   9  24
TORSDOF 5
ENDMDL
MODEL 7
REMARK VINA RESULT:    -6.749      1.529      6.710
REMARK INTER + INTRA:          -8.254
REMARK INTER:                  -8.146
REMARK INTRA:                  -0.108
REMARK UNBOUND:                -0.321
REMARK SMILES O=c1c(O)c(-c2ccc(O)c(O)c2)oc2cc(O)ccc12
REMARK SMILES IDX 5 1 3 2 2 3 1 4 21 5 15 6 14 7 16 8 17 9 19 10 20 11 6 12
REMARK SMILES IDX 7 13 8 14 9 15 13 16 11 17 10 18 12 20 4 22 18 24
REMARK H PARENT 10 19 12 21 4 23 18 25
REMARK Flexibility Score: inf
ROOT
ATOM      1  C   UNL     1     137.560 -18.350  79.777  1.00  0.00     0.180 A 
ATOM      2  C   UNL     1     137.750 -19.709  80.099  1.00  0.00     0.208 A 
ATOM      3  C   UNL     1     136.703 -20.614  79.864  1.00  0.00     0.235 A 
ATOM      4  O   UNL     1     136.845 -21.833  80.153  1.00  0.00    -0.285 OA
ATOM      5  C   UNL     1     135.503 -20.150  79.299  1.00  0.00     0.069 A 
ATOM      6  C   UNL     1     135.400 -18.778  78.984  1.00  0.00     0.142 A 
ATOM      7  O   UNL     1     136.412 -17.953  79.229  1.00  0.00    -0.452 OA
ATOM      8  C   UNL     1     134.226 -18.279  78.410  1.00  0.00     0.094 A 
ATOM      9  C   UNL     1     133.150 -19.133  78.148  1.00  0.00     0.119 A 
ATOM     10  C   UNL     1     133.248 -20.495  78.462  1.00  0.00     0.047 A 
ATOM     11  C   UNL     1     134.418 -21.004  79.034  1.00  0.00     0.020 A 
ENDROOT
BRANCH   1  12
ATOM     12  C   UNL     1     138.608 -17.332  80.012  1.00  0.00     0.025 A 
ATOM     13  C   UNL     1     139.836 -17.437  79.338  1.00  0.00     0.016 A 
ATOM     14  C   UNL     1     140.833 -16.476  79.529  1.00  0.00     0.051 A 
ATOM     15  C   UNL     1     140.611 -15.390  80.385  1.00  0.00     0.157 A 
ATOM     16  C   UNL     1     138.383 -16.228  80.854  1.00  0.00     0.062 A 
ATOM     17  C   UNL     1     139.382 -15.262  81.044  1.00  0.00     0.158 A 
BRANCH  15  18
ATOM     18  O   UNL     1     141.603 -14.430  80.580  1.00  0.00    -0.504 OA
ATOM     19  H   UNL     1     141.594 -13.550  80.076  1.00  0.00     0.293 HD
ENDBRANCH  15  18
BRANCH  17  20
ATOM     20  O   UNL     1     139.159 -14.172  81.883  1.00  0.00    -0.504 OA
ATOM     21  H   UNL     1     139.725 -14.015  82.709  1.00  0.00     0.293 HD
ENDBRANCH  17  20
ENDBRANCH   1  12
BRANCH   2  22
ATOM     22  O   UNL     1     138.972 -20.151  80.613  1.00  0.00    -0.502 OA
ATOM     23  H   UNL     1     139.050 -20.984  81.184  1.00  0.00     0.293 HD
ENDBRANCH   2  22
BRANCH   9  24
ATOM     24  O   UNL     1     131.987 -18.618  77.578  1.00  0.00    -0.508 OA
ATOM     25  H   UNL     1     131.982 -18.237  76.638  1.00  0.00     0.293 HD
ENDBRANCH   9  24
TORSDOF 5
ENDMDL
MODEL 8
REMARK VINA RESULT:    -6.459      2.681      6.714
REMARK INTER + INTRA:          -7.912
REMARK INTER:                  -7.789
REMARK INTRA:                  -0.124
REMARK UNBOUND:                -0.321
REMARK SMILES O=c1c(O)c(-c2ccc(O)c(O)c2)oc2cc(O)ccc12
REMARK SMILES IDX 5 1 3 2 2 3 1 4 21 5 15 6 14 7 16 8 17 9 19 10 20 11 6 12
REMARK SMILES IDX 7 13 8 14 9 15 13 16 11 17 10 18 12 20 4 22 18 24
REMARK H PARENT 10 19 12 21 4 23 18 25
REMARK Flexibility Score: inf
ROOT
ATOM      1  C   UNL     1     139.187 -19.110  78.639  1.00  0.00     0.180 A 
ATOM      2  C   UNL     1     139.229 -17.826  79.220  1.00  0.00     0.208 A 
ATOM      3  C   UNL     1     138.053 -17.295  79.774  1.00  0.00     0.235 A 
ATOM      4  O   UNL     1     138.062 -16.144  80.291  1.00  0.00    -0.285 OA
ATOM      5  C   UNL     1     136.875 -18.058  79.754  1.00  0.00     0.069 A 
ATOM      6  C   UNL     1     136.921 -19.344  79.174  1.00  0.00     0.142 A 
ATOM      7  O   UNL     1     138.052 -19.807  78.653  1.00  0.00    -0.452 OA
ATOM      8  C   UNL     1     135.770 -20.140  79.144  1.00  0.00     0.094 A 
ATOM      9  C   UNL     1     134.570 -19.666  79.685  1.00  0.00     0.119 A 
ATOM     10  C   UNL     1     134.520 -18.389  80.260  1.00  0.00     0.047 A 
ATOM     11  C   UNL     1     135.666 -17.587  80.296  1.00  0.00     0.020 A 
ENDROOT
BRANCH   1  12
ATOM     12  C   UNL     1     140.378 -19.730  78.018  1.00  0.00     0.025 A 
ATOM     13  C   UNL     1     140.990 -19.105  76.919  1.00  0.00     0.016 A 
ATOM     14  C   UNL     1     142.127 -19.662  76.329  1.00  0.00     0.051 A 
ATOM     15  C   UNL     1     142.679 -20.844  76.839  1.00  0.00     0.157 A 
ATOM     16  C   UNL     1     140.948 -20.906  78.539  1.00  0.00     0.062 A 
ATOM     17  C   UNL     1     142.091 -21.464  77.949  1.00  0.00     0.158 A 
BRANCH  15  18
ATOM     18  O   UNL     1     143.813 -21.405  76.254  1.00  0.00    -0.504 OA
ATOM     19  H   UNL     1     144.697 -20.909  76.231  1.00  0.00     0.293 HD
ENDBRANCH  15  18
BRANCH  17  20
ATOM     20  O   UNL     1     142.651 -22.633  78.463  1.00  0.00    -0.504 OA
ATOM     21  H   UNL     1     142.256 -23.100  79.271  1.00  0.00     0.293 HD
ENDBRANCH  17  20
ENDBRANCH   1  12
BRANCH   2  22
ATOM     22  O   UNL     1     140.428 -17.110  79.270  1.00  0.00    -0.502 OA
ATOM     23  H   UNL     1     141.156 -17.319  79.943  1.00  0.00     0.293 HD
ENDBRANCH   2  22
BRANCH   9  24
ATOM     24  O   UNL     1     133.434 -20.471  79.645  1.00  0.00    -0.508 OA
ATOM     25  H   UNL     1     132.524 -20.091  79.411  1.00  0.00     0.293 HD
ENDBRANCH   9  24
TORSDOF 5
ENDMDL
MODEL 9
REMARK VINA RESULT:    -6.409      1.510      6.723
REMARK INTER + INTRA:          -7.854
REMARK INTER:                  -7.794
REMARK INTRA:                  -0.060
REMARK UNBOUND:                -0.321
REMARK SMILES O=c1c(O)c(-c2ccc(O)c(O)c2)oc2cc(O)ccc12
REMARK SMILES IDX 5 1 3 2 2 3 1 4 21 5 15 6 14 7 16 8 17 9 19 10 20 11 6 12
REMARK SMILES IDX 7 13 8 14 9 15 13 16 11 17 10 18 12 20 4 22 18 24
REMARK H PARENT 10 19 12 21 4 23 18 25
REMARK Flexibility Score: inf
ROOT
ATOM      1  C   UNL     1     137.481 -18.146  79.949  1.00  0.00     0.180 A 
ATOM      2  C   UNL     1     137.768 -19.494  80.246  1.00  0.00     0.208 A 
ATOM      3  C   UNL     1     136.799 -20.470  79.967  1.00  0.00     0.235 A 
ATOM      4  O   UNL     1     137.028 -21.682  80.232  1.00  0.00    -0.285 OA
ATOM      5  C   UNL     1     135.580 -20.086  79.384  1.00  0.00     0.069 A 
ATOM      6  C   UNL     1     135.379 -18.718  79.096  1.00  0.00     0.142 A 
ATOM      7  O   UNL     1     136.318 -17.825  79.383  1.00  0.00    -0.452 OA
ATOM      8  C   UNL     1     134.182 -18.297  78.506  1.00  0.00     0.094 A 
ATOM      9  C   UNL     1     133.180 -19.225  78.200  1.00  0.00     0.119 A 
ATOM     10  C   UNL     1     133.376 -20.582  78.487  1.00  0.00     0.047 A 
ATOM     11  C   UNL     1     134.570 -21.014  79.075  1.00  0.00     0.020 A 
ENDROOT
BRANCH   1  12
ATOM     12  C   UNL     1     138.443 -17.057  80.231  1.00  0.00     0.025 A 
ATOM     13  C   UNL     1     138.066 -16.006  81.083  1.00  0.00     0.016 A 
ATOM     14  C   UNL     1     138.965 -14.978  81.380  1.00  0.00     0.051 A 
ATOM     15  C   UNL     1     140.258 -14.994  80.841  1.00  0.00     0.157 A 
ATOM     16  C   UNL     1     139.749 -17.080  79.710  1.00  0.00     0.062 A 
ATOM     17  C   UNL     1     140.652 -16.050  80.009  1.00  0.00     0.158 A 
BRANCH  15  18
ATOM     18  O   UNL     1     141.157 -13.970  81.133  1.00  0.00    -0.504 OA
ATOM     19  H   UNL     1     140.851 -13.009  81.234  1.00  0.00     0.293 HD
ENDBRANCH  15  18
BRANCH  17  20
ATOM     20  O   UNL     1     141.944 -16.069  79.486  1.00  0.00    -0.504 OA
ATOM     21  H   UNL     1     142.552 -16.872  79.605  1.00  0.00     0.293 HD
ENDBRANCH  17  20
ENDBRANCH   1  12
BRANCH   2  22
ATOM     22  O   UNL     1     139.009 -19.853  80.779  1.00  0.00    -0.502 OA
ATOM     23  H   UNL     1     139.346 -20.809  80.771  1.00  0.00     0.293 HD
ENDBRANCH   2  22
BRANCH   9  24
ATOM     24  O   UNL     1     131.995 -18.787  77.614  1.00  0.00    -0.508 OA
ATOM     25  H   UNL     1     131.170 -19.375  77.585  1.00  0.00     0.293 HD
ENDBRANCH   9  24
TORSDOF 5
ENDMDL
