MODEL 1
REMARK VINA RESULT:    -6.516      0.000      0.000
REMARK INTER + INTRA:          -8.212
REMARK INTER:                  -7.659
REMARK INTRA:                  -0.553
REMARK UNBOUND:                -0.553
REMARK SMILES CCCC[C@@H]1OC(=O)C2=C1CCC=C2
REMARK SMILES IDX 3 1 2 2 1 3 4 4 5 5 10 6 6 7 9 8 11 9 7 10 14 11 12 12 8 13
REMARK SMILES IDX 13 14
REMARK H PARENT
REMARK Flexibility Score: inf
ROOT
ATOM      1  C   UNL     1     -31.883  14.125  56.258  1.00  0.00     0.004 C 
ENDROOT
BRANCH   1   2
ATOM      2  C   UNL     1     -31.583  12.647  55.969  1.00  0.00    -0.003 C 
ATOM      3  C   UNL     1     -32.610  11.738  56.635  1.00  0.00     0.004 C 
ENDBRANCH   1   2
BRANCH   1   4
ATOM      4  C   UNL     1     -33.253  14.568  55.718  1.00  0.00     0.050 C 
BRANCH   4   5
ATOM      5  C   UNL     1     -34.145  15.208  56.792  1.00  0.00     0.204 C 
ATOM      6  C   UNL     1     -35.129  14.210  57.355  1.00  0.00    -0.015 C 
ATOM      7  O   UNL     1     -33.373  15.581  57.938  1.00  0.00    -0.454 OA
ATOM      8  C   UNL     1     -34.957  14.069  58.660  1.00  0.00     0.062 C 
ATOM      9  C   UNL     1     -36.341  13.647  56.662  1.00  0.00     0.040 C 
ATOM     10  C   UNL     1     -33.858  14.914  59.049  1.00  0.00     0.338 C 
ATOM     11  C   UNL     1     -35.858  13.269  59.498  1.00  0.00     0.011 C 
ATOM     12  C   UNL     1     -36.865  12.392  57.400  1.00  0.00     0.032 C 
ATOM     13  O   UNL     1     -33.402  15.048  60.214  1.00  0.00    -0.246 OA
ATOM     14  C   UNL     1     -36.807  12.531  58.909  1.00  0.00    -0.026 C 
ENDBRANCH   4   5
ENDBRANCH   1   4
TORSDOF 3
ENDMDL
MODEL 2
REMARK VINA RESULT:    -6.260      2.489      4.106
REMARK INTER + INTRA:          -7.911
REMARK INTER:                  -7.284
REMARK INTRA:                  -0.627
REMARK UNBOUND:                -0.553
REMARK SMILES CCCC[C@@H]1OC(=O)C2=C1CCC=C2
REMARK SMILES IDX 3 1 2 2 1 3 4 4 5 5 10 6 6 7 9 8 11 9 7 10 14 11 12 12 8 13
REMARK SMILES IDX 13 14
REMARK H PARENT
REMARK Flexibility Score: inf
ROOT
ATOM      1  C   UNL     1     -33.119  11.163  56.635  1.00  0.00     0.004 C 
ENDROOT
BRANCH   1   2
ATOM      2  C   UNL     1     -31.917  12.099  56.833  1.00  0.00    -0.003 C 
ATOM      3  C   UNL     1     -31.544  12.797  55.529  1.00  0.00     0.004 C 
ENDBRANCH   1   2
BRANCH   1   4
ATOM      4  C   UNL     1     -34.167  11.301  57.752  1.00  0.00     0.050 C 
BRANCH   4   5
ATOM      5  C   UNL     1     -35.381  12.146  57.337  1.00  0.00     0.204 C 
ATOM      6  C   UNL     1     -34.963  13.533  56.907  1.00  0.00    -0.015 C 
ATOM      7  O   UNL     1     -35.993  11.614  56.158  1.00  0.00    -0.454 OA
ATOM      8  C   UNL     1     -35.329  13.765  55.657  1.00  0.00     0.062 C 
ATOM      9  C   UNL     1     -34.474  14.645  57.796  1.00  0.00     0.040 C 
ATOM     10  C   UNL     1     -35.971  12.575  55.162  1.00  0.00     0.338 C 
ATOM     11  C   UNL     1     -35.179  15.076  55.015  1.00  0.00     0.011 C 
ATOM     12  C   UNL     1     -33.791  15.756  56.963  1.00  0.00     0.032 C 
ATOM     13  O   UNL     1     -36.455  12.416  54.012  1.00  0.00    -0.246 OA
ATOM     14  C   UNL     1     -34.514  16.041  55.661  1.00  0.00    -0.026 C 
ENDBRANCH   4   5
ENDBRANCH   1   4
TORSDOF 3
ENDMDL
MODEL 3
REMARK VINA RESULT:    -6.257      1.829      2.761
REMARK INTER + INTRA:          -7.908
REMARK INTER:                  -7.263
REMARK INTRA:                  -0.645
REMARK UNBOUND:                -0.553
REMARK SMILES CCCC[C@@H]1OC(=O)C2=C1CCC=C2
REMARK SMILES IDX 3 1 2 2 1 3 4 4 5 5 10 6 6 7 9 8 11 9 7 10 14 11 12 12 8 13
REMARK SMILES IDX 13 14
REMARK H PARENT
REMARK Flexibility Score: inf
ROOT
ATOM      1  C   UNL     1     -34.502  11.999  55.151  1.00  0.00     0.004 C 
ENDROOT
BRANCH   1   2
ATOM      2  C   UNL     1     -34.631  10.918  56.235  1.00  0.00    -0.003 C 
ATOM      3  C   UNL     1     -33.561  11.087  57.309  1.00  0.00     0.004 C 
ENDBRANCH   1   2
BRANCH   1   4
ATOM      4  C   UNL     1     -35.829  12.727  54.880  1.00  0.00     0.050 C 
BRANCH   4   5
ATOM      5  C   UNL     1     -35.893  14.122  55.521  1.00  0.00     0.204 C 
ATOM      6  C   UNL     1     -35.638  14.055  57.009  1.00  0.00    -0.015 C 
ATOM      7  O   UNL     1     -34.824  14.948  55.049  1.00  0.00    -0.454 OA
ATOM      8  C   UNL     1     -34.583  14.783  57.335  1.00  0.00     0.062 C 
ATOM      9  C   UNL     1     -36.568  13.513  58.060  1.00  0.00     0.040 C 
ATOM     10  C   UNL     1     -34.050  15.349  56.123  1.00  0.00     0.338 C 
ATOM     11  C   UNL     1     -34.179  15.017  58.727  1.00  0.00     0.011 C 
ATOM     12  C   UNL     1     -35.814  13.264  59.388  1.00  0.00     0.032 C 
ATOM     13  O   UNL     1     -33.047  16.102  56.035  1.00  0.00    -0.246 OA
ATOM     14  C   UNL     1     -34.808  14.353  59.705  1.00  0.00    -0.026 C 
ENDBRANCH   4   5
ENDBRANCH   1   4
TORSDOF 3
ENDMDL
MODEL 4
REMARK VINA RESULT:    -6.234      1.996      3.404
REMARK INTER + INTRA:          -7.881
REMARK INTER:                  -7.395
REMARK INTRA:                  -0.486
REMARK UNBOUND:                -0.553
REMARK SMILES CCCC[C@@H]1OC(=O)C2=C1CCC=C2
REMARK SMILES IDX 3 1 2 2 1 3 4 4 5 5 10 6 6 7 9 8 11 9 7 10 14 11 12 12 8 13
REMARK SMILES IDX 13 14
REMARK H PARENT
REMARK Flexibility Score: inf
ROOT
ATOM      1  C   UNL     1     -34.546  15.873  56.448  1.00  0.00     0.004 C 
ENDROOT
BRANCH   1   2
ATOM      2  C   UNL     1     -34.769  15.414  55.000  1.00  0.00    -0.003 C 
ATOM      3  C   UNL     1     -35.616  14.147  54.949  1.00  0.00     0.004 C 
ENDBRANCH   1   2
BRANCH   1   4
ATOM      4  C   UNL     1     -33.083  16.254  56.730  1.00  0.00     0.050 C 
BRANCH   4   5
ATOM      5  C   UNL     1     -32.266  15.100  57.333  1.00  0.00     0.204 C 
ATOM      6  C   UNL     1     -33.151  13.931  57.695  1.00  0.00    -0.015 C 
ATOM      7  O   UNL     1     -31.379  14.542  56.358  1.00  0.00    -0.454 OA
ATOM      8  C   UNL     1     -32.782  12.844  57.037  1.00  0.00     0.062 C 
ATOM      9  C   UNL     1     -34.126  13.857  58.839  1.00  0.00     0.040 C 
ATOM     10  C   UNL     1     -31.677  13.202  56.187  1.00  0.00     0.338 C 
ATOM     11  C   UNL     1     -33.372  11.524  57.289  1.00  0.00     0.011 C 
ATOM     12  C   UNL     1     -35.104  12.673  58.655  1.00  0.00     0.032 C 
ATOM     13  O   UNL     1     -31.057  12.430  55.411  1.00  0.00    -0.246 OA
ATOM     14  C   UNL     1     -34.425  11.431  58.110  1.00  0.00    -0.026 C 
ENDBRANCH   4   5
ENDBRANCH   1   4
TORSDOF 3
ENDMDL
MODEL 5
REMARK VINA RESULT:    -6.177      1.310      3.746
REMARK INTER + INTRA:          -7.814
REMARK INTER:                  -7.138
REMARK INTRA:                  -0.676
REMARK UNBOUND:                -0.553
REMARK SMILES CCCC[C@@H]1OC(=O)C2=C1CCC=C2
REMARK SMILES IDX 3 1 2 2 1 3 4 4 5 5 10 6 6 7 9 8 11 9 7 10 14 11 12 12 8 13
REMARK SMILES IDX 13 14
REMARK H PARENT
REMARK Flexibility Score: inf
ROOT
ATOM      1  C   UNL     1     -36.479  13.852  56.818  1.00  0.00     0.004 C 
ENDROOT
BRANCH   1   2
ATOM      2  C   UNL     1     -36.705  12.651  55.888  1.00  0.00    -0.003 C 
ATOM      3  C   UNL     1     -35.743  12.684  54.705  1.00  0.00     0.004 C 
ENDBRANCH   1   2
BRANCH   1   4
ATOM      4  C   UNL     1     -36.316  13.440  58.290  1.00  0.00     0.050 C 
BRANCH   4   5
ATOM      5  C   UNL     1     -34.872  13.579  58.798  1.00  0.00     0.204 C 
ATOM      6  C   UNL     1     -33.902  12.844  57.903  1.00  0.00    -0.015 C 
ATOM      7  O   UNL     1     -34.430  14.937  58.705  1.00  0.00    -0.454 OA
ATOM      8  C   UNL     1     -33.004  13.677  57.403  1.00  0.00     0.062 C 
ATOM      9  C   UNL     1     -33.733  11.353  57.787  1.00  0.00     0.040 C 
ATOM     10  C   UNL     1     -33.317  14.997  57.885  1.00  0.00     0.338 C 
ATOM     11  C   UNL     1     -31.856  13.225  56.609  1.00  0.00     0.011 C 
ATOM     12  C   UNL     1     -32.935  10.986  56.513  1.00  0.00     0.032 C 
ATOM     13  O   UNL     1     -32.682  16.052  57.625  1.00  0.00    -0.246 OA
ATOM     14  C   UNL     1     -31.784  11.938  56.248  1.00  0.00    -0.026 C 
ENDBRANCH   4   5
ENDBRANCH   1   4
TORSDOF 3
ENDMDL
MODEL 6
REMARK VINA RESULT:    -6.170      1.958      3.828
REMARK INTER + INTRA:          -7.805
REMARK INTER:                  -7.264
REMARK INTRA:                  -0.541
REMARK UNBOUND:                -0.553
REMARK SMILES CCCC[C@@H]1OC(=O)C2=C1CCC=C2
REMARK SMILES IDX 3 1 2 2 1 3 4 4 5 5 10 6 6 7 9 8 11 9 7 10 14 11 12 12 8 13
REMARK SMILES IDX 13 14
REMARK H PARENT
REMARK Flexibility Score: inf
ROOT
ATOM      1  C   UNL     1     -32.833  14.474  58.826  1.00  0.00     0.004 C 
ENDROOT
BRANCH   1   2
ATOM      2  C   UNL     1     -34.230  14.940  59.262  1.00  0.00    -0.003 C 
ATOM      3  C   UNL     1     -35.266  13.842  59.050  1.00  0.00     0.004 C 
ENDBRANCH   1   2
BRANCH   1   4
ATOM      4  C   UNL     1     -32.184  15.420  57.803  1.00  0.00     0.050 C 
BRANCH   4   5
ATOM      5  C   UNL     1     -32.380  14.962  56.349  1.00  0.00     0.204 C 
ATOM      6  C   UNL     1     -32.850  13.528  56.285  1.00  0.00    -0.015 C 
ATOM      7  O   UNL     1     -33.452  15.681  55.730  1.00  0.00    -0.454 OA
ATOM      8  C   UNL     1     -34.020  13.447  55.671  1.00  0.00     0.062 C 
ATOM      9  C   UNL     1     -32.036  12.297  56.578  1.00  0.00     0.040 C 
ATOM     10  C   UNL     1     -34.422  14.784  55.320  1.00  0.00     0.338 C 
ATOM     11  C   UNL     1     -34.657  12.167  55.341  1.00  0.00     0.011 C 
ATOM     12  C   UNL     1     -32.951  11.065  56.777  1.00  0.00     0.032 C 
ATOM     13  O   UNL     1     -35.481  15.107  54.721  1.00  0.00    -0.246 OA
ATOM     14  C   UNL     1     -34.113  11.034  55.802  1.00  0.00    -0.026 C 
ENDBRANCH   4   5
ENDBRANCH   1   4
TORSDOF 3
ENDMDL
MODEL 7
REMARK VINA RESULT:    -6.147      2.339      3.829
REMARK INTER + INTRA:          -7.779
REMARK INTER:                  -7.222
REMARK INTRA:                  -0.557
REMARK UNBOUND:                -0.553
REMARK SMILES CCCC[C@@H]1OC(=O)C2=C1CCC=C2
REMARK SMILES IDX 3 1 2 2 1 3 4 4 5 5 10 6 6 7 9 8 11 9 7 10 14 11 12 12 8 13
REMARK SMILES IDX 13 14
REMARK H PARENT
REMARK Flexibility Score: inf
ROOT
ATOM      1  C   UNL     1     -35.968  12.384  54.885  1.00  0.00     0.004 C 
ENDROOT
BRANCH   1   2
ATOM      2  C   UNL     1     -36.351  13.865  55.019  1.00  0.00    -0.003 C 
ATOM      3  C   UNL     1     -35.125  14.763  54.895  1.00  0.00     0.004 C 
ENDBRANCH   1   2
BRANCH   1   4
ATOM      4  C   UNL     1     -34.533  12.098  55.357  1.00  0.00     0.050 C 
BRANCH   4   5
ATOM      5  C   UNL     1     -34.450  11.747  56.850  1.00  0.00     0.204 C 
ATOM      6  C   UNL     1     -33.994  12.932  57.668  1.00  0.00    -0.015 C 
ATOM      7  O   UNL     1     -35.750  11.470  57.381  1.00  0.00    -0.454 OA
ATOM      8  C   UNL     1     -34.906  13.255  58.571  1.00  0.00     0.062 C 
ATOM      9  C   UNL     1     -32.609  13.519  57.714  1.00  0.00     0.040 C 
ATOM     10  C   UNL     1     -36.019  12.358  58.408  1.00  0.00     0.338 C 
ATOM     11  C   UNL     1     -34.680  14.279  59.598  1.00  0.00     0.011 C 
ATOM     12  C   UNL     1     -32.628  14.928  58.351  1.00  0.00     0.032 C 
ATOM     13  O   UNL     1     -37.077  12.355  59.089  1.00  0.00    -0.246 OA
ATOM     14  C   UNL     1     -33.568  15.023  59.537  1.00  0.00    -0.026 C 
ENDBRANCH   4   5
ENDBRANCH   1   4
TORSDOF 3
ENDMDL
MODEL 8
REMARK VINA RESULT:    -6.105      1.698      3.815
REMARK INTER + INTRA:          -7.729
REMARK INTER:                  -7.063
REMARK INTRA:                  -0.667
REMARK UNBOUND:                -0.553
REMARK SMILES CCCC[C@@H]1OC(=O)C2=C1CCC=C2
REMARK SMILES IDX 3 1 2 2 1 3 4 4 5 5 10 6 6 7 9 8 11 9 7 10 14 11 12 12 8 13
REMARK SMILES IDX 13 14
REMARK H PARENT
REMARK Flexibility Score: inf
ROOT
ATOM      1  C   UNL     1     -34.894  12.493  58.866  1.00  0.00     0.004 C 
ENDROOT
BRANCH   1   2
ATOM      2  C   UNL     1     -36.409  12.257  58.774  1.00  0.00    -0.003 C 
ATOM      3  C   UNL     1     -37.125  13.495  58.243  1.00  0.00     0.004 C 
ENDBRANCH   1   2
BRANCH   1   4
ATOM      4  C   UNL     1     -34.088  11.519  57.991  1.00  0.00     0.050 C 
BRANCH   4   5
ATOM      5  C   UNL     1     -33.257  12.227  56.910  1.00  0.00     0.204 C 
ATOM      6  C   UNL     1     -34.097  13.209  56.127  1.00  0.00    -0.015 C 
ATOM      7  O   UNL     1     -32.256  13.062  57.504  1.00  0.00    -0.454 OA
ATOM      8  C   UNL     1     -33.607  14.433  56.235  1.00  0.00     0.062 C 
ATOM      9  C   UNL     1     -35.160  12.880  55.114  1.00  0.00     0.040 C 
ATOM     10  C   UNL     1     -32.456  14.369  57.098  1.00  0.00     0.338 C 
ATOM     11  C   UNL     1     -34.134  15.570  55.471  1.00  0.00     0.011 C 
ATOM     12  C   UNL     1     -36.045  14.116  54.823  1.00  0.00     0.032 C 
ATOM     13  O   UNL     1     -31.726  15.337  57.433  1.00  0.00    -0.246 OA
ATOM     14  C   UNL     1     -35.247  15.403  54.746  1.00  0.00    -0.026 C 
ENDBRANCH   4   5
ENDBRANCH   1   4
TORSDOF 3
ENDMDL
MODEL 9
REMARK VINA RESULT:    -6.084      2.290      4.423
REMARK INTER + INTRA:          -7.705
REMARK INTER:                  -7.146
REMARK INTRA:                  -0.559
REMARK UNBOUND:                -0.553
REMARK SMILES CCCC[C@@H]1OC(=O)C2=C1CCC=C2
REMARK SMILES IDX 3 1 2 2 1 3 4 4 5 5 10 6 6 7 9 8 11 9 7 10 14 11 12 12 8 13
REMARK SMILES IDX 13 14
REMARK H PARENT
REMARK Flexibility Score: inf
ROOT
ATOM      1  C   UNL     1     -34.749  12.249  58.469  1.00  0.00     0.004 C 
ENDROOT
BRANCH   1   2
ATOM      2  C   UNL     1     -35.866  12.976  59.234  1.00  0.00    -0.003 C 
ATOM      3  C   UNL     1     -37.114  13.126  58.372  1.00  0.00     0.004 C 
ENDBRANCH   1   2
BRANCH   1   4
ATOM      4  C   UNL     1     -35.209  11.738  57.094  1.00  0.00     0.050 C 
BRANCH   4   5
ATOM      5  C   UNL     1     -34.342  12.259  55.937  1.00  0.00     0.204 C 
ATOM      6  C   UNL     1     -33.907  13.686  56.177  1.00  0.00    -0.015 C 
ATOM      7  O   UNL     1     -33.100  11.550  55.873  1.00  0.00    -0.454 OA
ATOM      8  C   UNL     1     -32.587  13.773  56.204  1.00  0.00     0.062 C 
ATOM      9  C   UNL     1     -34.769  14.917  56.105  1.00  0.00     0.040 C 
ATOM     10  C   UNL     1     -32.057  12.447  56.023  1.00  0.00     0.338 C 
ATOM     11  C   UNL     1     -31.876  15.055  56.283  1.00  0.00     0.011 C 
ATOM     12  C   UNL     1     -34.069  16.121  56.779  1.00  0.00     0.032 C 
ATOM     13  O   UNL     1     -30.840  12.132  55.989  1.00  0.00    -0.246 OA
ATOM     14  C   UNL     1     -32.582  16.175  56.483  1.00  0.00    -0.026 C 
ENDBRANCH   4   5
ENDBRANCH   1   4
TORSDOF 3
ENDMDL
