MODEL 1
REMARK VINA RESULT:    -4.947      0.000      0.000
REMARK INTER + INTRA:          -6.338
REMARK INTER:                  -6.104
REMARK INTRA:                  -0.233
REMARK UNBOUND:                -0.233
REMARK SMILES [NH3+][C@H](Cc1ccc(O)cc1)C(=O)[O-]
REMARK SMILES IDX 3 1 2 2 1 3 11 7 12 8 13 9 4 10 5 11 10 12 6 13 9 14 7 15
REMARK SMILES IDX 8 16
REMARK H PARENT 1 4 1 5 1 6 8 17
REMARK Flexibility Score: inf
ROOT
ATOM      1  C   UNL     1      24.470  -3.163   0.328  1.00  0.00     0.107 C 
ENDROOT
BRANCH   1   2
ATOM      2  C   UNL     1      23.101  -3.159  -0.392  1.00  0.00     0.232 C 
BRANCH   2   3
ATOM      3  N   UNL     1      23.236  -3.447  -1.826  1.00  0.00    -0.350 N 
ATOM      4  H   UNL     1      23.387  -2.570  -2.376  1.00  0.00     0.345 HD
ATOM      5  H   UNL     1      24.051  -4.084  -1.979  1.00  0.00     0.345 HD
ATOM      6  H   UNL     1      22.374  -3.927  -2.174  1.00  0.00     0.345 HD
ENDBRANCH   2   3
BRANCH   2   7
ATOM      7  C   UNL     1      22.128  -4.106   0.266  1.00  0.00     0.099 C 
ATOM      8  O   UNL     1      21.389  -4.838  -0.443  1.00  0.00    -0.544 OA
ATOM      9  O   UNL     1      22.001  -4.143   1.650  1.00  0.00    -0.544 OA
ENDBRANCH   2   7
ENDBRANCH   1   2
BRANCH   1  10
ATOM     10  C   UNL     1      24.721  -1.927   1.159  1.00  0.00    -0.041 A 
ATOM     11  C   UNL     1      25.834  -1.860   2.014  1.00  0.00     0.008 A 
ATOM     12  C   UNL     1      23.851  -0.827   1.078  1.00  0.00     0.008 A 
ATOM     13  C   UNL     1      26.075  -0.710   2.772  1.00  0.00     0.046 A 
ATOM     14  C   UNL     1      24.094   0.322   1.837  1.00  0.00     0.046 A 
ATOM     15  C   UNL     1      25.207   0.383   2.686  1.00  0.00     0.115 A 
BRANCH  15  16
ATOM     16  O   UNL     1      25.458   1.523   3.446  1.00  0.00    -0.508 OA
ATOM     17  H   UNL     1      25.783   1.460   4.403  1.00  0.00     0.293 HD
ENDBRANCH  15  16
ENDBRANCH   1  10
TORSDOF 5
ENDMDL
MODEL 2
REMARK VINA RESULT:    -4.793      2.442      3.103
REMARK INTER + INTRA:          -6.148
REMARK INTER:                  -5.951
REMARK INTRA:                  -0.196
REMARK UNBOUND:                -0.233
REMARK SMILES [NH3+][C@H](Cc1ccc(O)cc1)C(=O)[O-]
REMARK SMILES IDX 3 1 2 2 1 3 11 7 12 8 13 9 4 10 5 11 10 12 6 13 9 14 7 15
REMARK SMILES IDX 8 16
REMARK H PARENT 1 4 1 5 1 6 8 17
REMARK Flexibility Score: inf
ROOT
ATOM      1  C   UNL     1      21.341  -3.991   1.224  1.00  0.00     0.107 C 
ENDROOT
BRANCH   1   2
ATOM      2  C   UNL     1      20.764  -3.875  -0.207  1.00  0.00     0.232 C 
BRANCH   2   3
ATOM      3  N   UNL     1      20.075  -5.105  -0.621  1.00  0.00    -0.350 N 
ATOM      4  H   UNL     1      20.570  -5.566  -1.418  1.00  0.00     0.345 HD
ATOM      5  H   UNL     1      20.039  -5.772   0.183  1.00  0.00     0.345 HD
ATOM      6  H   UNL     1      19.094  -4.883  -0.906  1.00  0.00     0.345 HD
ENDBRANCH   2   3
BRANCH   2   7
ATOM      7  C   UNL     1      19.864  -2.672  -0.343  1.00  0.00     0.099 C 
ATOM      8  O   UNL     1      19.097  -2.573  -1.337  1.00  0.00    -0.544 OA
ATOM      9  O   UNL     1      19.909  -1.644   0.591  1.00  0.00    -0.544 OA
ENDBRANCH   2   7
ENDBRANCH   1   2
BRANCH   1  10
ATOM     10  C   UNL     1      22.713  -3.376   1.376  1.00  0.00    -0.041 A 
ATOM     11  C   UNL     1      23.039  -2.647   2.532  1.00  0.00     0.008 A 
ATOM     12  C   UNL     1      23.679  -3.536   0.370  1.00  0.00     0.008 A 
ATOM     13  C   UNL     1      24.313  -2.090   2.679  1.00  0.00     0.046 A 
ATOM     14  C   UNL     1      24.953  -2.978   0.519  1.00  0.00     0.046 A 
ATOM     15  C   UNL     1      25.272  -2.254   1.675  1.00  0.00     0.115 A 
BRANCH  15  16
ATOM     16  O   UNL     1      26.538  -1.695   1.835  1.00  0.00    -0.508 OA
ATOM     17  H   UNL     1      27.341  -2.047   1.327  1.00  0.00     0.293 HD
ENDBRANCH  15  16
ENDBRANCH   1  10
TORSDOF 5
ENDMDL
MODEL 3
REMARK VINA RESULT:    -4.735      2.930      5.674
REMARK INTER + INTRA:          -6.076
REMARK INTER:                  -5.888
REMARK INTRA:                  -0.188
REMARK UNBOUND:                -0.233
REMARK SMILES [NH3+][C@H](Cc1ccc(O)cc1)C(=O)[O-]
REMARK SMILES IDX 3 1 2 2 1 3 11 7 12 8 13 9 4 10 5 11 10 12 6 13 9 14 7 15
REMARK SMILES IDX 8 16
REMARK H PARENT 1 4 1 5 1 6 8 17
REMARK Flexibility Score: inf
ROOT
ATOM      1  C   UNL     1      21.752  -3.642   0.078  1.00  0.00     0.107 C 
ENDROOT
BRANCH   1   2
ATOM      2  C   UNL     1      23.162  -3.655  -0.558  1.00  0.00     0.232 C 
BRANCH   2   3
ATOM      3  N   UNL     1      23.108  -3.462  -2.014  1.00  0.00    -0.350 N 
ATOM      4  H   UNL     1      22.122  -3.484  -2.363  1.00  0.00     0.345 HD
ATOM      5  H   UNL     1      23.530  -2.538  -2.260  1.00  0.00     0.345 HD
ATOM      6  H   UNL     1      23.658  -4.212  -2.492  1.00  0.00     0.345 HD
ENDBRANCH   2   3
BRANCH   2   7
ATOM      7  C   UNL     1      24.072  -2.643   0.092  1.00  0.00     0.099 C 
ATOM      8  O   UNL     1      23.728  -1.433   0.144  1.00  0.00    -0.544 OA
ATOM      9  O   UNL     1      25.312  -3.023   0.592  1.00  0.00    -0.544 OA
ENDBRANCH   2   7
ENDBRANCH   1   2
BRANCH   1  10
ATOM     10  C   UNL     1      21.521  -4.767   1.060  1.00  0.00    -0.041 A 
ATOM     11  C   UNL     1      21.044  -4.493   2.353  1.00  0.00     0.008 A 
ATOM     12  C   UNL     1      21.768  -6.098   0.687  1.00  0.00     0.008 A 
ATOM     13  C   UNL     1      20.815  -5.534   3.257  1.00  0.00     0.046 A 
ATOM     14  C   UNL     1      21.539  -7.138   1.593  1.00  0.00     0.046 A 
ATOM     15  C   UNL     1      21.062  -6.859   2.880  1.00  0.00     0.115 A 
BRANCH  15  16
ATOM     16  O   UNL     1      20.829  -7.887   3.790  1.00  0.00    -0.508 OA
ATOM     17  H   UNL     1      19.955  -8.400   3.798  1.00  0.00     0.293 HD
ENDBRANCH  15  16
ENDBRANCH   1  10
TORSDOF 5
ENDMDL
MODEL 4
REMARK VINA RESULT:    -4.709      2.912      5.523
REMARK INTER + INTRA:          -6.043
REMARK INTER:                  -5.798
REMARK INTRA:                  -0.245
REMARK UNBOUND:                -0.233
REMARK SMILES [NH3+][C@H](Cc1ccc(O)cc1)C(=O)[O-]
REMARK SMILES IDX 3 1 2 2 1 3 11 7 12 8 13 9 4 10 5 11 10 12 6 13 9 14 7 15
REMARK SMILES IDX 8 16
REMARK H PARENT 1 4 1 5 1 6 8 17
REMARK Flexibility Score: inf
ROOT
ATOM      1  C   UNL     1      21.523  -3.828  -0.261  1.00  0.00     0.107 C 
ENDROOT
BRANCH   1   2
ATOM      2  C   UNL     1      22.995  -3.711  -0.721  1.00  0.00     0.232 C 
BRANCH   2   3
ATOM      3  N   UNL     1      23.099  -3.235  -2.107  1.00  0.00    -0.350 N 
ATOM      4  H   UNL     1      22.183  -3.316  -2.606  1.00  0.00     0.345 HD
ATOM      5  H   UNL     1      23.395  -2.232  -2.111  1.00  0.00     0.345 HD
ATOM      6  H   UNL     1      23.820  -3.792  -2.621  1.00  0.00     0.345 HD
ENDBRANCH   2   3
BRANCH   2   7
ATOM      7  C   UNL     1      23.799  -2.844   0.215  1.00  0.00     0.099 C 
ATOM      8  O   UNL     1      23.271  -1.829   0.740  1.00  0.00    -0.544 OA
ATOM      9  O   UNL     1      25.138  -3.124   0.467  1.00  0.00    -0.544 OA
ENDBRANCH   2   7
ENDBRANCH   1   2
BRANCH   1  10
ATOM     10  C   UNL     1      21.322  -4.791   0.886  1.00  0.00    -0.041 A 
ATOM     11  C   UNL     1      21.683  -6.142   0.749  1.00  0.00     0.008 A 
ATOM     12  C   UNL     1      20.782  -4.345   2.103  1.00  0.00     0.008 A 
ATOM     13  C   UNL     1      21.511  -7.031   1.815  1.00  0.00     0.046 A 
ATOM     14  C   UNL     1      20.611  -5.235   3.168  1.00  0.00     0.046 A 
ATOM     15  C   UNL     1      20.975  -6.580   3.026  1.00  0.00     0.115 A 
BRANCH  15  16
ATOM     16  O   UNL     1      20.810  -7.476   4.080  1.00  0.00    -0.508 OA
ATOM     17  H   UNL     1      19.978  -7.464   4.659  1.00  0.00     0.293 HD
ENDBRANCH  15  16
ENDBRANCH   1  10
TORSDOF 5
ENDMDL
MODEL 5
REMARK VINA RESULT:    -4.585      2.087      5.354
REMARK INTER + INTRA:          -5.890
REMARK INTER:                  -5.696
REMARK INTRA:                  -0.194
REMARK UNBOUND:                -0.233
REMARK SMILES [NH3+][C@H](Cc1ccc(O)cc1)C(=O)[O-]
REMARK SMILES IDX 3 1 2 2 1 3 11 7 12 8 13 9 4 10 5 11 10 12 6 13 9 14 7 15
REMARK SMILES IDX 8 16
REMARK H PARENT 1 4 1 5 1 6 8 17
REMARK Flexibility Score: inf
ROOT
ATOM      1  C   UNL     1      25.047  -2.379   0.858  1.00  0.00     0.107 C 
ENDROOT
BRANCH   1   2
ATOM      2  C   UNL     1      24.999  -1.656   2.225  1.00  0.00     0.232 C 
BRANCH   2   3
ATOM      3  N   UNL     1      26.237  -1.851   2.992  1.00  0.00    -0.350 N 
ATOM      4  H   UNL     1      27.080  -1.637   2.411  1.00  0.00     0.345 HD
ATOM      5  H   UNL     1      26.235  -1.220   3.826  1.00  0.00     0.345 HD
ATOM      6  H   UNL     1      26.294  -2.839   3.329  1.00  0.00     0.345 HD
ENDBRANCH   2   3
BRANCH   2   7
ATOM      7  C   UNL     1      24.681  -0.190   2.064  1.00  0.00     0.099 C 
ATOM      8  O   UNL     1      25.206   0.654   2.838  1.00  0.00    -0.544 OA
ATOM      9  O   UNL     1      23.773   0.237   1.102  1.00  0.00    -0.544 OA
ENDBRANCH   2   7
ENDBRANCH   1   2
BRANCH   1  10
ATOM     10  C   UNL     1      23.758  -3.078   0.497  1.00  0.00    -0.041 A 
ATOM     11  C   UNL     1      22.856  -3.468   1.502  1.00  0.00     0.008 A 
ATOM     12  C   UNL     1      23.441  -3.335  -0.846  1.00  0.00     0.008 A 
ATOM     13  C   UNL     1      21.656  -4.102   1.167  1.00  0.00     0.046 A 
ATOM     14  C   UNL     1      22.239  -3.969  -1.179  1.00  0.00     0.046 A 
ATOM     15  C   UNL     1      21.344  -4.354  -0.173  1.00  0.00     0.115 A 
BRANCH  15  16
ATOM     16  O   UNL     1      20.145  -4.986  -0.493  1.00  0.00    -0.508 OA
ATOM     17  H   UNL     1      19.952  -5.311  -1.432  1.00  0.00     0.293 HD
ENDBRANCH  15  16
ENDBRANCH   1  10
TORSDOF 5
ENDMDL
MODEL 6
REMARK VINA RESULT:    -4.508     15.580     16.852
REMARK INTER + INTRA:          -5.795
REMARK INTER:                  -5.632
REMARK INTRA:                  -0.163
REMARK UNBOUND:                -0.233
REMARK SMILES [NH3+][C@H](Cc1ccc(O)cc1)C(=O)[O-]
REMARK SMILES IDX 3 1 2 2 1 3 11 7 12 8 13 9 4 10 5 11 10 12 6 13 9 14 7 15
REMARK SMILES IDX 8 16
REMARK H PARENT 1 4 1 5 1 6 8 17
REMARK Flexibility Score: inf
ROOT
ATOM      1  C   UNL     1      22.479   6.037  15.188  1.00  0.00     0.107 C 
ENDROOT
BRANCH   1   2
ATOM      2  C   UNL     1      22.629   7.440  14.555  1.00  0.00     0.232 C 
BRANCH   2   3
ATOM      3  N   UNL     1      22.400   8.510  15.536  1.00  0.00    -0.350 N 
ATOM      4  H   UNL     1      21.386   8.593  15.777  1.00  0.00     0.345 HD
ATOM      5  H   UNL     1      22.937   8.304  16.409  1.00  0.00     0.345 HD
ATOM      6  H   UNL     1      22.737   9.422  15.152  1.00  0.00     0.345 HD
ENDBRANCH   2   3
BRANCH   2   7
ATOM      7  C   UNL     1      23.965   7.600  13.874  1.00  0.00     0.099 C 
ATOM      8  O   UNL     1      25.009   7.730  14.566  1.00  0.00    -0.544 OA
ATOM      9  O   UNL     1      24.053   7.658  12.488  1.00  0.00    -0.544 OA
ENDBRANCH   2   7
ENDBRANCH   1   2
BRANCH   1  10
ATOM     10  C   UNL     1      21.079   5.478  15.097  1.00  0.00    -0.041 A 
ATOM     11  C   UNL     1      20.294   5.337  16.254  1.00  0.00     0.008 A 
ATOM     12  C   UNL     1      20.542   5.103  13.854  1.00  0.00     0.008 A 
ATOM     13  C   UNL     1      18.993   4.834  16.168  1.00  0.00     0.046 A 
ATOM     14  C   UNL     1      19.240   4.600  13.771  1.00  0.00     0.046 A 
ATOM     15  C   UNL     1      18.462   4.464  14.928  1.00  0.00     0.115 A 
BRANCH  15  16
ATOM     16  O   UNL     1      17.164   3.965  14.856  1.00  0.00    -0.508 OA
ATOM     17  H   UNL     1      16.859   3.391  14.079  1.00  0.00     0.293 HD
ENDBRANCH  15  16
ENDBRANCH   1  10
TORSDOF 5
ENDMDL
MODEL 7
REMARK VINA RESULT:    -4.503      2.589      3.188
REMARK INTER + INTRA:          -5.790
REMARK INTER:                  -5.559
REMARK INTRA:                  -0.230
REMARK UNBOUND:                -0.233
REMARK SMILES [NH3+][C@H](Cc1ccc(O)cc1)C(=O)[O-]
REMARK SMILES IDX 3 1 2 2 1 3 11 7 12 8 13 9 4 10 5 11 10 12 6 13 9 14 7 15
REMARK SMILES IDX 8 16
REMARK H PARENT 1 4 1 5 1 6 8 17
REMARK Flexibility Score: inf
ROOT
ATOM      1  C   UNL     1      21.614  -3.392   1.356  1.00  0.00     0.107 C 
ENDROOT
BRANCH   1   2
ATOM      2  C   UNL     1      21.080  -4.314   2.477  1.00  0.00     0.232 C 
BRANCH   2   3
ATOM      3  N   UNL     1      19.677  -4.022   2.804  1.00  0.00    -0.350 N 
ATOM      4  H   UNL     1      19.604  -3.238   3.492  1.00  0.00     0.345 HD
ATOM      5  H   UNL     1      19.164  -3.753   1.933  1.00  0.00     0.345 HD
ATOM      6  H   UNL     1      19.221  -4.874   3.203  1.00  0.00     0.345 HD
ENDBRANCH   2   3
BRANCH   2   7
ATOM      7  C   UNL     1      21.267  -5.770   2.131  1.00  0.00     0.099 C 
ATOM      8  O   UNL     1      20.978  -6.658   2.976  1.00  0.00    -0.544 OA
ATOM      9  O   UNL     1      21.806  -6.144   0.905  1.00  0.00    -0.544 OA
ENDBRANCH   2   7
ENDBRANCH   1   2
BRANCH   1  10
ATOM     10  C   UNL     1      23.013  -2.880   1.609  1.00  0.00    -0.041 A 
ATOM     11  C   UNL     1      23.355  -2.339   2.860  1.00  0.00     0.008 A 
ATOM     12  C   UNL     1      23.988  -2.950   0.601  1.00  0.00     0.008 A 
ATOM     13  C   UNL     1      24.653  -1.878   3.099  1.00  0.00     0.046 A 
ATOM     14  C   UNL     1      25.287  -2.489   0.842  1.00  0.00     0.046 A 
ATOM     15  C   UNL     1      25.622  -1.952   2.092  1.00  0.00     0.115 A 
BRANCH  15  16
ATOM     16  O   UNL     1      26.912  -1.491   2.344  1.00  0.00    -0.508 OA
ATOM     17  H   UNL     1      27.139  -0.990   3.195  1.00  0.00     0.293 HD
ENDBRANCH  15  16
ENDBRANCH   1  10
TORSDOF 5
ENDMDL
MODEL 8
REMARK VINA RESULT:    -4.428     13.638     15.325
REMARK INTER + INTRA:          -5.696
REMARK INTER:                  -5.458
REMARK INTRA:                  -0.238
REMARK UNBOUND:                -0.233
REMARK SMILES [NH3+][C@H](Cc1ccc(O)cc1)C(=O)[O-]
REMARK SMILES IDX 3 1 2 2 1 3 11 7 12 8 13 9 4 10 5 11 10 12 6 13 9 14 7 15
REMARK SMILES IDX 8 16
REMARK H PARENT 1 4 1 5 1 6 8 17
REMARK Flexibility Score: inf
ROOT
ATOM      1  C   UNL     1      19.474   3.316  13.088  1.00  0.00     0.107 C 
ENDROOT
BRANCH   1   2
ATOM      2  C   UNL     1      20.972   3.203  12.719  1.00  0.00     0.232 C 
BRANCH   2   3
ATOM      3  N   UNL     1      21.381   1.806  12.514  1.00  0.00    -0.350 N 
ATOM      4  H   UNL     1      22.026   1.485  13.272  1.00  0.00     0.345 HD
ATOM      5  H   UNL     1      20.535   1.191  12.510  1.00  0.00     0.345 HD
ATOM      6  H   UNL     1      21.861   1.709  11.590  1.00  0.00     0.345 HD
ENDBRANCH   2   3
BRANCH   2   7
ATOM      7  C   UNL     1      21.311   4.053  11.521  1.00  0.00     0.099 C 
ATOM      8  O   UNL     1      21.805   3.519  10.493  1.00  0.00    -0.544 OA
ATOM      9  O   UNL     1      21.133   5.431  11.555  1.00  0.00    -0.544 OA
ENDBRANCH   2   7
ENDBRANCH   1   2
BRANCH   1  10
ATOM     10  C   UNL     1      19.219   4.099  14.354  1.00  0.00    -0.041 A 
ATOM     11  C   UNL     1      20.293   4.504  15.166  1.00  0.00     0.008 A 
ATOM     12  C   UNL     1      17.910   4.442  14.728  1.00  0.00     0.008 A 
ATOM     13  C   UNL     1      20.059   5.242  16.330  1.00  0.00     0.046 A 
ATOM     14  C   UNL     1      17.678   5.180  15.893  1.00  0.00     0.046 A 
ATOM     15  C   UNL     1      18.753   5.582  16.696  1.00  0.00     0.115 A 
BRANCH  15  16
ATOM     16  O   UNL     1      18.533   6.319  17.858  1.00  0.00    -0.508 OA
ATOM     17  H   UNL     1      19.263   6.448  18.549  1.00  0.00     0.293 HD
ENDBRANCH  15  16
ENDBRANCH   1  10
TORSDOF 5
ENDMDL
MODEL 9
REMARK VINA RESULT:    -4.369     13.001     14.113
REMARK INTER + INTRA:          -5.624
REMARK INTER:                  -5.487
REMARK INTRA:                  -0.138
REMARK UNBOUND:                -0.233
REMARK SMILES [NH3+][C@H](Cc1ccc(O)cc1)C(=O)[O-]
REMARK SMILES IDX 3 1 2 2 1 3 11 7 12 8 13 9 4 10 5 11 10 12 6 13 9 14 7 15
REMARK SMILES IDX 8 16
REMARK H PARENT 1 4 1 5 1 6 8 17
REMARK Flexibility Score: inf
ROOT
ATOM      1  C   UNL     1      32.428  -3.929  12.837  1.00  0.00     0.107 C 
ENDROOT
BRANCH   1   2
ATOM      2  C   UNL     1      33.394  -3.120  11.939  1.00  0.00     0.232 C 
BRANCH   2   3
ATOM      3  N   UNL     1      34.715  -2.959  12.562  1.00  0.00    -0.350 N 
ATOM      4  H   UNL     1      35.474  -2.941  11.843  1.00  0.00     0.345 HD
ATOM      5  H   UNL     1      34.741  -2.063  13.100  1.00  0.00     0.345 HD
ATOM      6  H   UNL     1      34.891  -3.746  13.228  1.00  0.00     0.345 HD
ENDBRANCH   2   3
BRANCH   2   7
ATOM      7  C   UNL     1      33.509  -3.728  10.563  1.00  0.00     0.099 C 
ATOM      8  O   UNL     1      33.617  -4.976  10.436  1.00  0.00    -0.544 OA
ATOM      9  O   UNL     1      33.550  -2.920   9.432  1.00  0.00    -0.544 OA
ENDBRANCH   2   7
ENDBRANCH   1   2
BRANCH   1  10
ATOM     10  C   UNL     1      31.091  -3.257  13.046  1.00  0.00    -0.041 A 
ATOM     11  C   UNL     1      30.473  -2.562  11.993  1.00  0.00     0.008 A 
ATOM     12  C   UNL     1      30.446  -3.331  14.292  1.00  0.00     0.008 A 
ATOM     13  C   UNL     1      29.229  -1.953  12.183  1.00  0.00     0.046 A 
ATOM     14  C   UNL     1      29.202  -2.721  14.479  1.00  0.00     0.046 A 
ATOM     15  C   UNL     1      28.590  -2.031  13.425  1.00  0.00     0.115 A 
BRANCH  15  16
ATOM     16  O   UNL     1      27.351  -1.421  13.600  1.00  0.00    -0.508 OA
ATOM     17  H   UNL     1      26.804  -1.564  14.440  1.00  0.00     0.293 HD
ENDBRANCH  15  16
ENDBRANCH   1  10
TORSDOF 5
ENDMDL
