MODEL 1
REMARK VINA RESULT:    -5.257      0.000      0.000
REMARK INTER + INTRA:         -11.679
REMARK INTER:                  -9.559
REMARK INTRA:                  -2.120
REMARK UNBOUND:                -2.120
REMARK SMILES CCCCCCCCCCCCCC[C@@H](C)C(=O)[O-]
REMARK SMILES IDX 9 1 10 2 11 3 12 4 13 5 14 6 15 7 16 8 17 9 18 10 19 11 8 12
REMARK SMILES IDX 7 13 6 14 5 15 4 16 3 17 2 18 1 19
REMARK H PARENT
REMARK Flexibility Score: inf
ROOT
ATOM      1  C   UNL     1      17.206  20.888   8.972  1.00  0.00     0.000 C 
ENDROOT
BRANCH   1   2
ATOM      2  C   UNL     1      17.180  21.293   7.490  1.00  0.00     0.000 C 
BRANCH   2   3
ATOM      3  C   UNL     1      17.242  22.815   7.289  1.00  0.00     0.000 C 
BRANCH   3   4
ATOM      4  C   UNL     1      18.171  23.176   6.124  1.00  0.00     0.000 C 
BRANCH   4   5
ATOM      5  C   UNL     1      19.302  22.149   5.982  1.00  0.00     0.001 C 
BRANCH   5   6
ATOM      6  C   UNL     1      20.536  22.573   6.793  1.00  0.00     0.009 C 
BRANCH   6   7
ATOM      7  C   UNL     1      21.201  21.379   7.509  1.00  0.00     0.032 C 
ATOM      8  C   UNL     1      21.985  20.520   6.512  1.00  0.00     0.014 C 
BRANCH   7   9
ATOM      9  C   UNL     1      22.119  21.844   8.609  1.00  0.00     0.044 C 
ATOM     10  O   UNL     1      23.188  21.222   8.844  1.00  0.00    -0.550 OA
ATOM     11  O   UNL     1      21.794  22.961   9.369  1.00  0.00    -0.550 OA
ENDBRANCH   7   9
ENDBRANCH   6   7
ENDBRANCH   5   6
ENDBRANCH   4   5
ENDBRANCH   3   4
ENDBRANCH   2   3
ENDBRANCH   1   2
BRANCH   1  12
ATOM     12  C   UNL     1      18.523  21.273   9.669  1.00  0.00     0.000 C 
BRANCH  12  13
ATOM     13  C   UNL     1      18.290  22.133  10.931  1.00  0.00    -0.000 C 
BRANCH  13  14
ATOM     14  C   UNL     1      17.011  22.989  10.868  1.00  0.00    -0.000 C 
BRANCH  14  15
ATOM     15  C   UNL     1      17.252  24.494  10.651  1.00  0.00    -0.000 C 
BRANCH  15  16
ATOM     16  C   UNL     1      18.700  24.875  10.278  1.00  0.00    -0.000 C 
BRANCH  16  17
ATOM     17  C   UNL     1      18.875  25.496   8.878  1.00  0.00    -0.000 C 
BRANCH  17  18
ATOM     18  C   UNL     1      18.920  27.033   8.851  1.00  0.00    -0.003 C 
ATOM     19  C   UNL     1      17.532  27.670   8.921  1.00  0.00     0.004 C 
ENDBRANCH  17  18
ENDBRANCH  16  17
ENDBRANCH  15  16
ENDBRANCH  14  15
ENDBRANCH  13  14
ENDBRANCH  12  13
ENDBRANCH   1  12
TORSDOF 14
ENDMDL
MODEL 2
REMARK VINA RESULT:    -5.211      2.333      5.504
REMARK INTER + INTRA:         -11.596
REMARK INTER:                  -9.166
REMARK INTRA:                  -2.430
REMARK UNBOUND:                -2.120
REMARK SMILES CCCCCCCCCCCCCC[C@@H](C)C(=O)[O-]
REMARK SMILES IDX 9 1 10 2 11 3 12 4 13 5 14 6 15 7 16 8 17 9 18 10 19 11 8 12
REMARK SMILES IDX 7 13 6 14 5 15 4 16 3 17 2 18 1 19
REMARK H PARENT
REMARK Flexibility Score: inf
ROOT
ATOM      1  C   UNL     1      18.274  20.878   8.909  1.00  0.00     0.000 C 
ENDROOT
BRANCH   1   2
ATOM      2  C   UNL     1      18.303  21.280  10.393  1.00  0.00     0.000 C 
BRANCH   2   3
ATOM      3  C   UNL     1      19.296  22.415  10.680  1.00  0.00     0.000 C 
BRANCH   3   4
ATOM      4  C   UNL     1      20.252  22.619   9.498  1.00  0.00     0.000 C 
BRANCH   4   5
ATOM      5  C   UNL     1      20.102  24.026   8.905  1.00  0.00     0.001 C 
BRANCH   5   6
ATOM      6  C   UNL     1      19.372  24.961   9.882  1.00  0.00     0.009 C 
BRANCH   6   7
ATOM      7  C   UNL     1      18.095  25.566   9.265  1.00  0.00     0.032 C 
ATOM      8  C   UNL     1      16.877  25.269  10.146  1.00  0.00     0.014 C 
BRANCH   7   9
ATOM      9  C   UNL     1      18.232  27.054   9.073  1.00  0.00     0.044 C 
ATOM     10  O   UNL     1      19.372  27.570   8.928  1.00  0.00    -0.550 OA
ATOM     11  O   UNL     1      17.104  27.866   9.053  1.00  0.00    -0.550 OA
ENDBRANCH   7   9
ENDBRANCH   6   7
ENDBRANCH   5   6
ENDBRANCH   4   5
ENDBRANCH   3   4
ENDBRANCH   2   3
ENDBRANCH   1   2
BRANCH   1  12
ATOM     12  C   UNL     1      16.935  21.215   8.230  1.00  0.00     0.000 C 
BRANCH  12  13
ATOM     13  C   UNL     1      16.935  22.624   7.597  1.00  0.00    -0.000 C 
BRANCH  13  14
ATOM     14  C   UNL     1      17.258  22.625   6.091  1.00  0.00    -0.000 C 
BRANCH  14  15
ATOM     15  C   UNL     1      18.753  22.765   5.751  1.00  0.00    -0.000 C 
BRANCH  15  16
ATOM     16  C   UNL     1      19.273  21.781   4.682  1.00  0.00    -0.000 C 
BRANCH  16  17
ATOM     17  C   UNL     1      20.624  21.114   5.006  1.00  0.00    -0.000 C 
BRANCH  17  18
ATOM     18  C   UNL     1      21.244  21.523   6.354  1.00  0.00    -0.003 C 
ATOM     19  C   UNL     1      22.144  20.441   6.948  1.00  0.00     0.004 C 
ENDBRANCH  17  18
ENDBRANCH  16  17
ENDBRANCH  15  16
ENDBRANCH  14  15
ENDBRANCH  13  14
ENDBRANCH  12  13
ENDBRANCH   1  12
TORSDOF 14
ENDMDL
MODEL 3
REMARK VINA RESULT:    -5.127      1.930      2.993
REMARK INTER + INTRA:         -11.443
REMARK INTER:                  -9.612
REMARK INTRA:                  -1.831
REMARK UNBOUND:                -2.120
REMARK SMILES CCCCCCCCCCCCCC[C@@H](C)C(=O)[O-]
REMARK SMILES IDX 9 1 10 2 11 3 12 4 13 5 14 6 15 7 16 8 17 9 18 10 19 11 8 12
REMARK SMILES IDX 7 13 6 14 5 15 4 16 3 17 2 18 1 19
REMARK H PARENT
REMARK Flexibility Score: inf
ROOT
ATOM      1  C   UNL     1      21.270  23.490   8.066  1.00  0.00     0.000 C 
ENDROOT
BRANCH   1   2
ATOM      2  C   UNL     1      20.646  22.685   6.915  1.00  0.00     0.000 C 
BRANCH   2   3
ATOM      3  C   UNL     1      19.184  23.071   6.645  1.00  0.00     0.000 C 
BRANCH   3   4
ATOM      4  C   UNL     1      18.543  22.115   5.631  1.00  0.00     0.000 C 
BRANCH   4   5
ATOM      5  C   UNL     1      19.573  21.632   4.603  1.00  0.00     0.001 C 
BRANCH   5   6
ATOM      6  C   UNL     1      19.779  20.113   4.700  1.00  0.00     0.009 C 
BRANCH   6   7
ATOM      7  C   UNL     1      21.248  19.707   4.459  1.00  0.00     0.032 C 
ATOM      8  C   UNL     1      22.068  20.909   3.980  1.00  0.00     0.014 C 
BRANCH   7   9
ATOM      9  C   UNL     1      21.869  19.135   5.706  1.00  0.00     0.044 C 
ATOM     10  O   UNL     1      22.562  19.868   6.461  1.00  0.00    -0.550 OA
ATOM     11  O   UNL     1      21.680  17.798   6.035  1.00  0.00    -0.550 OA
ENDBRANCH   7   9
ENDBRANCH   6   7
ENDBRANCH   5   6
ENDBRANCH   4   5
ENDBRANCH   3   4
ENDBRANCH   2   3
ENDBRANCH   1   2
BRANCH   1  12
ATOM     12  C   UNL     1      21.352  22.687   9.375  1.00  0.00     0.000 C 
BRANCH  12  13
ATOM     13  C   UNL     1      20.306  23.148  10.414  1.00  0.00    -0.000 C 
BRANCH  13  14
ATOM     14  C   UNL     1      18.988  22.352  10.360  1.00  0.00    -0.000 C 
BRANCH  14  15
ATOM     15  C   UNL     1      17.728  23.166  10.705  1.00  0.00    -0.000 C 
BRANCH  15  16
ATOM     16  C   UNL     1      17.090  23.915   9.516  1.00  0.00    -0.000 C 
BRANCH  16  17
ATOM     17  C   UNL     1      17.304  25.441   9.510  1.00  0.00    -0.000 C 
BRANCH  17  18
ATOM     18  C   UNL     1      18.472  25.930   8.635  1.00  0.00    -0.003 C 
ATOM     19  C   UNL     1      18.965  27.322   9.025  1.00  0.00     0.004 C 
ENDBRANCH  17  18
ENDBRANCH  16  17
ENDBRANCH  15  16
ENDBRANCH  14  15
ENDBRANCH  13  14
ENDBRANCH  12  13
ENDBRANCH   1  12
TORSDOF 14
ENDMDL
MODEL 4
REMARK VINA RESULT:    -5.116      2.001      3.185
REMARK INTER + INTRA:         -11.424
REMARK INTER:                  -9.319
REMARK INTRA:                  -2.105
REMARK UNBOUND:                -2.120
REMARK SMILES CCCCCCCCCCCCCC[C@@H](C)C(=O)[O-]
REMARK SMILES IDX 9 1 10 2 11 3 12 4 13 5 14 6 15 7 16 8 17 9 18 10 19 11 8 12
REMARK SMILES IDX 7 13 6 14 5 15 4 16 3 17 2 18 1 19
REMARK H PARENT
REMARK Flexibility Score: inf
ROOT
ATOM      1  C   UNL     1      19.359  22.001  10.341  1.00  0.00     0.000 C 
ENDROOT
BRANCH   1   2
ATOM      2  C   UNL     1      20.419  23.113  10.401  1.00  0.00     0.000 C 
BRANCH   2   3
ATOM      3  C   UNL     1      21.520  22.940   9.344  1.00  0.00     0.000 C 
BRANCH   3   4
ATOM      4  C   UNL     1      21.086  23.533   7.999  1.00  0.00     0.000 C 
BRANCH   4   5
ATOM      5  C   UNL     1      21.247  22.509   6.868  1.00  0.00     0.001 C 
BRANCH   5   6
ATOM      6  C   UNL     1      21.537  21.109   7.429  1.00  0.00     0.009 C 
BRANCH   6   7
ATOM      7  C   UNL     1      22.064  20.145   6.346  1.00  0.00     0.032 C 
ATOM      8  C   UNL     1      23.250  19.333   6.878  1.00  0.00     0.014 C 
BRANCH   7   9
ATOM      9  C   UNL     1      20.982  19.211   5.872  1.00  0.00     0.044 C 
ATOM     10  O   UNL     1      21.212  18.401   4.935  1.00  0.00    -0.550 OA
ATOM     11  O   UNL     1      19.725  19.234   6.465  1.00  0.00    -0.550 OA
ENDBRANCH   7   9
ENDBRANCH   6   7
ENDBRANCH   5   6
ENDBRANCH   4   5
ENDBRANCH   3   4
ENDBRANCH   2   3
ENDBRANCH   1   2
BRANCH   1  12
ATOM     12  C   UNL     1      17.977  22.472  10.825  1.00  0.00     0.000 C 
BRANCH  12  13
ATOM     13  C   UNL     1      16.875  22.244   9.768  1.00  0.00    -0.000 C 
BRANCH  13  14
ATOM     14  C   UNL     1      17.414  21.764   8.406  1.00  0.00    -0.000 C 
BRANCH  14  15
ATOM     15  C   UNL     1      17.328  22.805   7.275  1.00  0.00    -0.000 C 
BRANCH  15  16
ATOM     16  C   UNL     1      17.020  24.244   7.737  1.00  0.00    -0.000 C 
BRANCH  16  17
ATOM     17  C   UNL     1      18.255  25.107   8.065  1.00  0.00    -0.000 C 
BRANCH  17  18
ATOM     18  C   UNL     1      18.016  26.213   9.108  1.00  0.00    -0.003 C 
ATOM     19  C   UNL     1      19.105  27.284   9.099  1.00  0.00     0.004 C 
ENDBRANCH  17  18
ENDBRANCH  16  17
ENDBRANCH  15  16
ENDBRANCH  14  15
ENDBRANCH  13  14
ENDBRANCH  12  13
ENDBRANCH   1  12
TORSDOF 14
ENDMDL
MODEL 5
REMARK VINA RESULT:    -5.109      1.617      3.628
REMARK INTER + INTRA:         -11.411
REMARK INTER:                  -9.067
REMARK INTRA:                  -2.344
REMARK UNBOUND:                -2.120
REMARK SMILES CCCCCCCCCCCCCC[C@@H](C)C(=O)[O-]
REMARK SMILES IDX 9 1 10 2 11 3 12 4 13 5 14 6 15 7 16 8 17 9 18 10 19 11 8 12
REMARK SMILES IDX 7 13 6 14 5 15 4 16 3 17 2 18 1 19
REMARK H PARENT
REMARK Flexibility Score: inf
ROOT
ATOM      1  C   UNL     1      16.939  24.742   8.532  1.00  0.00     0.000 C 
ENDROOT
BRANCH   1   2
ATOM      2  C   UNL     1      16.918  23.954   7.213  1.00  0.00     0.000 C 
BRANCH   2   3
ATOM      3  C   UNL     1      18.318  23.509   6.765  1.00  0.00     0.000 C 
BRANCH   3   4
ATOM      4  C   UNL     1      18.230  22.493   5.620  1.00  0.00     0.000 C 
BRANCH   4   5
ATOM      5  C   UNL     1      19.622  21.983   5.227  1.00  0.00     0.001 C 
BRANCH   5   6
ATOM      6  C   UNL     1      20.562  21.955   6.442  1.00  0.00     0.009 C 
BRANCH   6   7
ATOM      7  C   UNL     1      20.905  20.516   6.881  1.00  0.00     0.032 C 
ATOM      8  C   UNL     1      19.847  19.531   6.374  1.00  0.00     0.014 C 
BRANCH   7   9
ATOM      9  C   UNL     1      22.264  20.102   6.381  1.00  0.00     0.044 C 
ATOM     10  O   UNL     1      22.526  20.151   5.150  1.00  0.00    -0.550 OA
ATOM     11  O   UNL     1      23.237  19.667   7.273  1.00  0.00    -0.550 OA
ENDBRANCH   7   9
ENDBRANCH   6   7
ENDBRANCH   5   6
ENDBRANCH   4   5
ENDBRANCH   3   4
ENDBRANCH   2   3
ENDBRANCH   1   2
BRANCH   1  12
ATOM     12  C   UNL     1      17.695  26.077   8.414  1.00  0.00     0.000 C 
BRANCH  12  13
ATOM     13  C   UNL     1      19.046  26.056   9.161  1.00  0.00    -0.000 C 
BRANCH  13  14
ATOM     14  C   UNL     1      19.168  24.913  10.187  1.00  0.00    -0.000 C 
BRANCH  14  15
ATOM     15  C   UNL     1      20.255  23.871   9.866  1.00  0.00    -0.000 C 
BRANCH  15  16
ATOM     16  C   UNL     1      19.822  22.401  10.044  1.00  0.00    -0.000 C 
BRANCH  16  17
ATOM     17  C   UNL     1      18.558  22.189  10.901  1.00  0.00    -0.000 C 
BRANCH  17  18
ATOM     18  C   UNL     1      17.746  20.927  10.558  1.00  0.00    -0.003 C 
ATOM     19  C   UNL     1      17.662  20.664   9.055  1.00  0.00     0.004 C 
ENDBRANCH  17  18
ENDBRANCH  16  17
ENDBRANCH  15  16
ENDBRANCH  14  15
ENDBRANCH  13  14
ENDBRANCH  12  13
ENDBRANCH   1  12
TORSDOF 14
ENDMDL
MODEL 6
REMARK VINA RESULT:    -5.080      1.915      3.619
REMARK INTER + INTRA:         -11.358
REMARK INTER:                  -8.875
REMARK INTRA:                  -2.482
REMARK UNBOUND:                -2.120
REMARK SMILES CCCCCCCCCCCCCC[C@@H](C)C(=O)[O-]
REMARK SMILES IDX 9 1 10 2 11 3 12 4 13 5 14 6 15 7 16 8 17 9 18 10 19 11 8 12
REMARK SMILES IDX 7 13 6 14 5 15 4 16 3 17 2 18 1 19
REMARK H PARENT
REMARK Flexibility Score: inf
ROOT
ATOM      1  C   UNL     1      17.514  23.794   6.595  1.00  0.00     0.000 C 
ENDROOT
BRANCH   1   2
ATOM      2  C   UNL     1      17.104  22.318   6.727  1.00  0.00     0.000 C 
BRANCH   2   3
ATOM      3  C   UNL     1      17.893  21.398   5.784  1.00  0.00     0.000 C 
BRANCH   3   4
ATOM      4  C   UNL     1      19.090  22.136   5.172  1.00  0.00     0.000 C 
BRANCH   4   5
ATOM      5  C   UNL     1      19.801  21.264   4.129  1.00  0.00     0.001 C 
BRANCH   5   6
ATOM      6  C   UNL     1      21.275  21.047   4.505  1.00  0.00     0.009 C 
BRANCH   6   7
ATOM      7  C   UNL     1      21.447  19.957   5.583  1.00  0.00     0.032 C 
ATOM      8  C   UNL     1      20.481  18.794   5.333  1.00  0.00     0.014 C 
BRANCH   7   9
ATOM      9  C   UNL     1      22.862  19.442   5.620  1.00  0.00     0.044 C 
ATOM     10  O   UNL     1      23.380  19.098   6.714  1.00  0.00    -0.550 OA
ATOM     11  O   UNL     1      23.603  19.342   4.448  1.00  0.00    -0.550 OA
ENDBRANCH   7   9
ENDBRANCH   6   7
ENDBRANCH   5   6
ENDBRANCH   4   5
ENDBRANCH   3   4
ENDBRANCH   2   3
ENDBRANCH   1   2
BRANCH   1  12
ATOM     12  C   UNL     1      17.172  24.618   7.849  1.00  0.00     0.000 C 
BRANCH  12  13
ATOM     13  C   UNL     1      18.388  25.406   8.383  1.00  0.00    -0.000 C 
BRANCH  13  14
ATOM     14  C   UNL     1      18.888  24.918   9.756  1.00  0.00    -0.000 C 
BRANCH  14  15
ATOM     15  C   UNL     1      18.337  23.549  10.193  1.00  0.00    -0.000 C 
BRANCH  15  16
ATOM     16  C   UNL     1      19.402  22.450  10.392  1.00  0.00    -0.000 C 
BRANCH  16  17
ATOM     17  C   UNL     1      19.736  21.624   9.134  1.00  0.00    -0.000 C 
BRANCH  17  18
ATOM     18  C   UNL     1      21.164  21.814   8.594  1.00  0.00    -0.003 C 
ATOM     19  C   UNL     1      21.322  23.087   7.764  1.00  0.00     0.004 C 
ENDBRANCH  17  18
ENDBRANCH  16  17
ENDBRANCH  15  16
ENDBRANCH  14  15
ENDBRANCH  13  14
ENDBRANCH  12  13
ENDBRANCH   1  12
TORSDOF 14
ENDMDL
MODEL 7
REMARK VINA RESULT:    -5.052      2.302      3.520
REMARK INTER + INTRA:         -11.307
REMARK INTER:                  -8.784
REMARK INTRA:                  -2.522
REMARK UNBOUND:                -2.120
REMARK SMILES CCCCCCCCCCCCCC[C@@H](C)C(=O)[O-]
REMARK SMILES IDX 9 1 10 2 11 3 12 4 13 5 14 6 15 7 16 8 17 9 18 10 19 11 8 12
REMARK SMILES IDX 7 13 6 14 5 15 4 16 3 17 2 18 1 19
REMARK H PARENT
REMARK Flexibility Score: inf
ROOT
ATOM      1  C   UNL     1      21.418  23.521   8.648  1.00  0.00     0.000 C 
ENDROOT
BRANCH   1   2
ATOM      2  C   UNL     1      21.477  22.233   7.812  1.00  0.00     0.000 C 
BRANCH   2   3
ATOM      3  C   UNL     1      20.753  22.366   6.464  1.00  0.00     0.000 C 
BRANCH   3   4
ATOM      4  C   UNL     1      19.387  23.041   6.641  1.00  0.00     0.000 C 
BRANCH   4   5
ATOM      5  C   UNL     1      18.315  22.345   5.793  1.00  0.00     0.001 C 
BRANCH   5   6
ATOM      6  C   UNL     1      17.328  21.569   6.680  1.00  0.00     0.009 C 
BRANCH   6   7
ATOM      7  C   UNL     1      18.032  20.490   7.528  1.00  0.00     0.032 C 
ATOM      8  C   UNL     1      17.128  20.032   8.676  1.00  0.00     0.014 C 
BRANCH   7   9
ATOM      9  C   UNL     1      18.426  19.304   6.688  1.00  0.00     0.044 C 
ATOM     10  O   UNL     1      19.641  19.003   6.550  1.00  0.00    -0.550 OA
ATOM     11  O   UNL     1      17.453  18.533   6.062  1.00  0.00    -0.550 OA
ENDBRANCH   7   9
ENDBRANCH   6   7
ENDBRANCH   5   6
ENDBRANCH   4   5
ENDBRANCH   3   4
ENDBRANCH   2   3
ENDBRANCH   1   2
BRANCH   1  12
ATOM     12  C   UNL     1      20.922  23.276  10.083  1.00  0.00     0.000 C 
BRANCH  12  13
ATOM     13  C   UNL     1      19.771  22.248  10.139  1.00  0.00    -0.000 C 
BRANCH  13  14
ATOM     14  C   UNL     1      18.494  22.786  10.814  1.00  0.00    -0.000 C 
BRANCH  14  15
ATOM     15  C   UNL     1      17.501  23.473   9.860  1.00  0.00    -0.000 C 
BRANCH  15  16
ATOM     16  C   UNL     1      16.875  24.777  10.399  1.00  0.00    -0.000 C 
BRANCH  16  17
ATOM     17  C   UNL     1      17.133  26.032   9.542  1.00  0.00    -0.000 C 
BRANCH  17  18
ATOM     18  C   UNL     1      18.406  25.979   8.679  1.00  0.00    -0.003 C 
ATOM     19  C   UNL     1      19.284  27.218   8.837  1.00  0.00     0.004 C 
ENDBRANCH  17  18
ENDBRANCH  16  17
ENDBRANCH  15  16
ENDBRANCH  14  15
ENDBRANCH  13  14
ENDBRANCH  12  13
ENDBRANCH   1  12
TORSDOF 14
ENDMDL
MODEL 8
REMARK VINA RESULT:    -5.037      2.378      3.410
REMARK INTER + INTRA:         -11.279
REMARK INTER:                  -9.218
REMARK INTRA:                  -2.061
REMARK UNBOUND:                -2.120
REMARK SMILES CCCCCCCCCCCCCC[C@@H](C)C(=O)[O-]
REMARK SMILES IDX 9 1 10 2 11 3 12 4 13 5 14 6 15 7 16 8 17 9 18 10 19 11 8 12
REMARK SMILES IDX 7 13 6 14 5 15 4 16 3 17 2 18 1 19
REMARK H PARENT
REMARK Flexibility Score: inf
ROOT
ATOM      1  C   UNL     1      20.560  22.398   8.596  1.00  0.00     0.000 C 
ENDROOT
BRANCH   1   2
ATOM      2  C   UNL     1      20.853  22.753   7.130  1.00  0.00     0.000 C 
BRANCH   2   3
ATOM      3  C   UNL     1      19.692  22.396   6.190  1.00  0.00     0.000 C 
BRANCH   3   4
ATOM      4  C   UNL     1      20.173  21.502   5.040  1.00  0.00     0.000 C 
BRANCH   4   5
ATOM      5  C   UNL     1      21.686  21.265   5.123  1.00  0.00     0.001 C 
BRANCH   5   6
ATOM      6  C   UNL     1      22.033  19.801   4.814  1.00  0.00     0.009 C 
BRANCH   6   7
ATOM      7  C   UNL     1      23.229  19.297   5.647  1.00  0.00     0.032 C 
ATOM      8  C   UNL     1      23.043  19.649   7.126  1.00  0.00     0.014 C 
BRANCH   7   9
ATOM      9  C   UNL     1      23.411  17.809   5.499  1.00  0.00     0.044 C 
ATOM     10  O   UNL     1      22.465  17.026   5.781  1.00  0.00    -0.550 OA
ATOM     11  O   UNL     1      24.619  17.290   5.049  1.00  0.00    -0.550 OA
ENDBRANCH   7   9
ENDBRANCH   6   7
ENDBRANCH   5   6
ENDBRANCH   4   5
ENDBRANCH   3   4
ENDBRANCH   2   3
ENDBRANCH   1   2
BRANCH   1  12
ATOM     12  C   UNL     1      19.428  21.367   8.743  1.00  0.00     0.000 C 
BRANCH  12  13
ATOM     13  C   UNL     1      18.643  21.540  10.062  1.00  0.00    -0.000 C 
BRANCH  13  14
ATOM     14  C   UNL     1      17.498  22.566   9.971  1.00  0.00    -0.000 C 
BRANCH  14  15
ATOM     15  C   UNL     1      16.875  22.715   8.571  1.00  0.00    -0.000 C 
BRANCH  15  16
ATOM     16  C   UNL     1      16.939  24.138   7.977  1.00  0.00    -0.000 C 
BRANCH  16  17
ATOM     17  C   UNL     1      17.449  25.228   8.940  1.00  0.00    -0.000 C 
BRANCH  17  18
ATOM     18  C   UNL     1      18.879  25.724   8.660  1.00  0.00    -0.003 C 
ATOM     19  C   UNL     1      19.014  27.242   8.766  1.00  0.00     0.004 C 
ENDBRANCH  17  18
ENDBRANCH  16  17
ENDBRANCH  15  16
ENDBRANCH  14  15
ENDBRANCH  13  14
ENDBRANCH  12  13
ENDBRANCH   1  12
TORSDOF 14
ENDMDL
MODEL 9
REMARK VINA RESULT:    -4.959      2.381      3.823
REMARK INTER + INTRA:         -11.137
REMARK INTER:                  -9.169
REMARK INTRA:                  -1.968
REMARK UNBOUND:                -2.120
REMARK SMILES CCCCCCCCCCCCCC[C@@H](C)C(=O)[O-]
REMARK SMILES IDX 9 1 10 2 11 3 12 4 13 5 14 6 15 7 16 8 17 9 18 10 19 11 8 12
REMARK SMILES IDX 7 13 6 14 5 15 4 16 3 17 2 18 1 19
REMARK H PARENT
REMARK Flexibility Score: inf
ROOT
ATOM      1  C   UNL     1      16.887  23.731   7.332  1.00  0.00     0.000 C 
ENDROOT
BRANCH   1   2
ATOM      2  C   UNL     1      17.608  23.117   6.122  1.00  0.00     0.000 C 
BRANCH   2   3
ATOM      3  C   UNL     1      19.129  23.035   6.317  1.00  0.00     0.000 C 
BRANCH   3   4
ATOM      4  C   UNL     1      19.655  21.643   5.944  1.00  0.00     0.000 C 
BRANCH   4   5
ATOM      5  C   UNL     1      21.182  21.652   5.799  1.00  0.00     0.001 C 
BRANCH   5   6
ATOM      6  C   UNL     1      21.821  20.529   6.631  1.00  0.00     0.009 C 
BRANCH   6   7
ATOM      7  C   UNL     1      22.403  19.407   5.746  1.00  0.00     0.032 C 
ATOM      8  C   UNL     1      23.842  19.084   6.160  1.00  0.00     0.014 C 
BRANCH   7   9
ATOM      9  C   UNL     1      21.561  18.160   5.821  1.00  0.00     0.044 C 
ATOM     10  O   UNL     1      22.065  17.083   6.235  1.00  0.00    -0.550 OA
ATOM     11  O   UNL     1      20.225  18.190   5.439  1.00  0.00    -0.550 OA
ENDBRANCH   7   9
ENDBRANCH   6   7
ENDBRANCH   5   6
ENDBRANCH   4   5
ENDBRANCH   3   4
ENDBRANCH   2   3
ENDBRANCH   1   2
BRANCH   1  12
ATOM     12  C   UNL     1      17.576  25.004   7.851  1.00  0.00     0.000 C 
BRANCH  12  13
ATOM     13  C   UNL     1      17.264  25.277   9.339  1.00  0.00    -0.000 C 
BRANCH  13  14
ATOM     14  C   UNL     1      18.482  25.108  10.268  1.00  0.00    -0.000 C 
BRANCH  14  15
ATOM     15  C   UNL     1      19.754  24.589   9.575  1.00  0.00    -0.000 C 
BRANCH  15  16
ATOM     16  C   UNL     1      20.364  23.317  10.200  1.00  0.00    -0.000 C 
BRANCH  16  17
ATOM     17  C   UNL     1      19.825  21.986   9.637  1.00  0.00    -0.000 C 
BRANCH  17  18
ATOM     18  C   UNL     1      18.456  21.554  10.191  1.00  0.00    -0.003 C 
ATOM     19  C   UNL     1      18.350  21.714  11.706  1.00  0.00     0.004 C 
ENDBRANCH  17  18
ENDBRANCH  16  17
ENDBRANCH  15  16
ENDBRANCH  14  15
ENDBRANCH  13  14
ENDBRANCH  12  13
ENDBRANCH   1  12
TORSDOF 14
ENDMDL
