MODEL 1
REMARK VINA RESULT:    -4.696      0.000      0.000
REMARK INTER + INTRA:          -8.903
REMARK INTER:                  -7.167
REMARK INTRA:                  -1.736
REMARK UNBOUND:                -1.736
REMARK SMILES CC(=O)CCC=C(C)CCC=C(C)CCC=C(C)C
REMARK SMILES IDX 10 1 11 2 12 3 13 4 14 5 15 6 16 7 18 8 17 9 19 10 9 11 7 12
REMARK SMILES IDX 6 13 8 14 5 15 4 16 2 17 3 18 1 19
REMARK H PARENT
REMARK Flexibility Score: inf
ROOT
ATOM      1  C   UNL     1      -8.501 -14.736  -1.708  1.00  0.00     0.032 C 
ENDROOT
BRANCH   1   2
ATOM      2  C   UNL     1      -8.530 -16.228  -1.943  1.00  0.00    -0.028 C 
ATOM      3  C   UNL     1      -9.341 -17.099  -1.302  1.00  0.00    -0.077 C 
ATOM      4  C   UNL     1      -9.302 -18.548  -1.718  1.00  0.00     0.039 C 
BRANCH   3   5
ATOM      5  C   UNL     1     -10.259 -16.690  -0.164  1.00  0.00     0.034 C 
BRANCH   5   6
ATOM      6  C   UNL     1      -9.633 -16.981   1.209  1.00  0.00     0.032 C 
BRANCH   6   7
ATOM      7  C   UNL     1      -8.745 -15.851   1.673  1.00  0.00    -0.028 C 
ATOM      8  C   UNL     1      -6.624 -17.075   1.144  1.00  0.00     0.039 C 
ATOM      9  C   UNL     1      -7.395 -15.866   1.622  1.00  0.00    -0.080 C 
ATOM     10  C   UNL     1      -6.647 -14.640   2.076  1.00  0.00     0.039 C 
ENDBRANCH   6   7
ENDBRANCH   5   6
ENDBRANCH   3   5
ENDBRANCH   1   2
BRANCH   1  11
ATOM     11  C   UNL     1      -7.324 -14.073  -2.436  1.00  0.00     0.034 C 
BRANCH  11  12
ATOM     12  C   UNL     1      -7.793 -13.085  -3.486  1.00  0.00    -0.077 C 
ATOM     13  C   UNL     1      -8.839 -12.275  -3.204  1.00  0.00    -0.028 C 
ATOM     14  C   UNL     1      -7.064 -13.019  -4.808  1.00  0.00     0.039 C 
BRANCH  13  15
ATOM     15  C   UNL     1      -9.434 -11.277  -4.170  1.00  0.00     0.035 C 
BRANCH  15  16
ATOM     16  C   UNL     1     -10.656 -11.851  -4.899  1.00  0.00     0.079 C 
BRANCH  16  17
ATOM     17  C   UNL     1     -10.307 -12.318  -6.289  1.00  0.00     0.130 C 
ATOM     18  O   UNL     1      -9.639 -11.602  -7.020  1.00  0.00    -0.300 OA
ATOM     19  C   UNL     1     -10.759 -13.663  -6.772  1.00  0.00     0.087 C 
ENDBRANCH  16  17
ENDBRANCH  15  16
ENDBRANCH  13  15
ENDBRANCH  11  12
ENDBRANCH   1  11
TORSDOF 9
ENDMDL
MODEL 2
REMARK VINA RESULT:    -4.579     14.410     17.620
REMARK INTER + INTRA:          -8.723
REMARK INTER:                  -6.661
REMARK INTRA:                  -2.062
REMARK UNBOUND:                -1.736
REMARK SMILES CC(=O)CCC=C(C)CCC=C(C)CCC=C(C)C
REMARK SMILES IDX 10 1 11 2 12 3 13 4 14 5 15 6 16 7 18 8 17 9 19 10 9 11 7 12
REMARK SMILES IDX 6 13 8 14 5 15 4 16 2 17 3 18 1 19
REMARK H PARENT
REMARK Flexibility Score: inf
ROOT
ATOM      1  C   UNL     1     -23.953  -5.941  -8.847  1.00  0.00     0.032 C 
ENDROOT
BRANCH   1   2
ATOM      2  C   UNL     1     -24.688  -5.196  -7.758  1.00  0.00    -0.028 C 
ATOM      3  C   UNL     1     -24.756  -5.582  -6.464  1.00  0.00    -0.077 C 
ATOM      4  C   UNL     1     -25.461  -4.676  -5.487  1.00  0.00     0.039 C 
BRANCH   3   5
ATOM      5  C   UNL     1     -24.188  -6.898  -5.963  1.00  0.00     0.034 C 
BRANCH   5   6
ATOM      6  C   UNL     1     -25.265  -7.991  -5.878  1.00  0.00     0.032 C 
BRANCH   6   7
ATOM      7  C   UNL     1     -24.676  -9.373  -6.035  1.00  0.00    -0.028 C 
ATOM      8  C   UNL     1     -24.716  -9.854  -3.577  1.00  0.00     0.039 C 
ATOM      9  C   UNL     1     -24.453 -10.232  -5.015  1.00  0.00    -0.080 C 
ATOM     10  C   UNL     1     -23.907 -11.598  -5.337  1.00  0.00     0.039 C 
ENDBRANCH   6   7
ENDBRANCH   5   6
ENDBRANCH   3   5
ENDBRANCH   1   2
BRANCH   1  11
ATOM     11  C   UNL     1     -24.898  -6.850  -9.646  1.00  0.00     0.034 C 
BRANCH  11  12
ATOM     12  C   UNL     1     -24.443  -8.296  -9.624  1.00  0.00    -0.077 C 
ATOM     13  C   UNL     1     -23.118  -8.567  -9.618  1.00  0.00    -0.028 C 
ATOM     14  C   UNL     1     -25.484  -9.391  -9.587  1.00  0.00     0.039 C 
BRANCH  13  15
ATOM     15  C   UNL     1     -22.528  -9.957  -9.639  1.00  0.00     0.035 C 
BRANCH  15  16
ATOM     16  C   UNL     1     -21.965 -10.357  -8.269  1.00  0.00     0.079 C 
BRANCH  16  17
ATOM     17  C   UNL     1     -20.854 -11.367  -8.396  1.00  0.00     0.130 C 
ATOM     18  O   UNL     1     -20.331 -11.824  -7.392  1.00  0.00    -0.300 OA
ATOM     19  C   UNL     1     -20.400 -11.828  -9.749  1.00  0.00     0.087 C 
ENDBRANCH  16  17
ENDBRANCH  15  16
ENDBRANCH  13  15
ENDBRANCH  11  12
ENDBRANCH   1  11
TORSDOF 9
ENDMDL
MODEL 3
REMARK VINA RESULT:    -4.377      1.527      3.005
REMARK INTER + INTRA:          -8.415
REMARK INTER:                  -6.212
REMARK INTRA:                  -2.204
REMARK UNBOUND:                -1.736
REMARK SMILES CC(=O)CCC=C(C)CCC=C(C)CCC=C(C)C
REMARK SMILES IDX 10 1 11 2 12 3 13 4 14 5 15 6 16 7 18 8 17 9 19 10 9 11 7 12
REMARK SMILES IDX 6 13 8 14 5 15 4 16 2 17 3 18 1 19
REMARK H PARENT
REMARK Flexibility Score: inf
ROOT
ATOM      1  C   UNL     1      -6.622 -15.323   0.021  1.00  0.00     0.032 C 
ENDROOT
BRANCH   1   2
ATOM      2  C   UNL     1      -7.556 -15.803   1.107  1.00  0.00    -0.028 C 
ATOM      3  C   UNL     1      -8.807 -16.274   0.901  1.00  0.00    -0.077 C 
ATOM      4  C   UNL     1      -9.576 -16.794   2.089  1.00  0.00     0.039 C 
BRANCH   3   5
ATOM      5  C   UNL     1      -9.479 -16.269  -0.461  1.00  0.00     0.034 C 
BRANCH   5   6
ATOM      6  C   UNL     1      -9.222 -17.575  -1.229  1.00  0.00     0.032 C 
BRANCH   6   7
ATOM      7  C   UNL     1      -8.431 -17.337  -2.494  1.00  0.00    -0.028 C 
ATOM      8  C   UNL     1      -6.404 -18.546  -1.654  1.00  0.00     0.039 C 
ATOM      9  C   UNL     1      -7.177 -17.792  -2.711  1.00  0.00    -0.080 C 
ATOM     10  C   UNL     1      -6.536 -17.517  -4.045  1.00  0.00     0.039 C 
ENDBRANCH   6   7
ENDBRANCH   5   6
ENDBRANCH   3   5
ENDBRANCH   1   2
BRANCH   1  11
ATOM     11  C   UNL     1      -6.944 -13.883  -0.404  1.00  0.00     0.034 C 
BRANCH  11  12
ATOM     12  C   UNL     1      -7.163 -13.772  -1.900  1.00  0.00    -0.077 C 
ATOM     13  C   UNL     1      -8.380 -13.398  -2.359  1.00  0.00    -0.028 C 
ATOM     14  C   UNL     1      -6.011 -14.061  -2.834  1.00  0.00     0.039 C 
BRANCH  13  15
ATOM     15  C   UNL     1      -8.748 -13.287  -3.819  1.00  0.00     0.035 C 
BRANCH  15  16
ATOM     16  C   UNL     1      -9.624 -12.058  -4.094  1.00  0.00     0.079 C 
BRANCH  16  17
ATOM     17  C   UNL     1     -10.149 -12.053  -5.507  1.00  0.00     0.130 C 
ATOM     18  O   UNL     1     -10.401 -10.992  -6.056  1.00  0.00    -0.300 OA
ATOM     19  C   UNL     1     -10.346 -13.341  -6.247  1.00  0.00     0.087 C 
ENDBRANCH  16  17
ENDBRANCH  15  16
ENDBRANCH  13  15
ENDBRANCH  11  12
ENDBRANCH   1  11
TORSDOF 9
ENDMDL
MODEL 4
REMARK VINA RESULT:    -4.354      2.780      7.228
REMARK INTER + INTRA:          -8.381
REMARK INTER:                  -6.454
REMARK INTRA:                  -1.926
REMARK UNBOUND:                -1.736
REMARK SMILES CC(=O)CCC=C(C)CCC=C(C)CCC=C(C)C
REMARK SMILES IDX 10 1 11 2 12 3 13 4 14 5 15 6 16 7 18 8 17 9 19 10 9 11 7 12
REMARK SMILES IDX 6 13 8 14 5 15 4 16 2 17 3 18 1 19
REMARK H PARENT
REMARK Flexibility Score: inf
ROOT
ATOM      1  C   UNL     1      -8.849 -13.427  -2.823  1.00  0.00     0.032 C 
ENDROOT
BRANCH   1   2
ATOM      2  C   UNL     1      -8.325 -12.202  -3.534  1.00  0.00    -0.028 C 
ATOM      3  C   UNL     1      -9.042 -11.432  -4.383  1.00  0.00    -0.077 C 
ATOM      4  C   UNL     1      -8.391 -10.192  -4.943  1.00  0.00     0.039 C 
BRANCH   3   5
ATOM      5  C   UNL     1     -10.454 -11.778  -4.822  1.00  0.00     0.034 C 
BRANCH   5   6
ATOM      6  C   UNL     1     -10.499 -12.247  -6.285  1.00  0.00     0.032 C 
BRANCH   6   7
ATOM      7  C   UNL     1     -10.316 -13.742  -6.402  1.00  0.00    -0.028 C 
ATOM      8  C   UNL     1      -7.925 -13.562  -7.128  1.00  0.00     0.039 C 
ATOM      9  C   UNL     1      -9.159 -14.347  -6.750  1.00  0.00    -0.080 C 
ATOM     10  C   UNL     1      -9.119 -15.853  -6.774  1.00  0.00     0.039 C 
ENDBRANCH   6   7
ENDBRANCH   5   6
ENDBRANCH   3   5
ENDBRANCH   1   2
BRANCH   1  11
ATOM     11  C   UNL     1      -8.112 -14.698  -3.271  1.00  0.00     0.034 C 
BRANCH  11  12
ATOM     12  C   UNL     1      -7.873 -15.649  -2.116  1.00  0.00    -0.077 C 
ATOM     13  C   UNL     1      -7.539 -15.143  -0.907  1.00  0.00    -0.028 C 
ATOM     14  C   UNL     1      -8.036 -17.134  -2.344  1.00  0.00     0.039 C 
BRANCH  13  15
ATOM     15  C   UNL     1      -7.232 -15.975   0.316  1.00  0.00     0.035 C 
BRANCH  15  16
ATOM     16  C   UNL     1      -8.303 -15.808   1.401  1.00  0.00     0.079 C 
BRANCH  16  17
ATOM     17  C   UNL     1      -9.459 -16.752   1.194  1.00  0.00     0.130 C 
ATOM     18  O   UNL     1      -9.514 -17.793   1.829  1.00  0.00    -0.300 OA
ATOM     19  C   UNL     1     -10.551 -16.411   0.226  1.00  0.00     0.087 C 
ENDBRANCH  16  17
ENDBRANCH  15  16
ENDBRANCH  13  15
ENDBRANCH  11  12
ENDBRANCH   1  11
TORSDOF 9
ENDMDL
MODEL 5
REMARK VINA RESULT:    -4.352      1.192      2.964
REMARK INTER + INTRA:          -8.377
REMARK INTER:                  -6.850
REMARK INTRA:                  -1.527
REMARK UNBOUND:                -1.736
REMARK SMILES CC(=O)CCC=C(C)CCC=C(C)CCC=C(C)C
REMARK SMILES IDX 10 1 11 2 12 3 13 4 14 5 15 6 16 7 18 8 17 9 19 10 9 11 7 12
REMARK SMILES IDX 6 13 8 14 5 15 4 16 2 17 3 18 1 19
REMARK H PARENT
REMARK Flexibility Score: inf
ROOT
ATOM      1  C   UNL     1      -6.841 -14.506  -1.759  1.00  0.00     0.032 C 
ENDROOT
BRANCH   1   2
ATOM      2  C   UNL     1      -6.683 -13.726  -0.475  1.00  0.00    -0.028 C 
ATOM      3  C   UNL     1      -6.227 -14.235   0.691  1.00  0.00    -0.077 C 
ATOM      4  C   UNL     1      -6.049 -13.296   1.857  1.00  0.00     0.039 C 
BRANCH   3   5
ATOM      5  C   UNL     1      -5.921 -15.710   0.886  1.00  0.00     0.034 C 
BRANCH   5   6
ATOM      6  C   UNL     1      -6.966 -16.397   1.780  1.00  0.00     0.032 C 
BRANCH   6   7
ATOM      7  C   UNL     1      -8.376 -16.079   1.342  1.00  0.00    -0.028 C 
ATOM      8  C   UNL     1      -8.446 -17.922  -0.353  1.00  0.00     0.039 C 
ATOM      9  C   UNL     1      -9.064 -16.773   0.408  1.00  0.00    -0.080 C 
ATOM     10  C   UNL     1     -10.484 -16.366   0.115  1.00  0.00     0.039 C 
ENDBRANCH   6   7
ENDBRANCH   5   6
ENDBRANCH   3   5
ENDBRANCH   1   2
BRANCH   1  11
ATOM     11  C   UNL     1      -8.252 -14.350  -2.343  1.00  0.00     0.034 C 
BRANCH  11  12
ATOM     12  C   UNL     1      -8.297 -13.307  -3.441  1.00  0.00    -0.077 C 
ATOM     13  C   UNL     1      -9.089 -12.221  -3.283  1.00  0.00    -0.028 C 
ATOM     14  C   UNL     1      -7.439 -13.498  -4.670  1.00  0.00     0.039 C 
BRANCH  13  15
ATOM     15  C   UNL     1      -9.260 -11.128  -4.312  1.00  0.00     0.035 C 
BRANCH  15  16
ATOM     16  C   UNL     1     -10.280 -11.517  -5.390  1.00  0.00     0.079 C 
BRANCH  16  17
ATOM     17  C   UNL     1      -9.617 -11.767  -6.720  1.00  0.00     0.130 C 
ATOM     18  O   UNL     1     -10.050 -12.637  -7.460  1.00  0.00    -0.300 OA
ATOM     19  C   UNL     1      -8.441 -10.942  -7.147  1.00  0.00     0.087 C 
ENDBRANCH  16  17
ENDBRANCH  15  16
ENDBRANCH  13  15
ENDBRANCH  11  12
ENDBRANCH   1  11
TORSDOF 9
ENDMDL
MODEL 6
REMARK VINA RESULT:    -4.330      3.046      7.701
REMARK INTER + INTRA:          -8.343
REMARK INTER:                  -5.890
REMARK INTRA:                  -2.453
REMARK UNBOUND:                -1.736
REMARK SMILES CC(=O)CCC=C(C)CCC=C(C)CCC=C(C)C
REMARK SMILES IDX 10 1 11 2 12 3 13 4 14 5 15 6 16 7 18 8 17 9 19 10 9 11 7 12
REMARK SMILES IDX 6 13 8 14 5 15 4 16 2 17 3 18 1 19
REMARK H PARENT
REMARK Flexibility Score: inf
ROOT
ATOM      1  C   UNL     1     -10.020 -13.014  -6.500  1.00  0.00     0.032 C 
ENDROOT
BRANCH   1   2
ATOM      2  C   UNL     1      -9.629 -12.349  -7.798  1.00  0.00    -0.028 C 
ATOM      3  C   UNL     1      -8.361 -12.206  -8.245  1.00  0.00    -0.077 C 
ATOM      4  C   UNL     1      -8.151 -11.593  -9.606  1.00  0.00     0.039 C 
BRANCH   3   5
ATOM      5  C   UNL     1      -7.145 -12.601  -7.426  1.00  0.00     0.034 C 
BRANCH   5   6
ATOM      6  C   UNL     1      -6.221 -11.403  -7.159  1.00  0.00     0.032 C 
BRANCH   6   7
ATOM      7  C   UNL     1      -6.720 -10.551  -6.016  1.00  0.00    -0.028 C 
ATOM      8  C   UNL     1      -7.352  -8.633  -7.498  1.00  0.00     0.039 C 
ATOM      9  C   UNL     1      -7.258  -9.319  -6.156  1.00  0.00    -0.080 C 
ATOM     10  C   UNL     1      -7.758  -8.613  -4.923  1.00  0.00     0.039 C 
ENDBRANCH   6   7
ENDBRANCH   5   6
ENDBRANCH   3   5
ENDBRANCH   1   2
BRANCH   1  11
ATOM     11  C   UNL     1     -10.335 -11.981  -5.409  1.00  0.00     0.034 C 
BRANCH  11  12
ATOM     12  C   UNL     1      -9.467 -12.172  -4.182  1.00  0.00    -0.077 C 
ATOM     13  C   UNL     1      -8.636 -13.238  -4.125  1.00  0.00    -0.028 C 
ATOM     14  C   UNL     1      -9.540 -11.155  -3.067  1.00  0.00     0.039 C 
BRANCH  13  15
ATOM     15  C   UNL     1      -7.749 -13.571  -2.949  1.00  0.00     0.035 C 
BRANCH  15  16
ATOM     16  C   UNL     1      -8.401 -14.603  -2.019  1.00  0.00     0.079 C 
BRANCH  16  17
ATOM     17  C   UNL     1      -7.649 -14.736  -0.720  1.00  0.00     0.130 C 
ATOM     18  O   UNL     1      -7.888 -15.672   0.027  1.00  0.00    -0.300 OA
ATOM     19  C   UNL     1      -6.598 -13.734  -0.347  1.00  0.00     0.087 C 
ENDBRANCH  16  17
ENDBRANCH  15  16
ENDBRANCH  13  15
ENDBRANCH  11  12
ENDBRANCH   1  11
TORSDOF 9
ENDMDL
MODEL 7
REMARK VINA RESULT:    -4.278      1.787      3.543
REMARK INTER + INTRA:          -8.264
REMARK INTER:                  -7.088
REMARK INTRA:                  -1.176
REMARK UNBOUND:                -1.736
REMARK SMILES CC(=O)CCC=C(C)CCC=C(C)CCC=C(C)C
REMARK SMILES IDX 10 1 11 2 12 3 13 4 14 5 15 6 16 7 18 8 17 9 19 10 9 11 7 12
REMARK SMILES IDX 6 13 8 14 5 15 4 16 2 17 3 18 1 19
REMARK H PARENT
REMARK Flexibility Score: inf
ROOT
ATOM      1  C   UNL     1      -8.535 -13.759  -3.219  1.00  0.00     0.032 C 
ENDROOT
BRANCH   1   2
ATOM      2  C   UNL     1      -7.901 -13.629  -1.854  1.00  0.00    -0.028 C 
ATOM      3  C   UNL     1      -7.129 -14.570  -1.265  1.00  0.00    -0.077 C 
ATOM      4  C   UNL     1      -6.502 -14.246   0.067  1.00  0.00     0.039 C 
BRANCH   3   5
ATOM      5  C   UNL     1      -6.896 -15.945  -1.868  1.00  0.00     0.034 C 
BRANCH   5   6
ATOM      6  C   UNL     1      -8.089 -16.883  -1.629  1.00  0.00     0.032 C 
BRANCH   6   7
ATOM      7  C   UNL     1      -8.263 -17.211  -0.165  1.00  0.00    -0.028 C 
ATOM      8  C   UNL     1     -10.554 -16.207  -0.038  1.00  0.00     0.039 C 
ATOM      9  C   UNL     1      -9.375 -16.941   0.554  1.00  0.00    -0.080 C 
ATOM     10  C   UNL     1      -9.418 -17.376   1.996  1.00  0.00     0.039 C 
ENDBRANCH   6   7
ENDBRANCH   5   6
ENDBRANCH   3   5
ENDBRANCH   1   2
BRANCH   1  11
ATOM     11  C   UNL     1      -8.988 -12.396  -3.762  1.00  0.00     0.034 C 
BRANCH  11  12
ATOM     12  C   UNL     1      -9.651 -12.521  -5.120  1.00  0.00    -0.077 C 
ATOM     13  C   UNL     1      -9.493 -13.665  -5.824  1.00  0.00    -0.028 C 
ATOM     14  C   UNL     1     -10.486 -11.373  -5.635  1.00  0.00     0.039 C 
BRANCH  13  15
ATOM     15  C   UNL     1     -10.061 -13.907  -7.203  1.00  0.00     0.035 C 
BRANCH  15  16
ATOM     16  C   UNL     1     -10.584 -15.340  -7.359  1.00  0.00     0.079 C 
BRANCH  16  17
ATOM     17  C   UNL     1     -12.090 -15.391  -7.320  1.00  0.00     0.130 C 
ATOM     18  O   UNL     1     -12.726 -14.370  -7.110  1.00  0.00    -0.300 OA
ATOM     19  C   UNL     1     -12.812 -16.683  -7.557  1.00  0.00     0.087 C 
ENDBRANCH  16  17
ENDBRANCH  15  16
ENDBRANCH  13  15
ENDBRANCH  11  12
ENDBRANCH   1  11
TORSDOF 9
ENDMDL
MODEL 8
REMARK VINA RESULT:    -4.276      3.125      7.813
REMARK INTER + INTRA:          -8.261
REMARK INTER:                  -6.911
REMARK INTRA:                  -1.350
REMARK UNBOUND:                -1.736
REMARK SMILES CC(=O)CCC=C(C)CCC=C(C)CCC=C(C)C
REMARK SMILES IDX 10 1 11 2 12 3 13 4 14 5 15 6 16 7 18 8 17 9 19 10 9 11 7 12
REMARK SMILES IDX 6 13 8 14 5 15 4 16 2 17 3 18 1 19
REMARK H PARENT
REMARK Flexibility Score: inf
ROOT
ATOM      1  C   UNL     1      -8.282 -14.598  -3.649  1.00  0.00     0.032 C 
ENDROOT
BRANCH   1   2
ATOM      2  C   UNL     1      -8.466 -13.164  -3.212  1.00  0.00    -0.028 C 
ATOM      3  C   UNL     1      -9.282 -12.269  -3.813  1.00  0.00    -0.077 C 
ATOM      4  C   UNL     1      -9.414 -10.899  -3.197  1.00  0.00     0.039 C 
BRANCH   3   5
ATOM      5  C   UNL     1     -10.039 -12.570  -5.095  1.00  0.00     0.034 C 
BRANCH   5   6
ATOM      6  C   UNL     1     -10.026 -11.375  -6.061  1.00  0.00     0.032 C 
BRANCH   6   7
ATOM      7  C   UNL     1      -8.809 -11.388  -6.955  1.00  0.00    -0.028 C 
ATOM      8  C   UNL     1      -7.896  -9.246  -6.030  1.00  0.00     0.039 C 
ATOM      9  C   UNL     1      -7.830 -10.457  -6.932  1.00  0.00    -0.080 C 
ATOM     10  C   UNL     1      -6.651 -10.634  -7.851  1.00  0.00     0.039 C 
ENDBRANCH   6   7
ENDBRANCH   5   6
ENDBRANCH   3   5
ENDBRANCH   1   2
BRANCH   1  11
ATOM     11  C   UNL     1      -7.516 -15.414  -2.598  1.00  0.00     0.034 C 
BRANCH  11  12
ATOM     12  C   UNL     1      -8.447 -16.249  -1.742  1.00  0.00    -0.077 C 
ATOM     13  C   UNL     1      -9.158 -15.644  -0.763  1.00  0.00    -0.028 C 
ATOM     14  C   UNL     1      -8.571 -17.729  -2.022  1.00  0.00     0.039 C 
BRANCH  13  15
ATOM     15  C   UNL     1     -10.088 -16.360   0.188  1.00  0.00     0.035 C 
BRANCH  15  16
ATOM     16  C   UNL     1      -9.510 -16.426   1.608  1.00  0.00     0.079 C 
BRANCH  16  17
ATOM     17  C   UNL     1      -8.611 -17.622   1.788  1.00  0.00     0.130 C 
ATOM     18  O   UNL     1      -9.099 -18.729   1.952  1.00  0.00    -0.300 OA
ATOM     19  C   UNL     1      -7.121 -17.463   1.749  1.00  0.00     0.087 C 
ENDBRANCH  16  17
ENDBRANCH  15  16
ENDBRANCH  13  15
ENDBRANCH  11  12
ENDBRANCH   1  11
TORSDOF 9
ENDMDL
MODEL 9
REMARK VINA RESULT:    -4.256      2.734      7.406
REMARK INTER + INTRA:          -8.230
REMARK INTER:                  -6.876
REMARK INTRA:                  -1.355
REMARK UNBOUND:                -1.736
REMARK SMILES CC(=O)CCC=C(C)CCC=C(C)CCC=C(C)C
REMARK SMILES IDX 10 1 11 2 12 3 13 4 14 5 15 6 16 7 18 8 17 9 19 10 9 11 7 12
REMARK SMILES IDX 6 13 8 14 5 15 4 16 2 17 3 18 1 19
REMARK H PARENT
REMARK Flexibility Score: inf
ROOT
ATOM      1  C   UNL     1     -10.349 -11.976  -4.865  1.00  0.00     0.032 C 
ENDROOT
BRANCH   1   2
ATOM      2  C   UNL     1     -10.003 -11.777  -6.321  1.00  0.00    -0.028 C 
ATOM      3  C   UNL     1      -9.755 -12.773  -7.202  1.00  0.00    -0.077 C 
ATOM      4  C   UNL     1      -9.508 -12.404  -8.643  1.00  0.00     0.039 C 
BRANCH   3   5
ATOM      5  C   UNL     1      -9.681 -14.235  -6.798  1.00  0.00     0.034 C 
BRANCH   5   6
ATOM      6  C   UNL     1     -10.102 -15.167  -7.945  1.00  0.00     0.032 C 
BRANCH   6   7
ATOM      7  C   UNL     1     -11.043 -16.250  -7.473  1.00  0.00    -0.028 C 
ATOM      8  C   UNL     1     -13.091 -14.837  -7.771  1.00  0.00     0.039 C 
ATOM      9  C   UNL     1     -12.388 -16.127  -7.418  1.00  0.00    -0.080 C 
ATOM     10  C   UNL     1     -13.198 -17.316  -6.972  1.00  0.00     0.039 C 
ENDBRANCH   6   7
ENDBRANCH   5   6
ENDBRANCH   3   5
ENDBRANCH   1   2
BRANCH   1  11
ATOM     11  C   UNL     1      -9.204 -11.528  -3.946  1.00  0.00     0.034 C 
BRANCH  11  12
ATOM     12  C   UNL     1      -8.326 -12.691  -3.529  1.00  0.00    -0.077 C 
ATOM     13  C   UNL     1      -8.581 -13.319  -2.358  1.00  0.00    -0.028 C 
ATOM     14  C   UNL     1      -7.206 -13.129  -4.444  1.00  0.00     0.039 C 
BRANCH  13  15
ATOM     15  C   UNL     1      -7.764 -14.460  -1.802  1.00  0.00     0.035 C 
BRANCH  15  16
ATOM     16  C   UNL     1      -8.601 -15.736  -1.643  1.00  0.00     0.079 C 
BRANCH  16  17
ATOM     17  C   UNL     1      -9.013 -15.957  -0.211  1.00  0.00     0.130 C 
ATOM     18  O   UNL     1      -8.202 -15.788   0.687  1.00  0.00    -0.300 OA
ATOM     19  C   UNL     1     -10.416 -16.366   0.120  1.00  0.00     0.087 C 
ENDBRANCH  16  17
ENDBRANCH  15  16
ENDBRANCH  13  15
ENDBRANCH  11  12
ENDBRANCH   1  11
TORSDOF 9
ENDMDL
