MODEL 1
REMARK VINA RESULT:    -7.863      0.000      0.000
REMARK INTER + INTRA:          -8.782
REMARK INTER:                  -8.782
REMARK INTRA:                   0.000
REMARK UNBOUND:                 0.000
REMARK SMILES Oc1cc(O)c2c(c1)CCc1cc(O)c(O)cc1-2
REMARK SMILES IDX 10 1 9 2 7 3 6 4 18 5 17 6 15 7 13 8 12 9 11 10 4 11 3 12
REMARK SMILES IDX 2 13 8 14 14 15 5 17 1 19 16 21
REMARK H PARENT 14 16 5 18 1 20 16 22
REMARK Flexibility Score: inf
ROOT
ATOM      1  C   UNL     1       5.982 -48.677  34.629  1.00  0.00     0.041 C 
ATOM      2  C   UNL     1       7.150 -49.239  35.446  1.00  0.00     0.041 C 
ATOM      3  C   UNL     1       7.991 -48.120  36.009  1.00  0.00    -0.032 A 
ATOM      4  C   UNL     1       8.191 -46.936  35.257  1.00  0.00     0.027 A 
ATOM      5  C   UNL     1       7.573 -46.855  33.894  1.00  0.00    -0.007 A 
ATOM      6  C   UNL     1       8.092 -46.034  32.874  1.00  0.00     0.059 A 
ATOM      7  C   UNL     1       7.480 -45.984  31.613  1.00  0.00     0.158 A 
ATOM      8  C   UNL     1       6.353 -46.777  31.350  1.00  0.00     0.157 A 
ATOM      9  C   UNL     1       5.866 -47.638  32.335  1.00  0.00     0.054 A 
ATOM     10  C   UNL     1       6.487 -47.707  33.591  1.00  0.00    -0.036 A 
ATOM     11  C   UNL     1       8.899 -45.863  35.853  1.00  0.00     0.127 A 
ATOM     12  C   UNL     1       9.495 -46.032  37.111  1.00  0.00     0.093 A 
ATOM     13  C   UNL     1       9.358 -47.235  37.809  1.00  0.00     0.119 A 
ATOM     14  C   UNL     1       8.602 -48.271  37.261  1.00  0.00     0.050 A 
ENDROOT
BRANCH   8  15
ATOM     15  O   UNL     1       5.714 -46.734  30.112  1.00  0.00    -0.504 OA
ATOM     16  H   UNL     1       5.195 -47.523  29.745  1.00  0.00     0.293 HD
ENDBRANCH   8  15
BRANCH  11  17
ATOM     17  O   UNL     1       8.979 -44.619  35.230  1.00  0.00    -0.507 OA
ATOM     18  H   UNL     1       8.258 -44.288  34.600  1.00  0.00     0.293 HD
ENDBRANCH  11  17
BRANCH  13  19
ATOM     19  O   UNL     1       9.957 -47.406  39.055  1.00  0.00    -0.508 OA
ATOM     20  H   UNL     1       9.456 -47.822  39.832  1.00  0.00     0.293 HD
ENDBRANCH  13  19
BRANCH   7  21
ATOM     21  O   UNL     1       7.993 -45.152  30.618  1.00  0.00    -0.504 OA
ATOM     22  H   UNL     1       7.698 -45.235  29.652  1.00  0.00     0.293 HD
ENDBRANCH   7  21
TORSDOF 4
ENDMDL
MODEL 2
REMARK VINA RESULT:    -7.586      1.044      5.495
REMARK INTER + INTRA:          -8.473
REMARK INTER:                  -8.473
REMARK INTRA:                   0.000
REMARK UNBOUND:                 0.000
REMARK SMILES Oc1cc(O)c2c(c1)CCc1cc(O)c(O)cc1-2
REMARK SMILES IDX 10 1 9 2 7 3 6 4 18 5 17 6 15 7 13 8 12 9 11 10 4 11 3 12
REMARK SMILES IDX 2 13 8 14 14 15 5 17 1 19 16 21
REMARK H PARENT 14 16 5 18 1 20 16 22
REMARK Flexibility Score: inf
ROOT
ATOM      1  C   UNL     1       6.958 -49.105  35.842  1.00  0.00     0.041 C 
ATOM      2  C   UNL     1       5.929 -48.394  34.956  1.00  0.00     0.041 C 
ATOM      3  C   UNL     1       6.609 -47.718  33.791  1.00  0.00    -0.032 A 
ATOM      4  C   UNL     1       7.887 -47.130  33.959  1.00  0.00     0.027 A 
ATOM      5  C   UNL     1       8.510 -47.178  35.321  1.00  0.00    -0.007 A 
ATOM      6  C   UNL     1       9.460 -46.232  35.754  1.00  0.00     0.059 A 
ATOM      7  C   UNL     1      10.022 -46.315  37.036  1.00  0.00     0.158 A 
ATOM      8  C   UNL     1       9.620 -47.334  37.912  1.00  0.00     0.157 A 
ATOM      9  C   UNL     1       8.635 -48.241  37.515  1.00  0.00     0.054 A 
ATOM     10  C   UNL     1       8.055 -48.149  36.241  1.00  0.00    -0.036 A 
ATOM     11  C   UNL     1       8.543 -46.594  32.824  1.00  0.00     0.127 A 
ATOM     12  C   UNL     1       7.875 -46.536  31.592  1.00  0.00     0.093 A 
ATOM     13  C   UNL     1       6.582 -47.048  31.459  1.00  0.00     0.119 A 
ATOM     14  C   UNL     1       5.956 -47.643  32.553  1.00  0.00     0.050 A 
ENDROOT
BRANCH   8  15
ATOM     15  O   UNL     1      10.175 -47.452  39.185  1.00  0.00    -0.504 OA
ATOM     16  H   UNL     1      10.915 -46.840  39.510  1.00  0.00     0.293 HD
ENDBRANCH   8  15
BRANCH  11  17
ATOM     17  O   UNL     1       9.866 -46.158  32.895  1.00  0.00    -0.507 OA
ATOM     18  H   UNL     1      10.199 -45.368  32.355  1.00  0.00     0.293 HD
ENDBRANCH  11  17
BRANCH  13  19
ATOM     19  O   UNL     1       5.915 -46.983  30.237  1.00  0.00    -0.508 OA
ATOM     20  H   UNL     1       6.035 -47.697  29.528  1.00  0.00     0.293 HD
ENDBRANCH  13  19
BRANCH   7  21
ATOM     21  O   UNL     1      10.976 -45.383  37.444  1.00  0.00    -0.504 OA
ATOM     22  H   UNL     1      11.966 -45.530  37.283  1.00  0.00     0.293 HD
ENDBRANCH   7  21
TORSDOF 4
ENDMDL
MODEL 3
REMARK VINA RESULT:    -7.472      1.637      2.316
REMARK INTER + INTRA:          -8.346
REMARK INTER:                  -8.346
REMARK INTRA:                   0.000
REMARK UNBOUND:                 0.000
REMARK SMILES Oc1cc(O)c2c(c1)CCc1cc(O)c(O)cc1-2
REMARK SMILES IDX 10 1 9 2 7 3 6 4 18 5 17 6 15 7 13 8 12 9 11 10 4 11 3 12
REMARK SMILES IDX 2 13 8 14 14 15 5 17 1 19 16 21
REMARK H PARENT 14 16 5 18 1 20 16 22
REMARK Flexibility Score: inf
ROOT
ATOM      1  C   UNL     1       5.737 -47.810  33.244  1.00  0.00     0.041 C 
ATOM      2  C   UNL     1       6.000 -49.071  34.074  1.00  0.00     0.041 C 
ATOM      3  C   UNL     1       6.696 -48.720  35.366  1.00  0.00    -0.032 A 
ATOM      4  C   UNL     1       7.648 -47.672  35.397  1.00  0.00     0.027 A 
ATOM      5  C   UNL     1       7.954 -46.961  34.113  1.00  0.00    -0.007 A 
ATOM      6  C   UNL     1       9.182 -46.312  33.879  1.00  0.00     0.059 A 
ATOM      7  C   UNL     1       9.427 -45.654  32.665  1.00  0.00     0.158 A 
ATOM      8  C   UNL     1       8.451 -45.661  31.658  1.00  0.00     0.157 A 
ATOM      9  C   UNL     1       7.254 -46.351  31.856  1.00  0.00     0.054 A 
ATOM     10  C   UNL     1       7.013 -47.027  33.060  1.00  0.00    -0.036 A 
ATOM     11  C   UNL     1       8.208 -47.298  36.643  1.00  0.00     0.127 A 
ATOM     12  C   UNL     1       7.915 -48.045  37.793  1.00  0.00     0.093 A 
ATOM     13  C   UNL     1       7.035 -49.128  37.734  1.00  0.00     0.119 A 
ATOM     14  C   UNL     1       6.422 -49.458  36.526  1.00  0.00     0.050 A 
ENDROOT
BRANCH   8  15
ATOM     15  O   UNL     1       8.660 -45.000  30.448  1.00  0.00    -0.504 OA
ATOM     16  H   UNL     1       9.212 -45.405  29.701  1.00  0.00     0.293 HD
ENDBRANCH   8  15
BRANCH  11  17
ATOM     17  O   UNL     1       9.017 -46.168  36.760  1.00  0.00    -0.507 OA
ATOM     18  H   UNL     1       9.308 -45.809  37.662  1.00  0.00     0.293 HD
ENDBRANCH  11  17
BRANCH  13  19
ATOM     19  O   UNL     1       6.750 -49.875  38.875  1.00  0.00    -0.508 OA
ATOM     20  H   UNL     1       7.465 -50.089  39.561  1.00  0.00     0.293 HD
ENDBRANCH  13  19
BRANCH   7  21
ATOM     21  O   UNL     1      10.640 -45.000  32.455  1.00  0.00    -0.504 OA
ATOM     22  H   UNL     1      10.804 -44.061  32.801  1.00  0.00     0.293 HD
ENDBRANCH   7  21
TORSDOF 4
ENDMDL
MODEL 4
REMARK VINA RESULT:    -7.461      1.416      5.299
REMARK INTER + INTRA:          -8.333
REMARK INTER:                  -8.333
REMARK INTRA:                   0.000
REMARK UNBOUND:                 0.000
REMARK SMILES Oc1cc(O)c2c(c1)CCc1cc(O)c(O)cc1-2
REMARK SMILES IDX 10 1 9 2 7 3 6 4 18 5 17 6 15 7 13 8 12 9 11 10 4 11 3 12
REMARK SMILES IDX 2 13 8 14 14 15 5 17 1 19 16 21
REMARK H PARENT 14 16 5 18 1 20 16 22
REMARK Flexibility Score: inf
ROOT
ATOM      1  C   UNL     1       6.171 -48.987  34.028  1.00  0.00     0.041 C 
ATOM      2  C   UNL     1       5.870 -47.771  33.146  1.00  0.00     0.041 C 
ATOM      3  C   UNL     1       7.122 -46.960  32.915  1.00  0.00    -0.032 A 
ATOM      4  C   UNL     1       8.085 -46.834  33.946  1.00  0.00     0.027 A 
ATOM      5  C   UNL     1       7.801 -47.497  35.259  1.00  0.00    -0.007 A 
ATOM      6  C   UNL     1       8.356 -47.045  36.473  1.00  0.00     0.059 A 
ATOM      7  C   UNL     1       8.068 -47.698  37.680  1.00  0.00     0.158 A 
ATOM      8  C   UNL     1       7.199 -48.799  37.690  1.00  0.00     0.157 A 
ATOM      9  C   UNL     1       6.596 -49.218  36.503  1.00  0.00     0.054 A 
ATOM     10  C   UNL     1       6.865 -48.555  35.296  1.00  0.00    -0.036 A 
ATOM     11  C   UNL     1       9.295 -46.153  33.666  1.00  0.00     0.127 A 
ATOM     12  C   UNL     1       9.467 -45.511  32.431  1.00  0.00     0.093 A 
ATOM     13  C   UNL     1       8.474 -45.576  31.450  1.00  0.00     0.119 A 
ATOM     14  C   UNL     1       7.309 -46.305  31.690  1.00  0.00     0.050 A 
ENDROOT
BRANCH   8  15
ATOM     15  O   UNL     1       6.909 -49.478  38.873  1.00  0.00    -0.504 OA
ATOM     16  H   UNL     1       7.501 -49.411  39.692  1.00  0.00     0.293 HD
ENDBRANCH   8  15
BRANCH  11  17
ATOM     17  O   UNL     1      10.346 -46.144  34.583  1.00  0.00    -0.507 OA
ATOM     18  H   UNL     1      10.301 -45.608  35.442  1.00  0.00     0.293 HD
ENDBRANCH  11  17
BRANCH  13  19
ATOM     19  O   UNL     1       8.640 -44.931  30.227  1.00  0.00    -0.508 OA
ATOM     20  H   UNL     1       8.486 -43.934  30.128  1.00  0.00     0.293 HD
ENDBRANCH  13  19
BRANCH   7  21
ATOM     21  O   UNL     1       8.640 -47.252  38.871  1.00  0.00    -0.504 OA
ATOM     22  H   UNL     1       8.447 -47.706  39.757  1.00  0.00     0.293 HD
ENDBRANCH   7  21
TORSDOF 4
ENDMDL
MODEL 5
REMARK VINA RESULT:    -7.438      2.303      4.286
REMARK INTER + INTRA:          -8.307
REMARK INTER:                  -8.307
REMARK INTRA:                   0.000
REMARK UNBOUND:                 0.000
REMARK SMILES Oc1cc(O)c2c(c1)CCc1cc(O)c(O)cc1-2
REMARK SMILES IDX 10 1 9 2 7 3 6 4 18 5 17 6 15 7 13 8 12 9 11 10 4 11 3 12
REMARK SMILES IDX 2 13 8 14 14 15 5 17 1 19 16 21
REMARK H PARENT 14 16 5 18 1 20 16 22
REMARK Flexibility Score: inf
ROOT
ATOM      1  C   UNL     1       6.357 -47.237  33.478  1.00  0.00     0.041 C 
ATOM      2  C   UNL     1       6.289 -48.764  33.363  1.00  0.00     0.041 C 
ATOM      3  C   UNL     1       6.546 -49.409  34.703  1.00  0.00    -0.032 A 
ATOM      4  C   UNL     1       7.479 -48.833  35.600  1.00  0.00     0.027 A 
ATOM      5  C   UNL     1       8.210 -47.601  35.160  1.00  0.00    -0.007 A 
ATOM      6  C   UNL     1       9.473 -47.245  35.672  1.00  0.00     0.059 A 
ATOM      7  C   UNL     1      10.121 -46.080  35.237  1.00  0.00     0.158 A 
ATOM      8  C   UNL     1       9.521 -45.268  34.263  1.00  0.00     0.157 A 
ATOM      9  C   UNL     1       8.297 -45.643  33.705  1.00  0.00     0.054 A 
ATOM     10  C   UNL     1       7.655 -46.818  34.122  1.00  0.00    -0.036 A 
ATOM     11  C   UNL     1       7.623 -49.403  36.889  1.00  0.00     0.127 A 
ATOM     12  C   UNL     1       6.946 -50.588  37.210  1.00  0.00     0.093 A 
ATOM     13  C   UNL     1       6.089 -51.191  36.286  1.00  0.00     0.119 A 
ATOM     14  C   UNL     1       5.885 -50.598  35.040  1.00  0.00     0.050 A 
ENDROOT
BRANCH   8  15
ATOM     15  O   UNL     1      10.135 -44.095  33.824  1.00  0.00    -0.504 OA
ATOM     16  H   UNL     1      10.899 -44.102  33.160  1.00  0.00     0.293 HD
ENDBRANCH   8  15
BRANCH  11  17
ATOM     17  O   UNL     1       8.397 -48.781  37.869  1.00  0.00    -0.507 OA
ATOM     18  H   UNL     1       7.981 -48.355  38.688  1.00  0.00     0.293 HD
ENDBRANCH  11  17
BRANCH  13  19
ATOM     19  O   UNL     1       5.423 -52.373  36.601  1.00  0.00    -0.508 OA
ATOM     20  H   UNL     1       4.537 -52.368  37.093  1.00  0.00     0.293 HD
ENDBRANCH  13  19
BRANCH   7  21
ATOM     21  O   UNL     1      11.363 -45.730  35.766  1.00  0.00    -0.504 OA
ATOM     22  H   UNL     1      11.682 -46.093  36.658  1.00  0.00     0.293 HD
ENDBRANCH   7  21
TORSDOF 4
ENDMDL
MODEL 6
REMARK VINA RESULT:    -7.428      1.805      3.223
REMARK INTER + INTRA:          -8.297
REMARK INTER:                  -8.297
REMARK INTRA:                   0.000
REMARK UNBOUND:                 0.000
REMARK SMILES Oc1cc(O)c2c(c1)CCc1cc(O)c(O)cc1-2
REMARK SMILES IDX 10 1 9 2 7 3 6 4 18 5 17 6 15 7 13 8 12 9 11 10 4 11 3 12
REMARK SMILES IDX 2 13 8 14 14 15 5 17 1 19 16 21
REMARK H PARENT 14 16 5 18 1 20 16 22
REMARK Flexibility Score: inf
ROOT
ATOM      1  C   UNL     1       9.757 -46.227  35.079  1.00  0.00     0.041 C 
ATOM      2  C   UNL     1       8.910 -46.283  36.356  1.00  0.00     0.041 C 
ATOM      3  C   UNL     1       8.045 -47.519  36.364  1.00  0.00    -0.032 A 
ATOM      4  C   UNL     1       7.490 -48.005  35.155  1.00  0.00     0.027 A 
ATOM      5  C   UNL     1       7.765 -47.238  33.896  1.00  0.00    -0.007 A 
ATOM      6  C   UNL     1       6.902 -47.274  32.783  1.00  0.00     0.059 A 
ATOM      7  C   UNL     1       7.199 -46.545  31.622  1.00  0.00     0.158 A 
ATOM      8  C   UNL     1       8.353 -45.749  31.572  1.00  0.00     0.157 A 
ATOM      9  C   UNL     1       9.183 -45.659  32.691  1.00  0.00     0.054 A 
ATOM     10  C   UNL     1       8.879 -46.370  33.861  1.00  0.00    -0.036 A 
ATOM     11  C   UNL     1       6.767 -49.223  35.179  1.00  0.00     0.127 A 
ATOM     12  C   UNL     1       6.504 -49.856  36.403  1.00  0.00     0.093 A 
ATOM     13  C   UNL     1       6.991 -49.323  37.599  1.00  0.00     0.119 A 
ATOM     14  C   UNL     1       7.764 -48.163  37.577  1.00  0.00     0.050 A 
ENDROOT
BRANCH   8  15
ATOM     15  O   UNL     1       8.682 -45.028  30.425  1.00  0.00    -0.504 OA
ATOM     16  H   UNL     1       8.080 -44.302  30.053  1.00  0.00     0.293 HD
ENDBRANCH   8  15
BRANCH  11  17
ATOM     17  O   UNL     1       6.345 -49.834  33.999  1.00  0.00    -0.507 OA
ATOM     18  H   UNL     1       6.884 -49.774  33.143  1.00  0.00     0.293 HD
ENDBRANCH  11  17
BRANCH  13  19
ATOM     19  O   UNL     1       6.722 -49.946  38.815  1.00  0.00    -0.508 OA
ATOM     20  H   UNL     1       6.651 -50.955  38.891  1.00  0.00     0.293 HD
ENDBRANCH  13  19
BRANCH   7  21
ATOM     21  O   UNL     1       6.346 -46.605  30.521  1.00  0.00    -0.504 OA
ATOM     22  H   UNL     1       6.151 -47.480  30.046  1.00  0.00     0.293 HD
ENDBRANCH   7  21
TORSDOF 4
ENDMDL
MODEL 7
REMARK VINA RESULT:    -7.404      1.429      6.062
REMARK INTER + INTRA:          -8.270
REMARK INTER:                  -8.270
REMARK INTRA:                   0.000
REMARK UNBOUND:                 0.000
REMARK SMILES Oc1cc(O)c2c(c1)CCc1cc(O)c(O)cc1-2
REMARK SMILES IDX 10 1 9 2 7 3 6 4 18 5 17 6 15 7 13 8 12 9 11 10 4 11 3 12
REMARK SMILES IDX 2 13 8 14 14 15 5 17 1 19 16 21
REMARK H PARENT 14 16 5 18 1 20 16 22
REMARK Flexibility Score: inf
ROOT
ATOM      1  C   UNL     1       9.563 -45.036  34.349  1.00  0.00     0.041 C 
ATOM      2  C   UNL     1       9.513 -45.745  32.991  1.00  0.00     0.041 C 
ATOM      3  C   UNL     1       8.185 -46.438  32.805  1.00  0.00    -0.032 A 
ATOM      4  C   UNL     1       7.534 -47.035  33.912  1.00  0.00     0.027 A 
ATOM      5  C   UNL     1       8.219 -46.981  35.244  1.00  0.00    -0.007 A 
ATOM      6  C   UNL     1       7.984 -47.931  36.256  1.00  0.00     0.059 A 
ATOM      7  C   UNL     1       8.642 -47.842  37.491  1.00  0.00     0.158 A 
ATOM      8  C   UNL     1       9.566 -46.811  37.718  1.00  0.00     0.157 A 
ATOM      9  C   UNL     1       9.852 -45.899  36.700  1.00  0.00     0.054 A 
ATOM     10  C   UNL     1       9.211 -45.997  35.456  1.00  0.00    -0.036 A 
ATOM     11  C   UNL     1       6.242 -47.587  33.725  1.00  0.00     0.127 A 
ATOM     12  C   UNL     1       5.688 -47.650  32.438  1.00  0.00     0.093 A 
ATOM     13  C   UNL     1       6.376 -47.128  31.340  1.00  0.00     0.119 A 
ATOM     14  C   UNL     1       7.617 -46.518  31.525  1.00  0.00     0.050 A 
ENDROOT
BRANCH   8  15
ATOM     15  O   UNL     1      10.223 -46.687  38.942  1.00  0.00    -0.504 OA
ATOM     16  H   UNL     1      10.556 -45.795  39.287  1.00  0.00     0.293 HD
ENDBRANCH   8  15
BRANCH  11  17
ATOM     17  O   UNL     1       5.486 -48.034  34.808  1.00  0.00    -0.507 OA
ATOM     18  H   UNL     1       5.489 -47.550  35.698  1.00  0.00     0.293 HD
ENDBRANCH  11  17
BRANCH  13  19
ATOM     19  O   UNL     1       5.830 -47.198  30.060  1.00  0.00    -0.508 OA
ATOM     20  H   UNL     1       5.579 -46.363  29.544  1.00  0.00     0.293 HD
ENDBRANCH  13  19
BRANCH   7  21
ATOM     21  O   UNL     1       8.385 -48.779  38.492  1.00  0.00    -0.504 OA
ATOM     22  H   UNL     1       8.239 -48.500  39.456  1.00  0.00     0.293 HD
ENDBRANCH   7  21
TORSDOF 4
ENDMDL
MODEL 8
REMARK VINA RESULT:    -7.392      2.483      5.340
REMARK INTER + INTRA:          -8.257
REMARK INTER:                  -8.257
REMARK INTRA:                   0.000
REMARK UNBOUND:                 0.000
REMARK SMILES Oc1cc(O)c2c(c1)CCc1cc(O)c(O)cc1-2
REMARK SMILES IDX 10 1 9 2 7 3 6 4 18 5 17 6 15 7 13 8 12 9 11 10 4 11 3 12
REMARK SMILES IDX 2 13 8 14 14 15 5 17 1 19 16 21
REMARK H PARENT 14 16 5 18 1 20 16 22
REMARK Flexibility Score: inf
ROOT
ATOM      1  C   UNL     1       8.676 -47.436  36.476  1.00  0.00     0.041 C 
ATOM      2  C   UNL     1       9.447 -46.856  35.285  1.00  0.00     0.041 C 
ATOM      3  C   UNL     1       8.495 -46.429  34.194  1.00  0.00    -0.032 A 
ATOM      4  C   UNL     1       7.319 -47.177  33.947  1.00  0.00     0.027 A 
ATOM      5  C   UNL     1       7.078 -48.404  34.773  1.00  0.00    -0.007 A 
ATOM      6  C   UNL     1       6.295 -49.483  34.319  1.00  0.00     0.059 A 
ATOM      7  C   UNL     1       6.090 -50.612  35.125  1.00  0.00     0.158 A 
ATOM      8  C   UNL     1       6.692 -50.685  36.391  1.00  0.00     0.157 A 
ATOM      9  C   UNL     1       7.519 -49.648  36.827  1.00  0.00     0.054 A 
ATOM     10  C   UNL     1       7.742 -48.527  36.015  1.00  0.00    -0.036 A 
ATOM     11  C   UNL     1       6.395 -46.695  32.987  1.00  0.00     0.127 A 
ATOM     12  C   UNL     1       6.714 -45.569  32.214  1.00  0.00     0.093 A 
ATOM     13  C   UNL     1       7.915 -44.885  32.414  1.00  0.00     0.119 A 
ATOM     14  C   UNL     1       8.798 -45.310  33.406  1.00  0.00     0.050 A 
ENDROOT
BRANCH   8  15
ATOM     15  O   UNL     1       6.492 -51.786  37.222  1.00  0.00    -0.504 OA
ATOM     16  H   UNL     1       5.567 -52.143  37.431  1.00  0.00     0.293 HD
ENDBRANCH   8  15
BRANCH  11  17
ATOM     17  O   UNL     1       5.147 -47.294  32.823  1.00  0.00    -0.507 OA
ATOM     18  H   UNL     1       4.358 -47.058  33.414  1.00  0.00     0.293 HD
ENDBRANCH  11  17
BRANCH  13  19
ATOM     19  O   UNL     1       8.236 -43.772  31.640  1.00  0.00    -0.508 OA
ATOM     20  H   UNL     1       8.737 -42.981  32.030  1.00  0.00     0.293 HD
ENDBRANCH  13  19
BRANCH   7  21
ATOM     21  O   UNL     1       5.296 -51.664  34.670  1.00  0.00    -0.504 OA
ATOM     22  H   UNL     1       4.893 -51.661  33.740  1.00  0.00     0.293 HD
ENDBRANCH   7  21
TORSDOF 4
ENDMDL
MODEL 9
REMARK VINA RESULT:    -7.377      3.224      5.726
REMARK INTER + INTRA:          -8.239
REMARK INTER:                  -8.239
REMARK INTRA:                   0.000
REMARK UNBOUND:                 0.000
REMARK SMILES Oc1cc(O)c2c(c1)CCc1cc(O)c(O)cc1-2
REMARK SMILES IDX 10 1 9 2 7 3 6 4 18 5 17 6 15 7 13 8 12 9 11 10 4 11 3 12
REMARK SMILES IDX 2 13 8 14 14 15 5 17 1 19 16 21
REMARK H PARENT 14 16 5 18 1 20 16 22
REMARK Flexibility Score: inf
ROOT
ATOM      1  C   UNL     1       8.692 -47.560  34.298  1.00  0.00     0.041 C 
ATOM      2  C   UNL     1       8.201 -49.005  34.159  1.00  0.00     0.041 C 
ATOM      3  C   UNL     1       7.183 -49.323  35.228  1.00  0.00    -0.032 A 
ATOM      4  C   UNL     1       7.319 -48.770  36.524  1.00  0.00     0.027 A 
ATOM      5  C   UNL     1       8.507 -47.898  36.796  1.00  0.00    -0.007 A 
ATOM      6  C   UNL     1       9.042 -47.727  38.088  1.00  0.00     0.059 A 
ATOM      7  C   UNL     1      10.153 -46.898  38.301  1.00  0.00     0.158 A 
ATOM      8  C   UNL     1      10.758 -46.249  37.215  1.00  0.00     0.157 A 
ATOM      9  C   UNL     1      10.274 -46.458  35.923  1.00  0.00     0.054 A 
ATOM     10  C   UNL     1       9.176 -47.303  35.703  1.00  0.00    -0.036 A 
ATOM     11  C   UNL     1       6.294 -49.004  37.474  1.00  0.00     0.127 A 
ATOM     12  C   UNL     1       5.239 -49.875  37.165  1.00  0.00     0.093 A 
ATOM     13  C   UNL     1       5.160 -50.479  35.907  1.00  0.00     0.119 A 
ATOM     14  C   UNL     1       6.125 -50.197  34.941  1.00  0.00     0.050 A 
ENDROOT
BRANCH   8  15
ATOM     15  O   UNL     1      11.853 -45.405  37.399  1.00  0.00    -0.504 OA
ATOM     16  H   UNL     1      12.361 -45.363  38.275  1.00  0.00     0.293 HD
ENDBRANCH   8  15
BRANCH  11  17
ATOM     17  O   UNL     1       6.289 -48.349  38.705  1.00  0.00    -0.507 OA
ATOM     18  H   UNL     1       6.459 -48.841  39.574  1.00  0.00     0.293 HD
ENDBRANCH  11  17
BRANCH  13  19
ATOM     19  O   UNL     1       4.117 -51.351  35.602  1.00  0.00    -0.508 OA
ATOM     20  H   UNL     1       3.880 -51.579  34.644  1.00  0.00     0.293 HD
ENDBRANCH  13  19
BRANCH   7  21
ATOM     21  O   UNL     1      10.659 -46.722  39.588  1.00  0.00    -0.504 OA
ATOM     22  H   UNL     1      11.651 -46.592  39.756  1.00  0.00     0.293 HD
ENDBRANCH   7  21
TORSDOF 4
ENDMDL
