MODEL 1
REMARK VINA RESULT:    -4.313      0.000      0.000
REMARK INTER + INTRA:          -5.193
REMARK INTER:                  -5.069
REMARK INTRA:                  -0.125
REMARK UNBOUND:                -0.125
REMARK SMILES O=C([O-])C=Cc1ccc(O)c(O)c1
REMARK SMILES IDX 6 1 13 2 7 3 11 4 8 5 9 6 5 7 4 8 2 9 1 10 3 11 12 12 10 14
REMARK H PARENT 12 13 10 15
REMARK Flexibility Score: inf
ROOT
ATOM      1  C   UNL     1     -21.347 -15.579 -13.354  1.00  0.00    -0.022 A 
ATOM      2  C   UNL     1     -20.228 -16.417 -13.536  1.00  0.00     0.058 A 
ATOM      3  C   UNL     1     -21.154 -14.301 -12.807  1.00  0.00     0.012 A 
ATOM      4  C   UNL     1     -18.949 -15.992 -13.154  1.00  0.00     0.157 A 
ATOM      5  C   UNL     1     -19.880 -13.875 -12.425  1.00  0.00     0.051 A 
ATOM      6  C   UNL     1     -18.774 -14.717 -12.593  1.00  0.00     0.157 A 
ENDROOT
BRANCH   1   7
ATOM      7  C   UNL     1     -22.719 -15.982 -13.752  1.00  0.00     0.010 C 
ATOM      8  C   UNL     1     -23.031 -17.196 -14.226  1.00  0.00     0.025 C 
BRANCH   8   9
ATOM      9  C   UNL     1     -24.408 -17.556 -14.598  1.00  0.00     0.064 C 
ATOM     10  O   UNL     1     -25.092 -16.759 -15.291  1.00  0.00    -0.545 OA
ATOM     11  O   UNL     1     -24.968 -18.762 -14.194  1.00  0.00    -0.545 OA
ENDBRANCH   8   9
ENDBRANCH   1   7
BRANCH   4  12
ATOM     12  O   UNL     1     -17.865 -16.849 -13.347  1.00  0.00    -0.504 OA
ATOM     13  H   UNL     1     -17.987 -17.833 -13.554  1.00  0.00     0.293 HD
ENDBRANCH   4  12
BRANCH   6  14
ATOM     14  O   UNL     1     -17.503 -14.290 -12.209  1.00  0.00    -0.504 OA
ATOM     15  H   UNL     1     -16.774 -14.115 -12.891  1.00  0.00     0.293 HD
ENDBRANCH   6  14
TORSDOF 4
ENDMDL
MODEL 2
REMARK VINA RESULT:    -4.274      3.043      5.375
REMARK INTER + INTRA:          -5.148
REMARK INTER:                  -5.020
REMARK INTRA:                  -0.129
REMARK UNBOUND:                -0.125
REMARK SMILES O=C([O-])C=Cc1ccc(O)c(O)c1
REMARK SMILES IDX 6 1 13 2 7 3 11 4 8 5 9 6 5 7 4 8 2 9 1 10 3 11 12 12 10 14
REMARK H PARENT 12 13 10 15
REMARK Flexibility Score: inf
ROOT
ATOM      1  C   UNL     1     -22.360 -14.924 -13.022  1.00  0.00    -0.022 A 
ATOM      2  C   UNL     1     -22.889 -16.164 -13.433  1.00  0.00     0.058 A 
ATOM      3  C   UNL     1     -22.228 -13.896 -13.968  1.00  0.00     0.012 A 
ATOM      4  C   UNL     1     -23.254 -16.376 -14.768  1.00  0.00     0.157 A 
ATOM      5  C   UNL     1     -22.590 -14.106 -15.302  1.00  0.00     0.051 A 
ATOM      6  C   UNL     1     -23.100 -15.344 -15.708  1.00  0.00     0.157 A 
ENDROOT
BRANCH   1   7
ATOM      7  C   UNL     1     -21.970 -14.649 -11.616  1.00  0.00     0.010 C 
ATOM      8  C   UNL     1     -22.828 -14.239 -10.671  1.00  0.00     0.025 C 
BRANCH   8   9
ATOM      9  C   UNL     1     -22.399 -13.989  -9.287  1.00  0.00     0.064 C 
ATOM     10  O   UNL     1     -23.263 -13.875  -8.380  1.00  0.00    -0.545 OA
ATOM     11  O   UNL     1     -21.052 -13.875  -8.963  1.00  0.00    -0.545 OA
ENDBRANCH   8   9
ENDBRANCH   1   7
BRANCH   4  12
ATOM     12  O   UNL     1     -23.771 -17.618 -15.139  1.00  0.00    -0.504 OA
ATOM     13  H   UNL     1     -23.656 -18.443 -14.564  1.00  0.00     0.293 HD
ENDBRANCH   4  12
BRANCH   6  14
ATOM     14  O   UNL     1     -23.460 -15.552 -17.039  1.00  0.00    -0.504 OA
ATOM     15  H   UNL     1     -23.705 -16.472 -17.385  1.00  0.00     0.293 HD
ENDBRANCH   6  14
TORSDOF 4
ENDMDL
MODEL 3
REMARK VINA RESULT:    -3.746      1.232      5.763
REMARK INTER + INTRA:          -4.527
REMARK INTER:                  -4.403
REMARK INTRA:                  -0.125
REMARK UNBOUND:                -0.125
REMARK SMILES O=C([O-])C=Cc1ccc(O)c(O)c1
REMARK SMILES IDX 6 1 13 2 7 3 11 4 8 5 9 6 5 7 4 8 2 9 1 10 3 11 12 12 10 14
REMARK H PARENT 12 13 10 15
REMARK Flexibility Score: inf
ROOT
ATOM      1  C   UNL     1     -22.106 -15.229 -13.925  1.00  0.00    -0.022 A 
ATOM      2  C   UNL     1     -22.450 -16.596 -13.907  1.00  0.00     0.058 A 
ATOM      3  C   UNL     1     -22.995 -14.314 -14.510  1.00  0.00     0.012 A 
ATOM      4  C   UNL     1     -23.647 -17.038 -14.486  1.00  0.00     0.157 A 
ATOM      5  C   UNL     1     -24.188 -14.752 -15.089  1.00  0.00     0.051 A 
ATOM      6  C   UNL     1     -24.519 -16.113 -15.083  1.00  0.00     0.157 A 
ENDROOT
BRANCH   1   7
ATOM      7  C   UNL     1     -20.855 -14.714 -13.315  1.00  0.00     0.010 C 
ATOM      8  C   UNL     1     -19.707 -15.405 -13.271  1.00  0.00     0.025 C 
BRANCH   8   9
ATOM      9  C   UNL     1     -18.487 -14.849 -12.667  1.00  0.00     0.064 C 
ATOM     10  O   UNL     1     -18.575 -13.875 -11.875  1.00  0.00    -0.545 OA
ATOM     11  O   UNL     1     -17.236 -15.381 -12.958  1.00  0.00    -0.545 OA
ENDBRANCH   8   9
ENDBRANCH   1   7
BRANCH   4  12
ATOM     12  O   UNL     1     -23.953 -18.398 -14.452  1.00  0.00    -0.504 OA
ATOM     13  H   UNL     1     -23.852 -18.952 -13.611  1.00  0.00     0.293 HD
ENDBRANCH   4  12
BRANCH   6  14
ATOM     14  O   UNL     1     -25.710 -16.548 -15.662  1.00  0.00    -0.504 OA
ATOM     15  H   UNL     1     -25.959 -16.301 -16.613  1.00  0.00     0.293 HD
ENDBRANCH   6  14
TORSDOF 4
ENDMDL
MODEL 4
REMARK VINA RESULT:    -3.274     15.957     17.071
REMARK INTER + INTRA:          -3.972
REMARK INTER:                  -3.819
REMARK INTRA:                  -0.153
REMARK UNBOUND:                -0.125
REMARK SMILES O=C([O-])C=Cc1ccc(O)c(O)c1
REMARK SMILES IDX 6 1 13 2 7 3 11 4 8 5 9 6 5 7 4 8 2 9 1 10 3 11 12 12 10 14
REMARK H PARENT 12 13 10 15
REMARK Flexibility Score: inf
ROOT
ATOM      1  C   UNL     1     -28.303 -30.948 -15.322  1.00  0.00    -0.022 A 
ATOM      2  C   UNL     1     -27.479 -31.397 -16.374  1.00  0.00     0.058 A 
ATOM      3  C   UNL     1     -29.125 -29.830 -15.535  1.00  0.00     0.012 A 
ATOM      4  C   UNL     1     -27.461 -30.725 -17.603  1.00  0.00     0.157 A 
ATOM      5  C   UNL     1     -29.108 -29.158 -16.760  1.00  0.00     0.051 A 
ATOM      6  C   UNL     1     -28.277 -29.598 -17.796  1.00  0.00     0.157 A 
ENDROOT
BRANCH   1   7
ATOM      7  C   UNL     1     -28.363 -31.633 -14.007  1.00  0.00     0.010 C 
ATOM      8  C   UNL     1     -29.062 -31.175 -12.959  1.00  0.00     0.025 C 
BRANCH   8   9
ATOM      9  C   UNL     1     -29.102 -31.895 -11.677  1.00  0.00     0.064 C 
ATOM     10  O   UNL     1     -29.121 -33.153 -11.671  1.00  0.00    -0.545 OA
ATOM     11  O   UNL     1     -29.122 -31.206 -10.469  1.00  0.00    -0.545 OA
ENDBRANCH   8   9
ENDBRANCH   1   7
BRANCH   4  12
ATOM     12  O   UNL     1     -26.631 -31.197 -18.620  1.00  0.00    -0.504 OA
ATOM     13  H   UNL     1     -27.000 -31.615 -19.465  1.00  0.00     0.293 HD
ENDBRANCH   4  12
BRANCH   6  14
ATOM     14  O   UNL     1     -28.261 -28.925 -19.017  1.00  0.00    -0.504 OA
ATOM     15  H   UNL     1     -28.974 -28.246 -19.258  1.00  0.00     0.293 HD
ENDBRANCH   6  14
TORSDOF 4
ENDMDL
MODEL 5
REMARK VINA RESULT:    -3.135      2.415      5.897
REMARK INTER + INTRA:          -3.810
REMARK INTER:                  -3.679
REMARK INTRA:                  -0.131
REMARK UNBOUND:                -0.125
REMARK SMILES O=C([O-])C=Cc1ccc(O)c(O)c1
REMARK SMILES IDX 6 1 13 2 7 3 11 4 8 5 9 6 5 7 4 8 2 9 1 10 3 11 12 12 10 14
REMARK H PARENT 12 13 10 15
REMARK Flexibility Score: inf
ROOT
ATOM      1  C   UNL     1     -21.186 -13.946 -13.445  1.00  0.00    -0.022 A 
ATOM      2  C   UNL     1     -21.649 -13.925 -14.776  1.00  0.00     0.058 A 
ATOM      3  C   UNL     1     -22.124 -13.966 -12.401  1.00  0.00     0.012 A 
ATOM      4  C   UNL     1     -23.021 -13.900 -15.053  1.00  0.00     0.157 A 
ATOM      5  C   UNL     1     -23.494 -13.939 -12.675  1.00  0.00     0.051 A 
ATOM      6  C   UNL     1     -23.949 -13.903 -13.998  1.00  0.00     0.157 A 
ENDROOT
BRANCH   1   7
ATOM      7  C   UNL     1     -19.742 -13.985 -13.103  1.00  0.00     0.010 C 
ATOM      8  C   UNL     1     -19.061 -15.115 -12.870  1.00  0.00     0.025 C 
BRANCH   8   9
ATOM      9  C   UNL     1     -17.627 -15.106 -12.545  1.00  0.00     0.064 C 
ATOM     10  O   UNL     1     -17.025 -16.196 -12.358  1.00  0.00    -0.545 OA
ATOM     11  O   UNL     1     -16.923 -13.912 -12.438  1.00  0.00    -0.545 OA
ENDBRANCH   8   9
ENDBRANCH   1   7
BRANCH   4  12
ATOM     12  O   UNL     1     -23.443 -13.877 -16.383  1.00  0.00    -0.504 OA
ATOM     13  H   UNL     1     -23.922 -13.078 -16.782  1.00  0.00     0.293 HD
ENDBRANCH   4  12
BRANCH   6  14
ATOM     14  O   UNL     1     -25.316 -13.875 -14.269  1.00  0.00    -0.504 OA
ATOM     15  H   UNL     1     -25.863 -14.726 -14.329  1.00  0.00     0.293 HD
ENDBRANCH   6  14
TORSDOF 4
ENDMDL
