MODEL 1
REMARK VINA RESULT:    -4.139      0.000      0.000
REMARK INTER + INTRA:          -4.511
REMARK INTER:                  -4.380
REMARK INTRA:                  -0.130
REMARK UNBOUND:                -0.130
REMARK SMILES C=C(C)[C@@H]1CC=C(C)CC1
REMARK SMILES IDX 8 1 7 2 6 3 5 4 4 5 10 6 9 7 2 8 1 9 3 10
REMARK H PARENT
REMARK Flexibility Score: inf
ROOT
ATOM      1  C   UNL     1      -2.013  -4.264  -4.927  1.00  0.00     0.039 C 
ATOM      2  C   UNL     1      -2.907  -3.053  -4.907  1.00  0.00    -0.077 C 
ATOM      3  C   UNL     1      -2.492  -1.922  -5.517  1.00  0.00    -0.027 C 
ATOM      4  C   UNL     1      -3.337  -0.675  -5.599  1.00  0.00     0.035 C 
ATOM      5  C   UNL     1      -4.408  -0.624  -4.493  1.00  0.00     0.018 C 
ATOM      6  C   UNL     1      -5.157  -1.965  -4.432  1.00  0.00     0.013 C 
ATOM      7  C   UNL     1      -4.184  -3.100  -4.091  1.00  0.00     0.031 C 
ENDROOT
BRANCH   5   8
ATOM      8  C   UNL     1      -5.361   0.546  -4.689  1.00  0.00    -0.077 C 
ATOM      9  C   UNL     1      -5.213   1.406  -5.712  1.00  0.00     0.008 C 
ATOM     10  C   UNL     1      -6.504   0.759  -3.730  1.00  0.00     0.039 C 
ENDBRANCH   5   8
TORSDOF 1
ENDMDL
MODEL 2
REMARK VINA RESULT:    -4.135     12.363     13.758
REMARK INTER + INTRA:          -4.507
REMARK INTER:                  -4.377
REMARK INTRA:                  -0.130
REMARK UNBOUND:                -0.130
REMARK SMILES C=C(C)[C@@H]1CC=C(C)CC1
REMARK SMILES IDX 8 1 7 2 6 3 5 4 4 5 10 6 9 7 2 8 1 9 3 10
REMARK H PARENT
REMARK Flexibility Score: inf
ROOT
ATOM      1  C   UNL     1       5.969  11.125  -0.794  1.00  0.00     0.039 C 
ATOM      2  C   UNL     1       4.827  10.532  -1.573  1.00  0.00    -0.077 C 
ATOM      3  C   UNL     1       3.633  10.366  -0.964  1.00  0.00    -0.027 C 
ATOM      4  C   UNL     1       2.415   9.832  -1.674  1.00  0.00     0.035 C 
ATOM      5  C   UNL     1       2.784   9.001  -2.917  1.00  0.00     0.018 C 
ATOM      6  C   UNL     1       3.803   9.770  -3.774  1.00  0.00     0.013 C 
ATOM      7  C   UNL     1       5.088  10.015  -2.975  1.00  0.00     0.031 C 
ENDROOT
BRANCH   5   8
ATOM      8  C   UNL     1       1.549   8.615  -3.719  1.00  0.00    -0.077 C 
ATOM      9  C   UNL     1       0.311   8.784  -3.224  1.00  0.00     0.008 C 
ATOM     10  C   UNL     1       1.698   8.033  -5.102  1.00  0.00     0.039 C 
ENDBRANCH   5   8
TORSDOF 1
ENDMDL
MODEL 3
REMARK VINA RESULT:    -4.126      1.138      4.732
REMARK INTER + INTRA:          -4.498
REMARK INTER:                  -4.369
REMARK INTRA:                  -0.129
REMARK UNBOUND:                -0.130
REMARK SMILES C=C(C)[C@@H]1CC=C(C)CC1
REMARK SMILES IDX 8 1 7 2 6 3 5 4 4 5 10 6 9 7 2 8 1 9 3 10
REMARK H PARENT
REMARK Flexibility Score: inf
ROOT
ATOM      1  C   UNL     1      -6.674   3.133  -4.922  1.00  0.00     0.039 C 
ATOM      2  C   UNL     1      -5.919   1.832  -4.941  1.00  0.00    -0.077 C 
ATOM      3  C   UNL     1      -6.247   0.871  -4.050  1.00  0.00    -0.027 C 
ATOM      4  C   UNL     1      -5.587  -0.485  -4.024  1.00  0.00     0.035 C 
ATOM      5  C   UNL     1      -4.196  -0.469  -4.684  1.00  0.00     0.018 C 
ATOM      6  C   UNL     1      -4.276   0.236  -6.048  1.00  0.00     0.013 C 
ATOM      7  C   UNL     1      -4.727   1.690  -5.868  1.00  0.00     0.031 C 
ENDROOT
BRANCH   5   8
ATOM      8  C   UNL     1      -3.617  -1.871  -4.806  1.00  0.00    -0.077 C 
ATOM      9  C   UNL     1      -2.458  -2.096  -5.449  1.00  0.00     0.008 C 
ATOM     10  C   UNL     1      -4.340  -3.044  -4.196  1.00  0.00     0.039 C 
ENDBRANCH   5   8
TORSDOF 1
ENDMDL
MODEL 4
REMARK VINA RESULT:    -3.973      1.225      4.543
REMARK INTER + INTRA:          -4.335
REMARK INTER:                  -4.205
REMARK INTRA:                  -0.130
REMARK UNBOUND:                -0.130
REMARK SMILES C=C(C)[C@@H]1CC=C(C)CC1
REMARK SMILES IDX 8 1 7 2 6 3 5 4 4 5 10 6 9 7 2 8 1 9 3 10
REMARK H PARENT
REMARK Flexibility Score: inf
ROOT
ATOM      1  C   UNL     1      -6.936   3.168  -5.077  1.00  0.00     0.039 C 
ATOM      2  C   UNL     1      -6.117   1.910  -4.968  1.00  0.00    -0.077 C 
ATOM      3  C   UNL     1      -5.047   1.752  -5.776  1.00  0.00    -0.027 C 
ATOM      4  C   UNL     1      -4.134   0.554  -5.706  1.00  0.00     0.035 C 
ATOM      5  C   UNL     1      -4.823  -0.666  -5.068  1.00  0.00     0.018 C 
ATOM      6  C   UNL     1      -5.518  -0.248  -3.761  1.00  0.00     0.013 C 
ATOM      7  C   UNL     1      -6.597   0.803  -4.049  1.00  0.00     0.031 C 
ENDROOT
BRANCH   5   8
ATOM      8  C   UNL     1      -3.843  -1.810  -4.844  1.00  0.00    -0.077 C 
ATOM      9  C   UNL     1      -2.564  -1.725  -5.247  1.00  0.00     0.008 C 
ATOM     10  C   UNL     1      -4.299  -3.071  -4.155  1.00  0.00     0.039 C 
ENDBRANCH   5   8
TORSDOF 1
ENDMDL
MODEL 5
REMARK VINA RESULT:    -3.949      0.483      1.655
REMARK INTER + INTRA:          -4.310
REMARK INTER:                  -4.181
REMARK INTRA:                  -0.129
REMARK UNBOUND:                -0.130
REMARK SMILES C=C(C)[C@@H]1CC=C(C)CC1
REMARK SMILES IDX 8 1 7 2 6 3 5 4 4 5 10 6 9 7 2 8 1 9 3 10
REMARK H PARENT
REMARK Flexibility Score: inf
ROOT
ATOM      1  C   UNL     1      -2.378  -4.691  -4.699  1.00  0.00     0.039 C 
ATOM      2  C   UNL     1      -3.067  -3.355  -4.768  1.00  0.00    -0.077 C 
ATOM      3  C   UNL     1      -4.298  -3.223  -4.228  1.00  0.00    -0.027 C 
ATOM      4  C   UNL     1      -5.046  -1.914  -4.199  1.00  0.00     0.035 C 
ATOM      5  C   UNL     1      -4.557  -0.940  -5.287  1.00  0.00     0.018 C 
ATOM      6  C   UNL     1      -3.022  -0.860  -5.262  1.00  0.00     0.013 C 
ATOM      7  C   UNL     1      -2.415  -2.236  -5.558  1.00  0.00     0.031 C 
ENDROOT
BRANCH   5   8
ATOM      8  C   UNL     1      -5.196   0.434  -5.137  1.00  0.00    -0.077 C 
ATOM      9  C   UNL     1      -4.957   1.417  -6.022  1.00  0.00     0.008 C 
ATOM     10  C   UNL     1      -6.123   0.715  -3.982  1.00  0.00     0.039 C 
ENDBRANCH   5   8
TORSDOF 1
ENDMDL
MODEL 6
REMARK VINA RESULT:    -3.917      9.715     11.591
REMARK INTER + INTRA:          -4.276
REMARK INTER:                  -4.147
REMARK INTRA:                  -0.129
REMARK UNBOUND:                -0.130
REMARK SMILES C=C(C)[C@@H]1CC=C(C)CC1
REMARK SMILES IDX 8 1 7 2 6 3 5 4 4 5 10 6 9 7 2 8 1 9 3 10
REMARK H PARENT
REMARK Flexibility Score: inf
ROOT
ATOM      1  C   UNL     1     -10.183  -2.099   4.086  1.00  0.00     0.039 C 
ATOM      2  C   UNL     1     -10.057  -3.562   3.756  1.00  0.00    -0.077 C 
ATOM      3  C   UNL     1      -9.273  -3.935   2.721  1.00  0.00    -0.027 C 
ATOM      4  C   UNL     1      -9.039  -5.376   2.346  1.00  0.00     0.035 C 
ATOM      5  C   UNL     1     -10.163  -6.299   2.852  1.00  0.00     0.018 C 
ATOM      6  C   UNL     1     -10.448  -6.008   4.334  1.00  0.00     0.013 C 
ATOM      7  C   UNL     1     -10.917  -4.558   4.508  1.00  0.00     0.031 C 
ENDROOT
BRANCH   5   8
ATOM      8  C   UNL     1      -9.831  -7.767   2.619  1.00  0.00    -0.077 C 
ATOM      9  C   UNL     1     -10.661  -8.744   3.021  1.00  0.00     0.008 C 
ATOM     10  C   UNL     1      -8.552  -8.150   1.920  1.00  0.00     0.039 C 
ENDBRANCH   5   8
TORSDOF 1
ENDMDL
MODEL 7
REMARK VINA RESULT:    -3.905     12.652     14.096
REMARK INTER + INTRA:          -4.264
REMARK INTER:                  -4.136
REMARK INTRA:                  -0.128
REMARK UNBOUND:                -0.130
REMARK SMILES C=C(C)[C@@H]1CC=C(C)CC1
REMARK SMILES IDX 8 1 7 2 6 3 5 4 4 5 10 6 9 7 2 8 1 9 3 10
REMARK H PARENT
REMARK Flexibility Score: inf
ROOT
ATOM      1  C   UNL     1       0.334   8.807  -3.033  1.00  0.00     0.039 C 
ATOM      2  C   UNL     1       1.822   9.028  -3.001  1.00  0.00    -0.077 C 
ATOM      3  C   UNL     1       2.361   9.719  -1.973  1.00  0.00    -0.027 C 
ATOM      4  C   UNL     1       3.844   9.945  -1.823  1.00  0.00     0.035 C 
ATOM      5  C   UNL     1       4.590   9.826  -3.164  1.00  0.00     0.018 C 
ATOM      6  C   UNL     1       4.156   8.541  -3.889  1.00  0.00     0.013 C 
ATOM      7  C   UNL     1       2.653   8.584  -4.190  1.00  0.00     0.031 C 
ENDROOT
BRANCH   5   8
ATOM      8  C   UNL     1       6.099   9.884  -2.974  1.00  0.00    -0.077 C 
ATOM      9  C   UNL     1       6.664  10.752  -2.117  1.00  0.00     0.008 C 
ATOM     10  C   UNL     1       6.995   8.954  -3.751  1.00  0.00     0.039 C 
ENDBRANCH   5   8
TORSDOF 1
ENDMDL
MODEL 8
REMARK VINA RESULT:    -3.817     10.800     12.284
REMARK INTER + INTRA:          -4.171
REMARK INTER:                  -4.047
REMARK INTRA:                  -0.124
REMARK UNBOUND:                -0.130
REMARK SMILES C=C(C)[C@@H]1CC=C(C)CC1
REMARK SMILES IDX 8 1 7 2 6 3 5 4 4 5 10 6 9 7 2 8 1 9 3 10
REMARK H PARENT
REMARK Flexibility Score: inf
ROOT
ATOM      1  C   UNL     1       8.005  -0.059   0.642  1.00  0.00     0.039 C 
ATOM      2  C   UNL     1       7.749   0.254  -0.807  1.00  0.00    -0.077 C 
ATOM      3  C   UNL     1       6.912  -0.538  -1.511  1.00  0.00    -0.027 C 
ATOM      4  C   UNL     1       6.549  -0.276  -2.951  1.00  0.00     0.035 C 
ATOM      5  C   UNL     1       7.603   0.586  -3.669  1.00  0.00     0.018 C 
ATOM      6  C   UNL     1       7.946   1.813  -2.808  1.00  0.00     0.013 C 
ATOM      7  C   UNL     1       8.540   1.368  -1.466  1.00  0.00     0.031 C 
ENDROOT
BRANCH   5   8
ATOM      8  C   UNL     1       7.143   0.987  -5.064  1.00  0.00    -0.077 C 
ATOM      9  C   UNL     1       7.982   0.954  -6.114  1.00  0.00     0.008 C 
ATOM     10  C   UNL     1       5.720   1.428  -5.293  1.00  0.00     0.039 C 
ENDBRANCH   5   8
TORSDOF 1
ENDMDL
MODEL 9
REMARK VINA RESULT:    -3.791     15.182     16.989
REMARK INTER + INTRA:          -4.143
REMARK INTER:                  -4.014
REMARK INTRA:                  -0.129
REMARK UNBOUND:                -0.130
REMARK SMILES C=C(C)[C@@H]1CC=C(C)CC1
REMARK SMILES IDX 8 1 7 2 6 3 5 4 4 5 10 6 9 7 2 8 1 9 3 10
REMARK H PARENT
REMARK Flexibility Score: inf
ROOT
ATOM      1  C   UNL     1       0.123  -8.370   5.653  1.00  0.00     0.039 C 
ATOM      2  C   UNL     1       0.728  -8.398   7.031  1.00  0.00    -0.077 C 
ATOM      3  C   UNL     1       2.072  -8.360   7.158  1.00  0.00    -0.027 C 
ATOM      4  C   UNL     1       2.770  -8.328   8.495  1.00  0.00     0.035 C 
ATOM      5  C   UNL     1       1.890  -8.894   9.624  1.00  0.00     0.018 C 
ATOM      6  C   UNL     1       0.490  -8.262   9.560  1.00  0.00     0.013 C 
ATOM      7  C   UNL     1      -0.184  -8.603   8.226  1.00  0.00     0.031 C 
ENDROOT
BRANCH   5   8
ATOM      8  C   UNL     1       2.536  -8.699  10.990  1.00  0.00    -0.077 C 
ATOM      9  C   UNL     1       1.907  -9.066  12.120  1.00  0.00     0.008 C 
ATOM     10  C   UNL     1       3.909  -8.086  11.095  1.00  0.00     0.039 C 
ENDBRANCH   5   8
TORSDOF 1
ENDMDL
