MODEL 1
REMARK VINA RESULT:    -3.407      0.000      0.000
REMARK INTER + INTRA:          -5.494
REMARK INTER:                  -5.200
REMARK INTRA:                  -0.294
REMARK UNBOUND:                -0.294
REMARK SMILES CC1=CCC[C@@H](C)C(=O)C[C@H](C(C)C)C(=O)C1
REMARK SMILES IDX 8 1 9 2 6 3 7 4 5 5 4 6 3 7 2 8 1 9 10 11 11 12 15 13 16 14
REMARK SMILES IDX 17 15 12 17 13 18 14 19
REMARK H PARENT
REMARK Flexibility Score: 70.00
ROOT
ATOM      1  C   UNL     1      52.543  20.583  -5.894  1.00  0.00     0.136 C 
ATOM      2  O   UNL     1      53.282  21.534  -6.113  1.00  0.00    -0.299 OA
ENDROOT
BRANCH   1   3
ATOM      3  C   UNL     1      51.038  20.738  -6.023  1.00  0.00     0.053 C 
ATOM      4  C   UNL     1      50.589  20.904  -7.483  1.00  0.00     0.016 C 
BRANCH   3   5
ATOM      5  C   UNL     1      50.511  21.884  -5.135  1.00  0.00     0.015 C 
BRANCH   5   6
ATOM      6  C   UNL     1      50.303  21.482  -3.662  1.00  0.00     0.028 C 
BRANCH   6   7
ATOM      7  C   UNL     1      49.416  20.268  -3.560  1.00  0.00    -0.028 C 
ATOM      8  C   UNL     1      49.798  19.076  -3.044  1.00  0.00    -0.070 CG0
ATOM      9  C   UNL     1      48.808  17.941  -3.078  1.00  0.00     0.039 C 
ATOM     10  G   UNL     1      51.166  18.843  -2.421  1.00  0.00     0.000 G0
ENDBRANCH   6   7
ENDBRANCH   5   6
ENDBRANCH   3   5
ENDBRANCH   1   3
BRANCH   1  11
ATOM     11  C   UNL     1      53.155  19.263  -5.490  1.00  0.00     0.087 C 
BRANCH  11  12
ATOM     12  C   UNL     1      53.285  19.125  -3.950  1.00  0.00     0.066 C 
BRANCH  12  13
ATOM     13  C   UNL     1      52.179  18.252  -3.375  1.00  0.00     0.140 C 
ATOM     14  O   UNL     1      52.136  17.061  -3.651  1.00  0.00    -0.299 OA
BRANCH  13  15
ATOM     15  C   UNL     1      51.167  18.820  -2.409  1.00  0.00     0.106 CG0
ATOM     16  G   UNL     1      49.817  19.075  -3.061  1.00  0.00     0.000 G0
ENDBRANCH  13  15
ENDBRANCH  12  13
BRANCH  12  17
ATOM     17  C   UNL     1      54.708  18.646  -3.526  1.00  0.00    -0.006 C 
ATOM     18  C   UNL     1      55.782  19.131  -4.512  1.00  0.00     0.008 C 
ATOM     19  C   UNL     1      55.099  19.028  -2.087  1.00  0.00     0.008 C 
ENDBRANCH  12  17
ENDBRANCH  11  12
ENDBRANCH   1  11
TORSDOF 1
ENDMDL
MODEL 2
REMARK VINA RESULT:    -3.257      2.682      4.092
REMARK INTER + INTRA:          -5.264
REMARK INTER:                  -5.427
REMARK INTRA:                   0.163
REMARK UNBOUND:                -0.294
REMARK SMILES CC1=CCC[C@@H](C)C(=O)C[C@H](C(C)C)C(=O)C1
REMARK SMILES IDX 8 1 9 2 6 3 7 4 5 5 4 6 3 7 2 8 1 9 10 11 11 12 15 13 16 14
REMARK SMILES IDX 17 15 12 17 13 18 14 19
REMARK H PARENT
REMARK Flexibility Score: 70.00
ROOT
ATOM      1  C   UNL     1      55.087  17.824  -3.478  1.00  0.00     0.136 C 
ATOM      2  O   UNL     1      55.132  18.584  -2.519  1.00  0.00    -0.299 OA
ENDROOT
BRANCH   1   3
ATOM      3  C   UNL     1      55.226  18.366  -4.889  1.00  0.00     0.053 C 
ATOM      4  C   UNL     1      56.378  19.375  -5.020  1.00  0.00     0.016 C 
BRANCH   3   5
ATOM      5  C   UNL     1      53.895  18.957  -5.400  1.00  0.00     0.015 C 
BRANCH   5   6
ATOM      6  C   UNL     1      52.802  17.901  -5.653  1.00  0.00     0.028 C 
BRANCH   6   7
ATOM      7  C   UNL     1      51.650  18.086  -4.699  1.00  0.00    -0.028 C 
ATOM      8  C   UNL     1      51.291  17.198  -3.743  1.00  0.00    -0.070 CG0
ATOM      9  C   UNL     1      50.069  17.505  -2.916  1.00  0.00     0.039 C 
ATOM     10  G   UNL     1      52.072  15.924  -3.460  1.00  0.00     0.000 G0
ENDBRANCH   6   7
ENDBRANCH   5   6
ENDBRANCH   3   5
ENDBRANCH   1   3
BRANCH   1  11
ATOM     11  C   UNL     1      54.887  16.348  -3.229  1.00  0.00     0.087 C 
BRANCH  11  12
ATOM     12  C   UNL     1      54.176  16.073  -1.878  1.00  0.00     0.066 C 
BRANCH  12  13
ATOM     13  C   UNL     1      52.676  15.898  -2.064  1.00  0.00     0.140 C 
ATOM     14  O   UNL     1      51.947  15.810  -1.087  1.00  0.00    -0.299 OA
BRANCH  13  15
ATOM     15  C   UNL     1      52.061  15.900  -3.444  1.00  0.00     0.106 CG0
ATOM     16  G   UNL     1      51.319  17.193  -3.749  1.00  0.00     0.000 G0
ENDBRANCH  13  15
ENDBRANCH  12  13
BRANCH  12  17
ATOM     17  C   UNL     1      54.828  14.882  -1.109  1.00  0.00    -0.006 C 
ATOM     18  C   UNL     1      55.904  14.186  -1.957  1.00  0.00     0.008 C 
ATOM     19  C   UNL     1      55.401  15.259   0.269  1.00  0.00     0.008 C 
ENDBRANCH  12  17
ENDBRANCH  11  12
ENDBRANCH   1  11
TORSDOF 1
ENDMDL
MODEL 3
REMARK VINA RESULT:    -3.166      4.103      6.353
REMARK INTER + INTRA:          -5.126
REMARK INTER:                  -5.194
REMARK INTRA:                   0.068
REMARK UNBOUND:                -0.294
REMARK SMILES CC1=CCC[C@@H](C)C(=O)C[C@H](C(C)C)C(=O)C1
REMARK SMILES IDX 8 1 9 2 6 3 7 4 5 5 4 6 3 7 2 8 1 9 10 11 11 12 15 13 16 14
REMARK SMILES IDX 17 15 12 17 13 18 14 19
REMARK H PARENT
REMARK Flexibility Score: 70.00
ROOT
ATOM      1  C   UNL     1      54.753  15.942  -0.982  1.00  0.00     0.136 C 
ATOM      2  O   UNL     1      55.503  16.278  -0.074  1.00  0.00    -0.299 OA
ENDROOT
BRANCH   1   3
ATOM      3  C   UNL     1      54.622  14.478  -1.363  1.00  0.00     0.053 C 
ATOM      4  C   UNL     1      54.483  13.562  -0.137  1.00  0.00     0.016 C 
BRANCH   3   5
ATOM      5  C   UNL     1      55.780  14.027  -2.277  1.00  0.00     0.015 C 
BRANCH   5   6
ATOM      6  C   UNL     1      55.327  13.184  -3.485  1.00  0.00     0.028 C 
BRANCH   6   7
ATOM      7  C   UNL     1      53.827  13.225  -3.632  1.00  0.00    -0.028 C 
ATOM      8  C   UNL     1      53.139  14.229  -4.222  1.00  0.00    -0.070 CG0
ATOM      9  C   UNL     1      51.634  14.149  -4.226  1.00  0.00     0.039 C 
ATOM     10  G   UNL     1      53.815  15.416  -4.892  1.00  0.00     0.000 G0
ENDBRANCH   6   7
ENDBRANCH   5   6
ENDBRANCH   3   5
ENDBRANCH   1   3
BRANCH   1  11
ATOM     11  C   UNL     1      53.971  17.007  -1.712  1.00  0.00     0.087 C 
BRANCH  11  12
ATOM     12  C   UNL     1      54.512  17.251  -3.146  1.00  0.00     0.066 C 
BRANCH  12  13
ATOM     13  C   UNL     1      53.545  16.732  -4.201  1.00  0.00     0.140 C 
ATOM     14  O   UNL     1      52.574  17.402  -4.520  1.00  0.00    -0.299 OA
BRANCH  13  15
ATOM     15  C   UNL     1      53.805  15.426  -4.914  1.00  0.00     0.106 CG0
ATOM     16  G   UNL     1      53.169  14.239  -4.206  1.00  0.00     0.000 G0
ENDBRANCH  13  15
ENDBRANCH  12  13
BRANCH  12  17
ATOM     17  C   UNL     1      54.904  18.743  -3.375  1.00  0.00    -0.006 C 
ATOM     18  C   UNL     1      55.457  19.383  -2.091  1.00  0.00     0.008 C 
ATOM     19  C   UNL     1      55.883  18.967  -4.541  1.00  0.00     0.008 C 
ENDBRANCH  12  17
ENDBRANCH  11  12
ENDBRANCH   1  11
TORSDOF 1
ENDMDL
MODEL 4
REMARK VINA RESULT:    -3.149      3.105      5.445
REMARK INTER + INTRA:          -5.100
REMARK INTER:                  -5.247
REMARK INTRA:                   0.147
REMARK UNBOUND:                -0.294
REMARK SMILES CC1=CCC[C@@H](C)C(=O)C[C@H](C(C)C)C(=O)C1
REMARK SMILES IDX 8 1 9 2 6 3 7 4 5 5 4 6 3 7 2 8 1 9 10 11 11 12 15 13 16 14
REMARK SMILES IDX 17 15 12 17 13 18 14 19
REMARK H PARENT
REMARK Flexibility Score: 70.00
ROOT
ATOM      1  C   UNL     1      55.032  15.365  -3.703  1.00  0.00     0.136 C 
ATOM      2  O   UNL     1      54.347  14.915  -4.613  1.00  0.00    -0.299 OA
ENDROOT
BRANCH   1   3
ATOM      3  C   UNL     1      55.584  14.440  -2.633  1.00  0.00     0.053 C 
ATOM      4  C   UNL     1      55.742  12.995  -3.131  1.00  0.00     0.016 C 
BRANCH   3   5
ATOM      5  C   UNL     1      54.742  14.505  -1.342  1.00  0.00     0.015 C 
BRANCH   5   6
ATOM      6  C   UNL     1      53.223  14.563  -1.593  1.00  0.00     0.028 C 
BRANCH   6   7
ATOM      7  C   UNL     1      52.534  15.363  -0.518  1.00  0.00    -0.028 C 
ATOM      8  C   UNL     1      52.041  16.613  -0.684  1.00  0.00    -0.070 CG0
ATOM      9  C   UNL     1      51.441  17.302   0.514  1.00  0.00     0.039 C 
ATOM     10  G   UNL     1      52.050  17.336  -2.023  1.00  0.00     0.000 G0
ENDBRANCH   6   7
ENDBRANCH   5   6
ENDBRANCH   3   5
ENDBRANCH   1   3
BRANCH   1  11
ATOM     11  C   UNL     1      55.309  16.849  -3.665  1.00  0.00     0.087 C 
BRANCH  11  12
ATOM     12  C   UNL     1      54.008  17.690  -3.749  1.00  0.00     0.066 C 
BRANCH  12  13
ATOM     13  C   UNL     1      53.404  17.919  -2.371  1.00  0.00     0.140 C 
ATOM     14  O   UNL     1      53.992  18.616  -1.556  1.00  0.00    -0.299 OA
BRANCH  13  15
ATOM     15  C   UNL     1      52.049  17.354  -2.016  1.00  0.00     0.106 CG0
ATOM     16  G   UNL     1      52.062  16.598  -0.696  1.00  0.00     0.000 G0
ENDBRANCH  13  15
ENDBRANCH  12  13
BRANCH  12  17
ATOM     17  C   UNL     1      54.223  19.018  -4.538  1.00  0.00    -0.006 C 
ATOM     18  C   UNL     1      55.658  19.127  -5.078  1.00  0.00     0.008 C 
ATOM     19  C   UNL     1      53.212  19.248  -5.675  1.00  0.00     0.008 C 
ENDBRANCH  12  17
ENDBRANCH  11  12
ENDBRANCH   1  11
TORSDOF 1
ENDMDL
MODEL 5
REMARK VINA RESULT:    -3.126      2.860      3.596
REMARK INTER + INTRA:          -5.064
REMARK INTER:                  -4.801
REMARK INTRA:                  -0.264
REMARK UNBOUND:                -0.294
REMARK SMILES CC1=CCC[C@@H](C)C(=O)C[C@H](C(C)C)C(=O)C1
REMARK SMILES IDX 8 1 9 2 6 3 7 4 5 5 4 6 3 7 2 8 1 9 10 11 11 12 15 13 16 14
REMARK SMILES IDX 17 15 12 17 13 18 14 19
REMARK H PARENT
REMARK Flexibility Score: 70.00
ROOT
ATOM      1  C   UNL     1      52.509  18.246  -5.722  1.00  0.00     0.136 C 
ATOM      2  O   UNL     1      52.540  19.453  -5.920  1.00  0.00    -0.299 OA
ENDROOT
BRANCH   1   3
ATOM      3  C   UNL     1      51.184  17.503  -5.734  1.00  0.00     0.053 C 
ATOM      4  C   UNL     1      50.368  17.779  -7.007  1.00  0.00     0.016 C 
BRANCH   3   5
ATOM      5  C   UNL     1      50.363  17.795  -4.461  1.00  0.00     0.015 C 
BRANCH   5   6
ATOM      6  C   UNL     1      50.410  16.662  -3.418  1.00  0.00     0.028 C 
BRANCH   6   7
ATOM      7  C   UNL     1      50.775  15.352  -4.069  1.00  0.00    -0.028 C 
ATOM      8  C   UNL     1      51.942  14.694  -3.873  1.00  0.00    -0.070 CG0
ATOM      9  C   UNL     1      52.179  13.428  -4.654  1.00  0.00     0.039 C 
ATOM     10  G   UNL     1      53.005  15.165  -2.891  1.00  0.00     0.000 G0
ENDBRANCH   6   7
ENDBRANCH   5   6
ENDBRANCH   3   5
ENDBRANCH   1   3
BRANCH   1  11
ATOM     11  C   UNL     1      53.805  17.516  -5.462  1.00  0.00     0.087 C 
BRANCH  11  12
ATOM     12  C   UNL     1      54.076  17.327  -3.947  1.00  0.00     0.066 C 
BRANCH  12  13
ATOM     13  C   UNL     1      54.174  15.853  -3.579  1.00  0.00     0.140 C 
ATOM     14  O   UNL     1      55.214  15.242  -3.782  1.00  0.00    -0.299 OA
BRANCH  13  15
ATOM     15  C   UNL     1      53.025  15.147  -2.900  1.00  0.00     0.106 CG0
ATOM     16  G   UNL     1      51.947  14.712  -3.882  1.00  0.00     0.000 G0
ENDBRANCH  13  15
ENDBRANCH  12  13
BRANCH  12  17
ATOM     17  C   UNL     1      55.315  18.147  -3.469  1.00  0.00    -0.006 C 
ATOM     18  C   UNL     1      55.890  19.010  -4.604  1.00  0.00     0.008 C 
ATOM     19  C   UNL     1      55.056  19.014  -2.224  1.00  0.00     0.008 C 
ENDBRANCH  12  17
ENDBRANCH  11  12
ENDBRANCH   1  11
TORSDOF 1
ENDMDL
MODEL 6
REMARK VINA RESULT:    -3.089      2.811      4.080
REMARK INTER + INTRA:          -5.008
REMARK INTER:                  -5.056
REMARK INTRA:                   0.048
REMARK UNBOUND:                -0.294
REMARK SMILES CC1=CCC[C@@H](C)C(=O)C[C@H](C(C)C)C(=O)C1
REMARK SMILES IDX 8 1 9 2 6 3 7 4 5 5 4 6 3 7 2 8 1 9 10 11 11 12 15 13 16 14
REMARK SMILES IDX 17 15 12 17 13 18 14 19
REMARK H PARENT
REMARK Flexibility Score: 70.00
ROOT
ATOM      1  C   UNL     1      55.070  18.291  -4.093  1.00  0.00     0.136 C 
ATOM      2  O   UNL     1      55.432  18.829  -5.131  1.00  0.00    -0.299 OA
ENDROOT
BRANCH   1   3
ATOM      3  C   UNL     1      54.463  19.119  -2.974  1.00  0.00     0.053 C 
ATOM      4  C   UNL     1      55.138  18.859  -1.618  1.00  0.00     0.016 C 
BRANCH   3   5
ATOM      5  C   UNL     1      52.935  18.923  -2.892  1.00  0.00     0.015 C 
BRANCH   5   6
ATOM      6  C   UNL     1      52.177  19.419  -4.138  1.00  0.00     0.028 C 
BRANCH   6   7
ATOM      7  C   UNL     1      51.073  18.462  -4.508  1.00  0.00    -0.028 C 
ATOM      8  C   UNL     1      51.228  17.377  -5.301  1.00  0.00    -0.070 CG0
ATOM      9  C   UNL     1      50.006  16.559  -5.629  1.00  0.00     0.039 C 
ATOM     10  G   UNL     1      52.577  16.941  -5.856  1.00  0.00     0.000 G0
ENDBRANCH   6   7
ENDBRANCH   5   6
ENDBRANCH   3   5
ENDBRANCH   1   3
BRANCH   1  11
ATOM     11  C   UNL     1      55.244  16.798  -3.947  1.00  0.00     0.087 C 
BRANCH  11  12
ATOM     12  C   UNL     1      53.889  16.068  -3.754  1.00  0.00     0.066 C 
BRANCH  12  13
ATOM     13  C   UNL     1      53.206  15.799  -5.087  1.00  0.00     0.140 C 
ATOM     14  O   UNL     1      53.114  14.654  -5.506  1.00  0.00    -0.299 OA
BRANCH  13  15
ATOM     15  C   UNL     1      52.576  16.923  -5.875  1.00  0.00     0.106 CG0
ATOM     16  G   UNL     1      51.238  17.361  -5.296  1.00  0.00     0.000 G0
ENDBRANCH  13  15
ENDBRANCH  12  13
BRANCH  12  17
ATOM     17  C   UNL     1      54.040  14.779  -2.888  1.00  0.00    -0.006 C 
ATOM     18  C   UNL     1      55.508  14.525  -2.508  1.00  0.00     0.008 C 
ATOM     19  C   UNL     1      53.156  14.756  -1.628  1.00  0.00     0.008 C 
ENDBRANCH  12  17
ENDBRANCH  11  12
ENDBRANCH   1  11
TORSDOF 1
ENDMDL
MODEL 7
REMARK VINA RESULT:    -2.977      2.213      4.545
REMARK INTER + INTRA:          -4.837
REMARK INTER:                  -4.837
REMARK INTRA:                  -0.000
REMARK UNBOUND:                -0.294
REMARK SMILES CC1=CCC[C@@H](C)C(=O)C[C@H](C(C)C)C(=O)C1
REMARK SMILES IDX 8 1 9 2 6 3 7 4 5 5 4 6 3 7 2 8 1 9 10 11 11 12 15 13 16 14
REMARK SMILES IDX 17 15 12 17 13 18 14 19
REMARK H PARENT
REMARK Flexibility Score: 70.00
ROOT
ATOM      1  C   UNL     1      54.127  18.895  -2.713  1.00  0.00     0.136 C 
ATOM      2  O   UNL     1      54.146  18.575  -1.531  1.00  0.00    -0.299 OA
ENDROOT
BRANCH   1   3
ATOM      3  C   UNL     1      55.250  18.466  -3.640  1.00  0.00     0.053 C 
ATOM      4  C   UNL     1      55.147  19.118  -5.028  1.00  0.00     0.016 C 
BRANCH   3   5
ATOM      5  C   UNL     1      55.341  16.929  -3.742  1.00  0.00     0.015 C 
BRANCH   5   6
ATOM      6  C   UNL     1      54.112  16.277  -4.405  1.00  0.00     0.028 C 
BRANCH   6   7
ATOM      7  C   UNL     1      53.361  15.425  -3.414  1.00  0.00    -0.028 C 
ATOM      8  C   UNL     1      52.037  15.533  -3.153  1.00  0.00    -0.070 CG0
ATOM      9  C   UNL     1      51.452  14.649  -2.082  1.00  0.00     0.039 C 
ATOM     10  G   UNL     1      51.119  16.487  -3.904  1.00  0.00     0.000 G0
ENDBRANCH   6   7
ENDBRANCH   5   6
ENDBRANCH   3   5
ENDBRANCH   1   3
BRANCH   1  11
ATOM     11  C   UNL     1      52.973  19.725  -3.224  1.00  0.00     0.087 C 
BRANCH  11  12
ATOM     12  C   UNL     1      52.057  18.924  -4.185  1.00  0.00     0.066 C 
BRANCH  12  13
ATOM     13  C   UNL     1      51.211  17.908  -3.431  1.00  0.00     0.140 C 
ATOM     14  O   UNL     1      50.563  18.259  -2.456  1.00  0.00    -0.299 OA
BRANCH  13  15
ATOM     15  C   UNL     1      51.105  16.480  -3.912  1.00  0.00     0.106 CG0
ATOM     16  G   UNL     1      52.031  15.540  -3.154  1.00  0.00     0.000 G0
ENDBRANCH  13  15
ENDBRANCH  12  13
BRANCH  12  17
ATOM     17  C   UNL     1      51.200  19.863  -5.090  1.00  0.00    -0.006 C 
ATOM     18  C   UNL     1      51.563  21.340  -4.872  1.00  0.00     0.008 C 
ATOM     19  C   UNL     1      51.258  19.520  -6.590  1.00  0.00     0.008 C 
ENDBRANCH  12  17
ENDBRANCH  11  12
ENDBRANCH   1  11
TORSDOF 1
ENDMDL
MODEL 8
REMARK VINA RESULT:    -2.887      1.637      3.752
REMARK INTER + INTRA:          -4.700
REMARK INTER:                  -4.495
REMARK INTRA:                  -0.205
REMARK UNBOUND:                -0.294
REMARK SMILES CC1=CCC[C@@H](C)C(=O)C[C@H](C(C)C)C(=O)C1
REMARK SMILES IDX 8 1 9 2 6 3 7 4 5 5 4 6 3 7 2 8 1 9 10 11 11 12 15 13 16 14
REMARK SMILES IDX 17 15 12 17 13 18 14 19
REMARK H PARENT
REMARK Flexibility Score: 70.00
ROOT
ATOM      1  C   UNL     1      52.536  18.323  -1.795  1.00  0.00     0.136 C 
ATOM      2  O   UNL     1      53.406  17.845  -1.079  1.00  0.00    -0.299 OA
ENDROOT
BRANCH   1   3
ATOM      3  C   UNL     1      51.088  17.899  -1.625  1.00  0.00     0.053 C 
ATOM      4  C   UNL     1      50.786  16.554  -2.306  1.00  0.00     0.016 C 
BRANCH   3   5
ATOM      5  C   UNL     1      50.118  19.001  -2.097  1.00  0.00     0.015 C 
BRANCH   5   6
ATOM      6  C   UNL     1      49.548  18.766  -3.509  1.00  0.00     0.028 C 
BRANCH   6   7
ATOM      7  C   UNL     1      49.443  20.066  -4.265  1.00  0.00    -0.028 C 
ATOM      8  C   UNL     1      50.211  20.403  -5.327  1.00  0.00    -0.070 CG0
ATOM      9  C   UNL     1      50.024  21.772  -5.929  1.00  0.00     0.039 C 
ATOM     10  G   UNL     1      51.233  19.460  -5.944  1.00  0.00     0.000 G0
ENDBRANCH   6   7
ENDBRANCH   5   6
ENDBRANCH   3   5
ENDBRANCH   1   3
BRANCH   1  11
ATOM     11  C   UNL     1      52.931  19.331  -2.847  1.00  0.00     0.087 C 
BRANCH  11  12
ATOM     12  C   UNL     1      53.087  18.684  -4.249  1.00  0.00     0.066 C 
BRANCH  12  13
ATOM     13  C   UNL     1      52.610  19.620  -5.350  1.00  0.00     0.140 C 
ATOM     14  O   UNL     1      53.364  20.476  -5.791  1.00  0.00    -0.299 OA
BRANCH  13  15
ATOM     15  C   UNL     1      51.236  19.464  -5.958  1.00  0.00     0.106 CG0
ATOM     16  G   UNL     1      50.212  20.399  -5.331  1.00  0.00     0.000 G0
ENDBRANCH  13  15
ENDBRANCH  12  13
BRANCH  12  17
ATOM     17  C   UNL     1      54.537  18.163  -4.492  1.00  0.00    -0.006 C 
ATOM     18  C   UNL     1      55.574  19.014  -3.742  1.00  0.00     0.008 C 
ATOM     19  C   UNL     1      54.737  16.673  -4.161  1.00  0.00     0.008 C 
ENDBRANCH  12  17
ENDBRANCH  11  12
ENDBRANCH   1  11
TORSDOF 1
ENDMDL
MODEL 9
REMARK VINA RESULT:    -2.868      2.661      5.321
REMARK INTER + INTRA:          -4.671
REMARK INTER:                  -4.582
REMARK INTRA:                  -0.089
REMARK UNBOUND:                -0.294
REMARK SMILES CC1=CCC[C@@H](C)C(=O)C[C@H](C(C)C)C(=O)C1
REMARK SMILES IDX 8 1 9 2 6 3 7 4 5 5 4 6 3 7 2 8 1 9 10 11 11 12 15 13 16 14
REMARK SMILES IDX 17 15 12 17 13 18 14 19
REMARK H PARENT
REMARK Flexibility Score: 70.00
ROOT
ATOM      1  C   UNL     1      52.730  17.337  -1.559  1.00  0.00     0.136 C 
ATOM      2  O   UNL     1      52.189  16.318  -1.152  1.00  0.00    -0.299 OA
ENDROOT
BRANCH   1   3
ATOM      3  C   UNL     1      54.219  17.548  -1.350  1.00  0.00     0.053 C 
ATOM      4  C   UNL     1      54.724  18.850  -1.991  1.00  0.00     0.016 C 
BRANCH   3   5
ATOM      5  C   UNL     1      55.034  16.329  -1.829  1.00  0.00     0.015 C 
BRANCH   5   6
ATOM      6  C   UNL     1      55.089  16.181  -3.362  1.00  0.00     0.028 C 
BRANCH   6   7
ATOM      7  C   UNL     1      54.223  15.035  -3.818  1.00  0.00    -0.028 C 
ATOM      8  C   UNL     1      53.175  15.152  -4.667  1.00  0.00    -0.070 CG0
ATOM      9  C   UNL     1      52.369  13.915  -4.970  1.00  0.00     0.039 C 
ATOM     10  G   UNL     1      52.793  16.464  -5.336  1.00  0.00     0.000 G0
ENDBRANCH   6   7
ENDBRANCH   5   6
ENDBRANCH   3   5
ENDBRANCH   1   3
BRANCH   1  11
ATOM     11  C   UNL     1      51.891  18.376  -2.264  1.00  0.00     0.087 C 
BRANCH  11  12
ATOM     12  C   UNL     1      52.251  18.498  -3.768  1.00  0.00     0.066 C 
BRANCH  12  13
ATOM     13  C   UNL     1      51.796  17.273  -4.550  1.00  0.00     0.140 C 
ATOM     14  O   UNL     1      50.612  16.970  -4.572  1.00  0.00    -0.299 OA
BRANCH  13  15
ATOM     15  C   UNL     1      52.780  16.462  -5.359  1.00  0.00     0.106 CG0
ATOM     16  G   UNL     1      53.172  15.164  -4.668  1.00  0.00     0.000 G0
ENDBRANCH  13  15
ENDBRANCH  12  13
BRANCH  12  17
ATOM     17  C   UNL     1      51.729  19.831  -4.387  1.00  0.00    -0.006 C 
ATOM     18  C   UNL     1      51.639  20.944  -3.331  1.00  0.00     0.008 C 
ATOM     19  C   UNL     1      52.534  20.321  -5.604  1.00  0.00     0.008 C 
ENDBRANCH  12  17
ENDBRANCH  11  12
ENDBRANCH   1  11
TORSDOF 1
ENDMDL
