MODEL 1
REMARK VINA RESULT:    -6.999      0.000      0.000
REMARK INTER + INTRA:          -8.065
REMARK INTER:                  -8.226
REMARK INTRA:                   0.161
REMARK UNBOUND:                 0.161
REMARK SMILES CC1(C)CC[C@]2(C(=O)[O-])CC[C@@]3(C)C(=CC[C@@H]4[C@]5(C)CC[C@H](O)[C@@](C)(CO)[C@@H]5CC[C@]43C)[C@H]2C1
REMARK SMILES IDX 6 1 5 2 10 3 33 4 4 5 11 6 14 7 34 8 2 9 12 10 15 11 1 12
REMARK SMILES IDX 3 13 13 14 31 15 16 16 17 17 30 18 32 19 18 20 29 21 28 22
REMARK SMILES IDX 20 23 19 24 24 25 21 26 22 27 25 28 7 29 8 30 9 31 26 32
REMARK SMILES IDX 27 33 23 35
REMARK H PARENT 27 34 23 36
REMARK Flexibility Score: inf
ROOT
ATOM      1  C   UNL     1       8.153 -37.340  46.009  1.00  0.00     0.017 C 
ATOM      2  C   UNL     1       9.461 -38.017  45.512  1.00  0.00     0.014 C 
ATOM      3  C   UNL     1       7.131 -38.452  46.439  1.00  0.00     0.014 C 
ATOM      4  C   UNL     1       7.577 -36.527  44.804  1.00  0.00     0.028 C 
ATOM      5  C   UNL     1      10.503 -36.985  45.032  1.00  0.00     0.007 C 
ATOM      6  C   UNL     1       5.619 -38.153  46.208  1.00  0.00     0.013 C 
ATOM      7  C   UNL     1       6.107 -36.071  44.943  1.00  0.00    -0.064 C 
ATOM      8  C   UNL     1       8.579 -35.446  44.291  1.00  0.00     0.015 C 
ATOM      9  C   UNL     1       9.973 -36.040  43.918  1.00  0.00    -0.035 C 
ATOM     10  C   UNL     1       5.226 -36.642  46.104  1.00  0.00    -0.006 C 
ATOM     11  C   UNL     1       5.542 -35.597  43.787  1.00  0.00    -0.027 C 
ATOM     12  C   UNL     1       9.900 -36.798  42.569  1.00  0.00     0.011 C 
ATOM     13  C   UNL     1      10.972 -34.875  43.745  1.00  0.00     0.011 C 
ATOM     14  C   UNL     1       5.567 -35.970  47.479  1.00  0.00     0.017 C 
ATOM     15  C   UNL     1       3.652 -36.398  45.801  1.00  0.00    -0.020 C 
ATOM     16  C   UNL     1       4.078 -35.676  43.423  1.00  0.00     0.032 C 
ATOM     17  C   UNL     1       3.369 -36.730  44.292  1.00  0.00     0.006 C 
ATOM     18  C   UNL     1       2.702 -37.271  46.694  1.00  0.00     0.008 C 
ATOM     19  C   UNL     1       3.342 -34.875  46.106  1.00  0.00     0.012 C 
ATOM     20  C   UNL     1       1.872 -37.131  43.903  1.00  0.00    -0.025 C 
ATOM     21  C   UNL     1       2.277 -38.595  46.045  1.00  0.00     0.005 C 
ATOM     22  C   UNL     1       1.445 -38.439  44.718  1.00  0.00     0.006 C 
ATOM     23  C   UNL     1       0.878 -35.967  44.162  1.00  0.00     0.010 C 
ATOM     24  C   UNL     1       1.872 -37.445  42.374  1.00  0.00     0.012 C 
ATOM     25  C   UNL     1      -0.139 -38.745  44.833  1.00  0.00     0.020 C 
ATOM     26  C   UNL     1      -0.585 -36.358  43.975  1.00  0.00     0.033 C 
ATOM     27  C   UNL     1      -0.985 -37.439  44.988  1.00  0.00     0.123 C 
ATOM     28  C   UNL     1      -0.490 -39.678  46.031  1.00  0.00     0.017 C 
ENDROOT
BRANCH   1  29
ATOM     29  C   UNL     1       8.549 -36.509  47.233  1.00  0.00     0.048 C 
ATOM     30  O   UNL     1       8.673 -35.257  47.183  1.00  0.00    -0.550 OA
ATOM     31  O   UNL     1       8.821 -37.149  48.437  1.00  0.00    -0.550 OA
ENDBRANCH   1  29
BRANCH  25  32
ATOM     32  C   UNL     1      -0.675 -39.521  43.576  1.00  0.00     0.165 C 
BRANCH  32  33
ATOM     33  O   UNL     1       0.287 -40.412  43.070  1.00  0.00    -0.396 OA
ATOM     34  H   UNL     1       1.142 -39.914  42.992  1.00  0.00     0.210 HD
ENDBRANCH  32  33
ENDBRANCH  25  32
BRANCH  27  35
ATOM     35  O   UNL     1      -0.856 -36.909  46.288  1.00  0.00    -0.392 OA
ATOM     36  H   UNL     1      -0.383 -37.581  46.844  1.00  0.00     0.210 HD
ENDBRANCH  27  35
TORSDOF 4
ENDMDL
MODEL 2
REMARK VINA RESULT:    -6.030      2.167      8.414
REMARK INTER + INTRA:          -6.927
REMARK INTER:                  -7.124
REMARK INTRA:                   0.197
REMARK UNBOUND:                 0.161
REMARK SMILES CC1(C)CC[C@]2(C(=O)[O-])CC[C@@]3(C)C(=CC[C@@H]4[C@]5(C)CC[C@H](O)[C@@](C)(CO)[C@@H]5CC[C@]43C)[C@H]2C1
REMARK SMILES IDX 6 1 5 2 10 3 33 4 4 5 11 6 14 7 34 8 2 9 12 10 15 11 1 12
REMARK SMILES IDX 3 13 13 14 31 15 16 16 17 17 30 18 32 19 18 20 29 21 28 22
REMARK SMILES IDX 20 23 19 24 24 25 21 26 22 27 25 28 7 29 8 30 9 31 26 32
REMARK SMILES IDX 27 33 23 35
REMARK H PARENT 27 34 23 36
REMARK Flexibility Score: inf
ROOT
ATOM      1  C   UNL     1       1.541 -39.230  43.792  1.00  0.00     0.017 C 
ATOM      2  C   UNL     1       1.036 -39.630  42.376  1.00  0.00     0.014 C 
ATOM      3  C   UNL     1       2.553 -38.038  43.658  1.00  0.00     0.014 C 
ATOM      4  C   UNL     1       2.269 -40.481  44.383  1.00  0.00     0.028 C 
ATOM      5  C   UNL     1       0.064 -40.827  42.422  1.00  0.00     0.007 C 
ATOM      6  C   UNL     1       3.725 -37.985  44.684  1.00  0.00     0.013 C 
ATOM      7  C   UNL     1       3.163 -40.218  45.615  1.00  0.00    -0.064 C 
ATOM      8  C   UNL     1       1.325 -41.721  44.479  1.00  0.00     0.015 C 
ATOM      9  C   UNL     1       0.660 -42.084  43.115  1.00  0.00    -0.035 C 
ATOM     10  C   UNL     1       3.493 -38.746  46.031  1.00  0.00    -0.006 C 
ATOM     11  C   UNL     1       3.989 -41.257  45.956  1.00  0.00    -0.027 C 
ATOM     12  C   UNL     1       1.681 -42.774  42.176  1.00  0.00     0.011 C 
ATOM     13  C   UNL     1      -0.484 -43.088  43.379  1.00  0.00     0.011 C 
ATOM     14  C   UNL     1       2.284 -38.061  46.758  1.00  0.00     0.017 C 
ATOM     15  C   UNL     1       4.769 -38.706  47.031  1.00  0.00    -0.020 C 
ATOM     16  C   UNL     1       5.337 -41.130  46.628  1.00  0.00     0.032 C 
ATOM     17  C   UNL     1       5.867 -39.692  46.490  1.00  0.00     0.006 C 
ATOM     18  C   UNL     1       5.403 -37.279  47.176  1.00  0.00     0.008 C 
ATOM     19  C   UNL     1       4.265 -39.163  48.461  1.00  0.00     0.012 C 
ATOM     20  C   UNL     1       7.378 -39.410  46.926  1.00  0.00    -0.025 C 
ATOM     21  C   UNL     1       6.572 -37.013  46.216  1.00  0.00     0.005 C 
ATOM     22  C   UNL     1       7.814 -37.958  46.417  1.00  0.00     0.006 C 
ATOM     23  C   UNL     1       7.567 -39.538  48.462  1.00  0.00     0.010 C 
ATOM     24  C   UNL     1       8.258 -40.494  46.231  1.00  0.00     0.012 C 
ATOM     25  C   UNL     1       9.106 -37.291  47.127  1.00  0.00     0.020 C 
ATOM     26  C   UNL     1       8.947 -39.105  48.948  1.00  0.00     0.033 C 
ATOM     27  C   UNL     1       9.176 -37.617  48.655  1.00  0.00     0.123 C 
ATOM     28  C   UNL     1       9.147 -35.740  46.974  1.00  0.00     0.017 C 
ENDROOT
BRANCH   1  29
ATOM     29  C   UNL     1       0.302 -38.765  44.563  1.00  0.00     0.048 C 
ATOM     30  O   UNL     1      -0.273 -39.495  45.412  1.00  0.00    -0.550 OA
ATOM     31  O   UNL     1      -0.238 -37.511  44.300  1.00  0.00    -0.550 OA
ENDBRANCH   1  29
BRANCH  25  32
ATOM     32  C   UNL     1      10.447 -37.776  46.468  1.00  0.00     0.165 C 
BRANCH  32  33
ATOM     33  O   UNL     1      11.564 -37.403  47.234  1.00  0.00    -0.396 OA
ATOM     34  H   UNL     1      11.406 -36.479  47.559  1.00  0.00     0.210 HD
ENDBRANCH  32  33
ENDBRANCH  25  32
BRANCH  27  35
ATOM     35  O   UNL     1       8.224 -36.864  49.373  1.00  0.00    -0.392 OA
ATOM     36  H   UNL     1       7.382 -36.862  48.850  1.00  0.00     0.210 HD
ENDBRANCH  27  35
TORSDOF 4
ENDMDL
MODEL 3
REMARK VINA RESULT:    -6.014      3.384      8.677
REMARK INTER + INTRA:          -6.908
REMARK INTER:                  -7.054
REMARK INTRA:                   0.146
REMARK UNBOUND:                 0.161
REMARK SMILES CC1(C)CC[C@]2(C(=O)[O-])CC[C@@]3(C)C(=CC[C@@H]4[C@]5(C)CC[C@H](O)[C@@](C)(CO)[C@@H]5CC[C@]43C)[C@H]2C1
REMARK SMILES IDX 6 1 5 2 10 3 33 4 4 5 11 6 14 7 34 8 2 9 12 10 15 11 1 12
REMARK SMILES IDX 3 13 13 14 31 15 16 16 17 17 30 18 32 19 18 20 29 21 28 22
REMARK SMILES IDX 20 23 19 24 24 25 21 26 22 27 25 28 7 29 8 30 9 31 26 32
REMARK SMILES IDX 27 33 23 35
REMARK H PARENT 27 34 23 36
REMARK Flexibility Score: inf
ROOT
ATOM      1  C   UNL     1       2.796 -40.847  47.717  1.00  0.00     0.017 C 
ATOM      2  C   UNL     1       1.671 -41.599  46.952  1.00  0.00     0.014 C 
ATOM      3  C   UNL     1       3.075 -39.478  47.003  1.00  0.00     0.014 C 
ATOM      4  C   UNL     1       4.071 -41.751  47.650  1.00  0.00     0.028 C 
ATOM      5  C   UNL     1       1.367 -42.978  47.573  1.00  0.00     0.007 C 
ATOM      6  C   UNL     1       4.542 -38.952  47.027  1.00  0.00     0.013 C 
ATOM      7  C   UNL     1       5.403 -41.061  48.018  1.00  0.00    -0.064 C 
ATOM      8  C   UNL     1       3.832 -43.154  48.290  1.00  0.00     0.015 C 
ATOM      9  C   UNL     1       2.612 -43.904  47.669  1.00  0.00    -0.035 C 
ATOM     10  C   UNL     1       5.451 -39.504  48.175  1.00  0.00    -0.006 C 
ATOM     11  C   UNL     1       6.527 -41.780  47.705  1.00  0.00    -0.027 C 
ATOM     12  C   UNL     1       2.968 -44.461  46.268  1.00  0.00     0.011 C 
ATOM     13  C   UNL     1       2.263 -45.106  48.574  1.00  0.00     0.011 C 
ATOM     14  C   UNL     1       4.828 -39.035  49.536  1.00  0.00     0.017 C 
ATOM     15  C   UNL     1       6.981 -38.969  48.110  1.00  0.00    -0.020 C 
ATOM     16  C   UNL     1       7.876 -41.200  47.347  1.00  0.00     0.032 C 
ATOM     17  C   UNL     1       7.731 -39.720  46.952  1.00  0.00     0.006 C 
ATOM     18  C   UNL     1       7.091 -37.424  47.862  1.00  0.00     0.008 C 
ATOM     19  C   UNL     1       7.652 -39.286  49.508  1.00  0.00     0.012 C 
ATOM     20  C   UNL     1       9.002 -38.991  46.315  1.00  0.00    -0.025 C 
ATOM     21  C   UNL     1       7.248 -37.038  46.384  1.00  0.00     0.005 C 
ATOM     22  C   UNL     1       8.554 -37.585  45.698  1.00  0.00     0.006 C 
ATOM     23  C   UNL     1      10.138 -38.801  47.357  1.00  0.00     0.010 C 
ATOM     24  C   UNL     1       9.531 -39.917  45.177  1.00  0.00     0.012 C 
ATOM     25  C   UNL     1       9.722 -36.499  45.426  1.00  0.00     0.020 C 
ATOM     26  C   UNL     1      11.301 -37.954  46.848  1.00  0.00     0.033 C 
ATOM     27  C   UNL     1      10.827 -36.530  46.531  1.00  0.00     0.123 C 
ATOM     28  C   UNL     1       9.182 -35.040  45.339  1.00  0.00     0.017 C 
ENDROOT
BRANCH   1  29
ATOM     29  C   UNL     1       2.248 -40.588  49.123  1.00  0.00     0.048 C 
ATOM     30  O   UNL     1       2.593 -41.281  50.117  1.00  0.00    -0.550 OA
ATOM     31  O   UNL     1       1.309 -39.582  49.318  1.00  0.00    -0.550 OA
ENDBRANCH   1  29
BRANCH  25  32
ATOM     32  C   UNL     1      10.420 -36.732  44.037  1.00  0.00     0.165 C 
BRANCH  32  33
ATOM     33  O   UNL     1       9.501 -37.149  43.060  1.00  0.00    -0.396 OA
ATOM     34  H   UNL     1       9.994 -37.715  42.411  1.00  0.00     0.210 HD
ENDBRANCH  32  33
ENDBRANCH  25  32
BRANCH  27  35
ATOM     35  O   UNL     1      10.363 -35.932  47.721  1.00  0.00    -0.392 OA
ATOM     36  H   UNL     1      10.695 -36.474  48.482  1.00  0.00     0.210 HD
ENDBRANCH  27  35
TORSDOF 4
ENDMDL
MODEL 4
REMARK VINA RESULT:    -6.013      2.232      3.378
REMARK INTER + INTRA:          -6.906
REMARK INTER:                  -7.164
REMARK INTRA:                   0.258
REMARK UNBOUND:                 0.161
REMARK SMILES CC1(C)CC[C@]2(C(=O)[O-])CC[C@@]3(C)C(=CC[C@@H]4[C@]5(C)CC[C@H](O)[C@@](C)(CO)[C@@H]5CC[C@]43C)[C@H]2C1
REMARK SMILES IDX 6 1 5 2 10 3 33 4 4 5 11 6 14 7 34 8 2 9 12 10 15 11 1 12
REMARK SMILES IDX 3 13 13 14 31 15 16 16 17 17 30 18 32 19 18 20 29 21 28 22
REMARK SMILES IDX 20 23 19 24 24 25 21 26 22 27 25 28 7 29 8 30 9 31 26 32
REMARK SMILES IDX 27 33 23 35
REMARK H PARENT 27 34 23 36
REMARK Flexibility Score: inf
ROOT
ATOM      1  C   UNL     1       7.062 -38.896  47.682  1.00  0.00     0.017 C 
ATOM      2  C   UNL     1       8.585 -38.694  47.444  1.00  0.00     0.014 C 
ATOM      3  C   UNL     1       6.621 -40.266  47.056  1.00  0.00     0.014 C 
ATOM      4  C   UNL     1       6.330 -37.720  46.956  1.00  0.00     0.028 C 
ATOM      5  C   UNL     1       9.086 -37.345  47.998  1.00  0.00     0.007 C 
ATOM      6  C   UNL     1       5.182 -40.344  46.462  1.00  0.00     0.013 C 
ATOM      7  C   UNL     1       4.811 -37.904  46.744  1.00  0.00    -0.064 C 
ATOM      8  C   UNL     1       6.778 -36.325  47.495  1.00  0.00     0.015 C 
ATOM      9  C   UNL     1       8.323 -36.117  47.427  1.00  0.00    -0.035 C 
ATOM     10  C   UNL     1       4.155 -39.299  47.012  1.00  0.00    -0.006 C 
ATOM     11  C   UNL     1       4.239 -37.001  45.885  1.00  0.00    -0.027 C 
ATOM     12  C   UNL     1       8.774 -35.842  45.970  1.00  0.00     0.011 C 
ATOM     13  C   UNL     1       8.688 -34.876  48.270  1.00  0.00     0.011 C 
ATOM     14  C   UNL     1       3.977 -39.575  48.545  1.00  0.00     0.017 C 
ATOM     15  C   UNL     1       2.695 -39.390  46.311  1.00  0.00    -0.020 C 
ATOM     16  C   UNL     1       3.032 -37.254  45.013  1.00  0.00     0.032 C 
ATOM     17  C   UNL     1       2.785 -38.767  44.871  1.00  0.00     0.006 C 
ATOM     18  C   UNL     1       2.151 -40.856  46.192  1.00  0.00     0.008 C 
ATOM     19  C   UNL     1       1.686 -38.568  47.213  1.00  0.00     0.012 C 
ATOM     20  C   UNL     1       1.701 -39.248  43.801  1.00  0.00    -0.025 C 
ATOM     21  C   UNL     1       2.465 -41.532  44.849  1.00  0.00     0.005 C 
ATOM     22  C   UNL     1       1.825 -40.829  43.594  1.00  0.00     0.006 C 
ATOM     23  C   UNL     1       0.259 -38.857  44.226  1.00  0.00     0.010 C 
ATOM     24  C   UNL     1       2.033 -38.518  42.463  1.00  0.00     0.012 C 
ATOM     25  C   UNL     1       0.558 -41.582  42.928  1.00  0.00     0.020 C 
ATOM     26  C   UNL     1      -0.825 -39.448  43.329  1.00  0.00     0.033 C 
ATOM     27  C   UNL     1      -0.805 -40.979  43.402  1.00  0.00     0.123 C 
ATOM     28  C   UNL     1       0.530 -43.110  43.239  1.00  0.00     0.017 C 
ENDROOT
BRANCH   1  29
ATOM     29  C   UNL     1       6.877 -38.945  49.202  1.00  0.00     0.048 C 
ATOM     30  O   UNL     1       7.155 -39.970  49.879  1.00  0.00    -0.550 OA
ATOM     31  O   UNL     1       6.352 -37.842  49.865  1.00  0.00    -0.550 OA
ENDBRANCH   1  29
BRANCH  25  32
ATOM     32  C   UNL     1       0.598 -41.512  41.359  1.00  0.00     0.165 C 
BRANCH  32  33
ATOM     33  O   UNL     1       1.498 -42.449  40.823  1.00  0.00    -0.396 OA
ATOM     34  H   UNL     1       1.344 -42.482  39.844  1.00  0.00     0.210 HD
ENDBRANCH  32  33
ENDBRANCH  25  32
BRANCH  27  35
ATOM     35  O   UNL     1      -1.095 -41.373  44.725  1.00  0.00    -0.392 OA
ATOM     36  H   UNL     1      -0.376 -41.021  45.310  1.00  0.00     0.210 HD
ENDBRANCH  27  35
TORSDOF 4
ENDMDL
MODEL 5
REMARK VINA RESULT:    -5.799      4.236      8.944
REMARK INTER + INTRA:          -6.654
REMARK INTER:                  -6.795
REMARK INTRA:                   0.141
REMARK UNBOUND:                 0.161
REMARK SMILES CC1(C)CC[C@]2(C(=O)[O-])CC[C@@]3(C)C(=CC[C@@H]4[C@]5(C)CC[C@H](O)[C@@](C)(CO)[C@@H]5CC[C@]43C)[C@H]2C1
REMARK SMILES IDX 6 1 5 2 10 3 33 4 4 5 11 6 14 7 34 8 2 9 12 10 15 11 1 12
REMARK SMILES IDX 3 13 13 14 31 15 16 16 17 17 30 18 32 19 18 20 29 21 28 22
REMARK SMILES IDX 20 23 19 24 24 25 21 26 22 27 25 28 7 29 8 30 9 31 26 32
REMARK SMILES IDX 27 33 23 35
REMARK H PARENT 27 34 23 36
REMARK Flexibility Score: inf
ROOT
ATOM      1  C   UNL     1       2.049 -43.289  44.925  1.00  0.00     0.017 C 
ATOM      2  C   UNL     1       1.796 -44.169  43.669  1.00  0.00     0.014 C 
ATOM      3  C   UNL     1       2.338 -41.815  44.469  1.00  0.00     0.014 C 
ATOM      4  C   UNL     1       3.306 -43.878  45.645  1.00  0.00     0.028 C 
ATOM      5  C   UNL     1       1.543 -45.646  44.036  1.00  0.00     0.007 C 
ATOM      6  C   UNL     1       3.339 -40.989  45.332  1.00  0.00     0.013 C 
ATOM      7  C   UNL     1       3.963 -42.964  46.704  1.00  0.00    -0.064 C 
ATOM      8  C   UNL     1       3.099 -45.367  46.066  1.00  0.00     0.015 C 
ATOM      9  C   UNL     1       2.689 -46.283  44.871  1.00  0.00    -0.035 C 
ATOM     10  C   UNL     1       3.525 -41.465  46.810  1.00  0.00    -0.006 C 
ATOM     11  C   UNL     1       5.199 -43.378  47.130  1.00  0.00    -0.027 C 
ATOM     12  C   UNL     1       3.909 -46.575  43.963  1.00  0.00     0.011 C 
ATOM     13  C   UNL     1       2.194 -47.633  45.436  1.00  0.00     0.011 C 
ATOM     14  C   UNL     1       2.142 -41.312  47.534  1.00  0.00     0.017 C 
ATOM     15  C   UNL     1       4.624 -40.606  47.638  1.00  0.00    -0.020 C 
ATOM     16  C   UNL     1       6.313 -42.479  47.614  1.00  0.00     0.032 C 
ATOM     17  C   UNL     1       6.061 -41.029  47.163  1.00  0.00     0.006 C 
ATOM     18  C   UNL     1       4.470 -39.056  47.455  1.00  0.00     0.008 C 
ATOM     19  C   UNL     1       4.424 -40.937  49.174  1.00  0.00     0.012 C 
ATOM     20  C   UNL     1       7.238 -39.969  47.371  1.00  0.00    -0.025 C 
ATOM     21  C   UNL     1       5.346 -38.468  46.339  1.00  0.00     0.005 C 
ATOM     22  C   UNL     1       6.895 -38.631  46.565  1.00  0.00     0.006 C 
ATOM     23  C   UNL     1       7.479 -39.664  48.874  1.00  0.00     0.010 C 
ATOM     24  C   UNL     1       8.533 -40.613  46.787  1.00  0.00     0.012 C 
ATOM     25  C   UNL     1       7.694 -37.292  46.996  1.00  0.00     0.020 C 
ATOM     26  C   UNL     1       8.469 -38.529  49.118  1.00  0.00     0.033 C 
ATOM     27  C   UNL     1       7.929 -37.214  48.540  1.00  0.00     0.123 C 
ATOM     28  C   UNL     1       6.961 -35.985  46.566  1.00  0.00     0.017 C 
ENDROOT
BRANCH   1  29
ATOM     29  C   UNL     1       0.749 -43.328  45.735  1.00  0.00     0.048 C 
ATOM     30  O   UNL     1       0.619 -44.046  46.761  1.00  0.00    -0.550 OA
ATOM     31  O   UNL     1      -0.343 -42.579  45.312  1.00  0.00    -0.550 OA
ENDBRANCH   1  29
BRANCH  25  32
ATOM     32  C   UNL     1       9.093 -37.196  46.289  1.00  0.00     0.165 C 
BRANCH  32  33
ATOM     33  O   UNL     1       9.022 -37.601  44.945  1.00  0.00    -0.396 OA
ATOM     34  H   UNL     1       9.519 -36.933  44.406  1.00  0.00     0.210 HD
ENDBRANCH  32  33
ENDBRANCH  25  32
BRANCH  27  35
ATOM     35  O   UNL     1       6.736 -36.881  49.214  1.00  0.00    -0.392 OA
ATOM     36  H   UNL     1       5.982 -37.290  48.715  1.00  0.00     0.210 HD
ENDBRANCH  27  35
TORSDOF 4
ENDMDL
MODEL 6
REMARK VINA RESULT:    -5.686      5.053      8.849
REMARK INTER + INTRA:          -6.522
REMARK INTER:                  -6.750
REMARK INTRA:                   0.228
REMARK UNBOUND:                 0.161
REMARK SMILES CC1(C)CC[C@]2(C(=O)[O-])CC[C@@]3(C)C(=CC[C@@H]4[C@]5(C)CC[C@H](O)[C@@](C)(CO)[C@@H]5CC[C@]43C)[C@H]2C1
REMARK SMILES IDX 6 1 5 2 10 3 33 4 4 5 11 6 14 7 34 8 2 9 12 10 15 11 1 12
REMARK SMILES IDX 3 13 13 14 31 15 16 16 17 17 30 18 32 19 18 20 29 21 28 22
REMARK SMILES IDX 20 23 19 24 24 25 21 26 22 27 25 28 7 29 8 30 9 31 26 32
REMARK SMILES IDX 27 33 23 35
REMARK H PARENT 27 34 23 36
REMARK Flexibility Score: inf
ROOT
ATOM      1  C   UNL     1       1.873 -45.358  42.531  1.00  0.00     0.017 C 
ATOM      2  C   UNL     1       2.799 -46.413  41.863  1.00  0.00     0.014 C 
ATOM      3  C   UNL     1       1.878 -44.048  41.666  1.00  0.00     0.014 C 
ATOM      4  C   UNL     1       2.469 -45.062  43.946  1.00  0.00     0.028 C 
ATOM      5  C   UNL     1       2.877 -47.719  42.681  1.00  0.00     0.007 C 
ATOM      6  C   UNL     1       1.739 -42.695  42.426  1.00  0.00     0.013 C 
ATOM      7  C   UNL     1       1.938 -43.792  44.647  1.00  0.00    -0.064 C 
ATOM      8  C   UNL     1       2.548 -46.345  44.832  1.00  0.00     0.015 C 
ATOM      9  C   UNL     1       3.339 -47.505  44.149  1.00  0.00    -0.035 C 
ATOM     10  C   UNL     1       1.072 -42.769  43.840  1.00  0.00    -0.006 C 
ATOM     11  C   UNL     1       2.652 -43.406  45.752  1.00  0.00    -0.027 C 
ATOM     12  C   UNL     1       4.862 -47.227  44.192  1.00  0.00     0.011 C 
ATOM     13  C   UNL     1       3.080 -48.806  44.940  1.00  0.00     0.011 C 
ATOM     14  C   UNL     1      -0.399 -43.278  43.642  1.00  0.00     0.017 C 
ATOM     15  C   UNL     1       1.011 -41.340  44.607  1.00  0.00    -0.020 C 
ATOM     16  C   UNL     1       2.810 -41.989  46.250  1.00  0.00     0.032 C 
ATOM     17  C   UNL     1       2.447 -40.989  45.138  1.00  0.00     0.006 C 
ATOM     18  C   UNL     1       0.510 -40.165  43.697  1.00  0.00     0.008 C 
ATOM     19  C   UNL     1      -0.007 -41.493  45.810  1.00  0.00     0.012 C 
ATOM     20  C   UNL     1       2.774 -39.446  45.387  1.00  0.00    -0.025 C 
ATOM     21  C   UNL     1       1.639 -39.374  43.021  1.00  0.00     0.005 C 
ATOM     22  C   UNL     1       2.614 -38.641  44.014  1.00  0.00     0.006 C 
ATOM     23  C   UNL     1       1.871 -38.838  46.494  1.00  0.00     0.010 C 
ATOM     24  C   UNL     1       4.257 -39.370  45.868  1.00  0.00     0.012 C 
ATOM     25  C   UNL     1       2.444 -37.036  44.123  1.00  0.00     0.020 C 
ATOM     26  C   UNL     1       2.020 -37.327  46.646  1.00  0.00     0.033 C 
ATOM     27  C   UNL     1       1.586 -36.614  45.359  1.00  0.00     0.123 C 
ATOM     28  C   UNL     1       1.785 -36.411  42.856  1.00  0.00     0.017 C 
ENDROOT
BRANCH   1  29
ATOM     29  C   UNL     1       0.468 -45.969  42.525  1.00  0.00     0.048 C 
ATOM     30  O   UNL     1      -0.045 -46.483  43.554  1.00  0.00    -0.550 OA
ATOM     31  O   UNL     1      -0.262 -45.996  41.342  1.00  0.00    -0.550 OA
ENDBRANCH   1  29
BRANCH  25  32
ATOM     32  C   UNL     1       3.833 -36.309  44.228  1.00  0.00     0.165 C 
BRANCH  32  33
ATOM     33  O   UNL     1       4.143 -35.614  43.047  1.00  0.00    -0.396 OA
ATOM     34  H   UNL     1       4.944 -36.045  42.650  1.00  0.00     0.210 HD
ENDBRANCH  32  33
ENDBRANCH  25  32
BRANCH  27  35
ATOM     35  O   UNL     1       0.219 -36.879  45.135  1.00  0.00    -0.392 OA
ATOM     36  H   UNL     1       0.125 -37.230  44.212  1.00  0.00     0.210 HD
ENDBRANCH  27  35
TORSDOF 4
ENDMDL
MODEL 7
REMARK VINA RESULT:    -5.428      6.020      9.495
REMARK INTER + INTRA:          -6.219
REMARK INTER:                  -6.428
REMARK INTRA:                   0.209
REMARK UNBOUND:                 0.161
REMARK SMILES CC1(C)CC[C@]2(C(=O)[O-])CC[C@@]3(C)C(=CC[C@@H]4[C@]5(C)CC[C@H](O)[C@@](C)(CO)[C@@H]5CC[C@]43C)[C@H]2C1
REMARK SMILES IDX 6 1 5 2 10 3 33 4 4 5 11 6 14 7 34 8 2 9 12 10 15 11 1 12
REMARK SMILES IDX 3 13 13 14 31 15 16 16 17 17 30 18 32 19 18 20 29 21 28 22
REMARK SMILES IDX 20 23 19 24 24 25 21 26 22 27 25 28 7 29 8 30 9 31 26 32
REMARK SMILES IDX 27 33 23 35
REMARK H PARENT 27 34 23 36
REMARK Flexibility Score: inf
ROOT
ATOM      1  C   UNL     1       1.397 -40.596  45.080  1.00  0.00     0.017 C 
ATOM      2  C   UNL     1       2.197 -39.294  45.364  1.00  0.00     0.014 C 
ATOM      3  C   UNL     1       2.321 -41.835  45.351  1.00  0.00     0.014 C 
ATOM      4  C   UNL     1       0.988 -40.557  43.572  1.00  0.00     0.028 C 
ATOM      5  C   UNL     1       1.363 -38.026  45.081  1.00  0.00     0.007 C 
ATOM      6  C   UNL     1       2.103 -43.092  44.454  1.00  0.00     0.013 C 
ATOM      7  C   UNL     1       0.507 -41.898  42.972  1.00  0.00    -0.064 C 
ATOM      8  C   UNL     1       0.117 -39.307  43.229  1.00  0.00     0.015 C 
ATOM      9  C   UNL     1       0.801 -37.964  43.633  1.00  0.00    -0.035 C 
ATOM     10  C   UNL     1       0.694 -43.221  43.786  1.00  0.00    -0.006 C 
ATOM     11  C   UNL     1       0.406 -41.910  41.604  1.00  0.00    -0.027 C 
ATOM     12  C   UNL     1       1.934 -37.607  42.638  1.00  0.00     0.011 C 
ATOM     13  C   UNL     1      -0.253 -36.837  43.563  1.00  0.00     0.011 C 
ATOM     14  C   UNL     1      -0.364 -43.353  44.936  1.00  0.00     0.017 C 
ATOM     15  C   UNL     1       0.549 -44.514  42.817  1.00  0.00    -0.020 C 
ATOM     16  C   UNL     1       0.587 -43.119  40.717  1.00  0.00     0.032 C 
ATOM     17  C   UNL     1       1.324 -44.234  41.479  1.00  0.00     0.006 C 
ATOM     18  C   UNL     1       1.105 -45.835  43.453  1.00  0.00     0.008 C 
ATOM     19  C   UNL     1      -0.995 -44.722  42.535  1.00  0.00     0.012 C 
ATOM     20  C   UNL     1       1.821 -45.504  40.646  1.00  0.00    -0.025 C 
ATOM     21  C   UNL     1       2.564 -46.142  43.083  1.00  0.00     0.005 C 
ATOM     22  C   UNL     1       2.817 -46.372  41.547  1.00  0.00     0.006 C 
ATOM     23  C   UNL     1       0.630 -46.366  40.147  1.00  0.00     0.010 C 
ATOM     24  C   UNL     1       2.585 -44.956  39.402  1.00  0.00     0.012 C 
ATOM     25  C   UNL     1       3.068 -47.904  41.091  1.00  0.00     0.020 C 
ATOM     26  C   UNL     1       1.055 -47.682  39.501  1.00  0.00     0.033 C 
ATOM     27  C   UNL     1       1.774 -48.572  40.522  1.00  0.00     0.123 C 
ATOM     28  C   UNL     1       3.590 -48.803  42.252  1.00  0.00     0.017 C 
ENDROOT
BRANCH   1  29
ATOM     29  C   UNL     1       0.233 -40.600  46.077  1.00  0.00     0.048 C 
ATOM     30  O   UNL     1      -0.937 -40.274  45.744  1.00  0.00    -0.550 OA
ATOM     31  O   UNL     1       0.469 -40.935  47.405  1.00  0.00    -0.550 OA
ENDBRANCH   1  29
BRANCH  25  32
ATOM     32  C   UNL     1       4.189 -48.008  39.994  1.00  0.00     0.165 C 
BRANCH  32  33
ATOM     33  O   UNL     1       4.430 -49.342  39.627  1.00  0.00    -0.396 OA
ATOM     34  H   UNL     1       5.272 -49.625  40.068  1.00  0.00     0.210 HD
ENDBRANCH  32  33
ENDBRANCH  25  32
BRANCH  27  35
ATOM     35  O   UNL     1       0.874 -48.888  41.560  1.00  0.00    -0.392 OA
ATOM     36  H   UNL     1       1.406 -49.082  42.374  1.00  0.00     0.210 HD
ENDBRANCH  27  35
TORSDOF 4
ENDMDL
MODEL 8
REMARK VINA RESULT:    -5.325      5.201      9.582
REMARK INTER + INTRA:          -6.097
REMARK INTER:                  -6.300
REMARK INTRA:                   0.203
REMARK UNBOUND:                 0.161
REMARK SMILES CC1(C)CC[C@]2(C(=O)[O-])CC[C@@]3(C)C(=CC[C@@H]4[C@]5(C)CC[C@H](O)[C@@](C)(CO)[C@@H]5CC[C@]43C)[C@H]2C1
REMARK SMILES IDX 6 1 5 2 10 3 33 4 4 5 11 6 14 7 34 8 2 9 12 10 15 11 1 12
REMARK SMILES IDX 3 13 13 14 31 15 16 16 17 17 30 18 32 19 18 20 29 21 28 22
REMARK SMILES IDX 20 23 19 24 24 25 21 26 22 27 25 28 7 29 8 30 9 31 26 32
REMARK SMILES IDX 27 33 23 35
REMARK H PARENT 27 34 23 36
REMARK Flexibility Score: inf
ROOT
ATOM      1  C   UNL     1       1.620 -44.672  43.461  1.00  0.00     0.017 C 
ATOM      2  C   UNL     1       1.746 -45.463  42.129  1.00  0.00     0.014 C 
ATOM      3  C   UNL     1       1.954 -43.162  43.196  1.00  0.00     0.014 C 
ATOM      4  C   UNL     1       2.666 -45.282  44.450  1.00  0.00     0.028 C 
ATOM      5  C   UNL     1       1.470 -46.969  42.317  1.00  0.00     0.007 C 
ATOM      6  C   UNL     1       2.654 -42.378  44.346  1.00  0.00     0.013 C 
ATOM      7  C   UNL     1       2.980 -44.434  45.703  1.00  0.00    -0.064 C 
ATOM      8  C   UNL     1       2.422 -46.803  44.703  1.00  0.00     0.015 C 
ATOM      9  C   UNL     1       2.382 -47.637  43.384  1.00  0.00    -0.035 C 
ATOM     10  C   UNL     1       2.464 -42.959  45.787  1.00  0.00    -0.006 C 
ATOM     11  C   UNL     1       4.076 -44.847  46.415  1.00  0.00    -0.027 C 
ATOM     12  C   UNL     1       3.810 -47.830  42.817  1.00  0.00     0.011 C 
ATOM     13  C   UNL     1       1.815 -49.038  43.707  1.00  0.00     0.011 C 
ATOM     14  C   UNL     1       0.934 -42.894  46.124  1.00  0.00     0.017 C 
ATOM     15  C   UNL     1       3.267 -42.136  46.932  1.00  0.00    -0.020 C 
ATOM     16  C   UNL     1       4.982 -43.960  47.236  1.00  0.00     0.032 C 
ATOM     17  C   UNL     1       4.795 -42.487  46.830  1.00  0.00     0.006 C 
ATOM     18  C   UNL     1       3.099 -40.581  46.816  1.00  0.00     0.008 C 
ATOM     19  C   UNL     1       2.683 -42.586  48.334  1.00  0.00     0.012 C 
ATOM     20  C   UNL     1       5.828 -41.416  47.413  1.00  0.00    -0.025 C 
ATOM     21  C   UNL     1       4.212 -39.890  46.015  1.00  0.00     0.005 C 
ATOM     22  C   UNL     1       5.651 -40.031  46.634  1.00  0.00     0.006 C 
ATOM     23  C   UNL     1       5.650 -41.219  48.943  1.00  0.00     0.010 C 
ATOM     24  C   UNL     1       7.259 -41.983  47.154  1.00  0.00     0.012 C 
ATOM     25  C   UNL     1       6.249 -38.708  47.349  1.00  0.00     0.020 C 
ATOM     26  C   UNL     1       6.490 -40.080  49.515  1.00  0.00     0.033 C 
ATOM     27  C   UNL     1       6.065 -38.740  48.902  1.00  0.00     0.123 C 
ATOM     28  C   UNL     1       5.599 -37.392  46.825  1.00  0.00     0.017 C 
ENDROOT
BRANCH   1  29
ATOM     29  C   UNL     1       0.155 -44.804  43.891  1.00  0.00     0.048 C 
ATOM     30  O   UNL     1      -0.210 -45.600  44.796  1.00  0.00    -0.550 OA
ATOM     31  O   UNL     1      -0.819 -44.054  43.243  1.00  0.00    -0.550 OA
ENDBRANCH   1  29
BRANCH  25  32
ATOM     32  C   UNL     1       7.780 -38.525  47.048  1.00  0.00     0.165 C 
BRANCH  32  33
ATOM     33  O   UNL     1       8.005 -38.190  45.702  1.00  0.00    -0.396 OA
ATOM     34  H   UNL     1       8.341 -37.257  45.680  1.00  0.00     0.210 HD
ENDBRANCH  32  33
ENDBRANCH  25  32
BRANCH  27  35
ATOM     35  O   UNL     1       4.722 -38.488  49.253  1.00  0.00    -0.392 OA
ATOM     36  H   UNL     1       4.352 -39.318  49.649  1.00  0.00     0.210 HD
ENDBRANCH  27  35
TORSDOF 4
ENDMDL
MODEL 9
REMARK VINA RESULT:    -5.227      5.528      8.120
REMARK INTER + INTRA:          -5.983
REMARK INTER:                  -6.230
REMARK INTRA:                   0.247
REMARK UNBOUND:                 0.161
REMARK SMILES CC1(C)CC[C@]2(C(=O)[O-])CC[C@@]3(C)C(=CC[C@@H]4[C@]5(C)CC[C@H](O)[C@@](C)(CO)[C@@H]5CC[C@]43C)[C@H]2C1
REMARK SMILES IDX 6 1 5 2 10 3 33 4 4 5 11 6 14 7 34 8 2 9 12 10 15 11 1 12
REMARK SMILES IDX 3 13 13 14 31 15 16 16 17 17 30 18 32 19 18 20 29 21 28 22
REMARK SMILES IDX 20 23 19 24 24 25 21 26 22 27 25 28 7 29 8 30 9 31 26 32
REMARK SMILES IDX 27 33 23 35
REMARK H PARENT 27 34 23 36
REMARK Flexibility Score: inf
ROOT
ATOM      1  C   UNL     1       3.248 -39.394  46.025  1.00  0.00     0.017 C 
ATOM      2  C   UNL     1       3.975 -38.113  45.527  1.00  0.00     0.014 C 
ATOM      3  C   UNL     1       4.278 -40.577  46.087  1.00  0.00     0.014 C 
ATOM      4  C   UNL     1       2.131 -39.716  44.979  1.00  0.00     0.028 C 
ATOM      5  C   UNL     1       3.015 -36.911  45.401  1.00  0.00     0.007 C 
ATOM      6  C   UNL     1       3.738 -42.004  45.772  1.00  0.00     0.013 C 
ATOM      7  C   UNL     1       1.522 -41.133  45.063  1.00  0.00    -0.064 C 
ATOM      8  C   UNL     1       1.111 -38.545  44.827  1.00  0.00     0.015 C 
ATOM      9  C   UNL     1       1.795 -37.186  44.478  1.00  0.00    -0.035 C 
ATOM     10  C   UNL     1       2.200 -42.214  45.969  1.00  0.00    -0.006 C 
ATOM     11  C   UNL     1       0.745 -41.488  43.990  1.00  0.00    -0.027 C 
ATOM     12  C   UNL     1       2.238 -37.164  42.993  1.00  0.00     0.011 C 
ATOM     13  C   UNL     1       0.764 -36.053  44.674  1.00  0.00     0.011 C 
ATOM     14  C   UNL     1       1.882 -41.985  47.488  1.00  0.00     0.017 C 
ATOM     15  C   UNL     1       1.689 -43.700  45.567  1.00  0.00    -0.020 C 
ATOM     16  C   UNL     1       0.549 -42.891  43.468  1.00  0.00     0.032 C 
ATOM     17  C   UNL     1       1.656 -43.818  44.000  1.00  0.00     0.006 C 
ATOM     18  C   UNL     1       2.594 -44.847  46.138  1.00  0.00     0.008 C 
ATOM     19  C   UNL     1       0.236 -43.880  46.170  1.00  0.00     0.012 C 
ATOM     20  C   UNL     1       1.763 -45.285  43.378  1.00  0.00    -0.025 C 
ATOM     21  C   UNL     1       3.684 -45.325  45.168  1.00  0.00     0.005 C 
ATOM     22  C   UNL     1       3.144 -45.954  43.831  1.00  0.00     0.006 C 
ATOM     23  C   UNL     1       0.557 -46.173  43.787  1.00  0.00     0.010 C 
ATOM     24  C   UNL     1       1.747 -45.120  41.827  1.00  0.00     0.012 C 
ATOM     25  C   UNL     1       3.251 -47.564  43.709  1.00  0.00     0.020 C 
ATOM     26  C   UNL     1       0.700 -47.633  43.366  1.00  0.00     0.033 C 
ATOM     27  C   UNL     1       1.905 -48.276  44.064  1.00  0.00     0.123 C 
ATOM     28  C   UNL     1       4.358 -48.167  44.626  1.00  0.00     0.017 C 
ENDROOT
BRANCH   1  29
ATOM     29  C   UNL     1       2.752 -39.073  47.438  1.00  0.00     0.048 C 
ATOM     30  O   UNL     1       1.528 -38.960  47.710  1.00  0.00    -0.550 OA
ATOM     31  O   UNL     1       3.675 -38.859  48.456  1.00  0.00    -0.550 OA
ENDBRANCH   1  29
BRANCH  25  32
ATOM     32  C   UNL     1       3.668 -48.011  42.262  1.00  0.00     0.165 C 
BRANCH  32  33
ATOM     33  O   UNL     1       3.596 -49.406  42.112  1.00  0.00    -0.396 OA
ATOM     34  H   UNL     1       2.648 -49.670  42.236  1.00  0.00     0.210 HD
ENDBRANCH  32  33
ENDBRANCH  25  32
BRANCH  27  35
ATOM     35  O   UNL     1       1.681 -48.261  45.456  1.00  0.00    -0.392 OA
ATOM     36  H   UNL     1       1.879 -49.169  45.805  1.00  0.00     0.210 HD
ENDBRANCH  27  35
TORSDOF 4
ENDMDL
