MODEL 1
REMARK VINA RESULT:    -4.305      0.000      0.000
REMARK INTER + INTRA:          -9.732
REMARK INTER:                  -7.828
REMARK INTRA:                  -1.905
REMARK UNBOUND:                -1.905
REMARK SMILES CCCCCCCCCCCCCC[C@H](C)C(=O)[O-]
REMARK SMILES IDX 9 1 10 2 11 3 12 4 13 5 14 6 15 7 16 8 17 9 18 10 19 11 8 12
REMARK SMILES IDX 7 13 6 14 5 15 4 16 3 17 2 18 1 19
REMARK H PARENT
REMARK Flexibility Score: inf
ROOT
ATOM      1  C   UNL     1      99.053   4.509 -26.940  1.00  0.00     0.000 C 
ENDROOT
BRANCH   1   2
ATOM      2  C   UNL     1      98.239   3.879 -25.792  1.00  0.00     0.000 C 
BRANCH   2   3
ATOM      3  C   UNL     1      96.828   3.404 -26.183  1.00  0.00     0.000 C 
BRANCH   3   4
ATOM      4  C   UNL     1      95.956   3.059 -24.963  1.00  0.00     0.000 C 
BRANCH   4   5
ATOM      5  C   UNL     1      94.463   3.329 -25.210  1.00  0.00     0.001 C 
BRANCH   5   6
ATOM      6  C   UNL     1      94.225   4.278 -26.402  1.00  0.00     0.009 C 
BRANCH   6   7
ATOM      7  C   UNL     1      93.203   5.402 -26.123  1.00  0.00     0.032 C 
ATOM      8  C   UNL     1      92.728   5.421 -24.662  1.00  0.00     0.014 C 
BRANCH   7   9
ATOM      9  C   UNL     1      92.049   5.357 -27.091  1.00  0.00     0.044 C 
ATOM     10  O   UNL     1      92.246   5.351 -28.336  1.00  0.00    -0.550 OA
ATOM     11  O   UNL     1      90.746   5.374 -26.607  1.00  0.00    -0.550 OA
ENDBRANCH   7   9
ENDBRANCH   6   7
ENDBRANCH   5   6
ENDBRANCH   4   5
ENDBRANCH   3   4
ENDBRANCH   2   3
ENDBRANCH   1   2
BRANCH   1  12
ATOM     12  C   UNL     1      98.217   5.011 -28.134  1.00  0.00     0.000 C 
BRANCH  12  13
ATOM     13  C   UNL     1      98.275   4.122 -29.393  1.00  0.00    -0.000 C 
BRANCH  13  14
ATOM     14  C   UNL     1      99.264   2.945 -29.311  1.00  0.00    -0.000 C 
BRANCH  14  15
ATOM     15  C   UNL     1      98.597   1.585 -29.569  1.00  0.00    -0.000 C 
BRANCH  15  16
ATOM     16  C   UNL     1      98.946   0.583 -28.458  1.00  0.00    -0.000 C 
BRANCH  16  17
ATOM     17  C   UNL     1      99.990   1.130 -27.473  1.00  0.00    -0.000 C 
BRANCH  17  18
ATOM     18  C   UNL     1      99.976   0.392 -26.125  1.00  0.00    -0.003 C 
ATOM     19  C   UNL     1      98.549   0.180 -25.629  1.00  0.00     0.004 C 
ENDBRANCH  17  18
ENDBRANCH  16  17
ENDBRANCH  15  16
ENDBRANCH  14  15
ENDBRANCH  13  14
ENDBRANCH  12  13
ENDBRANCH   1  12
TORSDOF 14
ENDMDL
MODEL 2
REMARK VINA RESULT:    -4.079      1.503      2.148
REMARK INTER + INTRA:          -9.323
REMARK INTER:                  -7.459
REMARK INTRA:                  -1.864
REMARK UNBOUND:                -1.905
REMARK SMILES CCCCCCCCCCCCCC[C@H](C)C(=O)[O-]
REMARK SMILES IDX 9 1 10 2 11 3 12 4 13 5 14 6 15 7 16 8 17 9 18 10 19 11 8 12
REMARK SMILES IDX 7 13 6 14 5 15 4 16 3 17 2 18 1 19
REMARK H PARENT
REMARK Flexibility Score: inf
ROOT
ATOM      1  C   UNL     1      98.597   3.806 -25.766  1.00  0.00     0.000 C 
ENDROOT
BRANCH   1   2
ATOM      2  C   UNL     1      97.327   3.069 -25.297  1.00  0.00     0.000 C 
BRANCH   2   3
ATOM      3  C   UNL     1      96.184   3.030 -26.326  1.00  0.00     0.000 C 
BRANCH   3   4
ATOM      4  C   UNL     1      94.813   3.353 -25.707  1.00  0.00     0.000 C 
BRANCH   4   5
ATOM      5  C   UNL     1      94.206   4.652 -26.262  1.00  0.00     0.001 C 
BRANCH   5   6
ATOM      6  C   UNL     1      92.689   4.533 -26.512  1.00  0.00     0.009 C 
BRANCH   6   7
ATOM      7  C   UNL     1      92.309   4.244 -27.981  1.00  0.00     0.032 C 
ATOM      8  C   UNL     1      91.738   5.476 -28.698  1.00  0.00     0.014 C 
BRANCH   7   9
ATOM      9  C   UNL     1      91.396   3.050 -28.095  1.00  0.00     0.044 C 
ATOM     10  O   UNL     1      91.569   2.030 -27.376  1.00  0.00    -0.550 OA
ATOM     11  O   UNL     1      90.379   3.052 -29.042  1.00  0.00    -0.550 OA
ENDBRANCH   7   9
ENDBRANCH   6   7
ENDBRANCH   5   6
ENDBRANCH   4   5
ENDBRANCH   3   4
ENDBRANCH   2   3
ENDBRANCH   1   2
BRANCH   1  12
ATOM     12  C   UNL     1      98.421   4.669 -27.031  1.00  0.00     0.000 C 
BRANCH  12  13
ATOM     13  C   UNL     1      99.682   4.811 -27.907  1.00  0.00    -0.000 C 
BRANCH  13  14
ATOM     14  C   UNL     1      99.569   4.194 -29.313  1.00  0.00    -0.000 C 
BRANCH  14  15
ATOM     15  C   UNL     1      98.322   3.313 -29.481  1.00  0.00    -0.000 C 
BRANCH  15  16
ATOM     16  C   UNL     1      98.711   1.881 -29.878  1.00  0.00    -0.000 C 
BRANCH  16  17
ATOM     17  C   UNL     1      99.638   1.212 -28.851  1.00  0.00    -0.000 C 
BRANCH  17  18
ATOM     18  C   UNL     1      98.865   0.484 -27.741  1.00  0.00    -0.003 C 
ATOM     19  C   UNL     1      99.697   0.385 -26.466  1.00  0.00     0.004 C 
ENDBRANCH  17  18
ENDBRANCH  16  17
ENDBRANCH  15  16
ENDBRANCH  14  15
ENDBRANCH  13  14
ENDBRANCH  12  13
ENDBRANCH   1  12
TORSDOF 14
ENDMDL
MODEL 3
REMARK VINA RESULT:    -4.055      1.555      2.385
REMARK INTER + INTRA:          -9.278
REMARK INTER:                  -7.248
REMARK INTRA:                  -2.030
REMARK UNBOUND:                -1.905
REMARK SMILES CCCCCCCCCCCCCC[C@H](C)C(=O)[O-]
REMARK SMILES IDX 9 1 10 2 11 3 12 4 13 5 14 6 15 7 16 8 17 9 18 10 19 11 8 12
REMARK SMILES IDX 7 13 6 14 5 15 4 16 3 17 2 18 1 19
REMARK H PARENT
REMARK Flexibility Score: inf
ROOT
ATOM      1  C   UNL     1      98.520   4.351 -29.355  1.00  0.00     0.000 C 
ENDROOT
BRANCH   1   2
ATOM      2  C   UNL     1      98.445   5.087 -28.002  1.00  0.00     0.000 C 
BRANCH   2   3
ATOM      3  C   UNL     1      98.160   4.183 -26.789  1.00  0.00     0.000 C 
BRANCH   3   4
ATOM      4  C   UNL     1      96.976   3.228 -27.024  1.00  0.00     0.000 C 
BRANCH   4   5
ATOM      5  C   UNL     1      96.085   3.076 -25.781  1.00  0.00     0.001 C 
BRANCH   5   6
ATOM      6  C   UNL     1      94.770   3.873 -25.898  1.00  0.00     0.009 C 
BRANCH   6   7
ATOM      7  C   UNL     1      93.845   3.755 -24.666  1.00  0.00     0.032 C 
ATOM      8  C   UNL     1      94.538   3.090 -23.467  1.00  0.00     0.014 C 
BRANCH   7   9
ATOM      9  C   UNL     1      92.543   3.080 -25.011  1.00  0.00     0.044 C 
ATOM     10  O   UNL     1      91.991   3.267 -26.129  1.00  0.00    -0.550 OA
ATOM     11  O   UNL     1      91.914   2.278 -24.066  1.00  0.00    -0.550 OA
ENDBRANCH   7   9
ENDBRANCH   6   7
ENDBRANCH   5   6
ENDBRANCH   4   5
ENDBRANCH   3   4
ENDBRANCH   2   3
ENDBRANCH   1   2
BRANCH   1  12
ATOM     12  C   UNL     1      99.905   3.774 -29.708  1.00  0.00     0.000 C 
BRANCH  12  13
ATOM     13  C   UNL     1      99.962   2.238 -29.827  1.00  0.00    -0.000 C 
BRANCH  13  14
ATOM     14  C   UNL     1     100.124   1.489 -28.492  1.00  0.00    -0.000 C 
BRANCH  14  15
ATOM     15  C   UNL     1      99.000   0.475 -28.235  1.00  0.00    -0.000 C 
BRANCH  15  16
ATOM     16  C   UNL     1      99.001   0.013 -26.770  1.00  0.00    -0.000 C 
BRANCH  16  17
ATOM     17  C   UNL     1     100.048   0.747 -25.918  1.00  0.00    -0.000 C 
BRANCH  17  18
ATOM     18  C   UNL     1      99.438   1.420 -24.680  1.00  0.00    -0.003 C 
ATOM     19  C   UNL     1      98.332   0.560 -24.075  1.00  0.00     0.004 C 
ENDBRANCH  17  18
ENDBRANCH  16  17
ENDBRANCH  15  16
ENDBRANCH  14  15
ENDBRANCH  13  14
ENDBRANCH  12  13
ENDBRANCH   1  12
TORSDOF 14
ENDMDL
MODEL 4
REMARK VINA RESULT:    -4.012      2.244      3.016
REMARK INTER + INTRA:          -9.199
REMARK INTER:                  -7.164
REMARK INTRA:                  -2.036
REMARK UNBOUND:                -1.905
REMARK SMILES CCCCCCCCCCCCCC[C@H](C)C(=O)[O-]
REMARK SMILES IDX 9 1 10 2 11 3 12 4 13 5 14 6 15 7 16 8 17 9 18 10 19 11 8 12
REMARK SMILES IDX 7 13 6 14 5 15 4 16 3 17 2 18 1 19
REMARK H PARENT
REMARK Flexibility Score: inf
ROOT
ATOM      1  C   UNL     1      98.629   3.885 -25.915  1.00  0.00     0.000 C 
ENDROOT
BRANCH   1   2
ATOM      2  C   UNL     1      97.303   3.137 -25.672  1.00  0.00     0.000 C 
BRANCH   2   3
ATOM      3  C   UNL     1      96.364   3.072 -26.889  1.00  0.00     0.000 C 
BRANCH   3   4
ATOM      4  C   UNL     1      95.051   3.844 -26.670  1.00  0.00     0.000 C 
BRANCH   4   5
ATOM      5  C   UNL     1      93.980   2.998 -25.962  1.00  0.00     0.001 C 
BRANCH   5   6
ATOM      6  C   UNL     1      93.638   3.537 -24.558  1.00  0.00     0.009 C 
BRANCH   6   7
ATOM      7  C   UNL     1      93.554   2.448 -23.465  1.00  0.00     0.032 C 
ATOM      8  C   UNL     1      94.936   1.963 -23.005  1.00  0.00     0.014 C 
BRANCH   7   9
ATOM      9  C   UNL     1      92.665   1.306 -23.885  1.00  0.00     0.044 C 
ATOM     10  O   UNL     1      91.429   1.476 -24.059  1.00  0.00    -0.550 OA
ATOM     11  O   UNL     1      93.206   0.035 -24.035  1.00  0.00    -0.550 OA
ENDBRANCH   7   9
ENDBRANCH   6   7
ENDBRANCH   5   6
ENDBRANCH   4   5
ENDBRANCH   3   4
ENDBRANCH   2   3
ENDBRANCH   1   2
BRANCH   1  12
ATOM     12  C   UNL     1      98.656   4.773 -27.175  1.00  0.00     0.000 C 
BRANCH  12  13
ATOM     13  C   UNL     1     100.012   4.830 -27.906  1.00  0.00    -0.000 C 
BRANCH  13  14
ATOM     14  C   UNL     1      99.988   4.329 -29.362  1.00  0.00    -0.000 C 
BRANCH  14  15
ATOM     15  C   UNL     1      98.925   3.247 -29.603  1.00  0.00    -0.000 C 
BRANCH  15  16
ATOM     16  C   UNL     1      99.578   1.868 -29.783  1.00  0.00    -0.000 C 
BRANCH  16  17
ATOM     17  C   UNL     1     100.125   1.294 -28.467  1.00  0.00    -0.000 C 
BRANCH  17  18
ATOM     18  C   UNL     1      99.061   0.527 -27.668  1.00  0.00    -0.003 C 
ATOM     19  C   UNL     1      99.527   0.268 -26.239  1.00  0.00     0.004 C 
ENDBRANCH  17  18
ENDBRANCH  16  17
ENDBRANCH  15  16
ENDBRANCH  14  15
ENDBRANCH  13  14
ENDBRANCH  12  13
ENDBRANCH   1  12
TORSDOF 14
ENDMDL
MODEL 5
REMARK VINA RESULT:    -3.999     17.025     19.837
REMARK INTER + INTRA:          -9.176
REMARK INTER:                  -6.624
REMARK INTRA:                  -2.552
REMARK UNBOUND:                -1.905
REMARK SMILES CCCCCCCCCCCCCC[C@H](C)C(=O)[O-]
REMARK SMILES IDX 9 1 10 2 11 3 12 4 13 5 14 6 15 7 16 8 17 9 18 10 19 11 8 12
REMARK SMILES IDX 7 13 6 14 5 15 4 16 3 17 2 18 1 19
REMARK H PARENT
REMARK Flexibility Score: inf
ROOT
ATOM      1  C   UNL     1      83.628  -6.705 -15.597  1.00  0.00     0.000 C 
ENDROOT
BRANCH   1   2
ATOM      2  C   UNL     1      82.641  -5.656 -16.149  1.00  0.00     0.000 C 
BRANCH   2   3
ATOM      3  C   UNL     1      81.162  -6.077 -16.113  1.00  0.00     0.000 C 
BRANCH   3   4
ATOM      4  C   UNL     1      80.228  -5.024 -16.735  1.00  0.00     0.000 C 
BRANCH   4   5
ATOM      5  C   UNL     1      80.266  -5.035 -18.271  1.00  0.00     0.001 C 
BRANCH   5   6
ATOM      6  C   UNL     1      80.988  -3.801 -18.851  1.00  0.00     0.009 C 
BRANCH   6   7
ATOM      7  C   UNL     1      82.182  -4.139 -19.770  1.00  0.00     0.032 C 
ATOM      8  C   UNL     1      83.537  -3.813 -19.125  1.00  0.00     0.014 C 
BRANCH   7   9
ATOM      9  C   UNL     1      82.036  -3.503 -21.128  1.00  0.00     0.044 C 
ATOM     10  O   UNL     1      82.955  -3.588 -21.987  1.00  0.00    -0.550 OA
ATOM     11  O   UNL     1      80.894  -2.769 -21.423  1.00  0.00    -0.550 OA
ENDBRANCH   7   9
ENDBRANCH   6   7
ENDBRANCH   5   6
ENDBRANCH   4   5
ENDBRANCH   3   4
ENDBRANCH   2   3
ENDBRANCH   1   2
BRANCH   1  12
ATOM     12  C   UNL     1      83.985  -6.543 -14.106  1.00  0.00     0.000 C 
BRANCH  12  13
ATOM     13  C   UNL     1      83.614  -5.179 -13.490  1.00  0.00    -0.000 C 
BRANCH  13  14
ATOM     14  C   UNL     1      82.288  -5.160 -12.707  1.00  0.00    -0.000 C 
BRANCH  14  15
ATOM     15  C   UNL     1      81.391  -3.971 -13.081  1.00  0.00    -0.000 C 
BRANCH  15  16
ATOM     16  C   UNL     1      82.225  -2.807 -13.638  1.00  0.00    -0.000 C 
BRANCH  16  17
ATOM     17  C   UNL     1      81.618  -2.199 -14.911  1.00  0.00    -0.000 C 
BRANCH  17  18
ATOM     18  C   UNL     1      82.651  -2.020 -16.034  1.00  0.00    -0.003 C 
ATOM     19  C   UNL     1      84.073  -2.163 -15.500  1.00  0.00     0.004 C 
ENDBRANCH  17  18
ENDBRANCH  16  17
ENDBRANCH  15  16
ENDBRANCH  14  15
ENDBRANCH  13  14
ENDBRANCH  12  13
ENDBRANCH   1  12
TORSDOF 14
ENDMDL
MODEL 6
REMARK VINA RESULT:    -3.970      3.725      6.017
REMARK INTER + INTRA:          -9.125
REMARK INTER:                  -7.255
REMARK INTRA:                  -1.869
REMARK UNBOUND:                -1.905
REMARK SMILES CCCCCCCCCCCCCC[C@H](C)C(=O)[O-]
REMARK SMILES IDX 9 1 10 2 11 3 12 4 13 5 14 6 15 7 16 8 17 9 18 10 19 11 8 12
REMARK SMILES IDX 7 13 6 14 5 15 4 16 3 17 2 18 1 19
REMARK H PARENT
REMARK Flexibility Score: inf
ROOT
ATOM      1  C   UNL     1      97.953   2.177 -26.196  1.00  0.00     0.000 C 
ENDROOT
BRANCH   1   2
ATOM      2  C   UNL     1      98.066   3.700 -25.983  1.00  0.00     0.000 C 
BRANCH   2   3
ATOM      3  C   UNL     1      99.035   4.417 -26.940  1.00  0.00     0.000 C 
BRANCH   3   4
ATOM      4  C   UNL     1      98.310   5.146 -28.085  1.00  0.00     0.000 C 
BRANCH   4   5
ATOM      5  C   UNL     1      98.550   4.484 -29.451  1.00  0.00     0.001 C 
BRANCH   5   6
ATOM      6  C   UNL     1      97.582   3.313 -29.716  1.00  0.00     0.009 C 
BRANCH   6   7
ATOM      7  C   UNL     1      98.279   1.957 -29.965  1.00  0.00     0.032 C 
ATOM      8  C   UNL     1      99.810   2.055 -29.883  1.00  0.00     0.014 C 
BRANCH   7   9
ATOM      9  C   UNL     1      97.823   1.325 -31.254  1.00  0.00     0.044 C 
ATOM     10  O   UNL     1      96.672   1.550 -31.716  1.00  0.00    -0.550 OA
ATOM     11  O   UNL     1      98.663   0.442 -31.921  1.00  0.00    -0.550 OA
ENDBRANCH   7   9
ENDBRANCH   6   7
ENDBRANCH   5   6
ENDBRANCH   4   5
ENDBRANCH   3   4
ENDBRANCH   2   3
ENDBRANCH   1   2
BRANCH   1  12
ATOM     12  C   UNL     1      99.296   1.422 -26.235  1.00  0.00     0.000 C 
BRANCH  12  13
ATOM     13  C   UNL     1      99.181  -0.113 -26.322  1.00  0.00    -0.000 C 
BRANCH  13  14
ATOM     14  C   UNL     1      99.350  -0.854 -24.983  1.00  0.00    -0.000 C 
BRANCH  14  15
ATOM     15  C   UNL     1      98.240  -1.884 -24.725  1.00  0.00    -0.000 C 
BRANCH  15  16
ATOM     16  C   UNL     1      97.303  -1.412 -23.603  1.00  0.00    -0.000 C 
BRANCH  16  17
ATOM     17  C   UNL     1      95.823  -1.683 -23.914  1.00  0.00    -0.000 C 
BRANCH  17  18
ATOM     18  C   UNL     1      94.941  -0.439 -23.728  1.00  0.00    -0.003 C 
ATOM     19  C   UNL     1      95.788   0.827 -23.641  1.00  0.00     0.004 C 
ENDBRANCH  17  18
ENDBRANCH  16  17
ENDBRANCH  15  16
ENDBRANCH  14  15
ENDBRANCH  13  14
ENDBRANCH  12  13
ENDBRANCH   1  12
TORSDOF 14
ENDMDL
MODEL 7
REMARK VINA RESULT:    -3.947      3.500      5.230
REMARK INTER + INTRA:          -9.081
REMARK INTER:                  -7.160
REMARK INTRA:                  -1.921
REMARK UNBOUND:                -1.905
REMARK SMILES CCCCCCCCCCCCCC[C@H](C)C(=O)[O-]
REMARK SMILES IDX 9 1 10 2 11 3 12 4 13 5 14 6 15 7 16 8 17 9 18 10 19 11 8 12
REMARK SMILES IDX 7 13 6 14 5 15 4 16 3 17 2 18 1 19
REMARK H PARENT
REMARK Flexibility Score: inf
ROOT
ATOM      1  C   UNL     1      98.959   2.642 -24.810  1.00  0.00     0.000 C 
ENDROOT
BRANCH   1   2
ATOM      2  C   UNL     1      99.510   1.276 -24.353  1.00  0.00     0.000 C 
BRANCH   2   3
ATOM      3  C   UNL     1      99.924   0.331 -25.493  1.00  0.00     0.000 C 
BRANCH   3   4
ATOM      4  C   UNL     1      99.008  -0.900 -25.609  1.00  0.00     0.000 C 
BRANCH   4   5
ATOM      5  C   UNL     1      98.450  -1.351 -24.250  1.00  0.00     0.001 C 
BRANCH   5   6
ATOM      6  C   UNL     1      96.908  -1.353 -24.218  1.00  0.00     0.009 C 
BRANCH   6   7
ATOM      7  C   UNL     1      96.287  -0.148 -23.477  1.00  0.00     0.032 C 
ATOM      8  C   UNL     1      96.907   0.077 -22.089  1.00  0.00     0.014 C 
BRANCH   7   9
ATOM      9  C   UNL     1      94.785  -0.246 -23.415  1.00  0.00     0.044 C 
ATOM     10  O   UNL     1      94.089   0.713 -22.986  1.00  0.00    -0.550 OA
ATOM     11  O   UNL     1      94.158  -1.428 -23.790  1.00  0.00    -0.550 OA
ENDBRANCH   7   9
ENDBRANCH   6   7
ENDBRANCH   5   6
ENDBRANCH   4   5
ENDBRANCH   3   4
ENDBRANCH   2   3
ENDBRANCH   1   2
BRANCH   1  12
ATOM     12  C   UNL     1      97.773   2.572 -25.792  1.00  0.00     0.000 C 
BRANCH  12  13
ATOM     13  C   UNL     1      97.727   3.698 -26.844  1.00  0.00    -0.000 C 
BRANCH  13  14
ATOM     14  C   UNL     1      98.925   4.665 -26.813  1.00  0.00    -0.000 C 
BRANCH  14  15
ATOM     15  C   UNL     1      99.315   5.178 -28.207  1.00  0.00    -0.000 C 
BRANCH  15  16
ATOM     16  C   UNL     1      98.913   4.170 -29.295  1.00  0.00    -0.000 C 
BRANCH  16  17
ATOM     17  C   UNL     1     100.125   3.497 -29.957  1.00  0.00    -0.000 C 
BRANCH  17  18
ATOM     18  C   UNL     1      99.872   2.019 -30.291  1.00  0.00    -0.003 C 
ATOM     19  C   UNL     1      99.446   1.240 -29.051  1.00  0.00     0.004 C 
ENDBRANCH  17  18
ENDBRANCH  16  17
ENDBRANCH  15  16
ENDBRANCH  14  15
ENDBRANCH  13  14
ENDBRANCH  12  13
ENDBRANCH   1  12
TORSDOF 14
ENDMDL
MODEL 8
REMARK VINA RESULT:    -3.943      3.150      7.212
REMARK INTER + INTRA:          -9.074
REMARK INTER:                  -7.204
REMARK INTRA:                  -1.870
REMARK UNBOUND:                -1.905
REMARK SMILES CCCCCCCCCCCCCC[C@H](C)C(=O)[O-]
REMARK SMILES IDX 9 1 10 2 11 3 12 4 13 5 14 6 15 7 16 8 17 9 18 10 19 11 8 12
REMARK SMILES IDX 7 13 6 14 5 15 4 16 3 17 2 18 1 19
REMARK H PARENT
REMARK Flexibility Score: inf
ROOT
ATOM      1  C   UNL     1      93.204   3.752 -23.556  1.00  0.00     0.000 C 
ENDROOT
BRANCH   1   2
ATOM      2  C   UNL     1      94.456   3.228 -24.289  1.00  0.00     0.000 C 
BRANCH   2   3
ATOM      3  C   UNL     1      94.186   2.620 -25.676  1.00  0.00     0.000 C 
BRANCH   3   4
ATOM      4  C   UNL     1      95.147   3.148 -26.756  1.00  0.00     0.000 C 
BRANCH   4   5
ATOM      5  C   UNL     1      96.476   3.649 -26.169  1.00  0.00     0.001 C 
BRANCH   5   6
ATOM      6  C   UNL     1      97.372   4.320 -27.230  1.00  0.00     0.009 C 
BRANCH   6   7
ATOM      7  C   UNL     1      98.878   4.012 -27.075  1.00  0.00     0.032 C 
ATOM      8  C   UNL     1      99.768   5.023 -27.813  1.00  0.00     0.014 C 
BRANCH   7   9
ATOM      9  C   UNL     1      99.197   2.591 -27.461  1.00  0.00     0.044 C 
ATOM     10  O   UNL     1      99.728   1.798 -26.637  1.00  0.00    -0.550 OA
ATOM     11  O   UNL     1      98.950   2.160 -28.758  1.00  0.00    -0.550 OA
ENDBRANCH   7   9
ENDBRANCH   6   7
ENDBRANCH   5   6
ENDBRANCH   4   5
ENDBRANCH   3   4
ENDBRANCH   2   3
ENDBRANCH   1   2
BRANCH   1  12
ATOM     12  C   UNL     1      92.214   4.540 -24.437  1.00  0.00     0.000 C 
BRANCH  12  13
ATOM     13  C   UNL     1      92.671   5.961 -24.823  1.00  0.00    -0.000 C 
BRANCH  13  14
ATOM     14  C   UNL     1      93.065   6.138 -26.301  1.00  0.00    -0.000 C 
BRANCH  14  15
ATOM     15  C   UNL     1      91.850   6.238 -27.235  1.00  0.00    -0.000 C 
BRANCH  15  16
ATOM     16  C   UNL     1      91.943   5.206 -28.370  1.00  0.00    -0.000 C 
BRANCH  16  17
ATOM     17  C   UNL     1      91.555   3.790 -27.916  1.00  0.00    -0.000 C 
BRANCH  17  18
ATOM     18  C   UNL     1      90.038   3.549 -27.960  1.00  0.00    -0.003 C 
ATOM     19  C   UNL     1      89.466   3.384 -26.556  1.00  0.00     0.004 C 
ENDBRANCH  17  18
ENDBRANCH  16  17
ENDBRANCH  15  16
ENDBRANCH  14  15
ENDBRANCH  13  14
ENDBRANCH  12  13
ENDBRANCH   1  12
TORSDOF 14
ENDMDL
MODEL 9
REMARK VINA RESULT:    -3.922      3.887      5.565
REMARK INTER + INTRA:          -9.037
REMARK INTER:                  -7.284
REMARK INTRA:                  -1.754
REMARK UNBOUND:                -1.905
REMARK SMILES CCCCCCCCCCCCCC[C@H](C)C(=O)[O-]
REMARK SMILES IDX 9 1 10 2 11 3 12 4 13 5 14 6 15 7 16 8 17 9 18 10 19 11 8 12
REMARK SMILES IDX 7 13 6 14 5 15 4 16 3 17 2 18 1 19
REMARK H PARENT
REMARK Flexibility Score: inf
ROOT
ATOM      1  C   UNL     1     100.119   1.038 -27.274  1.00  0.00     0.000 C 
ENDROOT
BRANCH   1   2
ATOM      2  C   UNL     1      99.940   0.463 -25.854  1.00  0.00     0.000 C 
BRANCH   2   3
ATOM      3  C   UNL     1      99.035  -0.779 -25.768  1.00  0.00     0.000 C 
BRANCH   3   4
ATOM      4  C   UNL     1      99.260  -1.592 -24.481  1.00  0.00     0.000 C 
BRANCH   4   5
ATOM      5  C   UNL     1      98.153  -1.366 -23.439  1.00  0.00     0.001 C 
BRANCH   5   6
ATOM      6  C   UNL     1      96.742  -1.575 -24.025  1.00  0.00     0.009 C 
BRANCH   6   7
ATOM      7  C   UNL     1      95.735  -0.461 -23.665  1.00  0.00     0.032 C 
ATOM      8  C   UNL     1      96.215   0.933 -24.096  1.00  0.00     0.014 C 
BRANCH   7   9
ATOM      9  C   UNL     1      95.356  -0.502 -22.208  1.00  0.00     0.044 C 
ATOM     10  O   UNL     1      95.639   0.454 -21.436  1.00  0.00    -0.550 OA
ATOM     11  O   UNL     1      94.729  -1.630 -21.692  1.00  0.00    -0.550 OA
ENDBRANCH   7   9
ENDBRANCH   6   7
ENDBRANCH   5   6
ENDBRANCH   4   5
ENDBRANCH   3   4
ENDBRANCH   2   3
ENDBRANCH   1   2
BRANCH   1  12
ATOM     12  C   UNL     1      99.008   0.663 -28.274  1.00  0.00     0.000 C 
BRANCH  12  13
ATOM     13  C   UNL     1      98.650   1.762 -29.295  1.00  0.00    -0.000 C 
BRANCH  13  14
ATOM     14  C   UNL     1      99.840   2.610 -29.781  1.00  0.00    -0.000 C 
BRANCH  14  15
ATOM     15  C   UNL     1      99.840   4.029 -29.196  1.00  0.00    -0.000 C 
BRANCH  15  16
ATOM     16  C   UNL     1      98.418   4.612 -29.168  1.00  0.00    -0.000 C 
BRANCH  16  17
ATOM     17  C   UNL     1      97.899   4.839 -27.740  1.00  0.00    -0.000 C 
BRANCH  17  18
ATOM     18  C   UNL     1      98.938   4.478 -26.667  1.00  0.00    -0.003 C 
ATOM     19  C   UNL     1      98.291   3.729 -25.506  1.00  0.00     0.004 C 
ENDBRANCH  17  18
ENDBRANCH  16  17
ENDBRANCH  15  16
ENDBRANCH  14  15
ENDBRANCH  13  14
ENDBRANCH  12  13
ENDBRANCH   1  12
TORSDOF 14
ENDMDL
