MODEL 1
REMARK VINA RESULT:    -5.903      0.000      0.000
REMARK INTER + INTRA:          -7.667
REMARK INTER:                  -7.974
REMARK INTRA:                   0.307
REMARK UNBOUND:                 0.307
REMARK SMILES O=c1c(-c2ccc(O)cc2)coc2c([C@@H]3O[C@H](CO)[C@@H](O)[C@H](O)[C@@H]3O)c(O)ccc12
REMARK SMILES IDX 3 1 11 2 12 3 13 4 30 5 2 6 1 7 29 8 28 9 26 10 14 11 4 12
REMARK SMILES IDX 5 13 6 14 7 15 10 16 9 17 8 18 15 20 24 21 16 22 22 23 17 24
REMARK SMILES IDX 20 25 25 26 23 28 18 30 19 31 21 33 27 35
REMARK H PARENT 8 19 25 27 23 29 19 32 21 34 27 36
REMARK Flexibility Score: inf
ROOT
ATOM      1  C   UNL     1     124.501 133.745 110.628  1.00  0.00     0.065 A 
ATOM      2  C   UNL     1     125.393 132.961 109.888  1.00  0.00     0.208 A 
ATOM      3  O   UNL     1     126.537 133.466 109.443  1.00  0.00    -0.463 OA
ATOM      4  C   UNL     1     126.920 134.722 109.657  1.00  0.00     0.147 A 
ATOM      5  C   UNL     1     126.054 135.595 110.362  1.00  0.00     0.066 A 
ATOM      6  C   UNL     1     124.837 135.091 110.857  1.00  0.00     0.200 A 
ATOM      7  O   UNL     1     124.040 135.846 111.479  1.00  0.00    -0.288 OA
ATOM      8  C   UNL     1     126.405 136.941 110.522  1.00  0.00     0.020 A 
ATOM      9  C   UNL     1     127.569 137.431 109.941  1.00  0.00     0.047 A 
ATOM     10  C   UNL     1     128.431 136.583 109.236  1.00  0.00     0.125 A 
ATOM     11  C   UNL     1     128.174 135.187 109.170  1.00  0.00     0.069 A 
ENDROOT
BRANCH   1  12
ATOM     12  C   UNL     1     123.236 133.153 111.133  1.00  0.00    -0.011 A 
ATOM     13  C   UNL     1     122.049 133.256 110.386  1.00  0.00     0.013 A 
ATOM     14  C   UNL     1     120.859 132.705 110.870  1.00  0.00     0.047 A 
ATOM     15  C   UNL     1     120.837 132.051 112.105  1.00  0.00     0.115 A 
ATOM     16  C   UNL     1     123.206 132.500 112.376  1.00  0.00     0.013 A 
ATOM     17  C   UNL     1     122.014 131.950 112.858  1.00  0.00     0.047 A 
BRANCH  15  18
ATOM     18  O   UNL     1     119.644 131.508 112.575  1.00  0.00    -0.508 OA
ATOM     19  H   UNL     1     118.878 132.097 112.882  1.00  0.00     0.293 HD
ENDBRANCH  15  18
ENDBRANCH   1  12
BRANCH  11  20
ATOM     20  C   UNL     1     129.151 134.237 108.442  1.00  0.00     0.188 C 
ATOM     21  C   UNL     1     130.668 134.599 108.541  1.00  0.00     0.179 C 
ATOM     22  O   UNL     1     128.879 132.858 108.709  1.00  0.00    -0.362 OA
ATOM     23  C   UNL     1     131.511 133.336 108.327  1.00  0.00     0.177 C 
ATOM     24  C   UNL     1     129.672 132.253 109.726  1.00  0.00     0.176 C 
ATOM     25  C   UNL     1     131.204 132.331 109.439  1.00  0.00     0.177 C 
BRANCH  21  26
ATOM     26  O   UNL     1     130.971 135.177 109.788  1.00  0.00    -0.387 OA
ATOM     27  H   UNL     1     130.114 135.498 110.176  1.00  0.00     0.211 HD
ENDBRANCH  21  26
BRANCH  23  28
ATOM     28  O   UNL     1     132.880 133.647 108.337  1.00  0.00    -0.387 OA
ATOM     29  H   UNL     1     133.180 133.649 107.390  1.00  0.00     0.211 HD
ENDBRANCH  23  28
BRANCH  24  30
ATOM     30  C   UNL     1     129.289 132.738 111.139  1.00  0.00     0.191 C 
BRANCH  30  31
ATOM     31  O   UNL     1     130.416 133.258 111.789  1.00  0.00    -0.394 OA
ATOM     32  H   UNL     1     130.072 133.860 112.500  1.00  0.00     0.210 HD
ENDBRANCH  30  31
ENDBRANCH  24  30
BRANCH  25  33
ATOM     33  O   UNL     1     131.695 131.071 109.056  1.00  0.00    -0.388 OA
ATOM     34  H   UNL     1     130.921 130.556 108.708  1.00  0.00     0.211 HD
ENDBRANCH  25  33
ENDBRANCH  11  20
BRANCH  10  35
ATOM     35  O   UNL     1     129.527 137.144 108.583  1.00  0.00    -0.507 OA
ATOM     36  H   UNL     1     129.474 137.459 107.620  1.00  0.00     0.293 HD
ENDBRANCH  10  35
TORSDOF 9
ENDMDL
MODEL 2
REMARK VINA RESULT:    -5.609     11.127     14.087
REMARK INTER + INTRA:          -7.269
REMARK INTER:                  -7.661
REMARK INTRA:                   0.392
REMARK UNBOUND:                 0.307
REMARK SMILES O=c1c(-c2ccc(O)cc2)coc2c([C@@H]3O[C@H](CO)[C@@H](O)[C@H](O)[C@@H]3O)c(O)ccc12
REMARK SMILES IDX 3 1 11 2 12 3 13 4 30 5 2 6 1 7 29 8 28 9 26 10 14 11 4 12
REMARK SMILES IDX 5 13 6 14 7 15 10 16 9 17 8 18 15 20 24 21 16 22 22 23 17 24
REMARK SMILES IDX 20 25 25 26 23 28 18 30 19 31 21 33 27 35
REMARK H PARENT 8 19 25 27 23 29 19 32 21 34 27 36
REMARK Flexibility Score: inf
ROOT
ATOM      1  C   UNL     1     133.336 124.777 110.315  1.00  0.00     0.065 A 
ATOM      2  C   UNL     1     132.530 124.243 111.328  1.00  0.00     0.208 A 
ATOM      3  O   UNL     1     131.409 123.595 111.036  1.00  0.00    -0.463 OA
ATOM      4  C   UNL     1     130.972 123.402 109.794  1.00  0.00     0.147 A 
ATOM      5  C   UNL     1     131.707 123.948 108.713  1.00  0.00     0.066 A 
ATOM      6  C   UNL     1     132.906 124.634 108.985  1.00  0.00     0.200 A 
ATOM      7  O   UNL     1     133.578 125.140 108.044  1.00  0.00    -0.288 OA
ATOM      8  C   UNL     1     131.215 123.827 107.408  1.00  0.00     0.020 A 
ATOM      9  C   UNL     1     129.983 123.226 107.181  1.00  0.00     0.047 A 
ATOM     10  C   UNL     1     129.241 122.689 108.239  1.00  0.00     0.125 A 
ATOM     11  C   UNL     1     129.772 122.674 109.557  1.00  0.00     0.069 A 
ENDROOT
BRANCH   1  12
ATOM     12  C   UNL     1     134.595 125.481 110.664  1.00  0.00    -0.011 A 
ATOM     13  C   UNL     1     134.570 126.812 111.118  1.00  0.00     0.013 A 
ATOM     14  C   UNL     1     135.759 127.474 111.436  1.00  0.00     0.047 A 
ATOM     15  C   UNL     1     136.987 126.820 111.300  1.00  0.00     0.115 A 
ATOM     16  C   UNL     1     135.833 124.831 110.524  1.00  0.00     0.013 A 
ATOM     17  C   UNL     1     137.021 125.496 110.843  1.00  0.00     0.047 A 
BRANCH  15  18
ATOM     18  O   UNL     1     138.164 127.492 111.620  1.00  0.00    -0.508 OA
ATOM     19  H   UNL     1     138.170 128.273 112.267  1.00  0.00     0.293 HD
ENDBRANCH  15  18
ENDBRANCH   1  12
BRANCH  11  20
ATOM     20  C   UNL     1     128.984 122.031 110.720  1.00  0.00     0.188 C 
ATOM     21  C   UNL     1     128.083 120.808 110.350  1.00  0.00     0.179 C 
ATOM     22  O   UNL     1     129.795 121.808 111.877  1.00  0.00    -0.362 OA
ATOM     23  C   UNL     1     127.862 119.941 111.594  1.00  0.00     0.177 C 
ATOM     24  C   UNL     1     130.316 120.490 112.026  1.00  0.00     0.176 C 
ATOM     25  C   UNL     1     129.208 119.393 112.072  1.00  0.00     0.177 C 
BRANCH  21  26
ATOM     26  O   UNL     1     128.664 120.043 109.322  1.00  0.00    -0.387 OA
ATOM     27  H   UNL     1     127.920 119.684 108.771  1.00  0.00     0.211 HD
ENDBRANCH  21  26
BRANCH  23  28
ATOM     28  O   UNL     1     126.994 118.875 111.307  1.00  0.00    -0.387 OA
ATOM     29  H   UNL     1     127.510 118.225 110.761  1.00  0.00     0.211 HD
ENDBRANCH  23  28
BRANCH  24  30
ATOM     30  C   UNL     1     131.441 120.184 111.018  1.00  0.00     0.191 C 
BRANCH  30  31
ATOM     31  O   UNL     1     131.238 118.922 110.442  1.00  0.00    -0.394 OA
ATOM     32  H   UNL     1     131.921 118.323 110.844  1.00  0.00     0.210 HD
ENDBRANCH  30  31
ENDBRANCH  24  30
BRANCH  25  33
ATOM     33  O   UNL     1     129.057 118.902 113.380  1.00  0.00    -0.388 OA
ATOM     34  H   UNL     1     128.087 118.939 113.589  1.00  0.00     0.211 HD
ENDBRANCH  25  33
ENDBRANCH  11  20
BRANCH  10  35
ATOM     35  O   UNL     1     127.965 122.195 107.972  1.00  0.00    -0.507 OA
ATOM     36  H   UNL     1     127.181 122.810 107.782  1.00  0.00     0.293 HD
ENDBRANCH  10  35
TORSDOF 9
ENDMDL
MODEL 3
REMARK VINA RESULT:    -5.420     10.326     11.558
REMARK INTER + INTRA:          -7.013
REMARK INTER:                  -7.302
REMARK INTRA:                   0.289
REMARK UNBOUND:                 0.307
REMARK SMILES O=c1c(-c2ccc(O)cc2)coc2c([C@@H]3O[C@H](CO)[C@@H](O)[C@H](O)[C@@H]3O)c(O)ccc12
REMARK SMILES IDX 3 1 11 2 12 3 13 4 30 5 2 6 1 7 29 8 28 9 26 10 14 11 4 12
REMARK SMILES IDX 5 13 6 14 7 15 10 16 9 17 8 18 15 20 24 21 16 22 22 23 17 24
REMARK SMILES IDX 20 25 25 26 23 28 18 30 19 31 21 33 27 35
REMARK H PARENT 8 19 25 27 23 29 19 32 21 34 27 36
REMARK Flexibility Score: inf
ROOT
ATOM      1  C   UNL     1     131.647 123.439 110.017  1.00  0.00     0.065 A 
ATOM      2  C   UNL     1     132.996 123.264 110.347  1.00  0.00     0.208 A 
ATOM      3  O   UNL     1     133.932 124.051 109.831  1.00  0.00    -0.463 OA
ATOM      4  C   UNL     1     133.673 125.043 108.982  1.00  0.00     0.147 A 
ATOM      5  C   UNL     1     132.336 125.260 108.563  1.00  0.00     0.066 A 
ATOM      6  C   UNL     1     131.318 124.450 109.098  1.00  0.00     0.200 A 
ATOM      7  O   UNL     1     130.119 124.611 108.738  1.00  0.00    -0.288 OA
ATOM      8  C   UNL     1     132.060 126.244 107.607  1.00  0.00     0.020 A 
ATOM      9  C   UNL     1     133.098 126.965 107.028  1.00  0.00     0.047 A 
ATOM     10  C   UNL     1     134.424 126.757 107.426  1.00  0.00     0.125 A 
ATOM     11  C   UNL     1     134.726 125.864 108.489  1.00  0.00     0.069 A 
ENDROOT
BRANCH   1  12
ATOM     12  C   UNL     1     130.616 122.559 110.623  1.00  0.00    -0.011 A 
ATOM     13  C   UNL     1     129.959 122.936 111.807  1.00  0.00     0.013 A 
ATOM     14  C   UNL     1     128.995 122.100 112.379  1.00  0.00     0.047 A 
ATOM     15  C   UNL     1     128.680 120.876 111.780  1.00  0.00     0.115 A 
ATOM     16  C   UNL     1     130.299 121.325 110.029  1.00  0.00     0.013 A 
ATOM     17  C   UNL     1     129.335 120.491 110.603  1.00  0.00     0.047 A 
BRANCH  15  18
ATOM     18  O   UNL     1     127.719 120.053 112.361  1.00  0.00    -0.508 OA
ATOM     19  H   UNL     1     126.736 120.300 112.354  1.00  0.00     0.293 HD
ENDBRANCH  15  18
ENDBRANCH   1  12
BRANCH  11  20
ATOM     20  C   UNL     1     136.182 125.673 108.971  1.00  0.00     0.188 C 
ATOM     21  C   UNL     1     137.099 126.937 108.914  1.00  0.00     0.179 C 
ATOM     22  O   UNL     1     136.261 124.971 110.215  1.00  0.00    -0.362 OA
ATOM     23  C   UNL     1     138.241 126.787 109.925  1.00  0.00     0.177 C 
ATOM     24  C   UNL     1     136.400 125.782 111.379  1.00  0.00     0.176 C 
ATOM     25  C   UNL     1     137.657 126.706 111.337  1.00  0.00     0.177 C 
BRANCH  21  26
ATOM     26  O   UNL     1     136.366 128.108 109.181  1.00  0.00    -0.387 OA
ATOM     27  H   UNL     1     137.006 128.867 109.143  1.00  0.00     0.211 HD
ENDBRANCH  21  26
BRANCH  23  28
ATOM     28  O   UNL     1     139.123 127.876 109.841  1.00  0.00    -0.387 OA
ATOM     29  H   UNL     1     140.039 127.513 109.968  1.00  0.00     0.211 HD
ENDBRANCH  23  28
BRANCH  24  30
ATOM     30  C   UNL     1     135.101 126.531 111.733  1.00  0.00     0.191 C 
BRANCH  30  31
ATOM     31  O   UNL     1     135.374 127.888 111.953  1.00  0.00    -0.394 OA
ATOM     32  H   UNL     1     135.025 128.372 111.160  1.00  0.00     0.210 HD
ENDBRANCH  30  31
ENDBRANCH  24  30
BRANCH  25  33
ATOM     33  O   UNL     1     138.648 126.225 112.208  1.00  0.00    -0.388 OA
ATOM     34  H   UNL     1     138.575 126.754 113.045  1.00  0.00     0.211 HD
ENDBRANCH  25  33
ENDBRANCH  11  20
BRANCH  10  35
ATOM     35  O   UNL     1     135.436 127.426 106.739  1.00  0.00    -0.507 OA
ATOM     36  H   UNL     1     136.225 126.935 106.335  1.00  0.00     0.293 HD
ENDBRANCH  10  35
TORSDOF 9
ENDMDL
MODEL 4
REMARK VINA RESULT:    -5.313      9.318     11.672
REMARK INTER + INTRA:          -6.869
REMARK INTER:                  -7.180
REMARK INTRA:                   0.311
REMARK UNBOUND:                 0.307
REMARK SMILES O=c1c(-c2ccc(O)cc2)coc2c([C@@H]3O[C@H](CO)[C@@H](O)[C@H](O)[C@@H]3O)c(O)ccc12
REMARK SMILES IDX 3 1 11 2 12 3 13 4 30 5 2 6 1 7 29 8 28 9 26 10 14 11 4 12
REMARK SMILES IDX 5 13 6 14 7 15 10 16 9 17 8 18 15 20 24 21 16 22 22 23 17 24
REMARK SMILES IDX 20 25 25 26 23 28 18 30 19 31 21 33 27 35
REMARK H PARENT 8 19 25 27 23 29 19 32 21 34 27 36
REMARK Flexibility Score: inf
ROOT
ATOM      1  C   UNL     1     126.456 125.518 108.059  1.00  0.00     0.065 A 
ATOM      2  C   UNL     1     127.466 125.374 109.018  1.00  0.00     0.208 A 
ATOM      3  O   UNL     1     127.866 124.171 109.410  1.00  0.00    -0.463 OA
ATOM      4  C   UNL     1     127.357 123.035 108.938  1.00  0.00     0.147 A 
ATOM      5  C   UNL     1     126.301 123.094 107.996  1.00  0.00     0.066 A 
ATOM      6  C   UNL     1     125.858 124.352 107.550  1.00  0.00     0.200 A 
ATOM      7  O   UNL     1     124.912 124.438 106.718  1.00  0.00    -0.288 OA
ATOM      8  C   UNL     1     125.698 121.909 107.554  1.00  0.00     0.020 A 
ATOM      9  C   UNL     1     126.095 120.687 108.083  1.00  0.00     0.047 A 
ATOM     10  C   UNL     1     127.131 120.613 109.020  1.00  0.00     0.125 A 
ATOM     11  C   UNL     1     127.855 121.780 109.389  1.00  0.00     0.069 A 
ENDROOT
BRANCH   1  12
ATOM     12  C   UNL     1     126.039 126.873 107.620  1.00  0.00    -0.011 A 
ATOM     13  C   UNL     1     126.568 127.441 106.447  1.00  0.00     0.013 A 
ATOM     14  C   UNL     1     126.178 128.722 106.043  1.00  0.00     0.047 A 
ATOM     15  C   UNL     1     125.263 129.452 106.806  1.00  0.00     0.115 A 
ATOM     16  C   UNL     1     125.124 127.616 108.385  1.00  0.00     0.013 A 
ATOM     17  C   UNL     1     124.736 128.896 107.979  1.00  0.00     0.047 A 
BRANCH  15  18
ATOM     18  O   UNL     1     124.885 130.727 106.392  1.00  0.00    -0.508 OA
ATOM     19  H   UNL     1     124.879 130.986 105.412  1.00  0.00     0.293 HD
ENDBRANCH  15  18
ENDBRANCH   1  12
BRANCH  11  20
ATOM     20  C   UNL     1     129.037 121.697 110.380  1.00  0.00     0.188 C 
ATOM     21  C   UNL     1     129.940 120.426 110.273  1.00  0.00     0.179 C 
ATOM     22  O   UNL     1     129.782 122.916 110.450  1.00  0.00    -0.362 OA
ATOM     23  C   UNL     1     131.330 120.736 110.837  1.00  0.00     0.177 C 
ATOM     24  C   UNL     1     130.965 122.969 109.657  1.00  0.00     0.176 C 
ATOM     25  C   UNL     1     131.982 121.835 109.996  1.00  0.00     0.177 C 
BRANCH  21  26
ATOM     26  O   UNL     1     130.044 119.989 108.939  1.00  0.00    -0.387 OA
ATOM     27  H   UNL     1     130.403 119.063 108.963  1.00  0.00     0.211 HD
ENDBRANCH  21  26
BRANCH  23  28
ATOM     28  O   UNL     1     132.139 119.588 110.821  1.00  0.00    -0.387 OA
ATOM     29  H   UNL     1     131.825 119.028 110.064  1.00  0.00     0.211 HD
ENDBRANCH  23  28
BRANCH  24  30
ATOM     30  C   UNL     1     130.660 123.088 108.151  1.00  0.00     0.191 C 
BRANCH  30  31
ATOM     31  O   UNL     1     131.364 122.106 107.440  1.00  0.00    -0.394 OA
ATOM     32  H   UNL     1     131.056 121.233 107.797  1.00  0.00     0.210 HD
ENDBRANCH  30  31
ENDBRANCH  24  30
BRANCH  25  33
ATOM     33  O   UNL     1     133.078 122.355 110.704  1.00  0.00    -0.388 OA
ATOM     34  H   UNL     1     133.009 122.009 111.632  1.00  0.00     0.211 HD
ENDBRANCH  25  33
ENDBRANCH  11  20
BRANCH  10  35
ATOM     35  O   UNL     1     127.417 119.378 109.599  1.00  0.00    -0.507 OA
ATOM     36  H   UNL     1     126.783 118.933 110.255  1.00  0.00     0.293 HD
ENDBRANCH  10  35
TORSDOF 9
ENDMDL
MODEL 5
REMARK VINA RESULT:    -5.308      3.544      8.232
REMARK INTER + INTRA:          -6.862
REMARK INTER:                  -7.268
REMARK INTRA:                   0.405
REMARK UNBOUND:                 0.307
REMARK SMILES O=c1c(-c2ccc(O)cc2)coc2c([C@@H]3O[C@H](CO)[C@@H](O)[C@H](O)[C@@H]3O)c(O)ccc12
REMARK SMILES IDX 3 1 11 2 12 3 13 4 30 5 2 6 1 7 29 8 28 9 26 10 14 11 4 12
REMARK SMILES IDX 5 13 6 14 7 15 10 16 9 17 8 18 15 20 24 21 16 22 22 23 17 24
REMARK SMILES IDX 20 25 25 26 23 28 18 30 19 31 21 33 27 35
REMARK H PARENT 8 19 25 27 23 29 19 32 21 34 27 36
REMARK Flexibility Score: inf
ROOT
ATOM      1  C   UNL     1     126.013 130.735 110.924  1.00  0.00     0.065 A 
ATOM      2  C   UNL     1     125.181 130.785 109.799  1.00  0.00     0.208 A 
ATOM      3  O   UNL     1     123.938 131.240 109.890  1.00  0.00    -0.463 OA
ATOM      4  C   UNL     1     123.395 131.675 111.025  1.00  0.00     0.147 A 
ATOM      5  C   UNL     1     124.156 131.619 112.219  1.00  0.00     0.066 A 
ATOM      6  C   UNL     1     125.482 131.151 112.157  1.00  0.00     0.200 A 
ATOM      7  O   UNL     1     126.182 131.079 113.204  1.00  0.00    -0.288 OA
ATOM      8  C   UNL     1     123.570 131.994 113.434  1.00  0.00     0.020 A 
ATOM      9  C   UNL     1     122.231 132.363 113.476  1.00  0.00     0.047 A 
ATOM     10  C   UNL     1     121.464 132.416 112.308  1.00  0.00     0.125 A 
ATOM     11  C   UNL     1     122.062 132.174 111.041  1.00  0.00     0.069 A 
ENDROOT
BRANCH   1  12
ATOM     12  C   UNL     1     127.407 130.241 110.794  1.00  0.00    -0.011 A 
ATOM     13  C   UNL     1     128.454 131.125 110.479  1.00  0.00     0.013 A 
ATOM     14  C   UNL     1     129.764 130.653 110.349  1.00  0.00     0.047 A 
ATOM     15  C   UNL     1     130.043 129.295 110.524  1.00  0.00     0.115 A 
ATOM     16  C   UNL     1     127.694 128.875 110.963  1.00  0.00     0.013 A 
ATOM     17  C   UNL     1     129.004 128.406 110.832  1.00  0.00     0.047 A 
BRANCH  15  18
ATOM     18  O   UNL     1     131.352 128.838 110.390  1.00  0.00    -0.508 OA
ATOM     19  H   UNL     1     131.594 128.108 109.730  1.00  0.00     0.293 HD
ENDBRANCH  15  18
ENDBRANCH   1  12
BRANCH  11  20
ATOM     20  C   UNL     1     121.234 132.287 109.741  1.00  0.00     0.188 C 
ATOM     21  C   UNL     1     120.172 133.433 109.697  1.00  0.00     0.179 C 
ATOM     22  O   UNL     1     122.046 132.221 108.565  1.00  0.00    -0.362 OA
ATOM     23  C   UNL     1     119.881 133.805 108.239  1.00  0.00     0.177 C 
ATOM     24  C   UNL     1     122.398 133.472 107.981  1.00  0.00     0.176 C 
ATOM     25  C   UNL     1     121.161 134.337 107.589  1.00  0.00     0.177 C 
BRANCH  21  26
ATOM     26  O   UNL     1     120.618 134.564 110.406  1.00  0.00    -0.387 OA
ATOM     27  H   UNL     1     121.102 135.142 109.759  1.00  0.00     0.211 HD
ENDBRANCH  21  26
BRANCH  23  28
ATOM     28  O   UNL     1     118.875 134.782 108.168  1.00  0.00    -0.387 OA
ATOM     29  H   UNL     1     118.067 134.392 108.594  1.00  0.00     0.211 HD
ENDBRANCH  23  28
BRANCH  24  30
ATOM     30  C   UNL     1     123.442 134.239 108.817  1.00  0.00     0.191 C 
BRANCH  30  31
ATOM     31  O   UNL     1     124.736 133.861 108.432  1.00  0.00    -0.394 OA
ATOM     32  H   UNL     1     125.286 133.880 109.258  1.00  0.00     0.210 HD
ENDBRANCH  30  31
ENDBRANCH  24  30
BRANCH  25  33
ATOM     33  O   UNL     1     120.989 134.344 106.195  1.00  0.00    -0.388 OA
ATOM     34  H   UNL     1     120.323 135.052 105.992  1.00  0.00     0.211 HD
ENDBRANCH  25  33
ENDBRANCH  11  20
BRANCH  10  35
ATOM     35  O   UNL     1     120.101 132.687 112.419  1.00  0.00    -0.507 OA
ATOM     36  H   UNL     1     119.685 132.996 113.291  1.00  0.00     0.293 HD
ENDBRANCH  10  35
TORSDOF 9
ENDMDL
MODEL 6
REMARK VINA RESULT:    -5.301      3.928      7.544
REMARK INTER + INTRA:          -6.853
REMARK INTER:                  -7.156
REMARK INTRA:                   0.303
REMARK UNBOUND:                 0.307
REMARK SMILES O=c1c(-c2ccc(O)cc2)coc2c([C@@H]3O[C@H](CO)[C@@H](O)[C@H](O)[C@@H]3O)c(O)ccc12
REMARK SMILES IDX 3 1 11 2 12 3 13 4 30 5 2 6 1 7 29 8 28 9 26 10 14 11 4 12
REMARK SMILES IDX 5 13 6 14 7 15 10 16 9 17 8 18 15 20 24 21 16 22 22 23 17 24
REMARK SMILES IDX 20 25 25 26 23 28 18 30 19 31 21 33 27 35
REMARK H PARENT 8 19 25 27 23 29 19 32 21 34 27 36
REMARK Flexibility Score: inf
ROOT
ATOM      1  C   UNL     1     129.715 128.835 111.798  1.00  0.00     0.065 A 
ATOM      2  C   UNL     1     129.785 129.658 110.668  1.00  0.00     0.208 A 
ATOM      3  O   UNL     1     128.882 130.608 110.459  1.00  0.00    -0.463 OA
ATOM      4  C   UNL     1     127.866 130.851 111.283  1.00  0.00     0.147 A 
ATOM      5  C   UNL     1     127.698 130.034 112.429  1.00  0.00     0.066 A 
ATOM      6  C   UNL     1     128.642 129.023 112.686  1.00  0.00     0.200 A 
ATOM      7  O   UNL     1     128.514 128.273 113.693  1.00  0.00    -0.288 OA
ATOM      8  C   UNL     1     126.586 130.223 113.259  1.00  0.00     0.020 A 
ATOM      9  C   UNL     1     125.621 131.167 112.927  1.00  0.00     0.047 A 
ATOM     10  C   UNL     1     125.769 131.976 111.795  1.00  0.00     0.125 A 
ATOM     11  C   UNL     1     126.950 131.905 111.007  1.00  0.00     0.069 A 
ENDROOT
BRANCH   1  12
ATOM     12  C   UNL     1     130.747 127.792 112.021  1.00  0.00    -0.011 A 
ATOM     13  C   UNL     1     131.882 128.063 112.806  1.00  0.00     0.013 A 
ATOM     14  C   UNL     1     132.856 127.080 113.006  1.00  0.00     0.047 A 
ATOM     15  C   UNL     1     132.714 125.819 112.420  1.00  0.00     0.115 A 
ATOM     16  C   UNL     1     130.613 126.524 111.431  1.00  0.00     0.013 A 
ATOM     17  C   UNL     1     131.589 125.543 111.632  1.00  0.00     0.047 A 
BRANCH  15  18
ATOM     18  O   UNL     1     133.692 124.850 112.627  1.00  0.00    -0.508 OA
ATOM     19  H   UNL     1     134.431 124.690 111.951  1.00  0.00     0.293 HD
ENDBRANCH  15  18
ENDBRANCH   1  12
BRANCH  11  20
ATOM     20  C   UNL     1     127.145 132.835 109.789  1.00  0.00     0.188 C 
ATOM     21  C   UNL     1     126.543 134.272 109.914  1.00  0.00     0.179 C 
ATOM     22  O   UNL     1     128.488 132.824 109.297  1.00  0.00    -0.362 OA
ATOM     23  C   UNL     1     127.289 135.223 108.972  1.00  0.00     0.177 C 
ATOM     24  C   UNL     1     129.322 133.889 109.744  1.00  0.00     0.176 C 
ATOM     25  C   UNL     1     128.758 135.300 109.392  1.00  0.00     0.177 C 
BRANCH  21  26
ATOM     26  O   UNL     1     126.624 134.741 111.239  1.00  0.00    -0.387 OA
ATOM     27  H   UNL     1     126.896 133.971 111.804  1.00  0.00     0.211 HD
ENDBRANCH  21  26
BRANCH  23  28
ATOM     28  O   UNL     1     126.719 136.506 109.010  1.00  0.00    -0.387 OA
ATOM     29  H   UNL     1     125.735 136.381 109.037  1.00  0.00     0.211 HD
ENDBRANCH  23  28
BRANCH  24  30
ATOM     30  C   UNL     1     129.723 133.742 111.226  1.00  0.00     0.191 C 
BRANCH  30  31
ATOM     31  O   UNL     1     129.543 134.961 111.894  1.00  0.00    -0.394 OA
ATOM     32  H   UNL     1     130.280 135.553 111.592  1.00  0.00     0.210 HD
ENDBRANCH  30  31
ENDBRANCH  24  30
BRANCH  25  33
ATOM     33  O   UNL     1     129.497 135.877 108.345  1.00  0.00    -0.388 OA
ATOM     34  H   UNL     1     128.898 136.529 107.897  1.00  0.00     0.211 HD
ENDBRANCH  25  33
ENDBRANCH  11  20
BRANCH  10  35
ATOM     35  O   UNL     1     124.724 132.830 111.447  1.00  0.00    -0.507 OA
ATOM     36  H   UNL     1     124.304 132.817 110.524  1.00  0.00     0.293 HD
ENDBRANCH  10  35
TORSDOF 9
ENDMDL
MODEL 7
REMARK VINA RESULT:    -5.276      4.297      8.150
REMARK INTER + INTRA:          -6.820
REMARK INTER:                  -8.133
REMARK INTRA:                   1.313
REMARK UNBOUND:                 0.307
REMARK SMILES O=c1c(-c2ccc(O)cc2)coc2c([C@@H]3O[C@H](CO)[C@@H](O)[C@H](O)[C@@H]3O)c(O)ccc12
REMARK SMILES IDX 3 1 11 2 12 3 13 4 30 5 2 6 1 7 29 8 28 9 26 10 14 11 4 12
REMARK SMILES IDX 5 13 6 14 7 15 10 16 9 17 8 18 15 20 24 21 16 22 22 23 17 24
REMARK SMILES IDX 20 25 25 26 23 28 18 30 19 31 21 33 27 35
REMARK H PARENT 8 19 25 27 23 29 19 32 21 34 27 36
REMARK Flexibility Score: inf
ROOT
ATOM      1  C   UNL     1     126.442 130.657 111.667  1.00  0.00     0.065 A 
ATOM      2  C   UNL     1     126.106 131.108 110.386  1.00  0.00     0.208 A 
ATOM      3  O   UNL     1     124.961 131.741 110.165  1.00  0.00    -0.463 OA
ATOM      4  C   UNL     1     124.064 131.993 111.116  1.00  0.00     0.147 A 
ATOM      5  C   UNL     1     124.309 131.532 112.433  1.00  0.00     0.066 A 
ATOM      6  C   UNL     1     125.517 130.865 112.705  1.00  0.00     0.200 A 
ATOM      7  O   UNL     1     125.760 130.433 113.866  1.00  0.00    -0.288 OA
ATOM      8  C   UNL     1     123.337 131.715 113.424  1.00  0.00     0.020 A 
ATOM      9  C   UNL     1     122.115 132.294 113.103  1.00  0.00     0.047 A 
ATOM     10  C   UNL     1     121.855 132.748 111.806  1.00  0.00     0.125 A 
ATOM     11  C   UNL     1     122.867 132.701 110.809  1.00  0.00     0.069 A 
ENDROOT
BRANCH   1  12
ATOM     12  C   UNL     1     127.738 129.968 111.894  1.00  0.00    -0.011 A 
ATOM     13  C   UNL     1     128.858 130.683 112.357  1.00  0.00     0.013 A 
ATOM     14  C   UNL     1     130.078 130.032 112.560  1.00  0.00     0.047 A 
ATOM     15  C   UNL     1     130.198 128.664 112.299  1.00  0.00     0.115 A 
ATOM     16  C   UNL     1     127.867 128.594 111.629  1.00  0.00     0.013 A 
ATOM     17  C   UNL     1     129.089 127.946 111.833  1.00  0.00     0.047 A 
BRANCH  15  18
ATOM     18  O   UNL     1     131.420 128.029 112.506  1.00  0.00    -0.508 OA
ATOM     19  H   UNL     1     132.299 128.520 112.389  1.00  0.00     0.293 HD
ENDBRANCH  15  18
ENDBRANCH   1  12
BRANCH  11  20
ATOM     20  C   UNL     1     122.606 133.253 109.390  1.00  0.00     0.188 C 
ATOM     21  C   UNL     1     123.093 132.361 108.202  1.00  0.00     0.179 C 
ATOM     22  O   UNL     1     121.270 133.736 109.225  1.00  0.00    -0.362 OA
ATOM     23  C   UNL     1     122.280 132.693 106.946  1.00  0.00     0.177 C 
ATOM     24  C   UNL     1     120.353 132.833 108.613  1.00  0.00     0.176 C 
ATOM     25  C   UNL     1     120.807 132.363 107.197  1.00  0.00     0.177 C 
BRANCH  21  26
ATOM     26  O   UNL     1     122.970 130.994 108.511  1.00  0.00    -0.387 OA
ATOM     27  H   UNL     1     123.748 130.753 109.082  1.00  0.00     0.211 HD
ENDBRANCH  21  26
BRANCH  23  28
ATOM     28  O   UNL     1     122.748 131.959 105.845  1.00  0.00    -0.387 OA
ATOM     29  H   UNL     1     122.408 131.032 105.954  1.00  0.00     0.211 HD
ENDBRANCH  23  28
BRANCH  24  30
ATOM     30  C   UNL     1     119.958 131.672 109.547  1.00  0.00     0.191 C 
BRANCH  30  31
ATOM     31  O   UNL     1     120.043 130.454 108.859  1.00  0.00    -0.394 OA
ATOM     32  H   UNL     1     119.262 130.427 108.248  1.00  0.00     0.210 HD
ENDBRANCH  30  31
ENDBRANCH  24  30
BRANCH  25  33
ATOM     33  O   UNL     1     120.031 132.981 106.202  1.00  0.00    -0.388 OA
ATOM     34  H   UNL     1     120.088 133.959 106.361  1.00  0.00     0.211 HD
ENDBRANCH  25  33
ENDBRANCH  11  20
BRANCH  10  35
ATOM     35  O   UNL     1     120.578 133.221 111.510  1.00  0.00    -0.507 OA
ATOM     36  H   UNL     1     120.430 134.079 110.992  1.00  0.00     0.293 HD
ENDBRANCH  10  35
TORSDOF 9
ENDMDL
MODEL 8
REMARK VINA RESULT:    -5.127      6.643      9.856
REMARK INTER + INTRA:          -6.618
REMARK INTER:                  -7.009
REMARK INTRA:                   0.391
REMARK UNBOUND:                 0.307
REMARK SMILES O=c1c(-c2ccc(O)cc2)coc2c([C@@H]3O[C@H](CO)[C@@H](O)[C@H](O)[C@@H]3O)c(O)ccc12
REMARK SMILES IDX 3 1 11 2 12 3 13 4 30 5 2 6 1 7 29 8 28 9 26 10 14 11 4 12
REMARK SMILES IDX 5 13 6 14 7 15 10 16 9 17 8 18 15 20 24 21 16 22 22 23 17 24
REMARK SMILES IDX 20 25 25 26 23 28 18 30 19 31 21 33 27 35
REMARK H PARENT 8 19 25 27 23 29 19 32 21 34 27 36
REMARK Flexibility Score: inf
ROOT
ATOM      1  C   UNL     1     130.101 127.487 111.642  1.00  0.00     0.065 A 
ATOM      2  C   UNL     1     131.387 128.010 111.821  1.00  0.00     0.208 A 
ATOM      3  O   UNL     1     132.460 127.240 111.691  1.00  0.00    -0.463 OA
ATOM      4  C   UNL     1     132.404 125.945 111.388  1.00  0.00     0.147 A 
ATOM      5  C   UNL     1     131.138 125.328 111.233  1.00  0.00     0.066 A 
ATOM      6  C   UNL     1     129.979 126.117 111.354  1.00  0.00     0.200 A 
ATOM      7  O   UNL     1     128.836 125.595 111.230  1.00  0.00    -0.288 OA
ATOM      8  C   UNL     1     131.062 123.950 110.998  1.00  0.00     0.020 A 
ATOM      9  C   UNL     1     132.220 123.182 110.976  1.00  0.00     0.047 A 
ATOM     10  C   UNL     1     133.477 123.775 111.135  1.00  0.00     0.125 A 
ATOM     11  C   UNL     1     133.600 125.187 111.240  1.00  0.00     0.069 A 
ENDROOT
BRANCH   1  12
ATOM     12  C   UNL     1     128.916 128.372 111.772  1.00  0.00    -0.011 A 
ATOM     13  C   UNL     1     128.520 128.859 113.031  1.00  0.00     0.013 A 
ATOM     14  C   UNL     1     127.399 129.684 113.150  1.00  0.00     0.047 A 
ATOM     15  C   UNL     1     126.655 130.030 112.018  1.00  0.00     0.115 A 
ATOM     16  C   UNL     1     128.161 128.718 110.639  1.00  0.00     0.013 A 
ATOM     17  C   UNL     1     127.039 129.544 110.761  1.00  0.00     0.047 A 
BRANCH  15  18
ATOM     18  O   UNL     1     125.540 130.852 112.151  1.00  0.00    -0.508 OA
ATOM     19  H   UNL     1     125.286 131.261 113.044  1.00  0.00     0.293 HD
ENDBRANCH  15  18
ENDBRANCH   1  12
BRANCH  11  20
ATOM     20  C   UNL     1     134.989 125.853 111.359  1.00  0.00     0.188 C 
ATOM     21  C   UNL     1     136.155 125.162 110.580  1.00  0.00     0.179 C 
ATOM     22  O   UNL     1     134.938 127.269 111.163  1.00  0.00    -0.362 OA
ATOM     23  C   UNL     1     137.256 126.188 110.290  1.00  0.00     0.177 C 
ATOM     24  C   UNL     1     135.268 127.728 109.855  1.00  0.00     0.176 C 
ATOM     25  C   UNL     1     136.692 127.291 109.392  1.00  0.00     0.177 C 
BRANCH  21  26
ATOM     26  O   UNL     1     135.694 124.592 109.379  1.00  0.00    -0.387 OA
ATOM     27  H   UNL     1     134.821 124.160 109.577  1.00  0.00     0.211 HD
ENDBRANCH  21  26
BRANCH  23  28
ATOM     28  O   UNL     1     138.349 125.575 109.657  1.00  0.00    -0.387 OA
ATOM     29  H   UNL     1     138.615 126.170 108.907  1.00  0.00     0.211 HD
ENDBRANCH  23  28
BRANCH  24  30
ATOM     30  C   UNL     1     134.166 127.414 108.825  1.00  0.00     0.191 C 
BRANCH  30  31
ATOM     31  O   UNL     1     134.719 126.760 107.715  1.00  0.00    -0.394 OA
ATOM     32  H   UNL     1     134.738 127.428 106.982  1.00  0.00     0.210 HD
ENDBRANCH  30  31
ENDBRANCH  24  30
BRANCH  25  33
ATOM     33  O   UNL     1     137.573 128.385 109.415  1.00  0.00    -0.388 OA
ATOM     34  H   UNL     1     137.391 128.917 108.597  1.00  0.00     0.211 HD
ENDBRANCH  25  33
ENDBRANCH  11  20
BRANCH  10  35
ATOM     35  O   UNL     1     134.597 122.948 111.214  1.00  0.00    -0.507 OA
ATOM     36  H   UNL     1     134.736 122.172 110.577  1.00  0.00     0.293 HD
ENDBRANCH  10  35
TORSDOF 9
ENDMDL
