MODEL 1
REMARK VINA RESULT:    59.300      0.000      0.000
REMARK INTER + INTRA:          74.800
REMARK INTER:                  74.900
REMARK INTRA:                  -0.100
REMARK UNBOUND:                -0.100
REMARK SMILES CC(C)[C@H](C)C=C[C@@H](C)[C@@H]1CC[C@H]2C3=CC=C4C[C@@H](O)CC[C@@]4(C)[C@@H]3CC[C@]21C
REMARK SMILES IDX 8 1 9 2 7 3 6 4 4 5 5 6 2 7 1 8 3 9 10 10 11 11 28 12 12 13
REMARK SMILES IDX 13 14 27 15 29 16 14 17 26 18 25 19 15 20 23 21 16 22 17 23
REMARK SMILES IDX 22 24 24 25 18 26 21 27 19 28 20 29
REMARK H PARENT 20 30
REMARK Flexibility Score: inf
ROOT
ATOM      1  C   UNL     1     -27.001  31.902  -2.379  1.00  0.00     0.012 C 
ATOM      2  C   UNL     1     -26.519  30.846  -1.358  1.00  0.00     0.012 C 
ENDROOT
BRANCH   1   3
ATOM      3  C   UNL     1     -28.454  31.584  -2.666  1.00  0.00    -0.028 C 
ATOM      4  C   UNL     1     -29.505  32.283  -2.183  1.00  0.00    -0.028 C 
BRANCH   4   5
ATOM      5  C   UNL     1     -29.430  33.458  -1.213  1.00  0.00     0.011 C 
ATOM      6  C   UNL     1     -30.573  34.456  -1.506  1.00  0.00     0.012 C 
BRANCH   5   7
ATOM      7  C   UNL     1     -29.493  32.938   0.262  1.00  0.00    -0.011 C 
ATOM      8  C   UNL     1     -30.228  31.590   0.379  1.00  0.00     0.008 C 
ATOM      9  C   UNL     1     -30.185  33.962   1.180  1.00  0.00     0.008 C 
ENDBRANCH   5   7
ENDBRANCH   4   5
ENDBRANCH   1   3
BRANCH   1  10
ATOM     10  C   UNL     1     -26.114  31.895  -3.687  1.00  0.00     0.002 C 
ATOM     11  C   UNL     1     -26.321  33.207  -4.459  1.00  0.00     0.005 C 
ATOM     12  C   UNL     1     -26.387  30.790  -4.793  1.00  0.00    -0.023 C 
ATOM     13  C   UNL     1     -27.451  32.942  -5.429  1.00  0.00     0.009 C 
ATOM     14  C   UNL     1     -27.321  31.474  -5.846  1.00  0.00     0.021 C 
ATOM     15  C   UNL     1     -25.025  30.306  -5.431  1.00  0.00     0.008 C 
ATOM     16  C   UNL     1     -27.087  29.505  -4.290  1.00  0.00     0.012 C 
ATOM     17  C   UNL     1     -26.758  31.320  -7.246  1.00  0.00    -0.063 C 
ATOM     18  C   UNL     1     -24.383  31.222  -6.509  1.00  0.00     0.009 C 
ATOM     19  C   UNL     1     -25.390  31.908  -7.488  1.00  0.00     0.025 C 
ATOM     20  C   UNL     1     -27.178  30.305  -8.013  1.00  0.00    -0.000 C 
ATOM     21  C   UNL     1     -25.002  31.928  -9.022  1.00  0.00    -0.005 C 
ATOM     22  C   UNL     1     -26.467  29.925  -9.240  1.00  0.00    -0.000 C 
ATOM     23  C   UNL     1     -25.437  30.645  -9.720  1.00  0.00    -0.061 C 
ATOM     24  C   UNL     1     -25.770  33.079  -9.741  1.00  0.00     0.014 C 
ATOM     25  C   UNL     1     -23.471  32.167  -9.178  1.00  0.00     0.017 C 
ATOM     26  C   UNL     1     -25.145  30.553 -11.199  1.00  0.00     0.063 C 
ATOM     27  C   UNL     1     -25.633  33.058 -11.288  1.00  0.00     0.033 C 
ATOM     28  C   UNL     1     -25.924  31.676 -11.916  1.00  0.00     0.118 C 
BRANCH  28  29
ATOM     29  O   UNL     1     -27.306  31.424 -11.851  1.00  0.00    -0.393 OA
ATOM     30  H   UNL     1     -27.411  30.439 -11.752  1.00  0.00     0.210 HD
ENDBRANCH  28  29
ENDBRANCH   1  10
TORSDOF 5
ENDMDL
MODEL 2
REMARK VINA RESULT:    59.727      1.259      1.755
REMARK INTER + INTRA:          75.340
REMARK INTER:                  73.066
REMARK INTRA:                   2.274
REMARK UNBOUND:                -0.100
REMARK SMILES CC(C)[C@H](C)C=C[C@@H](C)[C@@H]1CC[C@H]2C3=CC=C4C[C@@H](O)CC[C@@]4(C)[C@@H]3CC[C@]21C
REMARK SMILES IDX 8 1 9 2 7 3 6 4 4 5 5 6 2 7 1 8 3 9 10 10 11 11 28 12 12 13
REMARK SMILES IDX 13 14 27 15 29 16 14 17 26 18 25 19 15 20 23 21 16 22 17 23
REMARK SMILES IDX 22 24 24 25 18 26 21 27 19 28 20 29
REMARK H PARENT 20 30
REMARK Flexibility Score: inf
ROOT
ATOM      1  C   UNL     1     -27.702  32.429  -2.325  1.00  0.00     0.012 C 
ATOM      2  C   UNL     1     -28.060  31.029  -1.775  1.00  0.00     0.012 C 
ENDROOT
BRANCH   1   3
ATOM      3  C   UNL     1     -29.011  33.075  -2.730  1.00  0.00    -0.028 C 
ATOM      4  C   UNL     1     -30.234  32.633  -2.362  1.00  0.00    -0.028 C 
BRANCH   4   5
ATOM      5  C   UNL     1     -30.525  31.378  -1.544  1.00  0.00     0.011 C 
ATOM      6  C   UNL     1     -30.472  31.709  -0.036  1.00  0.00     0.012 C 
BRANCH   5   7
ATOM      7  C   UNL     1     -31.917  30.787  -1.949  1.00  0.00    -0.011 C 
ATOM      8  C   UNL     1     -31.871  29.261  -2.147  1.00  0.00     0.008 C 
ATOM      9  C   UNL     1     -32.442  31.441  -3.240  1.00  0.00     0.008 C 
ENDBRANCH   5   7
ENDBRANCH   4   5
ENDBRANCH   1   3
BRANCH   1  10
ATOM     10  C   UNL     1     -26.679  32.339  -3.528  1.00  0.00     0.002 C 
ATOM     11  C   UNL     1     -26.912  33.511  -4.493  1.00  0.00     0.005 C 
ATOM     12  C   UNL     1     -26.734  31.077  -4.489  1.00  0.00    -0.023 C 
ATOM     13  C   UNL     1     -27.902  33.009  -5.522  1.00  0.00     0.009 C 
ATOM     14  C   UNL     1     -27.601  31.520  -5.713  1.00  0.00     0.021 C 
ATOM     15  C   UNL     1     -25.273  30.652  -4.916  1.00  0.00     0.008 C 
ATOM     16  C   UNL     1     -27.372  29.806  -3.880  1.00  0.00     0.012 C 
ATOM     17  C   UNL     1     -26.877  31.241  -7.015  1.00  0.00    -0.063 C 
ATOM     18  C   UNL     1     -24.598  31.478  -6.045  1.00  0.00     0.009 C 
ATOM     19  C   UNL     1     -25.546  31.926  -7.204  1.00  0.00     0.025 C 
ATOM     20  C   UNL     1     -27.122  30.098  -7.669  1.00  0.00    -0.000 C 
ATOM     21  C   UNL     1     -24.995  31.783  -8.680  1.00  0.00    -0.005 C 
ATOM     22  C   UNL     1     -26.250  29.632  -8.756  1.00  0.00    -0.000 C 
ATOM     23  C   UNL     1     -25.239  30.383  -9.230  1.00  0.00    -0.061 C 
ATOM     24  C   UNL     1     -25.776  32.747  -9.626  1.00  0.00     0.014 C 
ATOM     25  C   UNL     1     -23.483  32.152  -8.719  1.00  0.00     0.017 C 
ATOM     26  C   UNL     1     -24.779  30.127 -10.646  1.00  0.00     0.063 C 
ATOM     27  C   UNL     1     -25.468  32.538 -11.134  1.00  0.00     0.033 C 
ATOM     28  C   UNL     1     -25.568  31.063 -11.586  1.00  0.00     0.118 C 
BRANCH  28  29
ATOM     29  O   UNL     1     -26.922  30.684 -11.621  1.00  0.00    -0.393 OA
ATOM     30  H   UNL     1     -27.239  30.843 -12.551  1.00  0.00     0.210 HD
ENDBRANCH  28  29
ENDBRANCH   1  10
TORSDOF 5
ENDMDL
MODEL 3
REMARK VINA RESULT:    62.125      2.341      7.976
REMARK INTER + INTRA:          78.369
REMARK INTER:                  71.651
REMARK INTRA:                   6.718
REMARK UNBOUND:                -0.100
REMARK SMILES CC(C)[C@H](C)C=C[C@@H](C)[C@@H]1CC[C@H]2C3=CC=C4C[C@@H](O)CC[C@@]4(C)[C@@H]3CC[C@]21C
REMARK SMILES IDX 8 1 9 2 7 3 6 4 4 5 5 6 2 7 1 8 3 9 10 10 11 11 28 12 12 13
REMARK SMILES IDX 13 14 27 15 29 16 14 17 26 18 25 19 15 20 23 21 16 22 17 23
REMARK SMILES IDX 22 24 24 25 18 26 21 27 19 28 20 29
REMARK H PARENT 20 30
REMARK Flexibility Score: inf
ROOT
ATOM      1  C   UNL     1     -25.577  29.438  -9.183  1.00  0.00     0.012 C 
ATOM      2  C   UNL     1     -24.499  28.363  -9.449  1.00  0.00     0.012 C 
ENDROOT
BRANCH   1   3
ATOM      3  C   UNL     1     -25.253  30.602 -10.096  1.00  0.00    -0.028 C 
ATOM      4  C   UNL     1     -24.286  31.517  -9.864  1.00  0.00    -0.028 C 
BRANCH   4   5
ATOM      5  C   UNL     1     -23.403  31.592  -8.622  1.00  0.00     0.011 C 
ATOM      6  C   UNL     1     -22.737  30.222  -8.366  1.00  0.00     0.012 C 
BRANCH   5   7
ATOM      7  C   UNL     1     -22.333  32.721  -8.794  1.00  0.00    -0.011 C 
ATOM      8  C   UNL     1     -22.968  34.118  -8.922  1.00  0.00     0.008 C 
ATOM      9  C   UNL     1     -21.450  32.463 -10.028  1.00  0.00     0.008 C 
ENDBRANCH   5   7
ENDBRANCH   4   5
ENDBRANCH   1   3
BRANCH   1  10
ATOM     10  C   UNL     1     -25.615  29.862  -7.660  1.00  0.00     0.002 C 
ATOM     11  C   UNL     1     -26.668  29.026  -6.917  1.00  0.00     0.005 C 
ATOM     12  C   UNL     1     -26.022  31.350  -7.289  1.00  0.00    -0.023 C 
ATOM     13  C   UNL     1     -27.955  29.819  -6.993  1.00  0.00     0.009 C 
ATOM     14  C   UNL     1     -27.549  31.296  -6.953  1.00  0.00     0.021 C 
ATOM     15  C   UNL     1     -25.161  31.863  -6.066  1.00  0.00     0.008 C 
ATOM     16  C   UNL     1     -25.810  32.396  -8.409  1.00  0.00     0.012 C 
ATOM     17  C   UNL     1     -27.828  31.934  -5.607  1.00  0.00    -0.063 C 
ATOM     18  C   UNL     1     -25.596  31.394  -4.650  1.00  0.00     0.009 C 
ATOM     19  C   UNL     1     -27.139  31.317  -4.415  1.00  0.00     0.025 C 
ATOM     20  C   UNL     1     -28.194  33.222  -5.555  1.00  0.00    -0.000 C 
ATOM     21  C   UNL     1     -27.686  31.878  -3.040  1.00  0.00    -0.005 C 
ATOM     22  C   UNL     1     -28.185  33.973  -4.293  1.00  0.00    -0.000 C 
ATOM     23  C   UNL     1     -27.929  33.381  -3.112  1.00  0.00    -0.061 C 
ATOM     24  C   UNL     1     -29.077  31.243  -2.733  1.00  0.00     0.014 C 
ATOM     25  C   UNL     1     -26.700  31.517  -1.890  1.00  0.00     0.017 C 
ATOM     26  C   UNL     1     -28.478  34.033  -1.866  1.00  0.00     0.063 C 
ATOM     27  C   UNL     1     -29.806  31.880  -1.519  1.00  0.00     0.033 C 
ATOM     28  C   UNL     1     -29.865  33.424  -1.574  1.00  0.00     0.118 C 
BRANCH  28  29
ATOM     29  O   UNL     1     -30.784  33.813  -2.565  1.00  0.00    -0.393 OA
ATOM     30  H   UNL     1     -30.303  33.763  -3.435  1.00  0.00     0.210 HD
ENDBRANCH  28  29
ENDBRANCH   1  10
TORSDOF 5
ENDMDL
