MODEL 1
REMARK VINA RESULT:    -4.398      0.000      0.000
REMARK INTER + INTRA:          -8.238
REMARK INTER:                  -6.968
REMARK INTRA:                  -1.270
REMARK UNBOUND:                -1.270
REMARK SMILES CCCCCCCCCCCC(=O)[O-]
REMARK SMILES IDX 7 1 8 2 9 3 10 4 11 5 12 6 13 7 14 8 6 9 5 10 4 11 3 12 2 13
REMARK SMILES IDX 1 14
REMARK H PARENT
REMARK Flexibility Score: inf
ROOT
ATOM      1  C   UNL     1      43.494  20.614  13.016  1.00  0.00     0.000 C 
ENDROOT
BRANCH   1   2
ATOM      2  C   UNL     1      42.985  21.707  12.062  1.00  0.00     0.000 C 
BRANCH   2   3
ATOM      3  C   UNL     1      42.965  21.249  10.595  1.00  0.00     0.000 C 
BRANCH   3   4
ATOM      4  C   UNL     1      41.881  21.961   9.763  1.00  0.00     0.006 C 
BRANCH   4   5
ATOM      5  C   UNL     1      40.982  21.017   8.949  1.00  0.00     0.053 C 
BRANCH   5   6
ATOM      6  C   UNL     1      41.780  20.057   8.119  1.00  0.00     0.041 C 
ATOM      7  O   UNL     1      41.693  18.818   8.325  1.00  0.00    -0.550 OA
ATOM      8  O   UNL     1      42.644  20.534   7.142  1.00  0.00    -0.550 OA
ENDBRANCH   5   6
ENDBRANCH   4   5
ENDBRANCH   3   4
ENDBRANCH   2   3
ENDBRANCH   1   2
BRANCH   1   9
ATOM      9  C   UNL     1      43.883  19.317  12.283  1.00  0.00     0.000 C 
BRANCH   9  10
ATOM     10  C   UNL     1      42.978  18.132  12.683  1.00  0.00    -0.000 C 
BRANCH  10  11
ATOM     11  C   UNL     1      41.857  17.842  11.670  1.00  0.00    -0.000 C 
BRANCH  11  12
ATOM     12  C   UNL     1      40.576  18.644  11.954  1.00  0.00    -0.000 C 
BRANCH  12  13
ATOM     13  C   UNL     1      39.372  18.135  11.144  1.00  0.00    -0.003 C 
ATOM     14  C   UNL     1      38.403  19.253  10.757  1.00  0.00     0.004 C 
ENDBRANCH  12  13
ENDBRANCH  11  12
ENDBRANCH  10  11
ENDBRANCH   9  10
ENDBRANCH   1   9
TORSDOF 10
ENDMDL
MODEL 2
REMARK VINA RESULT:    -4.362      2.313      5.025
REMARK INTER + INTRA:          -8.181
REMARK INTER:                  -6.910
REMARK INTRA:                  -1.271
REMARK UNBOUND:                -1.270
REMARK SMILES CCCCCCCCCCCC(=O)[O-]
REMARK SMILES IDX 7 1 8 2 9 3 10 4 11 5 12 6 13 7 14 8 6 9 5 10 4 11 3 12 2 13
REMARK SMILES IDX 1 14
REMARK H PARENT
REMARK Flexibility Score: inf
ROOT
ATOM      1  C   UNL     1      39.919  18.932   9.942  1.00  0.00     0.000 C 
ENDROOT
BRANCH   1   2
ATOM      2  C   UNL     1      39.923  18.160  11.271  1.00  0.00     0.000 C 
BRANCH   2   3
ATOM      3  C   UNL     1      40.507  18.983  12.431  1.00  0.00     0.000 C 
BRANCH   3   4
ATOM      4  C   UNL     1      41.986  18.654  12.709  1.00  0.00     0.006 C 
BRANCH   4   5
ATOM      5  C   UNL     1      42.398  17.219  12.345  1.00  0.00     0.053 C 
BRANCH   5   6
ATOM      6  C   UNL     1      43.886  17.056  12.293  1.00  0.00     0.041 C 
ATOM      7  O   UNL     1      44.631  18.068  12.210  1.00  0.00    -0.550 OA
ATOM      8  O   UNL     1      44.448  15.786  12.300  1.00  0.00    -0.550 OA
ENDBRANCH   5   6
ENDBRANCH   4   5
ENDBRANCH   3   4
ENDBRANCH   2   3
ENDBRANCH   1   2
BRANCH   1   9
ATOM      9  C   UNL     1      41.179  18.672   9.096  1.00  0.00     0.000 C 
BRANCH   9  10
ATOM     10  C   UNL     1      41.731  19.967   8.465  1.00  0.00    -0.000 C 
BRANCH  10  11
ATOM     11  C   UNL     1      40.973  21.236   8.894  1.00  0.00    -0.000 C 
BRANCH  11  12
ATOM     12  C   UNL     1      41.878  22.259   9.599  1.00  0.00    -0.000 C 
BRANCH  12  13
ATOM     13  C   UNL     1      42.924  21.593  10.507  1.00  0.00    -0.003 C 
ATOM     14  C   UNL     1      42.930  22.163  11.925  1.00  0.00     0.004 C 
ENDBRANCH  12  13
ENDBRANCH  11  12
ENDBRANCH  10  11
ENDBRANCH   9  10
ENDBRANCH   1   9
TORSDOF 10
ENDMDL
MODEL 3
REMARK VINA RESULT:    -4.360      2.619      4.315
REMARK INTER + INTRA:          -8.178
REMARK INTER:                  -6.878
REMARK INTRA:                  -1.299
REMARK UNBOUND:                -1.270
REMARK SMILES CCCCCCCCCCCC(=O)[O-]
REMARK SMILES IDX 7 1 8 2 9 3 10 4 11 5 12 6 13 7 14 8 6 9 5 10 4 11 3 12 2 13
REMARK SMILES IDX 1 14
REMARK H PARENT
REMARK Flexibility Score: inf
ROOT
ATOM      1  C   UNL     1      40.166  20.062   9.437  1.00  0.00     0.000 C 
ENDROOT
BRANCH   1   2
ATOM      2  C   UNL     1      40.868  21.422   9.579  1.00  0.00     0.000 C 
BRANCH   2   3
ATOM      3  C   UNL     1      42.392  21.322   9.396  1.00  0.00     0.000 C 
BRANCH   3   4
ATOM      4  C   UNL     1      43.134  21.051  10.718  1.00  0.00     0.006 C 
BRANCH   4   5
ATOM      5  C   UNL     1      42.641  21.890  11.908  1.00  0.00     0.053 C 
BRANCH   5   6
ATOM      6  C   UNL     1      42.854  21.192  13.216  1.00  0.00     0.041 C 
ATOM      7  O   UNL     1      41.867  20.847  13.917  1.00  0.00    -0.550 OA
ATOM      8  O   UNL     1      44.142  20.953  13.676  1.00  0.00    -0.550 OA
ENDBRANCH   5   6
ENDBRANCH   4   5
ENDBRANCH   3   4
ENDBRANCH   2   3
ENDBRANCH   1   2
BRANCH   1   9
ATOM      9  C   UNL     1      39.032  19.865  10.460  1.00  0.00     0.000 C 
BRANCH   9  10
ATOM     10  C   UNL     1      39.458  18.950  11.628  1.00  0.00    -0.000 C 
BRANCH  10  11
ATOM     11  C   UNL     1      40.510  17.898  11.237  1.00  0.00    -0.000 C 
BRANCH  11  12
ATOM     12  C   UNL     1      41.655  17.793  12.257  1.00  0.00    -0.000 C 
BRANCH  12  13
ATOM     13  C   UNL     1      43.006  17.479  11.595  1.00  0.00    -0.003 C 
ATOM     14  C   UNL     1      44.091  17.111  12.607  1.00  0.00     0.004 C 
ENDBRANCH  12  13
ENDBRANCH  11  12
ENDBRANCH  10  11
ENDBRANCH   9  10
ENDBRANCH   1   9
TORSDOF 10
ENDMDL
MODEL 4
REMARK VINA RESULT:    -4.290      1.965      4.173
REMARK INTER + INTRA:          -8.068
REMARK INTER:                  -6.624
REMARK INTRA:                  -1.444
REMARK UNBOUND:                -1.270
REMARK SMILES CCCCCCCCCCCC(=O)[O-]
REMARK SMILES IDX 7 1 8 2 9 3 10 4 11 5 12 6 13 7 14 8 6 9 5 10 4 11 3 12 2 13
REMARK SMILES IDX 1 14
REMARK H PARENT
REMARK Flexibility Score: inf
ROOT
ATOM      1  C   UNL     1      43.215  18.367  12.665  1.00  0.00     0.000 C 
ENDROOT
BRANCH   1   2
ATOM      2  C   UNL     1      43.059  17.745  11.267  1.00  0.00     0.000 C 
BRANCH   2   3
ATOM      3  C   UNL     1      41.632  17.886  10.714  1.00  0.00     0.000 C 
BRANCH   3   4
ATOM      4  C   UNL     1      40.560  17.872  11.820  1.00  0.00     0.006 C 
BRANCH   4   5
ATOM      5  C   UNL     1      39.595  19.068  11.786  1.00  0.00     0.053 C 
BRANCH   5   6
ATOM      6  C   UNL     1      38.301  18.729  11.111  1.00  0.00     0.041 C 
ATOM      7  O   UNL     1      38.257  18.593   9.860  1.00  0.00    -0.550 OA
ATOM      8  O   UNL     1      37.139  18.598  11.860  1.00  0.00    -0.550 OA
ENDBRANCH   5   6
ENDBRANCH   4   5
ENDBRANCH   3   4
ENDBRANCH   2   3
ENDBRANCH   1   2
BRANCH   1   9
ATOM      9  C   UNL     1      43.831  19.777  12.626  1.00  0.00     0.000 C 
BRANCH   9  10
ATOM     10  C   UNL     1      42.774  20.878  12.853  1.00  0.00    -0.000 C 
BRANCH  10  11
ATOM     11  C   UNL     1      42.771  21.966  11.765  1.00  0.00    -0.000 C 
BRANCH  11  12
ATOM     12  C   UNL     1      42.921  21.391  10.347  1.00  0.00    -0.000 C 
BRANCH  12  13
ATOM     13  C   UNL     1      41.995  22.079   9.332  1.00  0.00    -0.003 C 
ATOM     14  C   UNL     1      40.676  21.332   9.131  1.00  0.00     0.004 C 
ENDBRANCH  12  13
ENDBRANCH  11  12
ENDBRANCH  10  11
ENDBRANCH   9  10
ENDBRANCH   1   9
TORSDOF 10
ENDMDL
MODEL 5
REMARK VINA RESULT:    -4.242      2.448      4.401
REMARK INTER + INTRA:          -7.991
REMARK INTER:                  -6.671
REMARK INTRA:                  -1.320
REMARK UNBOUND:                -1.270
REMARK SMILES CCCCCCCCCCCC(=O)[O-]
REMARK SMILES IDX 7 1 8 2 9 3 10 4 11 5 12 6 13 7 14 8 6 9 5 10 4 11 3 12 2 13
REMARK SMILES IDX 1 14
REMARK H PARENT
REMARK Flexibility Score: inf
ROOT
ATOM      1  C   UNL     1      42.008  20.810  13.725  1.00  0.00     0.000 C 
ENDROOT
BRANCH   1   2
ATOM      2  C   UNL     1      41.261  19.516  13.364  1.00  0.00     0.000 C 
BRANCH   2   3
ATOM      3  C   UNL     1      41.051  19.358  11.849  1.00  0.00     0.000 C 
BRANCH   3   4
ATOM      4  C   UNL     1      41.723  18.092  11.284  1.00  0.00     0.006 C 
BRANCH   4   5
ATOM      5  C   UNL     1      42.285  17.139  12.351  1.00  0.00     0.053 C 
BRANCH   5   6
ATOM      6  C   UNL     1      43.774  17.005  12.258  1.00  0.00     0.041 C 
ATOM      7  O   UNL     1      44.311  15.867  12.308  1.00  0.00    -0.550 OA
ATOM      8  O   UNL     1      44.570  18.138  12.150  1.00  0.00    -0.550 OA
ENDBRANCH   5   6
ENDBRANCH   4   5
ENDBRANCH   3   4
ENDBRANCH   2   3
ENDBRANCH   1   2
BRANCH   1   9
ATOM      9  C   UNL     1      43.053  21.211  12.668  1.00  0.00     0.000 C 
BRANCH   9  10
ATOM     10  C   UNL     1      42.876  22.672  12.204  1.00  0.00    -0.000 C 
BRANCH  10  11
ATOM     11  C   UNL     1      42.462  22.806  10.728  1.00  0.00    -0.000 C 
BRANCH  11  12
ATOM     12  C   UNL     1      43.097  21.729   9.832  1.00  0.00    -0.000 C 
BRANCH  12  13
ATOM     13  C   UNL     1      42.132  21.222   8.748  1.00  0.00    -0.003 C 
ATOM     14  C   UNL     1      40.677  21.599   9.026  1.00  0.00     0.004 C 
ENDBRANCH  12  13
ENDBRANCH  11  12
ENDBRANCH  10  11
ENDBRANCH   9  10
ENDBRANCH   1   9
TORSDOF 10
ENDMDL
MODEL 6
REMARK VINA RESULT:    -4.215      1.359      2.323
REMARK INTER + INTRA:          -7.948
REMARK INTER:                  -6.741
REMARK INTRA:                  -1.208
REMARK UNBOUND:                -1.270
REMARK SMILES CCCCCCCCCCCC(=O)[O-]
REMARK SMILES IDX 7 1 8 2 9 3 10 4 11 5 12 6 13 7 14 8 6 9 5 10 4 11 3 12 2 13
REMARK SMILES IDX 1 14
REMARK H PARENT
REMARK Flexibility Score: inf
ROOT
ATOM      1  C   UNL     1      43.049  21.202  12.478  1.00  0.00     0.000 C 
ENDROOT
BRANCH   1   2
ATOM      2  C   UNL     1      42.891  22.669  12.046  1.00  0.00     0.000 C 
BRANCH   2   3
ATOM      3  C   UNL     1      42.986  22.850  10.522  1.00  0.00     0.000 C 
BRANCH   3   4
ATOM      4  C   UNL     1      43.013  21.509   9.764  1.00  0.00     0.006 C 
BRANCH   4   5
ATOM      5  C   UNL     1      41.892  21.344   8.725  1.00  0.00     0.053 C 
BRANCH   5   6
ATOM      6  C   UNL     1      42.057  20.095   7.913  1.00  0.00     0.041 C 
ATOM      7  O   UNL     1      41.638  18.993   8.355  1.00  0.00    -0.550 OA
ATOM      8  O   UNL     1      42.703  20.144   6.685  1.00  0.00    -0.550 OA
ENDBRANCH   5   6
ENDBRANCH   4   5
ENDBRANCH   3   4
ENDBRANCH   2   3
ENDBRANCH   1   2
BRANCH   1   9
ATOM      9  C   UNL     1      42.278  20.874  13.770  1.00  0.00     0.000 C 
BRANCH   9  10
ATOM     10  C   UNL     1      41.210  19.783  13.546  1.00  0.00    -0.000 C 
BRANCH  10  11
ATOM     11  C   UNL     1      41.102  19.314  12.085  1.00  0.00    -0.000 C 
BRANCH  11  12
ATOM     12  C   UNL     1      41.441  17.824  11.910  1.00  0.00    -0.000 C 
BRANCH  12  13
ATOM     13  C   UNL     1      42.915  17.595  11.542  1.00  0.00    -0.003 C 
ATOM     14  C   UNL     1      43.757  17.122  12.727  1.00  0.00     0.004 C 
ENDBRANCH  12  13
ENDBRANCH  11  12
ENDBRANCH  10  11
ENDBRANCH   9  10
ENDBRANCH   1   9
TORSDOF 10
ENDMDL
MODEL 7
REMARK VINA RESULT:    -4.210      2.125      4.829
REMARK INTER + INTRA:          -7.941
REMARK INTER:                  -6.627
REMARK INTRA:                  -1.314
REMARK UNBOUND:                -1.270
REMARK SMILES CCCCCCCCCCCC(=O)[O-]
REMARK SMILES IDX 7 1 8 2 9 3 10 4 11 5 12 6 13 7 14 8 6 9 5 10 4 11 3 12 2 13
REMARK SMILES IDX 1 14
REMARK H PARENT
REMARK Flexibility Score: inf
ROOT
ATOM      1  C   UNL     1      41.549  19.965   8.432  1.00  0.00     0.000 C 
ENDROOT
BRANCH   1   2
ATOM      2  C   UNL     1      41.536  18.577   9.092  1.00  0.00     0.000 C 
BRANCH   2   3
ATOM      3  C   UNL     1      41.698  18.648  10.620  1.00  0.00     0.000 C 
BRANCH   3   4
ATOM      4  C   UNL     1      40.548  17.954  11.374  1.00  0.00     0.006 C 
BRANCH   4   5
ATOM      5  C   UNL     1      39.446  18.905  11.868  1.00  0.00     0.053 C 
BRANCH   5   6
ATOM      6  C   UNL     1      38.166  18.726  11.110  1.00  0.00     0.041 C 
ATOM      7  O   UNL     1      38.188  18.533   9.867  1.00  0.00    -0.550 OA
ATOM      8  O   UNL     1      36.948  18.808  11.773  1.00  0.00    -0.550 OA
ENDBRANCH   5   6
ENDBRANCH   4   5
ENDBRANCH   3   4
ENDBRANCH   2   3
ENDBRANCH   1   2
BRANCH   1   9
ATOM      9  C   UNL     1      41.013  21.073   9.358  1.00  0.00     0.000 C 
BRANCH   9  10
ATOM     10  C   UNL     1      41.997  22.256   9.476  1.00  0.00    -0.000 C 
BRANCH  10  11
ATOM     11  C   UNL     1      43.165  21.994  10.444  1.00  0.00    -0.000 C 
BRANCH  11  12
ATOM     12  C   UNL     1      42.833  22.377  11.895  1.00  0.00    -0.000 C 
BRANCH  12  13
ATOM     13  C   UNL     1      43.283  21.309  12.903  1.00  0.00    -0.003 C 
ATOM     14  C   UNL     1      42.124  20.742  13.725  1.00  0.00     0.004 C 
ENDBRANCH  12  13
ENDBRANCH  11  12
ENDBRANCH  10  11
ENDBRANCH   9  10
ENDBRANCH   1   9
TORSDOF 10
ENDMDL
MODEL 8
REMARK VINA RESULT:    -4.170      2.359      3.911
REMARK INTER + INTRA:          -7.877
REMARK INTER:                  -6.579
REMARK INTRA:                  -1.298
REMARK UNBOUND:                -1.270
REMARK SMILES CCCCCCCCCCCC(=O)[O-]
REMARK SMILES IDX 7 1 8 2 9 3 10 4 11 5 12 6 13 7 14 8 6 9 5 10 4 11 3 12 2 13
REMARK SMILES IDX 1 14
REMARK H PARENT
REMARK Flexibility Score: inf
ROOT
ATOM      1  C   UNL     1      43.130  21.731  10.773  1.00  0.00     0.000 C 
ENDROOT
BRANCH   1   2
ATOM      2  C   UNL     1      42.859  22.003  12.262  1.00  0.00     0.000 C 
BRANCH   2   3
ATOM      3  C   UNL     1      43.510  20.957  13.181  1.00  0.00     0.000 C 
BRANCH   3   4
ATOM      4  C   UNL     1      43.009  19.527  12.904  1.00  0.00     0.006 C 
BRANCH   4   5
ATOM      5  C   UNL     1      44.072  18.584  12.317  1.00  0.00     0.053 C 
BRANCH   5   6
ATOM      6  C   UNL     1      43.654  17.147  12.396  1.00  0.00     0.041 C 
ATOM      7  O   UNL     1      42.442  16.848  12.558  1.00  0.00    -0.550 OA
ATOM      8  O   UNL     1      44.609  16.141  12.325  1.00  0.00    -0.550 OA
ENDBRANCH   5   6
ENDBRANCH   4   5
ENDBRANCH   3   4
ENDBRANCH   2   3
ENDBRANCH   1   2
BRANCH   1   9
ATOM      9  C   UNL     1      41.994  22.228   9.859  1.00  0.00     0.000 C 
BRANCH   9  10
ATOM     10  C   UNL     1      40.954  21.124   9.575  1.00  0.00    -0.000 C 
BRANCH  10  11
ATOM     11  C   UNL     1      41.561  19.715   9.469  1.00  0.00    -0.000 C 
BRANCH  11  12
ATOM     12  C   UNL     1      40.678  18.636  10.116  1.00  0.00    -0.000 C 
BRANCH  12  13
ATOM     13  C   UNL     1      39.725  19.212  11.175  1.00  0.00    -0.003 C 
ATOM     14  C   UNL     1      38.270  18.799  10.953  1.00  0.00     0.004 C 
ENDBRANCH  12  13
ENDBRANCH  11  12
ENDBRANCH  10  11
ENDBRANCH   9  10
ENDBRANCH   1   9
TORSDOF 10
ENDMDL
MODEL 9
REMARK VINA RESULT:    -4.156      2.496      3.725
REMARK INTER + INTRA:          -7.855
REMARK INTER:                  -6.825
REMARK INTRA:                  -1.030
REMARK UNBOUND:                -1.270
REMARK SMILES CCCCCCCCCCCC(=O)[O-]
REMARK SMILES IDX 7 1 8 2 9 3 10 4 11 5 12 6 13 7 14 8 6 9 5 10 4 11 3 12 2 13
REMARK SMILES IDX 1 14
REMARK H PARENT
REMARK Flexibility Score: inf
ROOT
ATOM      1  C   UNL     1      41.895  20.065   8.413  1.00  0.00     0.000 C 
ENDROOT
BRANCH   1   2
ATOM      2  C   UNL     1      41.102  21.224   9.038  1.00  0.00     0.000 C 
BRANCH   2   3
ATOM      3  C   UNL     1      42.013  22.294   9.662  1.00  0.00     0.000 C 
BRANCH   3   4
ATOM      4  C   UNL     1      43.007  21.708  10.682  1.00  0.00     0.006 C 
BRANCH   4   5
ATOM      5  C   UNL     1      42.812  22.212  12.121  1.00  0.00     0.053 C 
BRANCH   5   6
ATOM      6  C   UNL     1      42.992  21.119  13.130  1.00  0.00     0.041 C 
ATOM      7  O   UNL     1      42.013  20.402  13.467  1.00  0.00    -0.550 OA
ATOM      8  O   UNL     1      44.231  20.916  13.723  1.00  0.00    -0.550 OA
ENDBRANCH   5   6
ENDBRANCH   4   5
ENDBRANCH   3   4
ENDBRANCH   2   3
ENDBRANCH   1   2
BRANCH   1   9
ATOM      9  C   UNL     1      41.383  18.683   8.859  1.00  0.00     0.000 C 
BRANCH   9  10
ATOM     10  C   UNL     1      41.673  18.411  10.350  1.00  0.00    -0.000 C 
BRANCH  10  11
ATOM     11  C   UNL     1      40.447  17.921  11.140  1.00  0.00    -0.000 C 
BRANCH  11  12
ATOM     12  C   UNL     1      39.527  19.070  11.583  1.00  0.00    -0.000 C 
BRANCH  12  13
ATOM     13  C   UNL     1      38.228  19.134  10.763  1.00  0.00    -0.003 C 
ATOM     14  C   UNL     1      37.002  18.681  11.556  1.00  0.00     0.004 C 
ENDBRANCH  12  13
ENDBRANCH  11  12
ENDBRANCH  10  11
ENDBRANCH   9  10
ENDBRANCH   1   9
TORSDOF 10
ENDMDL
