MODEL 1
REMARK VINA RESULT:    -2.490      0.000      0.000
REMARK INTER + INTRA:          -3.150
REMARK INTER:                  -2.854
REMARK INTRA:                  -0.296
REMARK UNBOUND:                -0.296
REMARK SMILES COC(=O)c1ccccc1O
REMARK SMILES IDX 5 1 6 2 7 3 8 4 9 5 10 6 3 7 4 8 2 9 1 10 11 11
REMARK H PARENT 11 12
REMARK Flexibility Score: inf
ROOT
ATOM      1  C   UNL     1     137.962 127.756 130.136  1.00  0.00     0.101 A 
ATOM      2  C   UNL     1     139.065 128.067 129.320  1.00  0.00     0.019 A 
ATOM      3  C   UNL     1     140.313 128.338 129.884  1.00  0.00     0.001 A 
ATOM      4  C   UNL     1     140.478 128.304 131.268  1.00  0.00     0.004 A 
ATOM      5  C   UNL     1     139.390 128.017 132.092  1.00  0.00     0.047 A 
ATOM      6  C   UNL     1     138.126 127.764 131.545  1.00  0.00     0.130 A 
ENDROOT
BRANCH   1   7
ATOM      7  C   UNL     1     136.684 127.401 129.480  1.00  0.00     0.341 C 
ATOM      8  O   UNL     1     136.669 126.995 128.286  1.00  0.00    -0.246 OA
BRANCH   7   9
ATOM      9  O   UNL     1     135.482 127.580 130.175  1.00  0.00    -0.465 OA
ATOM     10  C   UNL     1     134.475 128.487 129.745  1.00  0.00     0.282 C 
ENDBRANCH   7   9
ENDBRANCH   1   7
BRANCH   6  11
ATOM     11  O   UNL     1     137.064 127.560 132.429  1.00  0.00    -0.507 OA
ATOM     12  H   UNL     1     136.423 126.782 132.361  1.00  0.00     0.293 HD
ENDBRANCH   6  11
TORSDOF 3
ENDMDL
MODEL 2
REMARK VINA RESULT:    -2.165      2.175      4.080
REMARK INTER + INTRA:          -2.777
REMARK INTER:                  -2.498
REMARK INTRA:                  -0.279
REMARK UNBOUND:                -0.296
REMARK SMILES COC(=O)c1ccccc1O
REMARK SMILES IDX 5 1 6 2 7 3 8 4 9 5 10 6 3 7 4 8 2 9 1 10 11 11
REMARK H PARENT 11 12
REMARK Flexibility Score: inf
ROOT
ATOM      1  C   UNL     1     138.856 127.917 130.223  1.00  0.00     0.101 A 
ATOM      2  C   UNL     1     138.173 127.631 129.026  1.00  0.00     0.019 A 
ATOM      3  C   UNL     1     136.824 127.274 129.043  1.00  0.00     0.001 A 
ATOM      4  C   UNL     1     136.137 127.196 130.254  1.00  0.00     0.004 A 
ATOM      5  C   UNL     1     136.803 127.455 131.452  1.00  0.00     0.047 A 
ATOM      6  C   UNL     1     138.162 127.794 131.454  1.00  0.00     0.130 A 
ENDROOT
BRANCH   1   7
ATOM      7  C   UNL     1     140.263 128.364 130.137  1.00  0.00     0.341 C 
ATOM      8  O   UNL     1     140.673 128.995 129.124  1.00  0.00    -0.246 OA
BRANCH   7   9
ATOM      9  O   UNL     1     141.155 128.030 131.162  1.00  0.00    -0.465 OA
ATOM     10  C   UNL     1     142.562 127.970 130.966  1.00  0.00     0.282 C 
ENDBRANCH   7   9
ENDBRANCH   1   7
BRANCH   6  11
ATOM     11  O   UNL     1     138.786 127.965 132.692  1.00  0.00    -0.507 OA
ATOM     12  H   UNL     1     138.845 128.854 133.168  1.00  0.00     0.293 HD
ENDBRANCH   6  11
TORSDOF 3
ENDMDL
MODEL 3
REMARK VINA RESULT:    -1.427      0.981      2.210
REMARK INTER + INTRA:          -1.932
REMARK INTER:                  -1.641
REMARK INTRA:                  -0.291
REMARK UNBOUND:                -0.296
REMARK SMILES COC(=O)c1ccccc1O
REMARK SMILES IDX 5 1 6 2 7 3 8 4 9 5 10 6 3 7 4 8 2 9 1 10 11 11
REMARK H PARENT 11 12
REMARK Flexibility Score: inf
ROOT
ATOM      1  C   UNL     1     137.780 127.676 130.612  1.00  0.00     0.101 A 
ATOM      2  C   UNL     1     138.323 127.552 131.904  1.00  0.00     0.019 A 
ATOM      3  C   UNL     1     139.641 127.934 132.163  1.00  0.00     0.001 A 
ATOM      4  C   UNL     1     140.436 128.442 131.136  1.00  0.00     0.004 A 
ATOM      5  C   UNL     1     139.920 128.552 129.844  1.00  0.00     0.047 A 
ATOM      6  C   UNL     1     138.607 128.155 129.563  1.00  0.00     0.130 A 
ENDROOT
BRANCH   1   7
ATOM      7  C   UNL     1     136.355 127.330 130.415  1.00  0.00     0.341 C 
ATOM      8  O   UNL     1     135.808 126.444 131.128  1.00  0.00    -0.246 OA
BRANCH   7   9
ATOM      9  O   UNL     1     135.633 127.949 129.389  1.00  0.00    -0.465 OA
ATOM     10  C   UNL     1     134.384 128.592 129.609  1.00  0.00     0.282 C 
ENDBRANCH   7   9
ENDBRANCH   1   7
BRANCH   6  11
ATOM     11  O   UNL     1     138.179 128.219 128.236  1.00  0.00    -0.507 OA
ATOM     12  H   UNL     1     137.564 128.939 127.882  1.00  0.00     0.293 HD
ENDBRANCH   6  11
TORSDOF 3
ENDMDL
MODEL 4
REMARK VINA RESULT:    -1.047      2.050      4.482
REMARK INTER + INTRA:          -1.496
REMARK INTER:                  -1.334
REMARK INTRA:                  -0.163
REMARK UNBOUND:                -0.296
REMARK SMILES COC(=O)c1ccccc1O
REMARK SMILES IDX 5 1 6 2 7 3 8 4 9 5 10 6 3 7 4 8 2 9 1 10 11 11
REMARK H PARENT 11 12
REMARK Flexibility Score: inf
ROOT
ATOM      1  C   UNL     1     138.219 127.805 130.802  1.00  0.00     0.101 A 
ATOM      2  C   UNL     1     137.032 127.261 131.326  1.00  0.00     0.019 A 
ATOM      3  C   UNL     1     135.971 126.924 130.484  1.00  0.00     0.001 A 
ATOM      4  C   UNL     1     136.077 127.127 129.109  1.00  0.00     0.004 A 
ATOM      5  C   UNL     1     137.238 127.685 128.575  1.00  0.00     0.047 A 
ATOM      6  C   UNL     1     138.304 128.049 129.407  1.00  0.00     0.130 A 
ENDROOT
BRANCH   1   7
ATOM      7  C   UNL     1     139.339 128.070 131.732  1.00  0.00     0.341 C 
ATOM      8  O   UNL     1     139.232 127.790 132.957  1.00  0.00    -0.246 OA
BRANCH   7   9
ATOM      9  O   UNL     1     140.497 128.693 131.253  1.00  0.00    -0.465 OA
ATOM     10  C   UNL     1     141.713 127.989 131.037  1.00  0.00     0.282 C 
ENDBRANCH   7   9
ENDBRANCH   1   7
BRANCH   6  11
ATOM     11  O   UNL     1     139.405 128.673 128.817  1.00  0.00    -0.507 OA
ATOM     12  H   UNL     1     139.358 129.574 128.362  1.00  0.00     0.293 HD
ENDBRANCH   6  11
TORSDOF 3
ENDMDL
MODEL 5
REMARK VINA RESULT:    -0.334      1.558      2.234
REMARK INTER + INTRA:          -0.678
REMARK INTER:                  -0.407
REMARK INTRA:                  -0.271
REMARK UNBOUND:                -0.296
REMARK SMILES COC(=O)c1ccccc1O
REMARK SMILES IDX 5 1 6 2 7 3 8 4 9 5 10 6 3 7 4 8 2 9 1 10 11 11
REMARK H PARENT 11 12
REMARK Flexibility Score: inf
ROOT
ATOM      1  C   UNL     1     138.270 128.088 129.725  1.00  0.00     0.101 A 
ATOM      2  C   UNL     1     139.627 128.412 129.902  1.00  0.00     0.019 A 
ATOM      3  C   UNL     1     140.231 128.292 131.155  1.00  0.00     0.001 A 
ATOM      4  C   UNL     1     139.489 127.850 132.250  1.00  0.00     0.004 A 
ATOM      5  C   UNL     1     138.137 127.544 132.097  1.00  0.00     0.047 A 
ATOM      6  C   UNL     1     137.510 127.678 130.852  1.00  0.00     0.130 A 
ENDROOT
BRANCH   1   7
ATOM      7  C   UNL     1     137.704 128.160 128.361  1.00  0.00     0.341 C 
ATOM      8  O   UNL     1     136.705 127.458 128.045  1.00  0.00    -0.246 OA
BRANCH   7   9
ATOM      9  O   UNL     1     138.324 128.968 127.401  1.00  0.00    -0.465 OA
ATOM     10  C   UNL     1     137.623 129.523 126.296  1.00  0.00     0.282 C 
ENDBRANCH   7   9
ENDBRANCH   1   7
BRANCH   6  11
ATOM     11  O   UNL     1     136.137 127.430 130.785  1.00  0.00    -0.507 OA
ATOM     12  H   UNL     1     135.472 128.076 130.383  1.00  0.00     0.293 HD
ENDBRANCH   6  11
TORSDOF 3
ENDMDL
