MODEL 1
REMARK VINA RESULT:    -6.903      0.000      0.000
REMARK INTER + INTRA:          -8.545
REMARK INTER:                  -8.315
REMARK INTRA:                  -0.230
REMARK UNBOUND:                -0.230
REMARK SMILES O=c1c(O)c(-c2ccc(O)c(O)c2)oc2cc(O)cc(O)c12
REMARK SMILES IDX 5 1 3 2 2 3 1 4 22 5 20 6 19 7 17 8 16 9 15 10 14 11 6 12
REMARK SMILES IDX 7 13 8 14 9 15 13 16 11 17 10 18 12 20 4 22 21 24 18 26
REMARK H PARENT 10 19 12 21 4 23 21 25 18 27
REMARK Flexibility Score: inf
ROOT
ATOM      1  C   UNL     1      16.511  67.234  94.993  1.00  0.00     0.180 A 
ATOM      2  C   UNL     1      15.733  68.293  95.493  1.00  0.00     0.208 A 
ATOM      3  C   UNL     1      14.434  68.479  94.994  1.00  0.00     0.238 A 
ATOM      4  O   UNL     1      13.773  69.473  95.392  1.00  0.00    -0.285 OA
ATOM      5  C   UNL     1      13.907  67.572  94.043  1.00  0.00     0.111 A 
ATOM      6  C   UNL     1      12.587  67.636  93.503  1.00  0.00     0.134 A 
ATOM      7  C   UNL     1      12.212  66.746  92.488  1.00  0.00     0.093 A 
ATOM      8  C   UNL     1      13.084  65.755  92.040  1.00  0.00     0.123 A 
ATOM      9  C   UNL     1      14.357  65.647  92.601  1.00  0.00     0.094 A 
ATOM     10  C   UNL     1      14.775  66.544  93.587  1.00  0.00     0.146 A 
ATOM     11  O   UNL     1      16.002  66.419  94.077  1.00  0.00    -0.452 OA
ENDROOT
BRANCH   1  12
ATOM     12  C   UNL     1      17.894  66.984  95.459  1.00  0.00     0.025 A 
ATOM     13  C   UNL     1      19.002  67.216  94.625  1.00  0.00     0.016 A 
ATOM     14  C   UNL     1      20.296  66.949  95.079  1.00  0.00     0.051 A 
ATOM     15  C   UNL     1      20.502  66.433  96.366  1.00  0.00     0.157 A 
ATOM     16  C   UNL     1      18.104  66.448  96.740  1.00  0.00     0.062 A 
ATOM     17  C   UNL     1      19.399  66.179  97.198  1.00  0.00     0.158 A 
BRANCH  15  18
ATOM     18  O   UNL     1      21.794  66.169  96.817  1.00  0.00    -0.504 OA
ATOM     19  H   UNL     1      21.972  65.857  97.765  1.00  0.00     0.293 HD
ENDBRANCH  15  18
BRANCH  17  20
ATOM     20  O   UNL     1      19.569  65.659  98.481  1.00  0.00    -0.504 OA
ATOM     21  H   UNL     1      20.357  65.070  98.723  1.00  0.00     0.293 HD
ENDBRANCH  17  20
ENDBRANCH   1  12
BRANCH   2  22
ATOM     22  O   UNL     1      16.244  69.132  96.487  1.00  0.00    -0.502 OA
ATOM     23  H   UNL     1      16.267  70.140  96.389  1.00  0.00     0.293 HD
ENDBRANCH   2  22
BRANCH   6  24
ATOM     24  O   UNL     1      11.605  68.531  93.939  1.00  0.00    -0.507 OA
ATOM     25  H   UNL     1      11.304  69.349  93.434  1.00  0.00     0.293 HD
ENDBRANCH   6  24
BRANCH   8  26
ATOM     26  O   UNL     1      12.670  64.876  91.042  1.00  0.00    -0.508 OA
ATOM     27  H   UNL     1      12.253  63.979  91.265  1.00  0.00     0.293 HD
ENDBRANCH   8  26
TORSDOF 6
ENDMDL
MODEL 2
REMARK VINA RESULT:    -6.473      1.750      3.442
REMARK INTER + INTRA:          -8.027
REMARK INTER:                  -7.984
REMARK INTRA:                  -0.043
REMARK UNBOUND:                -0.230
REMARK SMILES O=c1c(O)c(-c2ccc(O)c(O)c2)oc2cc(O)cc(O)c12
REMARK SMILES IDX 5 1 3 2 2 3 1 4 22 5 20 6 19 7 17 8 16 9 15 10 14 11 6 12
REMARK SMILES IDX 7 13 8 14 9 15 13 16 11 17 10 18 12 20 4 22 21 24 18 26
REMARK H PARENT 10 19 12 21 4 23 21 25 18 27
REMARK Flexibility Score: inf
ROOT
ATOM      1  C   UNL     1      16.806  66.692  95.626  1.00  0.00     0.180 A 
ATOM      2  C   UNL     1      16.313  66.012  94.499  1.00  0.00     0.208 A 
ATOM      3  C   UNL     1      14.942  66.088  94.203  1.00  0.00     0.238 A 
ATOM      4  O   UNL     1      14.497  65.416  93.236  1.00  0.00    -0.285 OA
ATOM      5  C   UNL     1      14.091  66.888  95.003  1.00  0.00     0.111 A 
ATOM      6  C   UNL     1      12.695  67.075  94.769  1.00  0.00     0.134 A 
ATOM      7  C   UNL     1      11.932  67.804  95.690  1.00  0.00     0.093 A 
ATOM      8  C   UNL     1      12.523  68.406  96.799  1.00  0.00     0.123 A 
ATOM      9  C   UNL     1      13.897  68.277  97.008  1.00  0.00     0.094 A 
ATOM     10  C   UNL     1      14.679  67.524  96.129  1.00  0.00     0.146 A 
ATOM     11  O   UNL     1      15.977  67.408  96.376  1.00  0.00    -0.452 OA
ENDROOT
BRANCH   1  12
ATOM     12  C   UNL     1      18.235  66.647  96.010  1.00  0.00     0.025 A 
ATOM     13  C   UNL     1      18.635  66.260  97.301  1.00  0.00     0.016 A 
ATOM     14  C   UNL     1      19.988  66.249  97.647  1.00  0.00     0.051 A 
ATOM     15  C   UNL     1      20.961  66.639  96.716  1.00  0.00     0.157 A 
ATOM     16  C   UNL     1      19.211  67.056  95.087  1.00  0.00     0.062 A 
ATOM     17  C   UNL     1      20.568  67.046  95.430  1.00  0.00     0.158 A 
BRANCH  15  18
ATOM     18  O   UNL     1      22.310  66.625  97.064  1.00  0.00    -0.504 OA
ATOM     19  H   UNL     1      22.815  65.756  97.196  1.00  0.00     0.293 HD
ENDBRANCH  15  18
BRANCH  17  20
ATOM     20  O   UNL     1      21.510  67.446  94.483  1.00  0.00    -0.504 OA
ATOM     21  H   UNL     1      22.021  68.316  94.566  1.00  0.00     0.293 HD
ENDBRANCH  17  20
ENDBRANCH   1  12
BRANCH   2  22
ATOM     22  O   UNL     1      17.182  65.289  93.677  1.00  0.00    -0.502 OA
ATOM     23  H   UNL     1      17.215  65.419  92.673  1.00  0.00     0.293 HD
ENDBRANCH   2  22
BRANCH   6  24
ATOM     24  O   UNL     1      12.018  66.591  93.645  1.00  0.00    -0.507 OA
ATOM     25  H   UNL     1      11.555  65.698  93.591  1.00  0.00     0.293 HD
ENDBRANCH   6  24
BRANCH   8  26
ATOM     26  O   UNL     1      11.736  69.139  97.684  1.00  0.00    -0.508 OA
ATOM     27  H   UNL     1      10.769  69.359  97.476  1.00  0.00     0.293 HD
ENDBRANCH   8  26
TORSDOF 6
ENDMDL
MODEL 3
REMARK VINA RESULT:    -6.464      1.751      1.788
REMARK INTER + INTRA:          -8.016
REMARK INTER:                  -7.716
REMARK INTRA:                  -0.300
REMARK UNBOUND:                -0.230
REMARK SMILES O=c1c(O)c(-c2ccc(O)c(O)c2)oc2cc(O)cc(O)c12
REMARK SMILES IDX 5 1 3 2 2 3 1 4 22 5 20 6 19 7 17 8 16 9 15 10 14 11 6 12
REMARK SMILES IDX 7 13 8 14 9 15 13 16 11 17 10 18 12 20 4 22 21 24 18 26
REMARK H PARENT 10 19 12 21 4 23 21 25 18 27
REMARK Flexibility Score: inf
ROOT
ATOM      1  C   UNL     1      16.739  67.121  95.496  1.00  0.00     0.180 A 
ATOM      2  C   UNL     1      16.062  68.341  95.328  1.00  0.00     0.208 A 
ATOM      3  C   UNL     1      14.667  68.331  95.177  1.00  0.00     0.238 A 
ATOM      4  O   UNL     1      14.077  69.420  94.952  1.00  0.00    -0.285 OA
ATOM      5  C   UNL     1      13.958  67.108  95.253  1.00  0.00     0.111 A 
ATOM      6  C   UNL     1      12.538  66.984  95.159  1.00  0.00     0.134 A 
ATOM      7  C   UNL     1      11.957  65.710  95.141  1.00  0.00     0.093 A 
ATOM      8  C   UNL     1      12.733  64.560  95.276  1.00  0.00     0.123 A 
ATOM      9  C   UNL     1      14.116  64.672  95.424  1.00  0.00     0.094 A 
ATOM     10  C   UNL     1      14.731  65.926  95.408  1.00  0.00     0.146 A 
ATOM     11  O   UNL     1      16.051  65.986  95.530  1.00  0.00    -0.452 OA
ENDROOT
BRANCH   1  12
ATOM     12  C   UNL     1      18.210  67.050  95.646  1.00  0.00     0.025 A 
ATOM     13  C   UNL     1      19.067  67.153  94.537  1.00  0.00     0.016 A 
ATOM     14  C   UNL     1      20.451  67.059  94.701  1.00  0.00     0.051 A 
ATOM     15  C   UNL     1      21.000  66.845  95.973  1.00  0.00     0.157 A 
ATOM     16  C   UNL     1      18.764  66.815  96.916  1.00  0.00     0.062 A 
ATOM     17  C   UNL     1      20.150  66.719  97.084  1.00  0.00     0.158 A 
BRANCH  15  18
ATOM     18  O   UNL     1      22.381  66.752  96.134  1.00  0.00    -0.504 OA
ATOM     19  H   UNL     1      22.801  66.032  96.710  1.00  0.00     0.293 HD
ENDBRANCH  15  18
BRANCH  17  20
ATOM     20  O   UNL     1      20.664  66.499  98.362  1.00  0.00    -0.504 OA
ATOM     21  H   UNL     1      20.390  67.063  99.157  1.00  0.00     0.293 HD
ENDBRANCH  17  20
ENDBRANCH   1  12
BRANCH   2  22
ATOM     22  O   UNL     1      16.772  69.545  95.333  1.00  0.00    -0.502 OA
ATOM     23  H   UNL     1      16.639  70.257  94.625  1.00  0.00     0.293 HD
ENDBRANCH   2  22
BRANCH   6  24
ATOM     24  O   UNL     1      11.659  68.069  95.108  1.00  0.00    -0.507 OA
ATOM     25  H   UNL     1      10.986  68.301  95.821  1.00  0.00     0.293 HD
ENDBRANCH   6  24
BRANCH   8  26
ATOM     26  O   UNL     1      12.118  63.311  95.271  1.00  0.00    -0.508 OA
ATOM     27  H   UNL     1      11.346  63.102  94.647  1.00  0.00     0.293 HD
ENDBRANCH   8  26
TORSDOF 6
ENDMDL
MODEL 4
REMARK VINA RESULT:    -6.261      1.619      3.162
REMARK INTER + INTRA:          -7.772
REMARK INTER:                  -7.769
REMARK INTRA:                  -0.003
REMARK UNBOUND:                -0.230
REMARK SMILES O=c1c(O)c(-c2ccc(O)c(O)c2)oc2cc(O)cc(O)c12
REMARK SMILES IDX 5 1 3 2 2 3 1 4 22 5 20 6 19 7 17 8 16 9 15 10 14 11 6 12
REMARK SMILES IDX 7 13 8 14 9 15 13 16 11 17 10 18 12 20 4 22 21 24 18 26
REMARK H PARENT 10 19 12 21 4 23 21 25 18 27
REMARK Flexibility Score: inf
ROOT
ATOM      1  C   UNL     1      16.683  66.774  95.389  1.00  0.00     0.180 A 
ATOM      2  C   UNL     1      16.130  65.973  94.374  1.00  0.00     0.208 A 
ATOM      3  C   UNL     1      14.736  65.946  94.212  1.00  0.00     0.238 A 
ATOM      4  O   UNL     1      14.245  65.169  93.351  1.00  0.00    -0.285 OA
ATOM      5  C   UNL     1      13.914  66.761  95.027  1.00  0.00     0.111 A 
ATOM      6  C   UNL     1      12.493  66.847  94.920  1.00  0.00     0.134 A 
ATOM      7  C   UNL     1      11.776  67.607  95.853  1.00  0.00     0.093 A 
ATOM      8  C   UNL     1      12.429  68.334  96.847  1.00  0.00     0.123 A 
ATOM      9  C   UNL     1      13.822  68.302  96.926  1.00  0.00     0.094 A 
ATOM     10  C   UNL     1      14.564  67.522  96.035  1.00  0.00     0.146 A 
ATOM     11  O   UNL     1      15.885  67.503  96.160  1.00  0.00    -0.452 OA
ENDROOT
BRANCH   1  12
ATOM     12  C   UNL     1      18.142  66.844  95.630  1.00  0.00     0.025 A 
ATOM     13  C   UNL     1      19.047  67.101  94.586  1.00  0.00     0.016 A 
ATOM     14  C   UNL     1      20.421  67.137  94.835  1.00  0.00     0.051 A 
ATOM     15  C   UNL     1      20.913  66.903  96.127  1.00  0.00     0.157 A 
ATOM     16  C   UNL     1      18.641  66.589  96.919  1.00  0.00     0.062 A 
ATOM     17  C   UNL     1      20.016  66.625  97.172  1.00  0.00     0.158 A 
BRANCH  15  18
ATOM     18  O   UNL     1      22.284  66.941  96.373  1.00  0.00    -0.504 OA
ATOM     19  H   UNL     1      22.825  66.093  96.501  1.00  0.00     0.293 HD
ENDBRANCH  15  18
BRANCH  17  20
ATOM     20  O   UNL     1      20.474  66.380  98.467  1.00  0.00    -0.504 OA
ATOM     21  H   UNL     1      20.969  65.531  98.711  1.00  0.00     0.293 HD
ENDBRANCH  17  20
ENDBRANCH   1  12
BRANCH   2  22
ATOM     22  O   UNL     1      16.963  65.235  93.529  1.00  0.00    -0.502 OA
ATOM     23  H   UNL     1      16.891  65.280  92.519  1.00  0.00     0.293 HD
ENDBRANCH   2  22
BRANCH   6  24
ATOM     24  O   UNL     1      11.745  66.232  93.912  1.00  0.00    -0.507 OA
ATOM     25  H   UNL     1      11.723  66.527  92.949  1.00  0.00     0.293 HD
ENDBRANCH   6  24
BRANCH   8  26
ATOM     26  O   UNL     1      11.684  69.093  97.746  1.00  0.00    -0.508 OA
ATOM     27  H   UNL     1      11.114  68.658  98.463  1.00  0.00     0.293 HD
ENDBRANCH   8  26
TORSDOF 6
ENDMDL
MODEL 5
REMARK VINA RESULT:    -4.918      2.366      7.435
REMARK INTER + INTRA:          -6.154
REMARK INTER:                  -5.894
REMARK INTRA:                  -0.260
REMARK UNBOUND:                -0.230
REMARK SMILES O=c1c(O)c(-c2ccc(O)c(O)c2)oc2cc(O)cc(O)c12
REMARK SMILES IDX 5 1 3 2 2 3 1 4 22 5 20 6 19 7 17 8 16 9 15 10 14 11 6 12
REMARK SMILES IDX 7 13 8 14 9 15 13 16 11 17 10 18 12 20 4 22 21 24 18 26
REMARK H PARENT 10 19 12 21 4 23 21 25 18 27
REMARK Flexibility Score: inf
ROOT
ATOM      1  C   UNL     1      17.460  66.486  95.857  1.00  0.00     0.180 A 
ATOM      2  C   UNL     1      18.304  66.495  94.733  1.00  0.00     0.208 A 
ATOM      3  C   UNL     1      19.688  66.640  94.920  1.00  0.00     0.238 A 
ATOM      4  O   UNL     1      20.428  66.722  93.905  1.00  0.00    -0.285 OA
ATOM      5  C   UNL     1      20.218  66.718  96.230  1.00  0.00     0.111 A 
ATOM      6  C   UNL     1      21.608  66.820  96.540  1.00  0.00     0.134 A 
ATOM      7  C   UNL     1      22.007  66.998  97.871  1.00  0.00     0.093 A 
ATOM      8  C   UNL     1      21.076  67.013  98.908  1.00  0.00     0.123 A 
ATOM      9  C   UNL     1      19.719  66.858  98.622  1.00  0.00     0.094 A 
ATOM     10  C   UNL     1      19.285  66.717  97.302  1.00  0.00     0.146 A 
ATOM     11  O   UNL     1      17.984  66.594  97.073  1.00  0.00    -0.452 OA
ENDROOT
BRANCH   1  12
ATOM     12  C   UNL     1      15.991  66.352  95.739  1.00  0.00     0.025 A 
ATOM     13  C   UNL     1      15.135  67.445  95.957  1.00  0.00     0.016 A 
ATOM     14  C   UNL     1      13.750  67.288  95.864  1.00  0.00     0.051 A 
ATOM     15  C   UNL     1      13.198  66.034  95.565  1.00  0.00     0.157 A 
ATOM     16  C   UNL     1      15.433  65.093  95.461  1.00  0.00     0.062 A 
ATOM     17  C   UNL     1      14.046  64.932  95.366  1.00  0.00     0.158 A 
BRANCH  15  18
ATOM     18  O   UNL     1      11.817  65.881  95.471  1.00  0.00    -0.504 OA
ATOM     19  H   UNL     1      11.402  65.112  94.958  1.00  0.00     0.293 HD
ENDBRANCH  15  18
BRANCH  17  20
ATOM     20  O   UNL     1      13.529  63.670  95.075  1.00  0.00    -0.504 OA
ATOM     21  H   UNL     1      13.234  63.029  95.801  1.00  0.00     0.293 HD
ENDBRANCH  17  20
ENDBRANCH   1  12
BRANCH   2  22
ATOM     22  O   UNL     1      17.768  66.339  93.451  1.00  0.00    -0.502 OA
ATOM     23  H   UNL     1      17.112  65.603  93.222  1.00  0.00     0.293 HD
ENDBRANCH   2  22
BRANCH   6  24
ATOM     24  O   UNL     1      22.630  66.730  95.591  1.00  0.00    -0.507 OA
ATOM     25  H   UNL     1      23.367  67.407  95.470  1.00  0.00     0.293 HD
ENDBRANCH   6  24
BRANCH   8  26
ATOM     26  O   UNL     1      21.512  67.175 100.221  1.00  0.00    -0.508 OA
ATOM     27  H   UNL     1      22.153  66.518 100.651  1.00  0.00     0.293 HD
ENDBRANCH   8  26
TORSDOF 6
ENDMDL
MODEL 6
REMARK VINA RESULT:    -4.875      1.603      2.462
REMARK INTER + INTRA:          -6.102
REMARK INTER:                  -6.028
REMARK INTRA:                  -0.073
REMARK UNBOUND:                -0.230
REMARK SMILES O=c1c(O)c(-c2ccc(O)c(O)c2)oc2cc(O)cc(O)c12
REMARK SMILES IDX 5 1 3 2 2 3 1 4 22 5 20 6 19 7 17 8 16 9 15 10 14 11 6 12
REMARK SMILES IDX 7 13 8 14 9 15 13 16 11 17 10 18 12 20 4 22 21 24 18 26
REMARK H PARENT 10 19 12 21 4 23 21 25 18 27
REMARK Flexibility Score: inf
ROOT
ATOM      1  C   UNL     1      16.361  66.754  94.945  1.00  0.00     0.180 A 
ATOM      2  C   UNL     1      15.598  65.627  95.297  1.00  0.00     0.208 A 
ATOM      3  C   UNL     1      14.229  65.605  94.982  1.00  0.00     0.238 A 
ATOM      4  O   UNL     1      13.539  64.625  95.368  1.00  0.00    -0.285 OA
ATOM      5  C   UNL     1      13.652  66.683  94.269  1.00  0.00     0.111 A 
ATOM      6  C   UNL     1      12.287  66.746  93.857  1.00  0.00     0.134 A 
ATOM      7  C   UNL     1      11.802  67.911  93.250  1.00  0.00     0.093 A 
ATOM      8  C   UNL     1      12.645  68.989  92.982  1.00  0.00     0.123 A 
ATOM      9  C   UNL     1      13.993  68.916  93.330  1.00  0.00     0.094 A 
ATOM     10  C   UNL     1      14.500  67.783  93.972  1.00  0.00     0.146 A 
ATOM     11  O   UNL     1      15.784  67.765  94.306  1.00  0.00    -0.452 OA
ENDROOT
BRANCH   1  12
ATOM     12  C   UNL     1      17.804  66.858  95.257  1.00  0.00     0.025 A 
ATOM     13  C   UNL     1      18.765  67.002  94.241  1.00  0.00     0.016 A 
ATOM     14  C   UNL     1      20.123  67.073  94.559  1.00  0.00     0.051 A 
ATOM     15  C   UNL     1      20.544  66.986  95.894  1.00  0.00     0.157 A 
ATOM     16  C   UNL     1      18.231  66.751  96.590  1.00  0.00     0.062 A 
ATOM     17  C   UNL     1      19.591  66.821  96.913  1.00  0.00     0.158 A 
BRANCH  15  18
ATOM     18  O   UNL     1      21.899  67.059  96.208  1.00  0.00    -0.504 OA
ATOM     19  H   UNL     1      22.386  66.283  96.644  1.00  0.00     0.293 HD
ENDBRANCH  15  18
BRANCH  17  20
ATOM     20  O   UNL     1      19.977  66.724  98.250  1.00  0.00    -0.504 OA
ATOM     21  H   UNL     1      20.938  66.848  98.543  1.00  0.00     0.293 HD
ENDBRANCH  17  20
ENDBRANCH   1  12
BRANCH   2  22
ATOM     22  O   UNL     1      16.203  64.540  95.933  1.00  0.00    -0.502 OA
ATOM     23  H   UNL     1      16.465  64.559  96.912  1.00  0.00     0.293 HD
ENDBRANCH   2  22
BRANCH   6  24
ATOM     24  O   UNL     1      11.377  65.693  93.995  1.00  0.00    -0.507 OA
ATOM     25  H   UNL     1      10.722  65.400  93.288  1.00  0.00     0.293 HD
ENDBRANCH   6  24
BRANCH   8  26
ATOM     26  O   UNL     1      12.131  70.125  92.361  1.00  0.00    -0.508 OA
ATOM     27  H   UNL     1      11.622  70.067  91.486  1.00  0.00     0.293 HD
ENDBRANCH   8  26
TORSDOF 6
ENDMDL
