MODEL 1
REMARK VINA RESULT:    -3.612      0.000      0.000
REMARK INTER + INTRA:          -1.761
REMARK INTER:                  -4.457
REMARK INTRA:                   2.696
REMARK UNBOUND:                 2.696
REMARK SMILES C=C1CC[C@H]2[C@H]([C@@H]3[C@@H](C)CC[C@@H]13)C2(C)C
REMARK SMILES IDX 3 1 2 2 1 3 12 4 9 5 8 6 10 7 7 8 11 9 4 11 5 12 6 13 13 14
REMARK SMILES IDX 14 16 15 17
REMARK H PARENT
REMARK Flexibility Score: 80.00
ROOT
ATOM      1  C   UNL     1      24.900  62.804  14.628  1.00  0.00     0.031 C 
ENDROOT
BRANCH   1   2
ATOM      2  C   UNL     1      24.413  62.230  15.963  1.00  0.00    -0.074 C 
ATOM      3  C   UNL     1      24.467  60.902  16.164  1.00  0.00     0.008 C 
BRANCH   2   4
ATOM      4  C   UNL     1      23.633  63.166  16.888  1.00  0.00     0.018 C 
ATOM      5  C   UNL     1      20.073  63.805  17.905  1.00  0.00     0.008 C 
ATOM      6  C   UNL     1      21.568  64.058  17.689  1.00  0.00    -0.010 C 
ATOM      7  C   UNL     1      22.417  63.668  18.919  1.00  0.00     0.004 C 
ATOM      8  C   UNL     1      22.146  63.231  16.539  1.00  0.00     0.003 CG0
ATOM      9  C   UNL     1      23.651  62.918  18.393  1.00  0.00     0.008 C 
ATOM     10  G   UNL     1      22.015  63.879  15.147  1.00  0.00     0.000 G0
ENDBRANCH   2   4
ENDBRANCH   1   2
BRANCH   1  11
ATOM     11  C   UNL     1      23.781  63.053  13.565  1.00  0.00     0.009 C 
BRANCH  11  12
ATOM     12  C   UNL     1      22.375  62.775  14.120  1.00  0.00    -0.001 C 
ATOM     13  C   UNL     1      22.022  63.895  15.141  1.00  0.00     0.002 CG0
ATOM     14  C   UNL     1      21.092  63.581  13.969  1.00  0.00    -0.029 C 
ATOM     15  G   UNL     1      22.136  63.228  16.525  1.00  0.00     0.000 G0
ATOM     16  C   UNL     1      19.790  62.838  14.287  1.00  0.00     0.011 C 
ATOM     17  C   UNL     1      21.056  64.591  12.816  1.00  0.00     0.011 C 
ENDBRANCH  11  12
ENDBRANCH   1  11
TORSDOF 0
ENDMDL
MODEL 2
REMARK VINA RESULT:    -3.556      1.338      4.269
REMARK INTER + INTRA:          -1.692
REMARK INTER:                  -4.470
REMARK INTRA:                   2.778
REMARK UNBOUND:                 2.696
REMARK SMILES C=C1CC[C@H]2[C@H]([C@@H]3[C@@H](C)CC[C@@H]13)C2(C)C
REMARK SMILES IDX 3 1 2 2 1 3 12 4 9 5 8 6 10 7 7 8 11 9 4 11 5 12 6 13 13 14
REMARK SMILES IDX 14 16 15 17
REMARK H PARENT
REMARK Flexibility Score: 80.00
ROOT
ATOM      1  C   UNL     1      19.432  65.042  14.585  1.00  0.00     0.031 C 
ENDROOT
BRANCH   1   2
ATOM      2  C   UNL     1      20.194  63.743  14.299  1.00  0.00    -0.074 C 
ATOM      3  C   UNL     1      19.500  62.620  14.039  1.00  0.00     0.008 C 
BRANCH   2   4
ATOM      4  C   UNL     1      21.693  63.725  14.602  1.00  0.00     0.018 C 
ATOM      5  C   UNL     1      24.017  62.477  17.276  1.00  0.00     0.008 C 
ATOM      6  C   UNL     1      23.514  63.300  16.086  1.00  0.00    -0.010 C 
ATOM      7  C   UNL     1      23.853  62.645  14.729  1.00  0.00     0.004 C 
ATOM      8  C   UNL     1      21.991  63.450  16.076  1.00  0.00     0.003 CG0
ATOM      9  C   UNL     1      22.598  62.754  13.851  1.00  0.00     0.008 C 
ATOM     10  G   UNL     1      21.453  64.637  16.898  1.00  0.00     0.000 G0
ENDBRANCH   2   4
ENDBRANCH   1   2
BRANCH   1  11
ATOM     11  C   UNL     1      19.195  65.355  16.098  1.00  0.00     0.009 C 
BRANCH  11  12
ATOM     12  C   UNL     1      19.918  64.361  17.021  1.00  0.00    -0.001 C 
ATOM     13  C   UNL     1      21.448  64.623  16.918  1.00  0.00     0.002 CG0
ATOM     14  C   UNL     1      20.742  64.619  18.274  1.00  0.00    -0.029 C 
ATOM     15  G   UNL     1      22.002  63.453  16.083  1.00  0.00     0.000 G0
ATOM     16  C   UNL     1      20.979  63.409  19.184  1.00  0.00     0.011 C 
ATOM     17  C   UNL     1      20.534  65.976  18.956  1.00  0.00     0.011 C 
ENDBRANCH  11  12
ENDBRANCH   1  11
TORSDOF 0
ENDMDL
MODEL 3
REMARK VINA RESULT:    -3.415      1.252      3.402
REMARK INTER + INTRA:          -1.517
REMARK INTER:                  -4.237
REMARK INTRA:                   2.719
REMARK UNBOUND:                 2.696
REMARK SMILES C=C1CC[C@H]2[C@H]([C@@H]3[C@@H](C)CC[C@@H]13)C2(C)C
REMARK SMILES IDX 3 1 2 2 1 3 12 4 9 5 8 6 10 7 7 8 11 9 4 11 5 12 6 13 13 14
REMARK SMILES IDX 14 16 15 17
REMARK H PARENT
REMARK Flexibility Score: 80.00
ROOT
ATOM      1  C   UNL     1      19.789  63.116  14.979  1.00  0.00     0.031 C 
ENDROOT
BRANCH   1   2
ATOM      2  C   UNL     1      20.022  63.994  16.213  1.00  0.00    -0.074 C 
ATOM      3  C   UNL     1      19.643  65.284  16.180  1.00  0.00     0.008 C 
BRANCH   2   4
ATOM      4  C   UNL     1      20.927  63.436  17.313  1.00  0.00     0.018 C 
ATOM      5  C   UNL     1      24.453  63.841  18.543  1.00  0.00     0.008 C 
ATOM      6  C   UNL     1      23.076  63.205  18.325  1.00  0.00    -0.010 C 
ATOM      7  C   UNL     1      22.072  63.577  19.439  1.00  0.00     0.004 C 
ATOM      8  C   UNL     1      22.411  63.672  17.029  1.00  0.00     0.003 CG0
ATOM      9  C   UNL     1      20.741  63.914  18.749  1.00  0.00     0.008 C 
ATOM     10  G   UNL     1      22.788  62.856  15.778  1.00  0.00     0.000 G0
ENDBRANCH   2   4
ENDBRANCH   1   2
BRANCH   1  11
ATOM     11  C   UNL     1      21.014  62.982  14.017  1.00  0.00     0.009 C 
BRANCH  11  12
ATOM     12  C   UNL     1      22.269  63.678  14.567  1.00  0.00    -0.001 C 
ATOM     13  C   UNL     1      22.794  62.853  15.776  1.00  0.00     0.002 CG0
ATOM     14  C   UNL     1      23.712  63.197  14.604  1.00  0.00    -0.029 C 
ATOM     15  G   UNL     1      22.422  63.681  17.021  1.00  0.00     0.000 G0
ATOM     16  C   UNL     1      24.775  64.277  14.838  1.00  0.00     0.011 C 
ATOM     17  C   UNL     1      24.073  62.059  13.642  1.00  0.00     0.011 C 
ENDBRANCH  11  12
ENDBRANCH   1  11
TORSDOF 0
ENDMDL
MODEL 4
REMARK VINA RESULT:    -3.214      1.183      4.673
REMARK INTER + INTRA:          -1.270
REMARK INTER:                  -4.038
REMARK INTRA:                   2.768
REMARK UNBOUND:                 2.696
REMARK SMILES C=C1CC[C@H]2[C@H]([C@@H]3[C@@H](C)CC[C@@H]13)C2(C)C
REMARK SMILES IDX 3 1 2 2 1 3 12 4 9 5 8 6 10 7 7 8 11 9 4 11 5 12 6 13 13 14
REMARK SMILES IDX 14 16 15 17
REMARK H PARENT
REMARK Flexibility Score: 80.00
ROOT
ATOM      1  C   UNL     1      19.484  64.395  16.152  1.00  0.00     0.031 C 
ENDROOT
BRANCH   1   2
ATOM      2  C   UNL     1      20.030  64.085  14.754  1.00  0.00    -0.074 C 
ATOM      3  C   UNL     1      19.493  63.073  14.050  1.00  0.00     0.008 C 
BRANCH   2   4
ATOM      4  C   UNL     1      21.340  64.759  14.345  1.00  0.00     0.018 C 
ATOM      5  C   UNL     1      24.988  63.904  14.072  1.00  0.00     0.008 C 
ATOM      6  C   UNL     1      23.723  64.759  14.188  1.00  0.00    -0.010 C 
ATOM      7  C   UNL     1      23.163  65.175  12.810  1.00  0.00     0.004 C 
ATOM      8  C   UNL     1      22.571  64.017  14.868  1.00  0.00     0.003 CG0
ATOM      9  C   UNL     1      21.640  64.981  12.866  1.00  0.00     0.008 C 
ATOM     10  G   UNL     1      22.561  64.110  16.406  1.00  0.00     0.000 G0
ENDBRANCH   2   4
ENDBRANCH   1   2
BRANCH   1  11
ATOM     11  C   UNL     1      20.247  63.708  17.331  1.00  0.00     0.009 C 
BRANCH  11  12
ATOM     12  C   UNL     1      21.534  63.009  16.866  1.00  0.00    -0.001 C 
ATOM     13  C   UNL     1      22.546  64.100  16.413  1.00  0.00     0.002 CG0
ATOM     14  C   UNL     1      22.935  63.055  17.458  1.00  0.00    -0.029 C 
ATOM     15  G   UNL     1      22.563  64.019  14.874  1.00  0.00     0.000 G0
ATOM     16  C   UNL     1      23.890  61.941  17.014  1.00  0.00     0.011 C 
ATOM     17  C   UNL     1      23.042  63.528  18.912  1.00  0.00     0.011 C 
ENDBRANCH  11  12
ENDBRANCH   1  11
TORSDOF 0
ENDMDL
MODEL 5
REMARK VINA RESULT:    -3.093      1.355      3.912
REMARK INTER + INTRA:          -1.120
REMARK INTER:                  -3.826
REMARK INTRA:                   2.707
REMARK UNBOUND:                 2.696
REMARK SMILES C=C1CC[C@H]2[C@H]([C@@H]3[C@@H](C)CC[C@@H]13)C2(C)C
REMARK SMILES IDX 3 1 2 2 1 3 12 4 9 5 8 6 10 7 7 8 11 9 4 11 5 12 6 13 13 14
REMARK SMILES IDX 14 16 15 17
REMARK H PARENT
REMARK Flexibility Score: 80.00
ROOT
ATOM      1  C   UNL     1      23.518  62.434  15.249  1.00  0.00     0.031 C 
ENDROOT
BRANCH   1   2
ATOM      2  C   UNL     1      22.534  63.318  14.474  1.00  0.00    -0.074 C 
ATOM      3  C   UNL     1      23.013  64.262  13.645  1.00  0.00     0.008 C 
BRANCH   2   4
ATOM      4  C   UNL     1      21.064  63.270  14.896  1.00  0.00     0.018 C 
ATOM      5  C   UNL     1      18.624  65.342  16.862  1.00  0.00     0.008 C 
ATOM      6  C   UNL     1      19.236  64.116  16.177  1.00  0.00    -0.010 C 
ATOM      7  C   UNL     1      18.749  63.950  14.720  1.00  0.00     0.004 C 
ATOM      8  C   UNL     1      20.760  64.200  16.071  1.00  0.00     0.003 CG0
ATOM      9  C   UNL     1      19.981  63.596  13.873  1.00  0.00     0.008 C 
ATOM     10  G   UNL     1      21.523  63.673  17.301  1.00  0.00     0.000 G0
ENDBRANCH   2   4
ENDBRANCH   1   2
BRANCH   1  11
ATOM     11  C   UNL     1      23.851  62.921  16.696  1.00  0.00     0.009 C 
BRANCH  11  12
ATOM     12  C   UNL     1      23.007  64.135  17.114  1.00  0.00    -0.001 C 
ATOM     13  C   UNL     1      21.535  63.668  17.296  1.00  0.00     0.002 CG0
ATOM     14  C   UNL     1      22.268  64.406  18.416  1.00  0.00    -0.029 C 
ATOM     15  G   UNL     1      20.782  64.219  16.071  1.00  0.00     0.000 G0
ATOM     16  C   UNL     1      21.870  65.864  18.673  1.00  0.00     0.011 C 
ATOM     17  C   UNL     1      22.704  63.578  19.630  1.00  0.00     0.011 C 
ENDBRANCH  11  12
ENDBRANCH   1  11
TORSDOF 0
ENDMDL
MODEL 6
REMARK VINA RESULT:    -3.034      1.567      3.194
REMARK INTER + INTRA:          -1.047
REMARK INTER:                  -3.725
REMARK INTRA:                   2.678
REMARK UNBOUND:                 2.696
REMARK SMILES C=C1CC[C@H]2[C@H]([C@@H]3[C@@H](C)CC[C@@H]13)C2(C)C
REMARK SMILES IDX 3 1 2 2 1 3 12 4 9 5 8 6 10 7 7 8 11 9 4 11 5 12 6 13 13 14
REMARK SMILES IDX 14 16 15 17
REMARK H PARENT
REMARK Flexibility Score: 80.00
ROOT
ATOM      1  C   UNL     1      21.262  63.871  13.461  1.00  0.00     0.031 C 
ENDROOT
BRANCH   1   2
ATOM      2  C   UNL     1      22.631  63.533  14.062  1.00  0.00    -0.074 C 
ATOM      3  C   UNL     1      23.129  62.294  13.901  1.00  0.00     0.008 C 
BRANCH   2   4
ATOM      4  C   UNL     1      23.232  64.533  15.050  1.00  0.00     0.018 C 
ATOM      5  C   UNL     1      23.674  64.917  18.761  1.00  0.00     0.008 C 
ATOM      6  C   UNL     1      23.577  65.306  17.282  1.00  0.00    -0.010 C 
ATOM      7  C   UNL     1      24.951  65.287  16.576  1.00  0.00     0.004 C 
ATOM      8  C   UNL     1      22.711  64.339  16.474  1.00  0.00     0.003 CG0
ATOM      9  C   UNL     1      24.747  64.606  15.214  1.00  0.00     0.008 C 
ATOM     10  G   UNL     1      21.205  64.663  16.475  1.00  0.00     0.000 G0
ENDBRANCH   2   4
ENDBRANCH   1   2
BRANCH   1  11
ATOM     11  C   UNL     1      20.053  63.730  14.443  1.00  0.00     0.009 C 
BRANCH  11  12
ATOM     12  C   UNL     1      20.499  63.402  15.876  1.00  0.00    -0.001 C 
ATOM     13  C   UNL     1      21.187  64.662  16.475  1.00  0.00     0.002 CG0
ATOM     14  C   UNL     1      20.025  63.984  17.200  1.00  0.00    -0.029 C 
ATOM     15  G   UNL     1      22.692  64.332  16.485  1.00  0.00     0.000 G0
ATOM     16  C   UNL     1      20.361  63.167  18.453  1.00  0.00     0.011 C 
ATOM     17  C   UNL     1      18.673  64.705  17.180  1.00  0.00     0.011 C 
ENDBRANCH  11  12
ENDBRANCH   1  11
TORSDOF 0
ENDMDL
MODEL 7
REMARK VINA RESULT:    -3.033      1.056      3.430
REMARK INTER + INTRA:          -1.047
REMARK INTER:                  -3.799
REMARK INTRA:                   2.753
REMARK UNBOUND:                 2.696
REMARK SMILES C=C1CC[C@H]2[C@H]([C@@H]3[C@@H](C)CC[C@@H]13)C2(C)C
REMARK SMILES IDX 3 1 2 2 1 3 12 4 9 5 8 6 10 7 7 8 11 9 4 11 5 12 6 13 13 14
REMARK SMILES IDX 14 16 15 17
REMARK H PARENT
REMARK Flexibility Score: 80.00
ROOT
ATOM      1  C   UNL     1      20.746  63.552  18.370  1.00  0.00     0.031 C 
ENDROOT
BRANCH   1   2
ATOM      2  C   UNL     1      22.207  63.956  18.144  1.00  0.00    -0.074 C 
ATOM      3  C   UNL     1      22.635  65.148  18.597  1.00  0.00     0.008 C 
BRANCH   2   4
ATOM      4  C   UNL     1      23.029  63.108  17.172  1.00  0.00     0.018 C 
ATOM      5  C   UNL     1      24.250  63.271  13.623  1.00  0.00     0.008 C 
ATOM      6  C   UNL     1      23.855  62.670  14.976  1.00  0.00    -0.010 C 
ATOM      7  C   UNL     1      25.049  62.578  15.952  1.00  0.00     0.004 C 
ATOM      8  C   UNL     1      22.813  63.512  15.713  1.00  0.00     0.003 CG0
ATOM      9  C   UNL     1      24.545  63.053  17.323  1.00  0.00     0.008 C 
ATOM     10  G   UNL     1      21.350  63.198  15.347  1.00  0.00     0.000 G0
ENDBRANCH   2   4
ENDBRANCH   1   2
BRANCH   1  11
ATOM     11  C   UNL     1      19.778  63.866  17.183  1.00  0.00     0.009 C 
BRANCH  11  12
ATOM     12  C   UNL     1      20.523  64.383  15.942  1.00  0.00    -0.001 C 
ATOM     13  C   UNL     1      21.343  63.207  15.339  1.00  0.00     0.002 CG0
ATOM     14  C   UNL     1      20.360  64.000  14.479  1.00  0.00    -0.029 C 
ATOM     15  G   UNL     1      22.809  63.507  15.705  1.00  0.00     0.000 G0
ATOM     16  C   UNL     1      20.953  64.977  13.457  1.00  0.00     0.011 C 
ATOM     17  C   UNL     1      19.046  63.307  14.101  1.00  0.00     0.011 C 
ENDBRANCH  11  12
ENDBRANCH   1  11
TORSDOF 0
ENDMDL
MODEL 8
REMARK VINA RESULT:    -3.010      1.342      3.851
REMARK INTER + INTRA:          -1.018
REMARK INTER:                  -3.716
REMARK INTRA:                   2.698
REMARK UNBOUND:                 2.696
REMARK SMILES C=C1CC[C@H]2[C@H]([C@@H]3[C@@H](C)CC[C@@H]13)C2(C)C
REMARK SMILES IDX 3 1 2 2 1 3 12 4 9 5 8 6 10 7 7 8 11 9 4 11 5 12 6 13 13 14
REMARK SMILES IDX 14 16 15 17
REMARK H PARENT
REMARK Flexibility Score: 80.00
ROOT
ATOM      1  C   UNL     1      20.784  62.879  13.878  1.00  0.00     0.031 C 
ENDROOT
BRANCH   1   2
ATOM      2  C   UNL     1      20.266  64.205  14.447  1.00  0.00    -0.074 C 
ATOM      3  C   UNL     1      20.439  65.334  13.737  1.00  0.00     0.008 C 
BRANCH   2   4
ATOM      4  C   UNL     1      19.832  64.219  15.913  1.00  0.00     0.018 C 
ATOM      5  C   UNL     1      21.163  65.351  19.239  1.00  0.00     0.008 C 
ATOM      6  C   UNL     1      20.309  64.585  18.224  1.00  0.00    -0.010 C 
ATOM      7  C   UNL     1      18.985  65.310  17.899  1.00  0.00     0.004 C 
ATOM      8  C   UNL     1      21.006  64.423  16.872  1.00  0.00     0.003 CG0
ATOM      9  C   UNL     1      18.792  65.234  16.377  1.00  0.00     0.008 C 
ATOM     10  G   UNL     1      21.926  63.192  16.761  1.00  0.00     0.000 G0
ENDBRANCH   2   4
ENDBRANCH   1   2
BRANCH   1  11
ATOM     11  C   UNL     1      22.203  62.451  14.376  1.00  0.00     0.009 C 
BRANCH  11  12
ATOM     12  C   UNL     1      22.754  63.397  15.455  1.00  0.00    -0.001 C 
ATOM     13  C   UNL     1      21.932  63.184  16.758  1.00  0.00     0.002 CG0
ATOM     14  C   UNL     1      23.457  63.075  16.765  1.00  0.00    -0.029 C 
ATOM     15  G   UNL     1      21.025  64.424  16.870  1.00  0.00     0.000 G0
ATOM     16  C   UNL     1      24.239  64.225  17.410  1.00  0.00     0.011 C 
ATOM     17  C   UNL     1      24.056  61.669  16.887  1.00  0.00     0.011 C 
ENDBRANCH  11  12
ENDBRANCH   1  11
TORSDOF 0
ENDMDL
MODEL 9
REMARK VINA RESULT:    -2.854      1.472      3.812
REMARK INTER + INTRA:          -0.826
REMARK INTER:                  -3.514
REMARK INTRA:                   2.689
REMARK UNBOUND:                 2.696
REMARK SMILES C=C1CC[C@H]2[C@H]([C@@H]3[C@@H](C)CC[C@@H]13)C2(C)C
REMARK SMILES IDX 3 1 2 2 1 3 12 4 9 5 8 6 10 7 7 8 11 9 4 11 5 12 6 13 13 14
REMARK SMILES IDX 14 16 15 17
REMARK H PARENT
REMARK Flexibility Score: 80.00
ROOT
ATOM      1  C   UNL     1      22.520  65.476  18.393  1.00  0.00     0.031 C 
ENDROOT
BRANCH   1   2
ATOM      2  C   UNL     1      21.246  64.645  18.201  1.00  0.00    -0.074 C 
ATOM      3  C   UNL     1      21.006  63.613  19.030  1.00  0.00     0.008 C 
BRANCH   2   4
ATOM      4  C   UNL     1      20.458  64.854  16.908  1.00  0.00     0.018 C 
ATOM      5  C   UNL     1      19.941  63.136  13.607  1.00  0.00     0.008 C 
ATOM      6  C   UNL     1      19.962  64.258  14.649  1.00  0.00    -0.010 C 
ATOM      7  C   UNL     1      18.621  64.389  15.404  1.00  0.00     0.004 C 
ATOM      8  C   UNL     1      21.004  64.024  15.745  1.00  0.00     0.003 CG0
ATOM      9  C   UNL     1      18.958  64.577  16.891  1.00  0.00     0.008 C 
ATOM     10  G   UNL     1      22.417  64.543  15.416  1.00  0.00     0.000 G0
ENDBRANCH   2   4
ENDBRANCH   1   2
BRANCH   1  11
ATOM     11  C   UNL     1      23.732  65.048  17.504  1.00  0.00     0.009 C 
BRANCH  11  12
ATOM     12  C   UNL     1      23.361  63.948  16.497  1.00  0.00    -0.001 C 
ATOM     13  C   UNL     1      22.424  64.566  15.421  1.00  0.00     0.002 CG0
ATOM     14  C   UNL     1      23.699  63.826  15.019  1.00  0.00    -0.029 C 
ATOM     15  G   UNL     1      21.020  64.022  15.746  1.00  0.00     0.000 G0
ATOM     16  C   UNL     1      23.536  62.431  14.404  1.00  0.00     0.011 C 
ATOM     17  C   UNL     1      24.873  64.676  14.519  1.00  0.00     0.011 C 
ENDBRANCH  11  12
ENDBRANCH   1  11
TORSDOF 0
ENDMDL
