MODEL 1
REMARK VINA RESULT:    -3.405      0.000      0.000
REMARK INTER + INTRA:          -3.844
REMARK INTER:                  -3.803
REMARK INTRA:                  -0.041
REMARK UNBOUND:                -0.041
REMARK SMILES CCCC(=O)[O-]
REMARK SMILES IDX 3 1 4 2 5 3 6 4 2 5 1 6
REMARK H PARENT
REMARK Flexibility Score: inf
ROOT
ATOM      1  C   UNL     1     -27.830 -34.346 -11.983  1.00  0.00     0.052 C 
ENDROOT
BRANCH   1   2
ATOM      2  C   UNL     1     -26.450 -34.104 -11.455  1.00  0.00     0.041 C 
ATOM      3  O   UNL     1     -25.649 -35.064 -11.311  1.00  0.00    -0.550 OA
ATOM      4  O   UNL     1     -26.064 -32.824 -11.079  1.00  0.00    -0.550 OA
ENDBRANCH   1   2
BRANCH   1   5
ATOM      5  C   UNL     1     -27.931 -33.892 -13.441  1.00  0.00     0.003 C 
ATOM      6  C   UNL     1     -27.676 -35.053 -14.398  1.00  0.00     0.004 C 
ENDBRANCH   1   5
TORSDOF 2
ENDMDL
MODEL 2
REMARK VINA RESULT:    -3.292      1.387      1.736
REMARK INTER + INTRA:          -3.718
REMARK INTER:                  -3.690
REMARK INTRA:                  -0.028
REMARK UNBOUND:                -0.041
REMARK SMILES CCCC(=O)[O-]
REMARK SMILES IDX 3 1 4 2 5 3 6 4 2 5 1 6
REMARK H PARENT
REMARK Flexibility Score: inf
ROOT
ATOM      1  C   UNL     1     -28.255 -33.128 -12.993  1.00  0.00     0.052 C 
ENDROOT
BRANCH   1   2
ATOM      2  C   UNL     1     -27.481 -32.462 -11.899  1.00  0.00     0.041 C 
ATOM      3  O   UNL     1     -26.501 -33.049 -11.369  1.00  0.00    -0.550 OA
ATOM      4  O   UNL     1     -27.869 -31.213 -11.432  1.00  0.00    -0.550 OA
ENDBRANCH   1   2
BRANCH   1   5
ATOM      5  C   UNL     1     -27.900 -34.615 -13.071  1.00  0.00     0.003 C 
ATOM      6  C   UNL     1     -27.665 -35.051 -14.514  1.00  0.00     0.004 C 
ENDBRANCH   1   5
TORSDOF 2
ENDMDL
MODEL 3
REMARK VINA RESULT:    -3.211      1.447      2.045
REMARK INTER + INTRA:          -3.627
REMARK INTER:                  -3.589
REMARK INTRA:                  -0.038
REMARK UNBOUND:                -0.041
REMARK SMILES CCCC(=O)[O-]
REMARK SMILES IDX 3 1 4 2 5 3 6 4 2 5 1 6
REMARK H PARENT
REMARK Flexibility Score: inf
ROOT
ATOM      1  C   UNL     1     -27.516 -34.472 -13.567  1.00  0.00     0.052 C 
ENDROOT
BRANCH   1   2
ATOM      2  C   UNL     1     -26.357 -35.015 -12.791  1.00  0.00     0.041 C 
ATOM      3  O   UNL     1     -25.559 -35.827 -13.329  1.00  0.00    -0.550 OA
ATOM      4  O   UNL     1     -26.183 -34.660 -11.460  1.00  0.00    -0.550 OA
ENDBRANCH   1   2
BRANCH   1   5
ATOM      5  C   UNL     1     -28.411 -33.620 -12.663  1.00  0.00     0.003 C 
ATOM      6  C   UNL     1     -28.330 -32.144 -13.042  1.00  0.00     0.004 C 
ENDBRANCH   1   5
TORSDOF 2
ENDMDL
MODEL 4
REMARK VINA RESULT:    -3.125      1.336      2.191
REMARK INTER + INTRA:          -3.531
REMARK INTER:                  -3.493
REMARK INTRA:                  -0.038
REMARK UNBOUND:                -0.041
REMARK SMILES CCCC(=O)[O-]
REMARK SMILES IDX 3 1 4 2 5 3 6 4 2 5 1 6
REMARK H PARENT
REMARK Flexibility Score: inf
ROOT
ATOM      1  C   UNL     1     -27.227 -34.736 -13.348  1.00  0.00     0.052 C 
ENDROOT
BRANCH   1   2
ATOM      2  C   UNL     1     -26.046 -35.096 -12.501  1.00  0.00     0.041 C 
ATOM      3  O   UNL     1     -25.975 -34.694 -11.310  1.00  0.00    -0.550 OA
ATOM      4  O   UNL     1     -25.003 -35.837 -13.041  1.00  0.00    -0.550 OA
ENDBRANCH   1   2
BRANCH   1   5
ATOM      5  C   UNL     1     -28.233 -33.913 -12.539  1.00  0.00     0.003 C 
ATOM      6  C   UNL     1     -28.264 -32.462 -13.012  1.00  0.00     0.004 C 
ENDBRANCH   1   5
TORSDOF 2
ENDMDL
MODEL 5
REMARK VINA RESULT:    -3.083      2.168      3.054
REMARK INTER + INTRA:          -3.484
REMARK INTER:                  -3.453
REMARK INTRA:                  -0.031
REMARK UNBOUND:                -0.041
REMARK SMILES CCCC(=O)[O-]
REMARK SMILES IDX 3 1 4 2 5 3 6 4 2 5 1 6
REMARK H PARENT
REMARK Flexibility Score: inf
ROOT
ATOM      1  C   UNL     1     -26.702 -34.546 -11.554  1.00  0.00     0.052 C 
ENDROOT
BRANCH   1   2
ATOM      2  C   UNL     1     -27.740 -34.381 -12.619  1.00  0.00     0.041 C 
ATOM      3  O   UNL     1     -28.524 -33.397 -12.592  1.00  0.00    -0.550 OA
ATOM      4  O   UNL     1     -27.874 -35.340 -13.615  1.00  0.00    -0.550 OA
ENDBRANCH   1   2
BRANCH   1   5
ATOM      5  C   UNL     1     -25.303 -34.313 -12.131  1.00  0.00     0.003 C 
ATOM      6  C   UNL     1     -24.592 -35.636 -12.402  1.00  0.00     0.004 C 
ENDBRANCH   1   5
TORSDOF 2
ENDMDL
MODEL 6
REMARK VINA RESULT:    -3.057     15.668     16.105
REMARK INTER + INTRA:          -3.456
REMARK INTER:                  -3.433
REMARK INTRA:                  -0.023
REMARK UNBOUND:                -0.041
REMARK SMILES CCCC(=O)[O-]
REMARK SMILES IDX 3 1 4 2 5 3 6 4 2 5 1 6
REMARK H PARENT
REMARK Flexibility Score: inf
ROOT
ATOM      1  C   UNL     1     -31.229 -47.275  -6.172  1.00  0.00     0.052 C 
ENDROOT
BRANCH   1   2
ATOM      2  C   UNL     1     -32.512 -48.012  -5.949  1.00  0.00     0.041 C 
ATOM      3  O   UNL     1     -32.785 -49.031  -6.635  1.00  0.00    -0.550 OA
ATOM      4  O   UNL     1     -33.428 -47.546  -5.015  1.00  0.00    -0.550 OA
ENDBRANCH   1   2
BRANCH   1   5
ATOM      5  C   UNL     1     -30.152 -48.225  -6.703  1.00  0.00     0.003 C 
ATOM      6  C   UNL     1     -28.963 -48.297  -5.750  1.00  0.00     0.004 C 
ENDBRANCH   1   5
TORSDOF 2
ENDMDL
MODEL 7
REMARK VINA RESULT:    -3.047      2.295      3.033
REMARK INTER + INTRA:          -3.444
REMARK INTER:                  -3.406
REMARK INTRA:                  -0.038
REMARK UNBOUND:                -0.041
REMARK SMILES CCCC(=O)[O-]
REMARK SMILES IDX 3 1 4 2 5 3 6 4 2 5 1 6
REMARK H PARENT
REMARK Flexibility Score: inf
ROOT
ATOM      1  C   UNL     1     -25.060 -34.161 -11.958  1.00  0.00     0.052 C 
ENDROOT
BRANCH   1   2
ATOM      2  C   UNL     1     -24.292 -35.284 -12.580  1.00  0.00     0.041 C 
ATOM      3  O   UNL     1     -23.035 -35.238 -12.637  1.00  0.00    -0.550 OA
ATOM      4  O   UNL     1     -24.966 -36.361 -13.141  1.00  0.00    -0.550 OA
ENDBRANCH   1   2
BRANCH   1   5
ATOM      5  C   UNL     1     -26.375 -34.676 -11.366  1.00  0.00     0.003 C 
ATOM      6  C   UNL     1     -27.577 -34.088 -12.099  1.00  0.00     0.004 C 
ENDBRANCH   1   5
TORSDOF 2
ENDMDL
MODEL 8
REMARK VINA RESULT:    -2.995      2.350      3.142
REMARK INTER + INTRA:          -3.386
REMARK INTER:                  -3.320
REMARK INTRA:                  -0.066
REMARK UNBOUND:                -0.041
REMARK SMILES CCCC(=O)[O-]
REMARK SMILES IDX 3 1 4 2 5 3 6 4 2 5 1 6
REMARK H PARENT
REMARK Flexibility Score: inf
ROOT
ATOM      1  C   UNL     1     -26.889 -32.406 -13.035  1.00  0.00     0.052 C 
ENDROOT
BRANCH   1   2
ATOM      2  C   UNL     1     -27.941 -31.495 -12.484  1.00  0.00     0.041 C 
ATOM      3  O   UNL     1     -27.841 -31.046 -11.312  1.00  0.00    -0.550 OA
ATOM      4  O   UNL     1     -29.056 -31.178 -13.249  1.00  0.00    -0.550 OA
ENDBRANCH   1   2
BRANCH   1   5
ATOM      5  C   UNL     1     -27.479 -33.789 -13.325  1.00  0.00     0.003 C 
ATOM      6  C   UNL     1     -27.750 -34.554 -12.033  1.00  0.00     0.004 C 
ENDBRANCH   1   5
TORSDOF 2
ENDMDL
MODEL 9
REMARK VINA RESULT:    -2.889      2.054      3.109
REMARK INTER + INTRA:          -3.268
REMARK INTER:                  -3.230
REMARK INTRA:                  -0.038
REMARK UNBOUND:                -0.041
REMARK SMILES CCCC(=O)[O-]
REMARK SMILES IDX 3 1 4 2 5 3 6 4 2 5 1 6
REMARK H PARENT
REMARK Flexibility Score: inf
ROOT
ATOM      1  C   UNL     1     -27.534 -33.960 -12.455  1.00  0.00     0.052 C 
ENDROOT
BRANCH   1   2
ATOM      2  C   UNL     1     -27.130 -34.937 -13.514  1.00  0.00     0.041 C 
ATOM      3  O   UNL     1     -27.873 -35.133 -14.511  1.00  0.00    -0.550 OA
ATOM      4  O   UNL     1     -25.956 -35.665 -13.377  1.00  0.00    -0.550 OA
ENDBRANCH   1   2
BRANCH   1   5
ATOM      5  C   UNL     1     -26.369 -33.700 -11.496  1.00  0.00     0.003 C 
ATOM      6  C   UNL     1     -25.581 -32.460 -11.909  1.00  0.00     0.004 C 
ENDBRANCH   1   5
TORSDOF 2
ENDMDL
