MODEL 1
REMARK VINA RESULT:    -2.780      0.000      0.000
REMARK INTER + INTRA:          -3.024
REMARK INTER:                  -3.024
REMARK INTRA:                   0.000
REMARK UNBOUND:                 0.000
REMARK SMILES [NH3+]CC(=O)[O-]
REMARK SMILES IDX 2 1 1 2 3 6 4 7 5 8
REMARK H PARENT 1 3 1 4 1 5
REMARK Flexibility Score: inf
ROOT
ATOM      1  C   UNL     1     110.803 108.663 123.713  1.00  0.00     0.312 C 
ENDROOT
BRANCH   1   2
ATOM      2  N   UNL     1     110.256 109.510 124.772  1.00  0.00    -0.353 N 
ATOM      3  H   UNL     1     110.040 110.461 124.397  1.00  0.00     0.344 HD
ATOM      4  H   UNL     1     109.374 109.079 125.132  1.00  0.00     0.344 HD
ATOM      5  H   UNL     1     110.941 109.588 125.559  1.00  0.00     0.344 HD
ENDBRANCH   1   2
BRANCH   1   6
ATOM      6  C   UNL     1     110.915 107.244 124.177  1.00  0.00     0.096 C 
ATOM      7  O   UNL     1     109.879 106.590 124.469  1.00  0.00    -0.544 OA
ATOM      8  O   UNL     1     112.166 106.661 124.336  1.00  0.00    -0.544 OA
ENDBRANCH   1   6
TORSDOF 2
ENDMDL
MODEL 2
REMARK VINA RESULT:    -2.769      0.094      1.447
REMARK INTER + INTRA:          -3.012
REMARK INTER:                  -3.012
REMARK INTRA:                   0.000
REMARK UNBOUND:                 0.000
REMARK SMILES [NH3+]CC(=O)[O-]
REMARK SMILES IDX 2 1 1 2 3 6 4 7 5 8
REMARK H PARENT 1 3 1 4 1 5
REMARK Flexibility Score: inf
ROOT
ATOM      1  C   UNL     1     110.831 108.652 123.704  1.00  0.00     0.312 C 
ENDROOT
BRANCH   1   2
ATOM      2  N   UNL     1     110.299 109.511 124.761  1.00  0.00    -0.353 N 
ATOM      3  H   UNL     1     110.933 109.494 125.592  1.00  0.00     0.344 HD
ATOM      4  H   UNL     1     110.236 110.492 124.404  1.00  0.00     0.344 HD
ATOM      5  H   UNL     1     109.343 109.189 125.038  1.00  0.00     0.344 HD
ENDBRANCH   1   2
BRANCH   1   6
ATOM      6  C   UNL     1     110.983 107.245 124.195  1.00  0.00     0.096 C 
ATOM      7  O   UNL     1     112.130 106.760 124.377  1.00  0.00    -0.544 OA
ATOM      8  O   UNL     1     109.860 106.455 124.400  1.00  0.00    -0.544 OA
ENDBRANCH   1   6
TORSDOF 2
ENDMDL
MODEL 3
REMARK VINA RESULT:    -2.597      2.010      2.289
REMARK INTER + INTRA:          -2.824
REMARK INTER:                  -2.824
REMARK INTRA:                   0.000
REMARK UNBOUND:                 0.000
REMARK SMILES [NH3+]CC(=O)[O-]
REMARK SMILES IDX 2 1 1 2 3 6 4 7 5 8
REMARK H PARENT 1 3 1 4 1 5
REMARK Flexibility Score: inf
ROOT
ATOM      1  C   UNL     1     110.361 106.392 124.183  1.00  0.00     0.312 C 
ENDROOT
BRANCH   1   2
ATOM      2  N   UNL     1     109.229 107.181 123.701  1.00  0.00    -0.353 N 
ATOM      3  H   UNL     1     108.770 106.696 122.895  1.00  0.00     0.344 HD
ATOM      4  H   UNL     1     108.532 107.287 124.473  1.00  0.00     0.344 HD
ATOM      5  H   UNL     1     109.553 108.130 123.403  1.00  0.00     0.344 HD
ENDBRANCH   1   2
BRANCH   1   6
ATOM      6  C   UNL     1     111.655 106.987 123.720  1.00  0.00     0.096 C 
ATOM      7  O   UNL     1     112.605 107.144 124.531  1.00  0.00    -0.544 OA
ATOM      8  O   UNL     1     111.793 107.414 122.406  1.00  0.00    -0.544 OA
ENDBRANCH   1   6
TORSDOF 2
ENDMDL
MODEL 4
REMARK VINA RESULT:    -2.561      8.084      8.257
REMARK INTER + INTRA:          -2.786
REMARK INTER:                  -2.786
REMARK INTRA:                   0.000
REMARK UNBOUND:                 0.000
REMARK SMILES [NH3+]CC(=O)[O-]
REMARK SMILES IDX 2 1 1 2 3 6 4 7 5 8
REMARK H PARENT 1 3 1 4 1 5
REMARK Flexibility Score: inf
ROOT
ATOM      1  C   UNL     1     110.477 108.810 132.919  1.00  0.00     0.312 C 
ENDROOT
BRANCH   1   2
ATOM      2  N   UNL     1     110.566 107.972 134.114  1.00  0.00    -0.353 N 
ATOM      3  H   UNL     1     111.267 107.210 133.967  1.00  0.00     0.344 HD
ATOM      4  H   UNL     1     110.872 108.561 134.922  1.00  0.00     0.344 HD
ATOM      5  H   UNL     1     109.631 107.556 134.332  1.00  0.00     0.344 HD
ENDBRANCH   1   2
BRANCH   1   6
ATOM      6  C   UNL     1     111.248 108.200 131.789  1.00  0.00     0.096 C 
ATOM      7  O   UNL     1     112.446 108.533 131.589  1.00  0.00    -0.544 OA
ATOM      8  O   UNL     1     110.628 107.306 130.926  1.00  0.00    -0.544 OA
ENDBRANCH   1   6
TORSDOF 2
ENDMDL
MODEL 5
REMARK VINA RESULT:    -2.509      2.234      2.690
REMARK INTER + INTRA:          -2.729
REMARK INTER:                  -2.729
REMARK INTRA:                   0.000
REMARK UNBOUND:                 0.000
REMARK SMILES [NH3+]CC(=O)[O-]
REMARK SMILES IDX 2 1 1 2 3 6 4 7 5 8
REMARK H PARENT 1 3 1 4 1 5
REMARK Flexibility Score: inf
ROOT
ATOM      1  C   UNL     1     111.509 107.185 122.416  1.00  0.00     0.312 C 
ENDROOT
BRANCH   1   2
ATOM      2  N   UNL     1     110.741 106.248 121.597  1.00  0.00    -0.353 N 
ATOM      3  H   UNL     1     110.275 105.537 122.206  1.00  0.00     0.344 HD
ATOM      4  H   UNL     1     110.008 106.776 121.070  1.00  0.00     0.344 HD
ATOM      5  H   UNL     1     111.372 105.769 120.913  1.00  0.00     0.344 HD
ENDBRANCH   1   2
BRANCH   1   6
ATOM      6  C   UNL     1     111.301 106.906 123.872  1.00  0.00     0.096 C 
ATOM      7  O   UNL     1     112.288 106.848 124.652  1.00  0.00    -0.544 OA
ATOM      8  O   UNL     1     110.024 106.658 124.358  1.00  0.00    -0.544 OA
ENDBRANCH   1   6
TORSDOF 2
ENDMDL
MODEL 6
REMARK VINA RESULT:    -2.462      8.639      8.782
REMARK INTER + INTRA:          -2.678
REMARK INTER:                  -2.678
REMARK INTRA:                   0.000
REMARK UNBOUND:                 0.000
REMARK SMILES [NH3+]CC(=O)[O-]
REMARK SMILES IDX 2 1 1 2 3 6 4 7 5 8
REMARK H PARENT 1 3 1 4 1 5
REMARK Flexibility Score: inf
ROOT
ATOM      1  C   UNL     1     111.404 108.365 131.927  1.00  0.00     0.312 C 
ENDROOT
BRANCH   1   2
ATOM      2  N   UNL     1     110.866 107.188 131.245  1.00  0.00    -0.353 N 
ATOM      3  H   UNL     1     110.979 106.341 131.848  1.00  0.00     0.344 HD
ATOM      4  H   UNL     1     109.848 107.337 131.059  1.00  0.00     0.344 HD
ATOM      5  H   UNL     1     111.360 107.043 130.335  1.00  0.00     0.344 HD
ENDBRANCH   1   2
BRANCH   1   6
ATOM      6  C   UNL     1     110.555 108.726 133.106  1.00  0.00     0.096 C 
ATOM      7  O   UNL     1     110.187 109.917 133.280  1.00  0.00    -0.544 OA
ATOM      8  O   UNL     1     110.214 107.756 134.041  1.00  0.00    -0.544 OA
ENDBRANCH   1   6
TORSDOF 2
ENDMDL
MODEL 7
REMARK VINA RESULT:    -2.449      5.881      6.046
REMARK INTER + INTRA:          -2.663
REMARK INTER:                  -2.663
REMARK INTRA:                   0.000
REMARK UNBOUND:                 0.000
REMARK SMILES [NH3+]CC(=O)[O-]
REMARK SMILES IDX 2 1 1 2 3 6 4 7 5 8
REMARK H PARENT 1 3 1 4 1 5
REMARK Flexibility Score: inf
ROOT
ATOM      1  C   UNL     1     111.822 107.846 118.542  1.00  0.00     0.312 C 
ENDROOT
BRANCH   1   2
ATOM      2  N   UNL     1     112.827 108.395 117.632  1.00  0.00    -0.353 N 
ATOM      3  H   UNL     1     112.633 108.083 116.653  1.00  0.00     0.344 HD
ATOM      4  H   UNL     1     112.787 109.439 117.669  1.00  0.00     0.344 HD
ATOM      5  H   UNL     1     113.782 108.081 117.920  1.00  0.00     0.344 HD
ENDBRANCH   1   2
BRANCH   1   6
ATOM      6  C   UNL     1     112.236 106.492 119.030  1.00  0.00     0.096 C 
ATOM      7  O   UNL     1     112.903 106.379 120.092  1.00  0.00    -0.544 OA
ATOM      8  O   UNL     1     111.930 105.361 118.285  1.00  0.00    -0.544 OA
ENDBRANCH   1   6
TORSDOF 2
ENDMDL
MODEL 8
REMARK VINA RESULT:    -2.415      2.324      2.753
REMARK INTER + INTRA:          -2.626
REMARK INTER:                  -2.626
REMARK INTRA:                   0.000
REMARK UNBOUND:                 0.000
REMARK SMILES [NH3+]CC(=O)[O-]
REMARK SMILES IDX 2 1 1 2 3 6 4 7 5 8
REMARK H PARENT 1 3 1 4 1 5
REMARK Flexibility Score: inf
ROOT
ATOM      1  C   UNL     1     110.809 107.339 123.969  1.00  0.00     0.312 C 
ENDROOT
BRANCH   1   2
ATOM      2  N   UNL     1     109.375 107.062 123.896  1.00  0.00    -0.353 N 
ATOM      3  H   UNL     1     109.117 106.758 122.929  1.00  0.00     0.344 HD
ATOM      4  H   UNL     1     109.141 106.294 124.566  1.00  0.00     0.344 HD
ATOM      5  H   UNL     1     108.831 107.917 124.155  1.00  0.00     0.344 HD
ENDBRANCH   1   2
BRANCH   1   6
ATOM      6  C   UNL     1     111.098 108.745 123.541  1.00  0.00     0.096 C 
ATOM      7  O   UNL     1     111.896 108.965 122.592  1.00  0.00    -0.544 OA
ATOM      8  O   UNL     1     110.527 109.811 124.223  1.00  0.00    -0.544 OA
ENDBRANCH   1   6
TORSDOF 2
ENDMDL
MODEL 9
REMARK VINA RESULT:    -2.405      5.136      5.300
REMARK INTER + INTRA:          -2.616
REMARK INTER:                  -2.616
REMARK INTRA:                   0.000
REMARK UNBOUND:                 0.000
REMARK SMILES [NH3+]CC(=O)[O-]
REMARK SMILES IDX 2 1 1 2 3 6 4 7 5 8
REMARK H PARENT 1 3 1 4 1 5
REMARK Flexibility Score: inf
ROOT
ATOM      1  C   UNL     1     111.916 107.060 120.691  1.00  0.00     0.312 C 
ENDROOT
BRANCH   1   2
ATOM      2  N   UNL     1     110.856 106.133 121.083  1.00  0.00    -0.353 N 
ATOM      3  H   UNL     1     109.940 106.446 120.686  1.00  0.00     0.344 HD
ATOM      4  H   UNL     1     111.078 105.182 120.711  1.00  0.00     0.344 HD
ATOM      5  H   UNL     1     110.790 106.083 122.126  1.00  0.00     0.344 HD
ENDBRANCH   1   2
BRANCH   1   6
ATOM      6  C   UNL     1     112.290 106.857 119.255  1.00  0.00     0.096 C 
ATOM      7  O   UNL     1     112.395 105.692 118.788  1.00  0.00    -0.544 OA
ATOM      8  O   UNL     1     112.574 107.951 118.449  1.00  0.00    -0.544 OA
ENDBRANCH   1   6
TORSDOF 2
ENDMDL
