MODEL 1
REMARK VINA RESULT:    -5.306      0.000      0.000
REMARK INTER + INTRA:          -5.900
REMARK INTER:                  -5.616
REMARK INTRA:                  -0.284
REMARK UNBOUND:                -0.284
REMARK SMILES CC1=CC[C@H]2[C@H]3[C@@H]1[C@]2(C)CC[C@H]3C(C)C
REMARK SMILES IDX 1 1 2 2 3 3 4 4 5 5 6 6 7 7 8 8 10 9 11 10 12 11 9 12 13 13
REMARK SMILES IDX 14 14 15 15
REMARK H PARENT
REMARK Flexibility Score: inf
ROOT
ATOM      1  C   UNL     1      32.176   7.686  32.909  1.00  0.00     0.039 C 
ATOM      2  C   UNL     1      32.141   9.108  32.434  1.00  0.00    -0.073 C 
ATOM      3  C   UNL     1      33.021  10.031  32.905  1.00  0.00    -0.027 C 
ATOM      4  C   UNL     1      32.921  11.475  32.402  1.00  0.00     0.031 C 
ATOM      5  C   UNL     1      31.770  11.608  31.352  1.00  0.00     0.003 C 
ATOM      6  C   UNL     1      31.915  10.432  30.359  1.00  0.00     0.004 C 
ATOM      7  C   UNL     1      31.129   9.584  31.388  1.00  0.00     0.024 C 
ATOM      8  C   UNL     1      30.477  10.914  31.838  1.00  0.00    -0.022 C 
ATOM      9  C   UNL     1      29.309  11.301  30.887  1.00  0.00     0.008 C 
ATOM     10  C   UNL     1      29.566  10.882  29.415  1.00  0.00     0.005 C 
ATOM     11  C   UNL     1      31.080  10.675  29.064  1.00  0.00    -0.005 C 
ATOM     12  C   UNL     1      30.058  11.077  33.319  1.00  0.00     0.012 C 
ENDROOT
BRANCH  11  13
ATOM     13  C   UNL     1      31.633  11.833  28.168  1.00  0.00    -0.014 C 
ATOM     14  C   UNL     1      32.378  11.323  26.920  1.00  0.00     0.007 C 
ATOM     15  C   UNL     1      30.497  12.767  27.711  1.00  0.00     0.007 C 
ENDBRANCH  11  13
TORSDOF 1
ENDMDL
MODEL 2
REMARK VINA RESULT:    -5.250      1.570      4.827
REMARK INTER + INTRA:          -5.841
REMARK INTER:                  -5.567
REMARK INTRA:                  -0.274
REMARK UNBOUND:                -0.284
REMARK SMILES CC1=CC[C@H]2[C@H]3[C@@H]1[C@]2(C)CC[C@H]3C(C)C
REMARK SMILES IDX 1 1 2 2 3 3 4 4 5 5 6 6 7 7 8 8 10 9 11 10 12 11 9 12 13 13
REMARK SMILES IDX 14 14 15 15
REMARK H PARENT
REMARK Flexibility Score: inf
ROOT
ATOM      1  C   UNL     1      30.961   8.060  28.225  1.00  0.00     0.039 C 
ATOM      2  C   UNL     1      30.582   8.985  29.343  1.00  0.00    -0.073 C 
ATOM      3  C   UNL     1      29.331   9.511  29.429  1.00  0.00    -0.027 C 
ATOM      4  C   UNL     1      29.008  10.470  30.579  1.00  0.00     0.031 C 
ATOM      5  C   UNL     1      30.253  10.646  31.509  1.00  0.00     0.003 C 
ATOM      6  C   UNL     1      30.820   9.235  31.790  1.00  0.00     0.004 C 
ATOM      7  C   UNL     1      31.574   9.368  30.445  1.00  0.00     0.024 C 
ATOM      8  C   UNL     1      31.541  10.896  30.690  1.00  0.00    -0.022 C 
ATOM      9  C   UNL     1      32.680  11.320  31.660  1.00  0.00     0.008 C 
ATOM     10  C   UNL     1      32.986  10.246  32.737  1.00  0.00     0.005 C 
ATOM     11  C   UNL     1      31.805   9.249  33.000  1.00  0.00    -0.005 C 
ATOM     12  C   UNL     1      31.473  11.847  29.471  1.00  0.00     0.012 C 
ENDROOT
BRANCH  11  13
ATOM     13  C   UNL     1      31.108   9.521  34.375  1.00  0.00    -0.014 C 
ATOM     14  C   UNL     1      31.080   8.282  35.289  1.00  0.00     0.007 C 
ATOM     15  C   UNL     1      31.806  10.668  35.128  1.00  0.00     0.007 C 
ENDBRANCH  11  13
TORSDOF 1
ENDMDL
MODEL 3
REMARK VINA RESULT:    -5.245      1.326      2.759
REMARK INTER + INTRA:          -5.836
REMARK INTER:                  -5.546
REMARK INTRA:                  -0.290
REMARK UNBOUND:                -0.284
REMARK SMILES CC1=CC[C@H]2[C@H]3[C@@H]1[C@]2(C)CC[C@H]3C(C)C
REMARK SMILES IDX 1 1 2 2 3 3 4 4 5 5 6 6 7 7 8 8 10 9 11 10 12 11 9 12 13 13
REMARK SMILES IDX 14 14 15 15
REMARK H PARENT
REMARK Flexibility Score: inf
ROOT
ATOM      1  C   UNL     1      29.201  10.649  34.519  1.00  0.00     0.039 C 
ATOM      2  C   UNL     1      30.307  10.116  33.658  1.00  0.00    -0.073 C 
ATOM      3  C   UNL     1      30.880   8.910  33.913  1.00  0.00    -0.027 C 
ATOM      4  C   UNL     1      32.024   8.428  33.015  1.00  0.00     0.031 C 
ATOM      5  C   UNL     1      32.308   9.473  31.887  1.00  0.00     0.003 C 
ATOM      6  C   UNL     1      30.945   9.881  31.283  1.00  0.00     0.004 C 
ATOM      7  C   UNL     1      30.833  10.893  32.448  1.00  0.00     0.024 C 
ATOM      8  C   UNL     1      32.381  10.911  32.452  1.00  0.00    -0.022 C 
ATOM      9  C   UNL     1      32.920  11.860  31.345  1.00  0.00     0.008 C 
ATOM     10  C   UNL     1      32.027  11.878  30.077  1.00  0.00     0.005 C 
ATOM     11  C   UNL     1      31.124  10.606  29.913  1.00  0.00    -0.005 C 
ATOM     12  C   UNL     1      33.121  11.147  33.790  1.00  0.00     0.012 C 
ENDROOT
BRANCH  11  13
ATOM     13  C   UNL     1      31.639   9.670  28.769  1.00  0.00    -0.014 C 
ATOM     14  C   UNL     1      30.611   8.599  28.361  1.00  0.00     0.007 C 
ATOM     15  C   UNL     1      32.018  10.486  27.518  1.00  0.00     0.007 C 
ENDBRANCH  11  13
TORSDOF 1
ENDMDL
MODEL 4
REMARK VINA RESULT:    -5.174      1.623      5.153
REMARK INTER + INTRA:          -5.760
REMARK INTER:                  -5.465
REMARK INTRA:                  -0.295
REMARK UNBOUND:                -0.284
REMARK SMILES CC1=CC[C@H]2[C@H]3[C@@H]1[C@]2(C)CC[C@H]3C(C)C
REMARK SMILES IDX 1 1 2 2 3 3 4 4 5 5 6 6 7 7 8 8 10 9 11 10 12 11 9 12 13 13
REMARK SMILES IDX 14 14 15 15
REMARK H PARENT
REMARK Flexibility Score: inf
ROOT
ATOM      1  C   UNL     1      28.495  12.262  26.433  1.00  0.00     0.039 C 
ATOM      2  C   UNL     1      29.884  11.856  26.829  1.00  0.00    -0.073 C 
ATOM      3  C   UNL     1      30.971  12.322  26.160  1.00  0.00    -0.027 C 
ATOM      4  C   UNL     1      32.364  11.854  26.594  1.00  0.00     0.031 C 
ATOM      5  C   UNL     1      32.258  10.892  27.822  1.00  0.00     0.003 C 
ATOM      6  C   UNL     1      31.291  11.545  28.836  1.00  0.00     0.004 C 
ATOM      7  C   UNL     1      30.143  10.917  28.009  1.00  0.00     0.024 C 
ATOM      8  C   UNL     1      31.162   9.822  27.611  1.00  0.00    -0.022 C 
ATOM      9  C   UNL     1      31.281   8.750  28.731  1.00  0.00     0.008 C 
ATOM     10  C   UNL     1      31.116   9.344  30.154  1.00  0.00     0.005 C 
ATOM     11  C   UNL     1      31.409  10.882  30.243  1.00  0.00    -0.005 C 
ATOM     12  C   UNL     1      31.035   9.154  26.220  1.00  0.00     0.012 C 
ENDROOT
BRANCH  11  13
ATOM     13  C   UNL     1      32.768  11.175  30.964  1.00  0.00    -0.014 C 
ATOM     14  C   UNL     1      33.080  12.679  31.068  1.00  0.00     0.007 C 
ATOM     15  C   UNL     1      32.779  10.574  32.382  1.00  0.00     0.007 C 
ENDBRANCH  11  13
TORSDOF 1
ENDMDL
MODEL 5
REMARK VINA RESULT:    -5.108      2.065      5.476
REMARK INTER + INTRA:          -5.691
REMARK INTER:                  -5.403
REMARK INTRA:                  -0.288
REMARK UNBOUND:                -0.284
REMARK SMILES CC1=CC[C@H]2[C@H]3[C@@H]1[C@]2(C)CC[C@H]3C(C)C
REMARK SMILES IDX 1 1 2 2 3 3 4 4 5 5 6 6 7 7 8 8 10 9 11 10 12 11 9 12 13 13
REMARK SMILES IDX 14 14 15 15
REMARK H PARENT
REMARK Flexibility Score: inf
ROOT
ATOM      1  C   UNL     1      29.531  12.610  31.429  1.00  0.00     0.039 C 
ATOM      2  C   UNL     1      30.604  11.698  31.945  1.00  0.00    -0.073 C 
ATOM      3  C   UNL     1      31.909  12.078  31.948  1.00  0.00    -0.027 C 
ATOM      4  C   UNL     1      32.966  11.096  32.464  1.00  0.00     0.031 C 
ATOM      5  C   UNL     1      32.289   9.772  32.948  1.00  0.00     0.003 C 
ATOM      6  C   UNL     1      31.080  10.167  33.825  1.00  0.00     0.004 C 
ATOM      7  C   UNL     1      30.283  10.311  32.506  1.00  0.00     0.024 C 
ATOM      8  C   UNL     1      31.254   9.256  31.921  1.00  0.00    -0.022 C 
ATOM      9  C   UNL     1      30.813   7.821  32.326  1.00  0.00     0.008 C 
ATOM     10  C   UNL     1      30.173   7.763  33.738  1.00  0.00     0.005 C 
ATOM     11  C   UNL     1      30.571   8.959  34.671  1.00  0.00    -0.005 C 
ATOM     12  C   UNL     1      31.606   9.321  30.415  1.00  0.00     0.012 C 
ENDROOT
BRANCH  11  13
ATOM     13  C   UNL     1      31.565   8.514  35.794  1.00  0.00    -0.014 C 
ATOM     14  C   UNL     1      31.482   9.396  37.053  1.00  0.00     0.007 C 
ATOM     15  C   UNL     1      31.314   7.051  36.205  1.00  0.00     0.007 C 
ENDBRANCH  11  13
TORSDOF 1
ENDMDL
MODEL 6
REMARK VINA RESULT:    -5.046      2.156      3.703
REMARK INTER + INTRA:          -5.625
REMARK INTER:                  -5.338
REMARK INTRA:                  -0.287
REMARK UNBOUND:                -0.284
REMARK SMILES CC1=CC[C@H]2[C@H]3[C@@H]1[C@]2(C)CC[C@H]3C(C)C
REMARK SMILES IDX 1 1 2 2 3 3 4 4 5 5 6 6 7 7 8 8 10 9 11 10 12 11 9 12 13 13
REMARK SMILES IDX 14 14 15 15
REMARK H PARENT
REMARK Flexibility Score: inf
ROOT
ATOM      1  C   UNL     1      29.267   9.848  34.888  1.00  0.00     0.039 C 
ATOM      2  C   UNL     1      30.234   9.118  34.005  1.00  0.00    -0.073 C 
ATOM      3  C   UNL     1      31.040   8.141  34.498  1.00  0.00    -0.027 C 
ATOM      4  C   UNL     1      32.026   7.447  33.554  1.00  0.00     0.031 C 
ATOM      5  C   UNL     1      31.883   8.013  32.103  1.00  0.00     0.003 C 
ATOM      6  C   UNL     1      30.373   8.062  31.775  1.00  0.00     0.004 C 
ATOM      7  C   UNL     1      30.349   9.424  32.509  1.00  0.00     0.024 C 
ATOM      8  C   UNL     1      31.836   9.559  32.101  1.00  0.00    -0.022 C 
ATOM      9  C   UNL     1      31.959  10.065  30.636  1.00  0.00     0.008 C 
ATOM     10  C   UNL     1      30.822   9.539  29.719  1.00  0.00     0.005 C 
ATOM     11  C   UNL     1      30.129   8.234  30.244  1.00  0.00    -0.005 C 
ATOM     12  C   UNL     1      32.799  10.333  33.033  1.00  0.00     0.012 C 
ENDROOT
BRANCH  11  13
ATOM     13  C   UNL     1      30.532   6.981  29.398  1.00  0.00    -0.014 C 
ATOM     14  C   UNL     1      29.324   6.123  28.983  1.00  0.00     0.007 C 
ATOM     15  C   UNL     1      31.296   7.396  28.127  1.00  0.00     0.007 C 
ENDBRANCH  11  13
TORSDOF 1
ENDMDL
MODEL 7
REMARK VINA RESULT:    -5.041      2.075      4.095
REMARK INTER + INTRA:          -5.620
REMARK INTER:                  -5.404
REMARK INTRA:                  -0.216
REMARK UNBOUND:                -0.284
REMARK SMILES CC1=CC[C@H]2[C@H]3[C@@H]1[C@]2(C)CC[C@H]3C(C)C
REMARK SMILES IDX 1 1 2 2 3 3 4 4 5 5 6 6 7 7 8 8 10 9 11 10 12 11 9 12 13 13
REMARK SMILES IDX 14 14 15 15
REMARK H PARENT
REMARK Flexibility Score: inf
ROOT
ATOM      1  C   UNL     1      31.274  10.726  37.580  1.00  0.00     0.039 C 
ATOM      2  C   UNL     1      30.764  10.582  36.177  1.00  0.00    -0.073 C 
ATOM      3  C   UNL     1      29.471  10.861  35.865  1.00  0.00    -0.027 C 
ATOM      4  C   UNL     1      29.000  10.671  34.419  1.00  0.00     0.031 C 
ATOM      5  C   UNL     1      30.184  10.191  33.518  1.00  0.00     0.003 C 
ATOM      6  C   UNL     1      31.402  11.086  33.843  1.00  0.00     0.004 C 
ATOM      7  C   UNL     1      31.674  10.131  35.030  1.00  0.00     0.024 C 
ATOM      8  C   UNL     1      30.973   9.040  34.185  1.00  0.00    -0.022 C 
ATOM      9  C   UNL     1      31.958   8.435  33.146  1.00  0.00     0.008 C 
ATOM     10  C   UNL     1      32.974   9.474  32.602  1.00  0.00     0.005 C 
ATOM     11  C   UNL     1      32.506  10.963  32.748  1.00  0.00    -0.005 C 
ATOM     12  C   UNL     1      30.185   7.924  34.913  1.00  0.00     0.012 C 
ENDROOT
BRANCH  11  13
ATOM     13  C   UNL     1      32.097  11.582  31.370  1.00  0.00    -0.014 C 
ATOM     14  C   UNL     1      33.125  12.598  30.839  1.00  0.00     0.007 C 
ATOM     15  C   UNL     1      31.902  10.483  30.308  1.00  0.00     0.007 C 
ENDBRANCH  11  13
TORSDOF 1
ENDMDL
MODEL 8
REMARK VINA RESULT:    -4.998      2.206      5.015
REMARK INTER + INTRA:          -5.574
REMARK INTER:                  -5.286
REMARK INTRA:                  -0.288
REMARK UNBOUND:                -0.284
REMARK SMILES CC1=CC[C@H]2[C@H]3[C@@H]1[C@]2(C)CC[C@H]3C(C)C
REMARK SMILES IDX 1 1 2 2 3 3 4 4 5 5 6 6 7 7 8 8 10 9 11 10 12 11 9 12 13 13
REMARK SMILES IDX 14 14 15 15
REMARK H PARENT
REMARK Flexibility Score: inf
ROOT
ATOM      1  C   UNL     1      27.691   9.677  27.021  1.00  0.00     0.039 C 
ATOM      2  C   UNL     1      29.123   9.479  27.417  1.00  0.00    -0.073 C 
ATOM      3  C   UNL     1      30.135   9.708  26.539  1.00  0.00    -0.027 C 
ATOM      4  C   UNL     1      31.579   9.465  26.991  1.00  0.00     0.031 C 
ATOM      5  C   UNL     1      31.611   8.999  28.483  1.00  0.00     0.003 C 
ATOM      6  C   UNL     1      30.679   9.940  29.280  1.00  0.00     0.004 C 
ATOM      7  C   UNL     1      29.515   9.027  28.826  1.00  0.00     0.024 C 
ATOM      8  C   UNL     1      30.565   7.892  28.754  1.00  0.00    -0.022 C 
ATOM      9  C   UNL     1      30.821   7.291  30.165  1.00  0.00     0.008 C 
ATOM     10  C   UNL     1      30.719   8.347  31.297  1.00  0.00     0.005 C 
ATOM     11  C   UNL     1      30.930   9.824  30.815  1.00  0.00    -0.005 C 
ATOM     12  C   UNL     1      30.382   6.771  27.702  1.00  0.00     0.012 C 
ENDROOT
BRANCH  11  13
ATOM     13  C   UNL     1      32.315  10.392  31.271  1.00  0.00    -0.014 C 
ATOM     14  C   UNL     1      32.349  11.931  31.310  1.00  0.00     0.007 C 
ATOM     15  C   UNL     1      32.698   9.860  32.665  1.00  0.00     0.007 C 
ENDBRANCH  11  13
TORSDOF 1
ENDMDL
