MODEL 1
REMARK VINA RESULT:    -2.509      0.000      0.000
REMARK INTER + INTRA:          -5.966
REMARK INTER:                  -4.710
REMARK INTRA:                  -1.256
REMARK UNBOUND:                -1.256
REMARK SMILES O=C([O-])CCCCCCCCCCCCCCC(=O)[O-]
REMARK SMILES IDX 10 1 9 2 8 3 7 4 6 5 5 6 4 7 2 8 1 9 3 10 11 11 12 12 13 13
REMARK SMILES IDX 14 14 15 15 16 16 17 17 18 18 19 19 20 20
REMARK H PARENT
REMARK Flexibility Score: inf
ROOT
ATOM      1  C   UNL     1       2.868   8.578   4.457  1.00  0.00     0.000 C 
ENDROOT
BRANCH   1   2
ATOM      2  C   UNL     1       4.045   9.534   4.208  1.00  0.00     0.000 C 
BRANCH   2   3
ATOM      3  C   UNL     1       4.342   9.734   2.712  1.00  0.00     0.000 C 
BRANCH   3   4
ATOM      4  C   UNL     1       5.850   9.799   2.413  1.00  0.00     0.000 C 
BRANCH   4   5
ATOM      5  C   UNL     1       6.407   8.463   1.896  1.00  0.00     0.000 C 
BRANCH   5   6
ATOM      6  C   UNL     1       6.376   7.356   2.960  1.00  0.00     0.006 C 
BRANCH   6   7
ATOM      7  C   UNL     1       6.615   5.981   2.327  1.00  0.00     0.053 C 
BRANCH   7   8
ATOM      8  C   UNL     1       5.400   5.120   2.469  1.00  0.00     0.041 C 
ATOM      9  O   UNL     1       4.250   5.631   2.414  1.00  0.00    -0.550 OA
ATOM     10  O   UNL     1       5.536   3.760   2.712  1.00  0.00    -0.550 OA
ENDBRANCH   7   8
ENDBRANCH   6   7
ENDBRANCH   5   6
ENDBRANCH   4   5
ENDBRANCH   3   4
ENDBRANCH   2   3
ENDBRANCH   1   2
BRANCH   1  11
ATOM     11  C   UNL     1       1.982   9.087   5.600  1.00  0.00     0.000 C 
BRANCH  11  12
ATOM     12  C   UNL     1       0.794   9.896   5.058  1.00  0.00     0.000 C 
BRANCH  12  13
ATOM     13  C   UNL     1       0.560   9.667   3.556  1.00  0.00     0.000 C 
BRANCH  13  14
ATOM     14  C   UNL     1      -0.876   9.210   3.244  1.00  0.00     0.000 C 
BRANCH  14  15
ATOM     15  C   UNL     1      -0.950   8.255   2.040  1.00  0.00     0.000 C 
BRANCH  15  16
ATOM     16  C   UNL     1      -0.519   6.803   2.333  1.00  0.00     0.006 C 
BRANCH  16  17
ATOM     17  C   UNL     1      -1.112   6.209   3.621  1.00  0.00     0.053 C 
BRANCH  17  18
ATOM     18  C   UNL     1      -0.240   5.135   4.195  1.00  0.00     0.041 C 
ATOM     19  O   UNL     1       1.012   5.251   4.166  1.00  0.00    -0.550 OA
ATOM     20  O   UNL     1      -0.813   3.988   4.733  1.00  0.00    -0.550 OA
ENDBRANCH  17  18
ENDBRANCH  16  17
ENDBRANCH  15  16
ENDBRANCH  14  15
ENDBRANCH  13  14
ENDBRANCH  12  13
ENDBRANCH  11  12
ENDBRANCH   1  11
TORSDOF 15
ENDMDL
MODEL 2
REMARK VINA RESULT:    -2.427      0.924      5.920
REMARK INTER + INTRA:          -5.812
REMARK INTER:                  -4.638
REMARK INTRA:                  -1.174
REMARK UNBOUND:                -1.256
REMARK SMILES O=C([O-])CCCCCCCCCCCCCCC(=O)[O-]
REMARK SMILES IDX 10 1 9 2 8 3 7 4 6 5 5 6 4 7 2 8 1 9 3 10 11 11 12 12 13 13
REMARK SMILES IDX 14 14 15 15 16 16 17 17 18 18 19 19 20 20
REMARK H PARENT
REMARK Flexibility Score: inf
ROOT
ATOM      1  C   UNL     1       2.509   9.972   4.268  1.00  0.00     0.000 C 
ENDROOT
BRANCH   1   2
ATOM      2  C   UNL     1       1.402   9.128   4.919  1.00  0.00     0.000 C 
BRANCH   2   3
ATOM      3  C   UNL     1       0.045   9.850   4.951  1.00  0.00     0.000 C 
BRANCH   3   4
ATOM      4  C   UNL     1      -0.996   9.191   4.028  1.00  0.00     0.000 C 
BRANCH   4   5
ATOM      5  C   UNL     1      -0.352   8.305   2.951  1.00  0.00     0.000 C 
BRANCH   5   6
ATOM      6  C   UNL     1      -1.125   6.998   2.716  1.00  0.00     0.006 C 
BRANCH   6   7
ATOM      7  C   UNL     1      -0.171   5.801   2.653  1.00  0.00     0.053 C 
BRANCH   7   8
ATOM      8  C   UNL     1      -0.023   5.176   4.004  1.00  0.00     0.041 C 
ATOM      9  O   UNL     1       0.707   5.717   4.876  1.00  0.00    -0.550 OA
ATOM     10  O   UNL     1      -0.652   3.971   4.285  1.00  0.00    -0.550 OA
ENDBRANCH   7   8
ENDBRANCH   6   7
ENDBRANCH   5   6
ENDBRANCH   4   5
ENDBRANCH   3   4
ENDBRANCH   2   3
ENDBRANCH   1   2
BRANCH   1  11
ATOM     11  C   UNL     1       3.593   9.077   3.658  1.00  0.00     0.000 C 
BRANCH  11  12
ATOM     12  C   UNL     1       4.870   9.880   3.364  1.00  0.00     0.000 C 
BRANCH  12  13
ATOM     13  C   UNL     1       5.493   9.522   2.005  1.00  0.00     0.000 C 
BRANCH  13  14
ATOM     14  C   UNL     1       7.031   9.536   2.038  1.00  0.00     0.000 C 
BRANCH  14  15
ATOM     15  C   UNL     1       7.636   8.137   2.248  1.00  0.00     0.000 C 
BRANCH  15  16
ATOM     16  C   UNL     1       6.649   6.966   2.062  1.00  0.00     0.006 C 
BRANCH  16  17
ATOM     17  C   UNL     1       6.319   6.199   3.352  1.00  0.00     0.053 C 
BRANCH  17  18
ATOM     18  C   UNL     1       5.124   5.311   3.185  1.00  0.00     0.041 C 
ATOM     19  O   UNL     1       3.965   5.801   3.184  1.00  0.00    -0.550 OA
ATOM     20  O   UNL     1       5.291   3.936   3.065  1.00  0.00    -0.550 OA
ENDBRANCH  17  18
ENDBRANCH  16  17
ENDBRANCH  15  16
ENDBRANCH  14  15
ENDBRANCH  13  14
ENDBRANCH  12  13
ENDBRANCH  11  12
ENDBRANCH   1  11
TORSDOF 15
ENDMDL
MODEL 3
REMARK VINA RESULT:    -2.108      2.216      5.388
REMARK INTER + INTRA:          -5.213
REMARK INTER:                  -4.047
REMARK INTRA:                  -1.166
REMARK UNBOUND:                -1.256
REMARK SMILES O=C([O-])CCCCCCCCCCCCCCC(=O)[O-]
REMARK SMILES IDX 10 1 9 2 8 3 7 4 6 5 5 6 4 7 2 8 1 9 3 10 11 11 12 12 13 13
REMARK SMILES IDX 14 14 15 15 16 16 17 17 18 18 19 19 20 20
REMARK H PARENT
REMARK Flexibility Score: inf
ROOT
ATOM      1  C   UNL     1       6.350   6.227   3.223  1.00  0.00     0.000 C 
ENDROOT
BRANCH   1   2
ATOM      2  C   UNL     1       5.841   4.894   2.656  1.00  0.00     0.000 C 
BRANCH   2   3
ATOM      3  C   UNL     1       4.390   4.977   2.154  1.00  0.00     0.000 C 
BRANCH   3   4
ATOM      4  C   UNL     1       3.534   5.954   2.981  1.00  0.00     0.000 C 
BRANCH   4   5
ATOM      5  C   UNL     1       2.609   6.813   2.105  1.00  0.00     0.000 C 
BRANCH   5   6
ATOM      6  C   UNL     1       1.120   6.540   2.369  1.00  0.00     0.006 C 
BRANCH   6   7
ATOM      7  C   UNL     1       0.902   6.028   3.796  1.00  0.00     0.053 C 
BRANCH   7   8
ATOM      8  C   UNL     1      -0.190   5.005   3.824  1.00  0.00     0.041 C 
ATOM      9  O   UNL     1      -0.826   4.727   2.773  1.00  0.00    -0.550 OA
ATOM     10  O   UNL     1      -0.539   4.394   5.021  1.00  0.00    -0.550 OA
ENDBRANCH   7   8
ENDBRANCH   6   7
ENDBRANCH   5   6
ENDBRANCH   4   5
ENDBRANCH   3   4
ENDBRANCH   2   3
ENDBRANCH   1   2
BRANCH   1  11
ATOM     11  C   UNL     1       7.194   6.977   2.186  1.00  0.00     0.000 C 
BRANCH  11  12
ATOM     12  C   UNL     1       6.871   8.479   2.194  1.00  0.00     0.000 C 
BRANCH  12  13
ATOM     13  C   UNL     1       5.655   8.816   3.071  1.00  0.00     0.000 C 
BRANCH  13  14
ATOM     14  C   UNL     1       4.602   9.656   2.326  1.00  0.00     0.000 C 
BRANCH  14  15
ATOM     15  C   UNL     1       3.422  10.067   3.223  1.00  0.00     0.000 C 
BRANCH  15  16
ATOM     16  C   UNL     1       3.473   9.510   4.661  1.00  0.00     0.006 C 
BRANCH  16  17
ATOM     17  C   UNL     1       2.138   8.951   5.176  1.00  0.00     0.053 C 
BRANCH  17  18
ATOM     18  C   UNL     1       0.964   9.653   4.566  1.00  0.00     0.041 C 
ATOM     19  O   UNL     1       0.054  10.122   5.297  1.00  0.00    -0.550 OA
ATOM     20  O   UNL     1       0.860   9.760   3.184  1.00  0.00    -0.550 OA
ENDBRANCH  17  18
ENDBRANCH  16  17
ENDBRANCH  15  16
ENDBRANCH  14  15
ENDBRANCH  13  14
ENDBRANCH  12  13
ENDBRANCH  11  12
ENDBRANCH   1  11
TORSDOF 15
ENDMDL
MODEL 4
REMARK VINA RESULT:    -2.050      3.040      7.802
REMARK INTER + INTRA:          -5.104
REMARK INTER:                  -4.410
REMARK INTRA:                  -0.695
REMARK UNBOUND:                -1.256
REMARK SMILES O=C([O-])CCCCCCCCCCCCCCC(=O)[O-]
REMARK SMILES IDX 10 1 9 2 8 3 7 4 6 5 5 6 4 7 2 8 1 9 3 10 11 11 12 12 13 13
REMARK SMILES IDX 14 14 15 15 16 16 17 17 18 18 19 19 20 20
REMARK H PARENT
REMARK Flexibility Score: inf
ROOT
ATOM      1  C   UNL     1       2.985   7.907   4.615  1.00  0.00     0.000 C 
ENDROOT
BRANCH   1   2
ATOM      2  C   UNL     1       2.440   9.287   5.010  1.00  0.00     0.000 C 
BRANCH   2   3
ATOM      3  C   UNL     1       0.904   9.359   4.952  1.00  0.00     0.000 C 
BRANCH   3   4
ATOM      4  C   UNL     1       0.369   9.385   3.509  1.00  0.00     0.000 C 
BRANCH   4   5
ATOM      5  C   UNL     1      -0.745   8.351   3.275  1.00  0.00     0.000 C 
BRANCH   5   6
ATOM      6  C   UNL     1      -0.667   7.165   4.247  1.00  0.00     0.006 C 
BRANCH   6   7
ATOM      7  C   UNL     1      -0.972   5.847   3.528  1.00  0.00     0.053 C 
BRANCH   7   8
ATOM      8  C   UNL     1      -0.315   4.701   4.231  1.00  0.00     0.041 C 
ATOM      9  O   UNL     1      -1.002   3.722   4.626  1.00  0.00    -0.550 OA
ATOM     10  O   UNL     1       1.048   4.736   4.494  1.00  0.00    -0.550 OA
ENDBRANCH   7   8
ENDBRANCH   6   7
ENDBRANCH   5   6
ENDBRANCH   4   5
ENDBRANCH   3   4
ENDBRANCH   2   3
ENDBRANCH   1   2
BRANCH   1  11
ATOM     11  C   UNL     1       4.266   8.041   3.783  1.00  0.00     0.000 C 
BRANCH  11  12
ATOM     12  C   UNL     1       5.197   6.839   4.007  1.00  0.00     0.000 C 
BRANCH  12  13
ATOM     13  C   UNL     1       5.703   6.231   2.690  1.00  0.00     0.000 C 
BRANCH  13  14
ATOM     14  C   UNL     1       7.133   6.681   2.341  1.00  0.00     0.000 C 
BRANCH  14  15
ATOM     15  C   UNL     1       7.329   8.201   2.475  1.00  0.00     0.000 C 
BRANCH  15  16
ATOM     16  C   UNL     1       8.705   8.722   2.012  1.00  0.00     0.006 C 
BRANCH  16  17
ATOM     17  C   UNL     1       9.905   7.948   2.580  1.00  0.00     0.053 C 
BRANCH  17  18
ATOM     18  C   UNL     1      11.208   8.601   2.232  1.00  0.00     0.041 C 
ATOM     19  O   UNL     1      11.261   9.840   2.021  1.00  0.00    -0.550 OA
ATOM     20  O   UNL     1      12.359   7.831   2.109  1.00  0.00    -0.550 OA
ENDBRANCH  17  18
ENDBRANCH  16  17
ENDBRANCH  15  16
ENDBRANCH  14  15
ENDBRANCH  13  14
ENDBRANCH  12  13
ENDBRANCH  11  12
ENDBRANCH   1  11
TORSDOF 15
ENDMDL
MODEL 5
REMARK VINA RESULT:    -1.997      2.443      3.335
REMARK INTER + INTRA:          -5.004
REMARK INTER:                  -4.430
REMARK INTRA:                  -0.574
REMARK UNBOUND:                -1.256
REMARK SMILES O=C([O-])CCCCCCCCCCCCCCC(=O)[O-]
REMARK SMILES IDX 10 1 9 2 8 3 7 4 6 5 5 6 4 7 2 8 1 9 3 10 11 11 12 12 13 13
REMARK SMILES IDX 14 14 15 15 16 16 17 17 18 18 19 19 20 20
REMARK H PARENT
REMARK Flexibility Score: inf
ROOT
ATOM      1  C   UNL     1       5.017   8.289   4.056  1.00  0.00     0.000 C 
ENDROOT
BRANCH   1   2
ATOM      2  C   UNL     1       5.616   6.938   4.475  1.00  0.00     0.000 C 
BRANCH   2   3
ATOM      3  C   UNL     1       5.046   5.759   3.669  1.00  0.00     0.000 C 
BRANCH   3   4
ATOM      4  C   UNL     1       5.591   5.708   2.230  1.00  0.00     0.000 C 
BRANCH   4   5
ATOM      5  C   UNL     1       7.100   5.990   2.162  1.00  0.00     0.000 C 
BRANCH   5   6
ATOM      6  C   UNL     1       7.416   7.465   1.875  1.00  0.00     0.006 C 
BRANCH   6   7
ATOM      7  C   UNL     1       8.897   7.767   2.128  1.00  0.00     0.053 C 
BRANCH   7   8
ATOM      8  C   UNL     1       9.141   9.243   2.113  1.00  0.00     0.041 C 
ATOM      9  O   UNL     1      10.311   9.691   1.989  1.00  0.00    -0.550 OA
ATOM     10  O   UNL     1       8.081  10.125   2.285  1.00  0.00    -0.550 OA
ENDBRANCH   7   8
ENDBRANCH   6   7
ENDBRANCH   5   6
ENDBRANCH   4   5
ENDBRANCH   3   4
ENDBRANCH   2   3
ENDBRANCH   1   2
BRANCH   1  11
ATOM     11  C   UNL     1       3.831   8.664   4.952  1.00  0.00     0.000 C 
BRANCH  11  12
ATOM     12  C   UNL     1       2.657   9.199   4.118  1.00  0.00     0.000 C 
BRANCH  12  13
ATOM     13  C   UNL     1       1.291   8.791   4.691  1.00  0.00     0.000 C 
BRANCH  13  14
ATOM     14  C   UNL     1       0.115   9.409   3.914  1.00  0.00     0.000 C 
BRANCH  14  15
ATOM     15  C   UNL     1      -0.418   8.486   2.804  1.00  0.00     0.000 C 
BRANCH  15  16
ATOM     16  C   UNL     1       0.074   7.026   2.880  1.00  0.00     0.006 C 
BRANCH  16  17
ATOM     17  C   UNL     1      -0.992   6.018   3.336  1.00  0.00     0.053 C 
BRANCH  17  18
ATOM     18  C   UNL     1      -0.434   5.007   4.292  1.00  0.00     0.041 C 
ATOM     19  O   UNL     1      -1.092   3.974   4.578  1.00  0.00    -0.550 OA
ATOM     20  O   UNL     1       0.801   5.226   4.891  1.00  0.00    -0.550 OA
ENDBRANCH  17  18
ENDBRANCH  16  17
ENDBRANCH  15  16
ENDBRANCH  14  15
ENDBRANCH  13  14
ENDBRANCH  12  13
ENDBRANCH  11  12
ENDBRANCH   1  11
TORSDOF 15
ENDMDL
MODEL 6
REMARK VINA RESULT:    -1.884      2.909      3.692
REMARK INTER + INTRA:          -4.793
REMARK INTER:                  -3.569
REMARK INTRA:                  -1.224
REMARK UNBOUND:                -1.256
REMARK SMILES O=C([O-])CCCCCCCCCCCCCCC(=O)[O-]
REMARK SMILES IDX 10 1 9 2 8 3 7 4 6 5 5 6 4 7 2 8 1 9 3 10 11 11 12 12 13 13
REMARK SMILES IDX 14 14 15 15 16 16 17 17 18 18 19 19 20 20
REMARK H PARENT
REMARK Flexibility Score: inf
ROOT
ATOM      1  C   UNL     1       4.058   7.063   3.751  1.00  0.00     0.000 C 
ENDROOT
BRANCH   1   2
ATOM      2  C   UNL     1       5.464   6.451   3.660  1.00  0.00     0.000 C 
BRANCH   2   3
ATOM      3  C   UNL     1       6.171   6.779   2.334  1.00  0.00     0.000 C 
BRANCH   3   4
ATOM      4  C   UNL     1       5.922   8.227   1.875  1.00  0.00     0.000 C 
BRANCH   4   5
ATOM      5  C   UNL     1       6.857   9.233   2.565  1.00  0.00     0.000 C 
BRANCH   5   6
ATOM      6  C   UNL     1       8.231   9.329   1.885  1.00  0.00     0.006 C 
BRANCH   6   7
ATOM      7  C   UNL     1       9.119   8.142   2.275  1.00  0.00     0.053 C 
BRANCH   7   8
ATOM      8  C   UNL     1      10.536   8.584   2.455  1.00  0.00     0.041 C 
ATOM      9  O   UNL     1      11.464   7.734   2.502  1.00  0.00    -0.550 OA
ATOM     10  O   UNL     1      10.829   9.932   2.620  1.00  0.00    -0.550 OA
ENDBRANCH   7   8
ENDBRANCH   6   7
ENDBRANCH   5   6
ENDBRANCH   4   5
ENDBRANCH   3   4
ENDBRANCH   2   3
ENDBRANCH   1   2
BRANCH   1  11
ATOM     11  C   UNL     1       4.043   8.262   4.707  1.00  0.00     0.000 C 
BRANCH  11  12
ATOM     12  C   UNL     1       2.921   9.245   4.341  1.00  0.00     0.000 C 
BRANCH  12  13
ATOM     13  C   UNL     1       3.219  10.027   3.052  1.00  0.00     0.000 C 
BRANCH  13  14
ATOM     14  C   UNL     1       2.094   9.901   2.009  1.00  0.00     0.000 C 
BRANCH  14  15
ATOM     15  C   UNL     1       0.703   9.749   2.648  1.00  0.00     0.000 C 
BRANCH  15  16
ATOM     16  C   UNL     1      -0.163   8.616   2.061  1.00  0.00     0.006 C 
BRANCH  16  17
ATOM     17  C   UNL     1       0.566   7.272   1.905  1.00  0.00     0.053 C 
BRANCH  17  18
ATOM     18  C   UNL     1       0.255   6.333   3.030  1.00  0.00     0.041 C 
ATOM     19  O   UNL     1       0.088   5.106   2.804  1.00  0.00    -0.550 OA
ATOM     20  O   UNL     1       0.119   6.820   4.325  1.00  0.00    -0.550 OA
ENDBRANCH  17  18
ENDBRANCH  16  17
ENDBRANCH  15  16
ENDBRANCH  14  15
ENDBRANCH  13  14
ENDBRANCH  12  13
ENDBRANCH  11  12
ENDBRANCH   1  11
TORSDOF 15
ENDMDL
MODEL 7
REMARK VINA RESULT:    -1.315      2.076      5.050
REMARK INTER + INTRA:          -3.724
REMARK INTER:                  -2.976
REMARK INTRA:                  -0.748
REMARK UNBOUND:                -1.256
REMARK SMILES O=C([O-])CCCCCCCCCCCCCCC(=O)[O-]
REMARK SMILES IDX 10 1 9 2 8 3 7 4 6 5 5 6 4 7 2 8 1 9 3 10 11 11 12 12 13 13
REMARK SMILES IDX 14 14 15 15 16 16 17 17 18 18 19 19 20 20
REMARK H PARENT
REMARK Flexibility Score: inf
ROOT
ATOM      1  C   UNL     1       4.947   8.502   3.502  1.00  0.00     0.000 C 
ENDROOT
BRANCH   1   2
ATOM      2  C   UNL     1       4.494   9.247   2.237  1.00  0.00     0.000 C 
BRANCH   2   3
ATOM      3  C   UNL     1       3.073   9.823   2.364  1.00  0.00     0.000 C 
BRANCH   3   4
ATOM      4  C   UNL     1       1.987   8.806   1.968  1.00  0.00     0.000 C 
BRANCH   4   5
ATOM      5  C   UNL     1       0.574   9.274   2.352  1.00  0.00     0.000 C 
BRANCH   5   6
ATOM      6  C   UNL     1       0.557  10.124   3.631  1.00  0.00     0.006 C 
BRANCH   6   7
ATOM      7  C   UNL     1       0.396   9.241   4.873  1.00  0.00     0.053 C 
BRANCH   7   8
ATOM      8  C   UNL     1       1.611   9.331   5.741  1.00  0.00     0.041 C 
ATOM      9  O   UNL     1       1.634  10.122   6.721  1.00  0.00    -0.550 OA
ATOM     10  O   UNL     1       2.738   8.576   5.440  1.00  0.00    -0.550 OA
ENDBRANCH   7   8
ENDBRANCH   6   7
ENDBRANCH   5   6
ENDBRANCH   4   5
ENDBRANCH   3   4
ENDBRANCH   2   3
ENDBRANCH   1   2
BRANCH   1  11
ATOM     11  C   UNL     1       6.155   7.605   3.205  1.00  0.00     0.000 C 
BRANCH  11  12
ATOM     12  C   UNL     1       5.941   6.190   3.765  1.00  0.00     0.000 C 
BRANCH  12  13
ATOM     13  C   UNL     1       6.011   5.107   2.677  1.00  0.00     0.000 C 
BRANCH  13  14
ATOM     14  C   UNL     1       4.634   4.795   2.064  1.00  0.00     0.000 C 
BRANCH  14  15
ATOM     15  C   UNL     1       3.539   5.772   2.528  1.00  0.00     0.000 C 
BRANCH  15  16
ATOM     16  C   UNL     1       2.594   5.220   3.616  1.00  0.00     0.006 C 
BRANCH  16  17
ATOM     17  C   UNL     1       1.288   6.012   3.787  1.00  0.00     0.053 C 
BRANCH  17  18
ATOM     18  C   UNL     1       0.092   5.112   3.856  1.00  0.00     0.041 C 
ATOM     19  O   UNL     1       0.073   4.145   4.659  1.00  0.00    -0.550 OA
ATOM     20  O   UNL     1      -0.987   5.325   3.007  1.00  0.00    -0.550 OA
ENDBRANCH  17  18
ENDBRANCH  16  17
ENDBRANCH  15  16
ENDBRANCH  14  15
ENDBRANCH  13  14
ENDBRANCH  12  13
ENDBRANCH  11  12
ENDBRANCH   1  11
TORSDOF 15
ENDMDL
MODEL 8
REMARK VINA RESULT:    -0.916      2.112      4.424
REMARK INTER + INTRA:          -2.977
REMARK INTER:                  -2.425
REMARK INTRA:                  -0.552
REMARK UNBOUND:                -1.256
REMARK SMILES O=C([O-])CCCCCCCCCCCCCCC(=O)[O-]
REMARK SMILES IDX 10 1 9 2 8 3 7 4 6 5 5 6 4 7 2 8 1 9 3 10 11 11 12 12 13 13
REMARK SMILES IDX 14 14 15 15 16 16 17 17 18 18 19 19 20 20
REMARK H PARENT
REMARK Flexibility Score: inf
ROOT
ATOM      1  C   UNL     1       5.594   7.826   3.621  1.00  0.00     0.000 C 
ENDROOT
BRANCH   1   2
ATOM      2  C   UNL     1       6.494   6.592   3.456  1.00  0.00     0.000 C 
BRANCH   2   3
ATOM      3  C   UNL     1       6.179   5.793   2.180  1.00  0.00     0.000 C 
BRANCH   3   4
ATOM      4  C   UNL     1       5.369   4.516   2.467  1.00  0.00     0.000 C 
BRANCH   4   5
ATOM      5  C   UNL     1       4.286   4.734   3.536  1.00  0.00     0.000 C 
BRANCH   5   6
ATOM      6  C   UNL     1       3.011   5.375   2.967  1.00  0.00     0.006 C 
BRANCH   6   7
ATOM      7  C   UNL     1       2.090   5.854   4.094  1.00  0.00     0.053 C 
BRANCH   7   8
ATOM      8  C   UNL     1       0.755   5.185   4.000  1.00  0.00     0.041 C 
ATOM      9  O   UNL     1       0.428   4.302   4.837  1.00  0.00    -0.550 OA
ATOM     10  O   UNL     1      -0.110   5.501   2.960  1.00  0.00    -0.550 OA
ENDBRANCH   7   8
ENDBRANCH   6   7
ENDBRANCH   5   6
ENDBRANCH   4   5
ENDBRANCH   3   4
ENDBRANCH   2   3
ENDBRANCH   1   2
BRANCH   1  11
ATOM     11  C   UNL     1       5.412   8.554   2.284  1.00  0.00     0.000 C 
BRANCH  11  12
ATOM     12  C   UNL     1       4.017   9.190   2.189  1.00  0.00     0.000 C 
BRANCH  12  13
ATOM     13  C   UNL     1       2.919   8.162   1.875  1.00  0.00     0.000 C 
BRANCH  13  14
ATOM     14  C   UNL     1       1.506   8.765   1.946  1.00  0.00     0.000 C 
BRANCH  14  15
ATOM     15  C   UNL     1       1.428   9.995   2.868  1.00  0.00     0.000 C 
BRANCH  15  16
ATOM     16  C   UNL     1       0.126  10.113   3.687  1.00  0.00     0.006 C 
BRANCH  16  17
ATOM     17  C   UNL     1       0.117   9.298   4.990  1.00  0.00     0.053 C 
BRANCH  17  18
ATOM     18  C   UNL     1       1.467   9.265   5.639  1.00  0.00     0.041 C 
ATOM     19  O   UNL     1       2.336   8.441   5.253  1.00  0.00    -0.550 OA
ATOM     20  O   UNL     1       1.753  10.123   6.694  1.00  0.00    -0.550 OA
ENDBRANCH  17  18
ENDBRANCH  16  17
ENDBRANCH  15  16
ENDBRANCH  14  15
ENDBRANCH  13  14
ENDBRANCH  12  13
ENDBRANCH  11  12
ENDBRANCH   1  11
TORSDOF 15
ENDMDL
