MODEL 1
REMARK VINA RESULT:    -7.099      0.000      0.000
REMARK INTER + INTRA:          -8.234
REMARK INTER:                  -8.136
REMARK INTRA:                  -0.098
REMARK UNBOUND:                -0.098
REMARK SMILES O=C1C[C@@H](c2ccc(O)cc2)Oc2cc(O)cc(O)c21
REMARK SMILES IDX 3 1 4 2 12 3 13 4 14 5 15 6 17 7 18 8 20 9 2 10 1 11 5 12
REMARK SMILES IDX 6 13 11 14 7 15 10 16 8 17 9 18 19 20 16 22
REMARK H PARENT 9 19 19 21 16 23
REMARK Flexibility Score: inf
ROOT
ATOM      1  C   UNL     1      12.789  11.837  12.989  1.00  0.00     0.131 C 
ATOM      2  C   UNL     1      12.541  11.226  14.379  1.00  0.00     0.211 C 
ATOM      3  O   UNL     1      13.490  10.190  14.675  1.00  0.00    -0.484 OA
ATOM      4  C   UNL     1      14.089   9.373  13.703  1.00  0.00     0.138 A 
ATOM      5  C   UNL     1      14.876   8.297  14.117  1.00  0.00     0.093 A 
ATOM      6  C   UNL     1      15.464   7.448  13.176  1.00  0.00     0.123 A 
ATOM      7  C   UNL     1      15.286   7.695  11.813  1.00  0.00     0.093 A 
ATOM      8  C   UNL     1      14.531   8.788  11.374  1.00  0.00     0.133 A 
ATOM      9  C   UNL     1      13.894   9.625  12.329  1.00  0.00     0.102 A 
ATOM     10  C   UNL     1      13.008  10.755  11.976  1.00  0.00     0.174 C 
ATOM     11  O   UNL     1      12.393  10.799  10.878  1.00  0.00    -0.294 OA
ENDROOT
BRANCH   2  12
ATOM     12  C   UNL     1      11.117  10.722  14.517  1.00  0.00    -0.007 A 
ATOM     13  C   UNL     1      10.718   9.477  13.996  1.00  0.00     0.011 A 
ATOM     14  C   UNL     1      10.150  11.544  15.124  1.00  0.00     0.011 A 
ATOM     15  C   UNL     1       9.389   9.056  14.106  1.00  0.00     0.046 A 
ATOM     16  C   UNL     1       8.823  11.120  15.232  1.00  0.00     0.046 A 
ATOM     17  C   UNL     1       8.438   9.876  14.725  1.00  0.00     0.115 A 
BRANCH  17  18
ATOM     18  O   UNL     1       7.112   9.466  14.840  1.00  0.00    -0.508 OA
ATOM     19  H   UNL     1       6.760   8.663  14.331  1.00  0.00     0.293 HD
ENDBRANCH  17  18
ENDBRANCH   2  12
BRANCH   8  20
ATOM     20  O   UNL     1      14.470   9.022   9.999  1.00  0.00    -0.507 OA
ATOM     21  H   UNL     1      15.267   8.967   9.383  1.00  0.00     0.293 HD
ENDBRANCH   8  20
BRANCH   6  22
ATOM     22  O   UNL     1      16.234   6.360  13.582  1.00  0.00    -0.508 OA
ATOM     23  H   UNL     1      17.168   6.483  13.956  1.00  0.00     0.293 HD
ENDBRANCH   6  22
TORSDOF 4
ENDMDL
MODEL 2
REMARK VINA RESULT:    -6.951      1.425      6.166
REMARK INTER + INTRA:          -8.065
REMARK INTER:                  -8.079
REMARK INTRA:                   0.014
REMARK UNBOUND:                -0.098
REMARK SMILES O=C1C[C@@H](c2ccc(O)cc2)Oc2cc(O)cc(O)c21
REMARK SMILES IDX 3 1 4 2 12 3 13 4 14 5 15 6 17 7 18 8 20 9 2 10 1 11 5 12
REMARK SMILES IDX 6 13 11 14 7 15 10 16 8 17 9 18 19 20 16 22
REMARK H PARENT 9 19 19 21 16 23
REMARK Flexibility Score: inf
ROOT
ATOM      1  C   UNL     1      13.815  10.901  12.710  1.00  0.00     0.131 C 
ATOM      2  C   UNL     1      13.416  10.033  11.504  1.00  0.00     0.211 C 
ATOM      3  O   UNL     1      11.993   9.857  11.431  1.00  0.00    -0.484 OA
ATOM      4  C   UNL     1      11.145   9.846  12.550  1.00  0.00     0.138 A 
ATOM      5  C   UNL     1       9.801   9.510  12.374  1.00  0.00     0.093 A 
ATOM      6  C   UNL     1       8.936   9.462  13.471  1.00  0.00     0.123 A 
ATOM      7  C   UNL     1       9.414   9.779  14.745  1.00  0.00     0.093 A 
ATOM      8  C   UNL     1      10.749  10.152  14.939  1.00  0.00     0.133 A 
ATOM      9  C   UNL     1      11.640  10.156  13.834  1.00  0.00     0.102 A 
ATOM     10  C   UNL     1      13.085  10.453  13.939  1.00  0.00     0.174 C 
ATOM     11  O   UNL     1      13.721  10.283  15.012  1.00  0.00    -0.294 OA
ENDROOT
BRANCH   2  12
ATOM     12  C   UNL     1      14.135   8.697  11.520  1.00  0.00    -0.007 A 
ATOM     13  C   UNL     1      14.835   8.247  12.656  1.00  0.00     0.011 A 
ATOM     14  C   UNL     1      14.162   7.913  10.352  1.00  0.00     0.011 A 
ATOM     15  C   UNL     1      15.520   7.028  12.628  1.00  0.00     0.046 A 
ATOM     16  C   UNL     1      14.848   6.696  10.329  1.00  0.00     0.046 A 
ATOM     17  C   UNL     1      15.527   6.249  11.465  1.00  0.00     0.115 A 
BRANCH  17  18
ATOM     18  O   UNL     1      16.206   5.034  11.428  1.00  0.00    -0.508 OA
ATOM     19  H   UNL     1      17.106   4.943  10.971  1.00  0.00     0.293 HD
ENDBRANCH  17  18
ENDBRANCH   2  12
BRANCH   8  20
ATOM     20  O   UNL     1      11.132  10.538  16.225  1.00  0.00    -0.507 OA
ATOM     21  H   UNL     1      11.950  10.186  16.698  1.00  0.00     0.293 HD
ENDBRANCH   8  20
BRANCH   6  22
ATOM     22  O   UNL     1       7.599   9.109  13.307  1.00  0.00    -0.508 OA
ATOM     23  H   UNL     1       6.986   9.629  12.688  1.00  0.00     0.293 HD
ENDBRANCH   6  22
TORSDOF 4
ENDMDL
MODEL 3
REMARK VINA RESULT:    -6.448      2.496      3.768
REMARK INTER + INTRA:          -7.488
REMARK INTER:                  -7.031
REMARK INTRA:                  -0.457
REMARK UNBOUND:                -0.098
REMARK SMILES O=C1C[C@@H](c2ccc(O)cc2)Oc2cc(O)cc(O)c21
REMARK SMILES IDX 3 1 4 2 12 3 13 4 14 5 15 6 17 7 18 8 20 9 2 10 1 11 5 12
REMARK SMILES IDX 6 13 11 14 7 15 10 16 8 17 9 18 19 20 16 22
REMARK H PARENT 9 19 19 21 16 23
REMARK Flexibility Score: inf
ROOT
ATOM      1  C   UNL     1      12.893   9.411  10.625  1.00  0.00     0.131 C 
ATOM      2  C   UNL     1      12.502  10.803  11.152  1.00  0.00     0.211 C 
ATOM      3  O   UNL     1      13.571  11.747  10.990  1.00  0.00    -0.484 OA
ATOM      4  C   UNL     1      14.932  11.401  11.011  1.00  0.00     0.138 A 
ATOM      5  C   UNL     1      15.887  12.420  11.002  1.00  0.00     0.093 A 
ATOM      6  C   UNL     1      17.249  12.112  11.050  1.00  0.00     0.123 A 
ATOM      7  C   UNL     1      17.657  10.777  11.081  1.00  0.00     0.093 A 
ATOM      8  C   UNL     1      16.719   9.739  11.056  1.00  0.00     0.133 A 
ATOM      9  C   UNL     1      15.334  10.050  11.053  1.00  0.00     0.102 A 
ATOM     10  C   UNL     1      14.259   9.035  11.111  1.00  0.00     0.174 C 
ATOM     11  O   UNL     1      14.449   7.894  11.607  1.00  0.00    -0.294 OA
ENDROOT
BRANCH   2  12
ATOM     12  C   UNL     1      12.039  10.739  12.595  1.00  0.00    -0.007 A 
ATOM     13  C   UNL     1      12.557  11.604  13.578  1.00  0.00     0.011 A 
ATOM     14  C   UNL     1      11.116   9.751  12.981  1.00  0.00     0.011 A 
ATOM     15  C   UNL     1      12.139  11.497  14.908  1.00  0.00     0.046 A 
ATOM     16  C   UNL     1      10.700   9.647  14.311  1.00  0.00     0.046 A 
ATOM     17  C   UNL     1      11.208  10.519  15.278  1.00  0.00     0.115 A 
BRANCH  17  18
ATOM     18  O   UNL     1      10.784  10.404  16.600  1.00  0.00    -0.508 OA
ATOM     19  H   UNL     1      10.008  10.950  16.957  1.00  0.00     0.293 HD
ENDBRANCH  17  18
ENDBRANCH   2  12
BRANCH   8  20
ATOM     20  O   UNL     1      17.204   8.430  11.001  1.00  0.00    -0.507 OA
ATOM     21  H   UNL     1      17.812   8.026  11.697  1.00  0.00     0.293 HD
ENDBRANCH   8  20
BRANCH   6  22
ATOM     22  O   UNL     1      18.207  13.124  11.060  1.00  0.00    -0.508 OA
ATOM     23  H   UNL     1      17.943  14.102  11.066  1.00  0.00     0.293 HD
ENDBRANCH   6  22
TORSDOF 4
ENDMDL
MODEL 4
REMARK VINA RESULT:    -6.399      2.460      4.240
REMARK INTER + INTRA:          -7.432
REMARK INTER:                  -7.013
REMARK INTRA:                  -0.420
REMARK UNBOUND:                -0.098
REMARK SMILES O=C1C[C@@H](c2ccc(O)cc2)Oc2cc(O)cc(O)c21
REMARK SMILES IDX 3 1 4 2 12 3 13 4 14 5 15 6 17 7 18 8 20 9 2 10 1 11 5 12
REMARK SMILES IDX 6 13 11 14 7 15 10 16 8 17 9 18 19 20 16 22
REMARK H PARENT 9 19 19 21 16 23
REMARK Flexibility Score: inf
ROOT
ATOM      1  C   UNL     1      15.473   7.840  10.703  1.00  0.00     0.131 C 
ATOM      2  C   UNL     1      15.468   8.460  12.112  1.00  0.00     0.211 C 
ATOM      3  O   UNL     1      15.929   7.526  13.099  1.00  0.00    -0.484 OA
ATOM      4  C   UNL     1      15.766   6.135  13.000  1.00  0.00     0.138 A 
ATOM      5  C   UNL     1      16.112   5.336  14.091  1.00  0.00     0.093 A 
ATOM      6  C   UNL     1      15.937   3.950  14.036  1.00  0.00     0.123 A 
ATOM      7  C   UNL     1      15.438   3.361  12.872  1.00  0.00     0.093 A 
ATOM      8  C   UNL     1      15.116   4.139  11.754  1.00  0.00     0.133 A 
ATOM      9  C   UNL     1      15.251   5.550  11.824  1.00  0.00     0.102 A 
ATOM     10  C   UNL     1      14.863   6.472  10.734  1.00  0.00     0.174 C 
ATOM     11  O   UNL     1      13.998   6.158   9.875  1.00  0.00    -0.294 OA
ENDROOT
BRANCH   2  12
ATOM     12  C   UNL     1      14.100   9.010  12.471  1.00  0.00    -0.007 A 
ATOM     13  C   UNL     1      13.179   9.407  11.482  1.00  0.00     0.011 A 
ATOM     14  C   UNL     1      13.762   9.190  13.824  1.00  0.00     0.011 A 
ATOM     15  C   UNL     1      11.940   9.945  11.844  1.00  0.00     0.046 A 
ATOM     16  C   UNL     1      12.522   9.728  14.181  1.00  0.00     0.046 A 
ATOM     17  C   UNL     1      11.608  10.106  13.194  1.00  0.00     0.115 A 
BRANCH  17  18
ATOM     18  O   UNL     1      10.376  10.640  13.564  1.00  0.00    -0.508 OA
ATOM     19  H   UNL     1      10.221  11.021  14.491  1.00  0.00     0.293 HD
ENDBRANCH  17  18
ENDBRANCH   2  12
BRANCH   8  20
ATOM     20  O   UNL     1      14.706   3.471  10.598  1.00  0.00    -0.507 OA
ATOM     21  H   UNL     1      15.128   2.619  10.260  1.00  0.00     0.293 HD
ENDBRANCH   8  20
BRANCH   6  22
ATOM     22  O   UNL     1      16.262   3.148  15.127  1.00  0.00    -0.508 OA
ATOM     23  H   UNL     1      16.979   3.421  15.790  1.00  0.00     0.293 HD
ENDBRANCH   6  22
TORSDOF 4
ENDMDL
MODEL 5
REMARK VINA RESULT:    -5.864     12.760     15.223
REMARK INTER + INTRA:          -6.819
REMARK INTER:                  -6.362
REMARK INTRA:                  -0.457
REMARK UNBOUND:                -0.098
REMARK SMILES O=C1C[C@@H](c2ccc(O)cc2)Oc2cc(O)cc(O)c21
REMARK SMILES IDX 3 1 4 2 12 3 13 4 14 5 15 6 17 7 18 8 20 9 2 10 1 11 5 12
REMARK SMILES IDX 6 13 11 14 7 15 10 16 8 17 9 18 19 20 16 22
REMARK H PARENT 9 19 19 21 16 23
REMARK Flexibility Score: inf
ROOT
ATOM      1  C   UNL     1       3.294   3.599  21.582  1.00  0.00     0.131 C 
ATOM      2  C   UNL     1       3.518   2.446  22.577  1.00  0.00     0.211 C 
ATOM      3  O   UNL     1       3.149   2.823  23.911  1.00  0.00    -0.484 OA
ATOM      4  C   UNL     1       3.228   4.134  24.407  1.00  0.00     0.138 A 
ATOM      5  C   UNL     1       2.992   4.358  25.765  1.00  0.00     0.093 A 
ATOM      6  C   UNL     1       3.090   5.647  26.296  1.00  0.00     0.123 A 
ATOM      7  C   UNL     1       3.399   6.721  25.457  1.00  0.00     0.093 A 
ATOM      8  C   UNL     1       3.605   6.525  24.087  1.00  0.00     0.133 A 
ATOM      9  C   UNL     1       3.551   5.210  23.554  1.00  0.00     0.102 A 
ATOM     10  C   UNL     1       3.834   4.880  22.140  1.00  0.00     0.174 C 
ATOM     11  O   UNL     1       4.559   5.614  21.419  1.00  0.00    -0.294 OA
ENDROOT
BRANCH   2  12
ATOM     12  C   UNL     1       4.947   1.939  22.524  1.00  0.00    -0.007 A 
ATOM     13  C   UNL     1       5.697   1.961  21.333  1.00  0.00     0.011 A 
ATOM     14  C   UNL     1       5.522   1.373  23.676  1.00  0.00     0.011 A 
ATOM     15  C   UNL     1       7.000   1.452  21.306  1.00  0.00     0.046 A 
ATOM     16  C   UNL     1       6.824   0.865  23.646  1.00  0.00     0.046 A 
ATOM     17  C   UNL     1       7.567   0.905  22.463  1.00  0.00     0.115 A 
BRANCH  17  18
ATOM     18  O   UNL     1       8.863   0.396  22.447  1.00  0.00    -0.508 OA
ATOM     19  H   UNL     1       9.619   0.886  21.982  1.00  0.00     0.293 HD
ENDBRANCH  17  18
ENDBRANCH   2  12
BRANCH   8  20
ATOM     20  O   UNL     1       3.823   7.656  23.298  1.00  0.00    -0.507 OA
ATOM     21  H   UNL     1       3.606   8.597  23.591  1.00  0.00     0.293 HD
ENDBRANCH   8  20
BRANCH   6  22
ATOM     22  O   UNL     1       2.875   5.875  27.653  1.00  0.00    -0.508 OA
ATOM     23  H   UNL     1       1.971   5.713  28.080  1.00  0.00     0.293 HD
ENDBRANCH   6  22
TORSDOF 4
ENDMDL
MODEL 6
REMARK VINA RESULT:    -5.675      2.702      6.402
REMARK INTER + INTRA:          -6.602
REMARK INTER:                  -6.183
REMARK INTRA:                  -0.419
REMARK UNBOUND:                -0.098
REMARK SMILES O=C1C[C@@H](c2ccc(O)cc2)Oc2cc(O)cc(O)c21
REMARK SMILES IDX 3 1 4 2 12 3 13 4 14 5 15 6 17 7 18 8 20 9 2 10 1 11 5 12
REMARK SMILES IDX 6 13 11 14 7 15 10 16 8 17 9 18 19 20 16 22
REMARK H PARENT 9 19 19 21 16 23
REMARK Flexibility Score: inf
ROOT
ATOM      1  C   UNL     1      14.650   8.189  11.504  1.00  0.00     0.131 C 
ATOM      2  C   UNL     1      15.718   8.790  12.434  1.00  0.00     0.211 C 
ATOM      3  O   UNL     1      15.134   9.315  13.636  1.00  0.00    -0.484 OA
ATOM      4  C   UNL     1      13.834   9.841  13.712  1.00  0.00     0.138 A 
ATOM      5  C   UNL     1      13.428  10.466  14.892  1.00  0.00     0.093 A 
ATOM      6  C   UNL     1      12.150  11.024  14.992  1.00  0.00     0.123 A 
ATOM      7  C   UNL     1      11.267  10.932  13.914  1.00  0.00     0.093 A 
ATOM      8  C   UNL     1      11.641  10.279  12.734  1.00  0.00     0.133 A 
ATOM      9  C   UNL     1      12.954   9.751  12.614  1.00  0.00     0.102 A 
ATOM     10  C   UNL     1      13.480   9.118  11.385  1.00  0.00     0.174 C 
ATOM     11  O   UNL     1      13.010   9.382  10.248  1.00  0.00    -0.294 OA
ENDROOT
BRANCH   2  12
ATOM     12  C   UNL     1      16.546   9.842  11.720  1.00  0.00    -0.007 A 
ATOM     13  C   UNL     1      17.194   9.571  10.500  1.00  0.00     0.011 A 
ATOM     14  C   UNL     1      16.727  11.102  12.319  1.00  0.00     0.011 A 
ATOM     15  C   UNL     1      17.981  10.549   9.884  1.00  0.00     0.046 A 
ATOM     16  C   UNL     1      17.515  12.077  11.700  1.00  0.00     0.046 A 
ATOM     17  C   UNL     1      18.142  11.805  10.481  1.00  0.00     0.115 A 
BRANCH  17  18
ATOM     18  O   UNL     1      18.923  12.786   9.875  1.00  0.00    -0.508 OA
ATOM     19  H   UNL     1      19.752  12.549   9.342  1.00  0.00     0.293 HD
ENDBRANCH  17  18
ENDBRANCH   2  12
BRANCH   8  20
ATOM     20  O   UNL     1      10.676  10.149  11.733  1.00  0.00    -0.507 OA
ATOM     21  H   UNL     1      10.549  10.814  10.985  1.00  0.00     0.293 HD
ENDBRANCH   8  20
BRANCH   6  22
ATOM     22  O   UNL     1      11.744  11.667  16.159  1.00  0.00    -0.508 OA
ATOM     23  H   UNL     1      10.886  11.411  16.633  1.00  0.00     0.293 HD
ENDBRANCH   6  22
TORSDOF 4
ENDMDL
MODEL 7
REMARK VINA RESULT:    -5.474      3.541      6.322
REMARK INTER + INTRA:          -6.371
REMARK INTER:                  -6.314
REMARK INTRA:                  -0.058
REMARK UNBOUND:                -0.098
REMARK SMILES O=C1C[C@@H](c2ccc(O)cc2)Oc2cc(O)cc(O)c21
REMARK SMILES IDX 3 1 4 2 12 3 13 4 14 5 15 6 17 7 18 8 20 9 2 10 1 11 5 12
REMARK SMILES IDX 6 13 11 14 7 15 10 16 8 17 9 18 19 20 16 22
REMARK H PARENT 9 19 19 21 16 23
REMARK Flexibility Score: inf
ROOT
ATOM      1  C   UNL     1      14.925   5.354  10.757  1.00  0.00     0.131 C 
ATOM      2  C   UNL     1      15.826   6.576  11.006  1.00  0.00     0.211 C 
ATOM      3  O   UNL     1      17.173   6.184  11.311  1.00  0.00    -0.484 OA
ATOM      4  C   UNL     1      17.513   4.983  11.955  1.00  0.00     0.138 A 
ATOM      5  C   UNL     1      18.839   4.778  12.342  1.00  0.00     0.093 A 
ATOM      6  C   UNL     1      19.206   3.606  13.009  1.00  0.00     0.123 A 
ATOM      7  C   UNL     1      18.247   2.624  13.265  1.00  0.00     0.093 A 
ATOM      8  C   UNL     1      16.920   2.793  12.855  1.00  0.00     0.133 A 
ATOM      9  C   UNL     1      16.535   4.002  12.218  1.00  0.00     0.102 A 
ATOM     10  C   UNL     1      15.146   4.320  11.819  1.00  0.00     0.174 C 
ATOM     11  O   UNL     1      14.155   3.789  12.385  1.00  0.00    -0.294 OA
ENDROOT
BRANCH   2  12
ATOM     12  C   UNL     1      15.256   7.475  12.087  1.00  0.00    -0.007 A 
ATOM     13  C   UNL     1      14.479   8.607  11.775  1.00  0.00     0.011 A 
ATOM     14  C   UNL     1      15.561   7.212  13.434  1.00  0.00     0.011 A 
ATOM     15  C   UNL     1      13.998   9.437  12.792  1.00  0.00     0.046 A 
ATOM     16  C   UNL     1      15.078   8.045  14.448  1.00  0.00     0.046 A 
ATOM     17  C   UNL     1      14.295   9.158  14.131  1.00  0.00     0.115 A 
BRANCH  17  18
ATOM     18  O   UNL     1      13.820   9.979  15.151  1.00  0.00    -0.508 OA
ATOM     19  H   UNL     1      13.200   9.625  15.870  1.00  0.00     0.293 HD
ENDBRANCH  17  18
ENDBRANCH   2  12
BRANCH   8  20
ATOM     20  O   UNL     1      16.037   1.732  13.067  1.00  0.00    -0.507 OA
ATOM     21  H   UNL     1      16.129   0.827  12.629  1.00  0.00     0.293 HD
ENDBRANCH   8  20
BRANCH   6  22
ATOM     22  O   UNL     1      20.523   3.403  13.416  1.00  0.00    -0.508 OA
ATOM     23  H   UNL     1      20.930   3.935  14.176  1.00  0.00     0.293 HD
ENDBRANCH   6  22
TORSDOF 4
ENDMDL
MODEL 8
REMARK VINA RESULT:    -5.449     15.438     16.617
REMARK INTER + INTRA:          -6.344
REMARK INTER:                  -5.889
REMARK INTRA:                  -0.454
REMARK UNBOUND:                -0.098
REMARK SMILES O=C1C[C@@H](c2ccc(O)cc2)Oc2cc(O)cc(O)c21
REMARK SMILES IDX 3 1 4 2 12 3 13 4 14 5 15 6 17 7 18 8 20 9 2 10 1 11 5 12
REMARK SMILES IDX 6 13 11 14 7 15 10 16 8 17 9 18 19 20 16 22
REMARK H PARENT 9 19 19 21 16 23
REMARK Flexibility Score: inf
ROOT
ATOM      1  C   UNL     1      19.773  -5.252  16.193  1.00  0.00     0.131 C 
ATOM      2  C   UNL     1      18.966  -6.536  15.934  1.00  0.00     0.211 C 
ATOM      3  O   UNL     1      19.235  -7.072  14.630  1.00  0.00    -0.484 OA
ATOM      4  C   UNL     1      19.590  -6.291  13.518  1.00  0.00     0.138 A 
ATOM      5  C   UNL     1      19.674  -6.901  12.265  1.00  0.00     0.093 A 
ATOM      6  C   UNL     1      19.998  -6.147  11.133  1.00  0.00     0.123 A 
ATOM      7  C   UNL     1      20.265  -4.782  11.262  1.00  0.00     0.093 A 
ATOM      8  C   UNL     1      20.220  -4.157  12.514  1.00  0.00     0.133 A 
ATOM      9  C   UNL     1      19.847  -4.911  13.658  1.00  0.00     0.102 A 
ATOM     10  C   UNL     1      19.687  -4.336  15.011  1.00  0.00     0.174 C 
ATOM     11  O   UNL     1      19.427  -3.117  15.187  1.00  0.00    -0.294 OA
ENDROOT
BRANCH   2  12
ATOM     12  C   UNL     1      17.480  -6.308  16.139  1.00  0.00    -0.007 A 
ATOM     13  C   UNL     1      16.997  -5.375  17.076  1.00  0.00     0.011 A 
ATOM     14  C   UNL     1      16.556  -7.091  15.424  1.00  0.00     0.011 A 
ATOM     15  C   UNL     1      15.622  -5.213  17.270  1.00  0.00     0.046 A 
ATOM     16  C   UNL     1      15.182  -6.926  15.621  1.00  0.00     0.046 A 
ATOM     17  C   UNL     1      14.710  -5.987  16.542  1.00  0.00     0.115 A 
BRANCH  17  18
ATOM     18  O   UNL     1      13.339  -5.833  16.727  1.00  0.00    -0.508 OA
ATOM     19  H   UNL     1      12.675  -6.498  16.347  1.00  0.00     0.293 HD
ENDBRANCH  17  18
ENDBRANCH   2  12
BRANCH   8  20
ATOM     20  O   UNL     1      20.584  -2.811  12.578  1.00  0.00    -0.507 OA
ATOM     21  H   UNL     1      20.097  -2.073  12.092  1.00  0.00     0.293 HD
ENDBRANCH   8  20
BRANCH   6  22
ATOM     22  O   UNL     1      20.065  -6.744   9.877  1.00  0.00    -0.508 OA
ATOM     23  H   UNL     1      20.262  -6.202   9.043  1.00  0.00     0.293 HD
ENDBRANCH   6  22
TORSDOF 4
ENDMDL
MODEL 9
REMARK VINA RESULT:    -5.424      5.998      9.328
REMARK INTER + INTRA:          -6.314
REMARK INTER:                  -5.853
REMARK INTRA:                  -0.461
REMARK UNBOUND:                -0.098
REMARK SMILES O=C1C[C@@H](c2ccc(O)cc2)Oc2cc(O)cc(O)c21
REMARK SMILES IDX 3 1 4 2 12 3 13 4 14 5 15 6 17 7 18 8 20 9 2 10 1 11 5 12
REMARK SMILES IDX 6 13 11 14 7 15 10 16 8 17 9 18 19 20 16 22
REMARK H PARENT 9 19 19 21 16 23
REMARK Flexibility Score: inf
ROOT
ATOM      1  C   UNL     1      17.558   2.631  14.740  1.00  0.00     0.131 C 
ATOM      2  C   UNL     1      16.155   2.576  14.109  1.00  0.00     0.211 C 
ATOM      3  O   UNL     1      15.974   1.382  13.333  1.00  0.00    -0.484 OA
ATOM      4  C   UNL     1      17.013   0.714  12.667  1.00  0.00     0.138 A 
ATOM      5  C   UNL     1      16.696  -0.345  11.814  1.00  0.00     0.093 A 
ATOM      6  C   UNL     1      17.704  -1.014  11.114  1.00  0.00     0.123 A 
ATOM      7  C   UNL     1      19.038  -0.638  11.290  1.00  0.00     0.093 A 
ATOM      8  C   UNL     1      19.381   0.398  12.166  1.00  0.00     0.133 A 
ATOM      9  C   UNL     1      18.355   1.109  12.843  1.00  0.00     0.102 A 
ATOM     10  C   UNL     1      18.599   2.271  13.725  1.00  0.00     0.174 C 
ATOM     11  O   UNL     1      19.624   2.993  13.605  1.00  0.00    -0.294 OA
ENDROOT
BRANCH   2  12
ATOM     12  C   UNL     1      15.869   3.817  13.285  1.00  0.00    -0.007 A 
ATOM     13  C   UNL     1      16.226   5.103  13.735  1.00  0.00     0.011 A 
ATOM     14  C   UNL     1      15.173   3.693  12.069  1.00  0.00     0.011 A 
ATOM     15  C   UNL     1      15.916   6.232  12.970  1.00  0.00     0.046 A 
ATOM     16  C   UNL     1      14.865   4.824  11.308  1.00  0.00     0.046 A 
ATOM     17  C   UNL     1      15.236   6.096  11.754  1.00  0.00     0.115 A 
BRANCH  17  18
ATOM     18  O   UNL     1      14.924   7.214  10.985  1.00  0.00    -0.508 OA
ATOM     19  H   UNL     1      14.935   7.180   9.972  1.00  0.00     0.293 HD
ENDBRANCH  17  18
ENDBRANCH   2  12
BRANCH   8  20
ATOM     20  O   UNL     1      20.740   0.660  12.357  1.00  0.00    -0.507 OA
ATOM     21  H   UNL     1      21.276   0.311  13.137  1.00  0.00     0.293 HD
ENDBRANCH   8  20
BRANCH   6  22
ATOM     22  O   UNL     1      17.394  -2.059  10.247  1.00  0.00    -0.508 OA
ATOM     23  H   UNL     1      17.916  -2.209   9.391  1.00  0.00     0.293 HD
ENDBRANCH   6  22
TORSDOF 4
ENDMDL
