MODEL 1
REMARK VINA RESULT:    -2.952      0.000      0.000
REMARK INTER + INTRA:          -4.711
REMARK INTER:                  -3.987
REMARK INTRA:                  -0.724
REMARK UNBOUND:                -0.724
REMARK SMILES CCCCCCCC(C)=O
REMARK SMILES IDX 5 1 4 2 3 3 2 4 1 5 6 6 7 7 8 8 10 9 9 10
REMARK H PARENT
REMARK Flexibility Score: inf
ROOT
ATOM      1  C   UNL     1     167.468 169.971 168.893  1.00  0.00     0.000 C 
ENDROOT
BRANCH   1   2
ATOM      2  C   UNL     1     166.241 169.042 168.926  1.00  0.00     0.000 C 
BRANCH   2   3
ATOM      3  C   UNL     1     166.321 167.923 167.876  1.00  0.00    -0.000 C 
BRANCH   3   4
ATOM      4  C   UNL     1     166.101 166.527 168.479  1.00  0.00    -0.003 C 
ATOM      5  C   UNL     1     166.633 166.455 169.907  1.00  0.00     0.004 C 
ENDBRANCH   3   4
ENDBRANCH   2   3
ENDBRANCH   1   2
BRANCH   1   6
ATOM      6  C   UNL     1     168.623 169.390 168.063  1.00  0.00     0.008 C 
BRANCH   6   7
ATOM      7  C   UNL     1     169.778 168.874 168.931  1.00  0.00     0.075 C 
BRANCH   7   8
ATOM      8  C   UNL     1     170.523 167.773 168.226  1.00  0.00     0.129 C 
ATOM      9  O   UNL     1     171.683 167.947 167.885  1.00  0.00    -0.300 OA
ATOM     10  C   UNL     1     169.844 166.472 167.920  1.00  0.00     0.087 C 
ENDBRANCH   7   8
ENDBRANCH   6   7
ENDBRANCH   1   6
TORSDOF 6
ENDMDL
MODEL 2
REMARK VINA RESULT:    -2.878      2.285      3.857
REMARK INTER + INTRA:          -4.612
REMARK INTER:                  -3.950
REMARK INTRA:                  -0.662
REMARK UNBOUND:                -0.724
REMARK SMILES CCCCCCCC(C)=O
REMARK SMILES IDX 5 1 4 2 3 3 2 4 1 5 6 6 7 7 8 8 10 9 9 10
REMARK H PARENT
REMARK Flexibility Score: inf
ROOT
ATOM      1  C   UNL     1     165.852 167.510 169.204  1.00  0.00     0.000 C 
ENDROOT
BRANCH   1   2
ATOM      2  C   UNL     1     166.709 168.255 168.165  1.00  0.00     0.000 C 
BRANCH   2   3
ATOM      3  C   UNL     1     167.892 169.001 168.802  1.00  0.00    -0.000 C 
BRANCH   3   4
ATOM      4  C   UNL     1     169.114 169.078 167.875  1.00  0.00    -0.003 C 
ATOM      5  C   UNL     1     169.900 167.770 167.893  1.00  0.00     0.004 C 
ENDBRANCH   3   4
ENDBRANCH   2   3
ENDBRANCH   1   2
BRANCH   1   6
ATOM      6  C   UNL     1     165.738 166.007 168.905  1.00  0.00     0.008 C 
BRANCH   6   7
ATOM      7  C   UNL     1     166.798 165.517 167.909  1.00  0.00     0.075 C 
BRANCH   7   8
ATOM      8  C   UNL     1     167.754 164.567 168.576  1.00  0.00     0.129 C 
ATOM      9  O   UNL     1     167.973 163.474 168.076  1.00  0.00    -0.300 OA
ATOM     10  C   UNL     1     168.426 164.943 169.863  1.00  0.00     0.087 C 
ENDBRANCH   7   8
ENDBRANCH   6   7
ENDBRANCH   1   6
TORSDOF 6
ENDMDL
MODEL 3
REMARK VINA RESULT:    -2.871      2.800      4.433
REMARK INTER + INTRA:          -4.602
REMARK INTER:                  -4.056
REMARK INTRA:                  -0.546
REMARK UNBOUND:                -0.724
REMARK SMILES CCCCCCCC(C)=O
REMARK SMILES IDX 5 1 4 2 3 3 2 4 1 5 6 6 7 7 8 8 10 9 9 10
REMARK H PARENT
REMARK Flexibility Score: inf
ROOT
ATOM      1  C   UNL     1     167.399 169.731 169.009  1.00  0.00     0.000 C 
ENDROOT
BRANCH   1   2
ATOM      2  C   UNL     1     168.236 169.114 167.875  1.00  0.00     0.000 C 
BRANCH   2   3
ATOM      3  C   UNL     1     169.601 168.600 168.362  1.00  0.00    -0.000 C 
BRANCH   3   4
ATOM      4  C   UNL     1     169.841 167.125 168.009  1.00  0.00    -0.003 C 
ATOM      5  C   UNL     1     168.691 166.248 168.498  1.00  0.00     0.004 C 
ENDBRANCH   3   4
ENDBRANCH   2   3
ENDBRANCH   1   2
BRANCH   1   6
ATOM      6  C   UNL     1     165.892 169.491 168.826  1.00  0.00     0.008 C 
BRANCH   6   7
ATOM      7  C   UNL     1     165.587 168.326 167.875  1.00  0.00     0.075 C 
BRANCH   7   8
ATOM      8  C   UNL     1     164.553 167.410 168.471  1.00  0.00     0.129 C 
ATOM      9  O   UNL     1     163.440 167.345 167.972  1.00  0.00    -0.300 OA
ATOM     10  C   UNL     1     164.873 166.592 169.686  1.00  0.00     0.087 C 
ENDBRANCH   7   8
ENDBRANCH   6   7
ENDBRANCH   1   6
TORSDOF 6
ENDMDL
MODEL 4
REMARK VINA RESULT:    -2.863      2.743      3.463
REMARK INTER + INTRA:          -4.591
REMARK INTER:                  -4.082
REMARK INTRA:                  -0.509
REMARK UNBOUND:                -0.724
REMARK SMILES CCCCCCCC(C)=O
REMARK SMILES IDX 5 1 4 2 3 3 2 4 1 5 6 6 7 7 8 8 10 9 9 10
REMARK H PARENT
REMARK Flexibility Score: inf
ROOT
ATOM      1  C   UNL     1     168.724 167.400 168.875  1.00  0.00     0.000 C 
ENDROOT
BRANCH   1   2
ATOM      2  C   UNL     1     167.237 167.494 169.256  1.00  0.00     0.000 C 
BRANCH   2   3
ATOM      3  C   UNL     1     166.468 168.501 168.386  1.00  0.00    -0.000 C 
BRANCH   3   4
ATOM      4  C   UNL     1     164.975 168.161 168.262  1.00  0.00    -0.003 C 
ATOM      5  C   UNL     1     164.668 166.800 168.881  1.00  0.00     0.004 C 
ENDBRANCH   3   4
ENDBRANCH   2   3
ENDBRANCH   1   2
BRANCH   1   6
ATOM      6  C   UNL     1     169.029 166.180 167.991  1.00  0.00     0.008 C 
BRANCH   6   7
ATOM      7  C   UNL     1     167.923 165.118 168.041  1.00  0.00     0.075 C 
BRANCH   7   8
ATOM      8  C   UNL     1     168.456 163.820 168.584  1.00  0.00     0.129 C 
ATOM      9  O   UNL     1     168.287 162.785 167.958  1.00  0.00    -0.300 OA
ATOM     10  C   UNL     1     169.176 163.786 169.898  1.00  0.00     0.087 C 
ENDBRANCH   7   8
ENDBRANCH   6   7
ENDBRANCH   1   6
TORSDOF 6
ENDMDL
MODEL 5
REMARK VINA RESULT:    -2.797      1.798      4.057
REMARK INTER + INTRA:          -4.501
REMARK INTER:                  -3.925
REMARK INTRA:                  -0.577
REMARK UNBOUND:                -0.724
REMARK SMILES CCCCCCCC(C)=O
REMARK SMILES IDX 5 1 4 2 3 3 2 4 1 5 6 6 7 7 8 8 10 9 9 10
REMARK H PARENT
REMARK Flexibility Score: inf
ROOT
ATOM      1  C   UNL     1     166.981 166.896 168.565  1.00  0.00     0.000 C 
ENDROOT
BRANCH   1   2
ATOM      2  C   UNL     1     168.222 166.573 169.416  1.00  0.00     0.000 C 
BRANCH   2   3
ATOM      3  C   UNL     1     169.443 166.202 168.559  1.00  0.00    -0.000 C 
BRANCH   3   4
ATOM      4  C   UNL     1     170.094 167.423 167.892  1.00  0.00    -0.003 C 
ATOM      5  C   UNL     1     170.597 168.416 168.936  1.00  0.00     0.004 C 
ENDBRANCH   3   4
ENDBRANCH   2   3
ENDBRANCH   1   2
BRANCH   1   6
ATOM      6  C   UNL     1     166.380 168.270 168.900  1.00  0.00     0.008 C 
BRANCH   6   7
ATOM      7  C   UNL     1     166.757 169.349 167.875  1.00  0.00     0.075 C 
BRANCH   7   8
ATOM      8  C   UNL     1     167.273 170.581 168.567  1.00  0.00     0.129 C 
ATOM      9  O   UNL     1     168.342 171.065 168.228  1.00  0.00    -0.300 OA
ATOM     10  C   UNL     1     166.494 171.207 169.685  1.00  0.00     0.087 C 
ENDBRANCH   7   8
ENDBRANCH   6   7
ENDBRANCH   1   6
TORSDOF 6
ENDMDL
MODEL 6
REMARK VINA RESULT:    -2.787      2.226      3.438
REMARK INTER + INTRA:          -4.489
REMARK INTER:                  -3.976
REMARK INTRA:                  -0.513
REMARK UNBOUND:                -0.724
REMARK SMILES CCCCCCCC(C)=O
REMARK SMILES IDX 5 1 4 2 3 3 2 4 1 5 6 6 7 7 8 8 10 9 9 10
REMARK H PARENT
REMARK Flexibility Score: inf
ROOT
ATOM      1  C   UNL     1     168.756 167.340 167.980  1.00  0.00     0.000 C 
ENDROOT
BRANCH   1   2
ATOM      2  C   UNL     1     167.966 166.192 168.631  1.00  0.00     0.000 C 
BRANCH   2   3
ATOM      3  C   UNL     1     166.770 166.693 169.457  1.00  0.00    -0.000 C 
BRANCH   3   4
ATOM      4  C   UNL     1     165.458 166.700 168.658  1.00  0.00    -0.003 C 
ATOM      5  C   UNL     1     164.252 166.558 169.583  1.00  0.00     0.004 C 
ENDBRANCH   3   4
ENDBRANCH   2   3
ENDBRANCH   1   2
BRANCH   1   6
ATOM      6  C   UNL     1     168.682 168.641 168.795  1.00  0.00     0.008 C 
BRANCH   6   7
ATOM      7  C   UNL     1     168.476 169.882 167.915  1.00  0.00     0.075 C 
BRANCH   7   8
ATOM      8  C   UNL     1     167.473 170.814 168.538  1.00  0.00     0.129 C 
ATOM      9  O   UNL     1     167.319 171.936 168.080  1.00  0.00    -0.300 OA
ATOM     10  C   UNL     1     166.674 170.383 169.731  1.00  0.00     0.087 C 
ENDBRANCH   7   8
ENDBRANCH   6   7
ENDBRANCH   1   6
TORSDOF 6
ENDMDL
MODEL 7
REMARK VINA RESULT:    -2.787      2.118      3.313
REMARK INTER + INTRA:          -4.488
REMARK INTER:                  -3.869
REMARK INTRA:                  -0.619
REMARK UNBOUND:                -0.724
REMARK SMILES CCCCCCCC(C)=O
REMARK SMILES IDX 5 1 4 2 3 3 2 4 1 5 6 6 7 7 8 8 10 9 9 10
REMARK H PARENT
REMARK Flexibility Score: inf
ROOT
ATOM      1  C   UNL     1     165.027 167.401 168.618  1.00  0.00     0.000 C 
ENDROOT
BRANCH   1   2
ATOM      2  C   UNL     1     165.748 166.074 168.910  1.00  0.00     0.000 C 
BRANCH   2   3
ATOM      3  C   UNL     1     166.838 165.756 167.875  1.00  0.00    -0.000 C 
BRANCH   3   4
ATOM      4  C   UNL     1     168.255 165.837 168.462  1.00  0.00    -0.003 C 
ATOM      5  C   UNL     1     168.251 165.523 169.956  1.00  0.00     0.004 C 
ENDBRANCH   3   4
ENDBRANCH   2   3
ENDBRANCH   1   2
BRANCH   1   6
ATOM      6  C   UNL     1     165.842 168.625 169.066  1.00  0.00     0.008 C 
BRANCH   6   7
ATOM      7  C   UNL     1     166.482 169.375 167.889  1.00  0.00     0.075 C 
BRANCH   7   8
ATOM      8  C   UNL     1     167.672 170.172 168.350  1.00  0.00     0.129 C 
ATOM      9  O   UNL     1     167.687 171.383 168.198  1.00  0.00    -0.300 OA
ATOM     10  C   UNL     1     168.848 169.485 168.977  1.00  0.00     0.087 C 
ENDBRANCH   7   8
ENDBRANCH   6   7
ENDBRANCH   1   6
TORSDOF 6
ENDMDL
MODEL 8
REMARK VINA RESULT:    -2.784      1.752      2.548
REMARK INTER + INTRA:          -4.484
REMARK INTER:                  -4.148
REMARK INTRA:                  -0.337
REMARK UNBOUND:                -0.724
REMARK SMILES CCCCCCCC(C)=O
REMARK SMILES IDX 5 1 4 2 3 3 2 4 1 5 6 6 7 7 8 8 10 9 9 10
REMARK H PARENT
REMARK Flexibility Score: inf
ROOT
ATOM      1  C   UNL     1     168.315 166.254 169.888  1.00  0.00     0.000 C 
ENDROOT
BRANCH   1   2
ATOM      2  C   UNL     1     167.720 165.316 168.824  1.00  0.00     0.000 C 
BRANCH   2   3
ATOM      3  C   UNL     1     166.479 165.912 168.140  1.00  0.00    -0.000 C 
BRANCH   3   4
ATOM      4  C   UNL     1     165.413 166.376 169.144  1.00  0.00    -0.003 C 
ATOM      5  C   UNL     1     164.356 167.240 168.463  1.00  0.00     0.004 C 
ENDBRANCH   3   4
ENDBRANCH   2   3
ENDBRANCH   1   2
BRANCH   1   6
ATOM      6  C   UNL     1     168.828 167.573 169.290  1.00  0.00     0.008 C 
BRANCH   6   7
ATOM      7  C   UNL     1     169.907 167.360 168.220  1.00  0.00     0.075 C 
BRANCH   7   8
ATOM      8  C   UNL     1     171.147 168.145 168.551  1.00  0.00     0.129 C 
ATOM      9  O   UNL     1     172.155 168.003 167.876  1.00  0.00    -0.300 OA
ATOM     10  C   UNL     1     171.159 169.087 169.718  1.00  0.00     0.087 C 
ENDBRANCH   7   8
ENDBRANCH   6   7
ENDBRANCH   1   6
TORSDOF 6
ENDMDL
MODEL 9
REMARK VINA RESULT:    -2.730      2.280      3.790
REMARK INTER + INTRA:          -4.412
REMARK INTER:                  -3.759
REMARK INTRA:                  -0.653
REMARK UNBOUND:                -0.724
REMARK SMILES CCCCCCCC(C)=O
REMARK SMILES IDX 5 1 4 2 3 3 2 4 1 5 6 6 7 7 8 8 10 9 9 10
REMARK H PARENT
REMARK Flexibility Score: inf
ROOT
ATOM      1  C   UNL     1     169.502 167.682 170.109  1.00  0.00     0.000 C 
ENDROOT
BRANCH   1   2
ATOM      2  C   UNL     1     169.629 168.147 168.648  1.00  0.00     0.000 C 
BRANCH   2   3
ATOM      3  C   UNL     1     168.949 169.503 168.399  1.00  0.00    -0.000 C 
BRANCH   3   4
ATOM      4  C   UNL     1     167.512 169.358 167.876  1.00  0.00    -0.003 C 
ATOM      5  C   UNL     1     166.503 169.909 168.880  1.00  0.00     0.004 C 
ENDBRANCH   3   4
ENDBRANCH   2   3
ENDBRANCH   1   2
BRANCH   1   6
ATOM      6  C   UNL     1     168.591 166.453 170.259  1.00  0.00     0.008 C 
BRANCH   6   7
ATOM      7  C   UNL     1     168.926 165.340 169.256  1.00  0.00     0.075 C 
BRANCH   7   8
ATOM      8  C   UNL     1     167.700 164.931 168.487  1.00  0.00     0.129 C 
ATOM      9  O   UNL     1     167.691 163.873 167.876  1.00  0.00    -0.300 OA
ATOM     10  C   UNL     1     166.495 165.822 168.449  1.00  0.00     0.087 C 
ENDBRANCH   7   8
ENDBRANCH   6   7
ENDBRANCH   1   6
TORSDOF 6
ENDMDL
