MODEL 1
REMARK VINA RESULT:     3.825      0.000      0.000
REMARK INTER + INTRA:           7.387
REMARK INTER:                   9.638
REMARK INTRA:                  -2.251
REMARK UNBOUND:                -2.251
REMARK SMILES CCCCCCCCCCCCCCCCCCCCCCCCCCCC(=O)[O-]
REMARK SMILES IDX 15 1 16 2 17 3 18 4 19 5 20 6 21 7 22 8 23 9 24 10 25 11
REMARK SMILES IDX 26 12 27 13 28 14 29 15 30 16 14 17 13 18 12 19 11 20 10 21
REMARK SMILES IDX 9 22 8 23 7 24 6 25 5 26 4 27 3 28 2 29 1 30
REMARK H PARENT
REMARK Flexibility Score: inf
ROOT
ATOM      1  C   UNL     1     103.254 102.079 104.695  1.00  0.00     0.000 C 
ENDROOT
BRANCH   1   2
ATOM      2  C   UNL     1     103.474 101.083 105.845  1.00  0.00     0.000 C 
BRANCH   2   3
ATOM      3  C   UNL     1     103.409 101.749 107.232  1.00  0.00     0.000 C 
BRANCH   3   4
ATOM      4  C   UNL     1     103.262 103.281 107.158  1.00  0.00     0.000 C 
BRANCH   4   5
ATOM      5  C   UNL     1     104.586 104.053 107.007  1.00  0.00     0.000 C 
BRANCH   5   6
ATOM      6  C   UNL     1     104.410 105.402 106.288  1.00  0.00     0.000 C 
BRANCH   6   7
ATOM      7  C   UNL     1     104.017 106.543 107.245  1.00  0.00     0.000 C 
BRANCH   7   8
ATOM      8  C   UNL     1     105.021 106.822 108.385  1.00  0.00     0.000 C 
BRANCH   8   9
ATOM      9  C   UNL     1     104.736 106.083 109.705  1.00  0.00     0.000 C 
BRANCH   9  10
ATOM     10  C   UNL     1     104.517 107.032 110.896  1.00  0.00     0.000 C 
BRANCH  10  11
ATOM     11  C   UNL     1     104.312 106.275 112.220  1.00  0.00     0.000 C 
BRANCH  11  12
ATOM     12  C   UNL     1     104.669 104.782 112.101  1.00  0.00     0.006 C 
BRANCH  12  13
ATOM     13  C   UNL     1     103.531 103.871 112.575  1.00  0.00     0.053 C 
BRANCH  13  14
ATOM     14  C   UNL     1     103.503 102.575 111.823  1.00  0.00     0.041 C 
ATOM     15  O   UNL     1     103.429 102.570 110.565  1.00  0.00    -0.550 OA
ATOM     16  O   UNL     1     103.562 101.369 112.516  1.00  0.00    -0.550 OA
ENDBRANCH  13  14
ENDBRANCH  12  13
ENDBRANCH  11  12
ENDBRANCH  10  11
ENDBRANCH   9  10
ENDBRANCH   8   9
ENDBRANCH   7   8
ENDBRANCH   6   7
ENDBRANCH   5   6
ENDBRANCH   4   5
ENDBRANCH   3   4
ENDBRANCH   2   3
ENDBRANCH   1   2
BRANCH   1  17
ATOM     17  C   UNL     1     103.415 101.430 103.309  1.00  0.00     0.000 C 
BRANCH  17  18
ATOM     18  C   UNL     1     103.585 102.465 102.185  1.00  0.00     0.000 C 
BRANCH  18  19
ATOM     19  C   UNL     1     103.369 103.927 102.623  1.00  0.00     0.000 C 
BRANCH  19  20
ATOM     20  C   UNL     1     104.620 104.814 102.449  1.00  0.00     0.000 C 
BRANCH  20  21
ATOM     21  C   UNL     1     104.295 106.314 102.569  1.00  0.00     0.000 C 
BRANCH  21  22
ATOM     22  C   UNL     1     104.655 107.084 101.290  1.00  0.00    -0.000 C 
BRANCH  22  23
ATOM     23  C   UNL     1     104.586 106.198 100.023  1.00  0.00    -0.000 C 
BRANCH  23  24
ATOM     24  C   UNL     1     104.545 107.017  98.721  1.00  0.00    -0.000 C 
BRANCH  24  25
ATOM     25  C   UNL     1     104.677 106.161  97.446  1.00  0.00    -0.000 C 
BRANCH  25  26
ATOM     26  C   UNL     1     104.691 104.651  97.744  1.00  0.00    -0.000 C 
BRANCH  26  27
ATOM     27  C   UNL     1     103.432 103.939  97.221  1.00  0.00    -0.000 C 
BRANCH  27  28
ATOM     28  C   UNL     1     102.722 103.116  98.305  1.00  0.00    -0.000 C 
BRANCH  28  29
ATOM     29  C   UNL     1     103.414 101.764  98.510  1.00  0.00    -0.003 C 
ATOM     30  C   UNL     1     103.857 101.165  97.178  1.00  0.00     0.004 C 
ENDBRANCH  28  29
ENDBRANCH  27  28
ENDBRANCH  26  27
ENDBRANCH  25  26
ENDBRANCH  24  25
ENDBRANCH  23  24
ENDBRANCH  22  23
ENDBRANCH  21  22
ENDBRANCH  20  21
ENDBRANCH  19  20
ENDBRANCH  18  19
ENDBRANCH  17  18
ENDBRANCH   1  17
TORSDOF 26
ENDMDL
MODEL 2
REMARK VINA RESULT:     3.934      3.645     11.059
REMARK INTER + INTRA:           7.662
REMARK INTER:                   9.971
REMARK INTRA:                  -2.308
REMARK UNBOUND:                -2.251
REMARK SMILES CCCCCCCCCCCCCCCCCCCCCCCCCCCC(=O)[O-]
REMARK SMILES IDX 15 1 16 2 17 3 18 4 19 5 20 6 21 7 22 8 23 9 24 10 25 11
REMARK SMILES IDX 26 12 27 13 28 14 29 15 30 16 14 17 13 18 12 19 11 20 10 21
REMARK SMILES IDX 9 22 8 23 7 24 6 25 5 26 4 27 3 28 2 29 1 30
REMARK H PARENT
REMARK Flexibility Score: inf
ROOT
ATOM      1  C   UNL     1     104.713 107.264 103.871  1.00  0.00     0.000 C 
ENDROOT
BRANCH   1   2
ATOM      2  C   UNL     1     104.364 106.576 102.542  1.00  0.00     0.000 C 
BRANCH   2   3
ATOM      3  C   UNL     1     105.319 105.419 102.199  1.00  0.00     0.000 C 
BRANCH   3   4
ATOM      4  C   UNL     1     104.583 104.095 101.914  1.00  0.00     0.000 C 
BRANCH   4   5
ATOM      5  C   UNL     1     103.454 103.754 102.905  1.00  0.00     0.000 C 
BRANCH   5   6
ATOM      6  C   UNL     1     103.160 102.245 102.975  1.00  0.00     0.000 C 
BRANCH   6   7
ATOM      7  C   UNL     1     103.992 101.427 101.969  1.00  0.00     0.000 C 
BRANCH   7   8
ATOM      8  C   UNL     1     103.243 101.001 100.688  1.00  0.00     0.000 C 
BRANCH   8   9
ATOM      9  C   UNL     1     103.185 102.065  99.577  1.00  0.00     0.000 C 
BRANCH   9  10
ATOM     10  C   UNL     1     103.540 101.510  98.188  1.00  0.00     0.000 C 
BRANCH  10  11
ATOM     11  C   UNL     1     103.834 102.624  97.168  1.00  0.00     0.000 C 
BRANCH  11  12
ATOM     12  C   UNL     1     103.510 104.024  97.722  1.00  0.00     0.006 C 
BRANCH  12  13
ATOM     13  C   UNL     1     104.768 104.878  97.919  1.00  0.00     0.053 C 
BRANCH  13  14
ATOM     14  C   UNL     1     104.444 106.340  97.993  1.00  0.00     0.041 C 
ATOM     15  O   UNL     1     104.638 106.982  99.061  1.00  0.00    -0.550 OA
ATOM     16  O   UNL     1     103.928 106.994  96.878  1.00  0.00    -0.550 OA
ENDBRANCH  13  14
ENDBRANCH  12  13
ENDBRANCH  11  12
ENDBRANCH  10  11
ENDBRANCH   9  10
ENDBRANCH   8   9
ENDBRANCH   7   8
ENDBRANCH   6   7
ENDBRANCH   5   6
ENDBRANCH   4   5
ENDBRANCH   3   4
ENDBRANCH   2   3
ENDBRANCH   1   2
BRANCH   1  17
ATOM     17  C   UNL     1     104.685 106.296 105.067  1.00  0.00     0.000 C 
BRANCH  17  18
ATOM     18  C   UNL     1     104.561 107.023 106.416  1.00  0.00     0.000 C 
BRANCH  18  19
ATOM     19  C   UNL     1     104.327 106.094 107.624  1.00  0.00     0.000 C 
BRANCH  19  20
ATOM     20  C   UNL     1     104.631 104.610 107.329  1.00  0.00     0.000 C 
BRANCH  20  21
ATOM     21  C   UNL     1     103.349 103.780 107.128  1.00  0.00     0.000 C 
BRANCH  21  22
ATOM     22  C   UNL     1     103.653 102.283 106.972  1.00  0.00    -0.000 C 
BRANCH  22  23
ATOM     23  C   UNL     1     103.144 101.444 108.168  1.00  0.00    -0.000 C 
BRANCH  23  24
ATOM     24  C   UNL     1     103.462 102.089 109.530  1.00  0.00    -0.000 C 
BRANCH  24  25
ATOM     25  C   UNL     1     103.334 101.118 110.720  1.00  0.00    -0.000 C 
BRANCH  25  26
ATOM     26  C   UNL     1     103.570 101.807 112.076  1.00  0.00    -0.000 C 
BRANCH  26  27
ATOM     27  C   UNL     1     103.073 103.262 112.089  1.00  0.00    -0.000 C 
BRANCH  27  28
ATOM     28  C   UNL     1     104.183 104.266 112.438  1.00  0.00    -0.000 C 
BRANCH  28  29
ATOM     29  C   UNL     1     104.236 105.404 111.413  1.00  0.00    -0.003 C 
ATOM     30  C   UNL     1     104.488 106.746 112.093  1.00  0.00     0.004 C 
ENDBRANCH  28  29
ENDBRANCH  27  28
ENDBRANCH  26  27
ENDBRANCH  25  26
ENDBRANCH  24  25
ENDBRANCH  23  24
ENDBRANCH  22  23
ENDBRANCH  21  22
ENDBRANCH  20  21
ENDBRANCH  19  20
ENDBRANCH  18  19
ENDBRANCH  17  18
ENDBRANCH   1  17
TORSDOF 26
ENDMDL
MODEL 3
REMARK VINA RESULT:     3.980      4.186     11.220
REMARK INTER + INTRA:           7.777
REMARK INTER:                   9.673
REMARK INTRA:                  -1.896
REMARK UNBOUND:                -2.251
REMARK SMILES CCCCCCCCCCCCCCCCCCCCCCCCCCCC(=O)[O-]
REMARK SMILES IDX 15 1 16 2 17 3 18 4 19 5 20 6 21 7 22 8 23 9 24 10 25 11
REMARK SMILES IDX 26 12 27 13 28 14 29 15 30 16 14 17 13 18 12 19 11 20 10 21
REMARK SMILES IDX 9 22 8 23 7 24 6 25 5 26 4 27 3 28 2 29 1 30
REMARK H PARENT
REMARK Flexibility Score: inf
ROOT
ATOM      1  C   UNL     1     104.162 105.922 102.202  1.00  0.00     0.000 C 
ENDROOT
BRANCH   1   2
ATOM      2  C   UNL     1     104.530 104.437 102.352  1.00  0.00     0.000 C 
BRANCH   2   3
ATOM      3  C   UNL     1     103.298 103.532 102.537  1.00  0.00     0.000 C 
BRANCH   3   4
ATOM      4  C   UNL     1     103.635 102.032 102.450  1.00  0.00     0.000 C 
BRANCH   4   5
ATOM      5  C   UNL     1     103.457 101.406 101.054  1.00  0.00     0.000 C 
BRANCH   5   6
ATOM      6  C   UNL     1     103.364 102.460  99.937  1.00  0.00     0.000 C 
BRANCH   6   7
ATOM      7  C   UNL     1     103.421 101.843  98.526  1.00  0.00     0.000 C 
BRANCH   7   8
ATOM      8  C   UNL     1     104.003 102.761  97.429  1.00  0.00     0.000 C 
BRANCH   8   9
ATOM      9  C   UNL     1     103.759 104.266  97.636  1.00  0.00     0.000 C 
BRANCH   9  10
ATOM     10  C   UNL     1     104.986 105.008  98.192  1.00  0.00     0.000 C 
BRANCH  10  11
ATOM     11  C   UNL     1     106.137 105.086  97.174  1.00  0.00     0.000 C 
BRANCH  11  12
ATOM     12  C   UNL     1     107.409 104.378  97.676  1.00  0.00     0.006 C 
BRANCH  12  13
ATOM     13  C   UNL     1     108.551 104.437  96.655  1.00  0.00     0.053 C 
BRANCH  13  14
ATOM     14  C   UNL     1     109.878 104.139  97.283  1.00  0.00     0.041 C 
ATOM     15  O   UNL     1     110.084 103.025  97.838  1.00  0.00    -0.550 OA
ATOM     16  O   UNL     1     110.890 105.093  97.254  1.00  0.00    -0.550 OA
ENDBRANCH  13  14
ENDBRANCH  12  13
ENDBRANCH  11  12
ENDBRANCH  10  11
ENDBRANCH   9  10
ENDBRANCH   8   9
ENDBRANCH   7   8
ENDBRANCH   6   7
ENDBRANCH   5   6
ENDBRANCH   4   5
ENDBRANCH   3   4
ENDBRANCH   2   3
ENDBRANCH   1   2
BRANCH   1  17
ATOM     17  C   UNL     1     104.762 106.799 103.315  1.00  0.00     0.000 C 
BRANCH  17  18
ATOM     18  C   UNL     1     104.779 106.094 104.681  1.00  0.00     0.000 C 
BRANCH  18  19
ATOM     19  C   UNL     1     104.575 107.031 105.888  1.00  0.00     0.000 C 
BRANCH  19  20
ATOM     20  C   UNL     1     104.459 106.285 107.234  1.00  0.00     0.000 C 
BRANCH  20  21
ATOM     21  C   UNL     1     104.673 104.767 107.083  1.00  0.00     0.000 C 
BRANCH  21  22
ATOM     22  C   UNL     1     103.392 103.974 107.379  1.00  0.00    -0.000 C 
BRANCH  22  23
ATOM     23  C   UNL     1     103.539 102.467 107.061  1.00  0.00    -0.000 C 
BRANCH  23  24
ATOM     24  C   UNL     1     103.309 101.571 108.292  1.00  0.00    -0.000 C 
BRANCH  24  25
ATOM     25  C   UNL     1     103.237 102.348 109.620  1.00  0.00    -0.000 C 
BRANCH  25  26
ATOM     26  C   UNL     1     103.553 101.467 110.842  1.00  0.00    -0.000 C 
BRANCH  26  27
ATOM     27  C   UNL     1     103.505 102.255 112.161  1.00  0.00    -0.000 C 
BRANCH  27  28
ATOM     28  C   UNL     1     103.282 103.759 111.946  1.00  0.00    -0.000 C 
BRANCH  28  29
ATOM     29  C   UNL     1     104.545 104.556 112.289  1.00  0.00    -0.003 C 
ATOM     30  C   UNL     1     104.521 105.934 111.635  1.00  0.00     0.004 C 
ENDBRANCH  28  29
ENDBRANCH  27  28
ENDBRANCH  26  27
ENDBRANCH  25  26
ENDBRANCH  24  25
ENDBRANCH  23  24
ENDBRANCH  22  23
ENDBRANCH  21  22
ENDBRANCH  20  21
ENDBRANCH  19  20
ENDBRANCH  18  19
ENDBRANCH  17  18
ENDBRANCH   1  17
TORSDOF 26
ENDMDL
MODEL 4
REMARK VINA RESULT:     4.040      1.745      4.267
REMARK INTER + INTRA:           7.929
REMARK INTER:                   9.880
REMARK INTRA:                  -1.952
REMARK UNBOUND:                -2.251
REMARK SMILES CCCCCCCCCCCCCCCCCCCCCCCCCCCC(=O)[O-]
REMARK SMILES IDX 15 1 16 2 17 3 18 4 19 5 20 6 21 7 22 8 23 9 24 10 25 11
REMARK SMILES IDX 26 12 27 13 28 14 29 15 30 16 14 17 13 18 12 19 11 20 10 21
REMARK SMILES IDX 9 22 8 23 7 24 6 25 5 26 4 27 3 28 2 29 1 30
REMARK H PARENT
REMARK Flexibility Score: inf
ROOT
ATOM      1  C   UNL     1     104.554 107.169 105.767  1.00  0.00     0.000 C 
ENDROOT
BRANCH   1   2
ATOM      2  C   UNL     1     104.427 106.595 107.188  1.00  0.00     0.000 C 
BRANCH   2   3
ATOM      3  C   UNL     1     104.727 105.086 107.251  1.00  0.00     0.000 C 
BRANCH   3   4
ATOM      4  C   UNL     1     103.460 104.216 107.153  1.00  0.00     0.000 C 
BRANCH   4   5
ATOM      5  C   UNL     1     103.591 102.978 106.245  1.00  0.00     0.000 C 
BRANCH   5   6
ATOM      6  C   UNL     1     103.983 101.710 107.022  1.00  0.00     0.000 C 
BRANCH   6   7
ATOM      7  C   UNL     1     102.985 101.363 108.143  1.00  0.00     0.000 C 
BRANCH   7   8
ATOM      8  C   UNL     1     103.271 102.027 109.508  1.00  0.00     0.000 C 
BRANCH   8   9
ATOM      9  C   UNL     1     103.290 101.069 110.713  1.00  0.00     0.000 C 
BRANCH   9  10
ATOM     10  C   UNL     1     103.755 101.742 112.015  1.00  0.00     0.000 C 
BRANCH  10  11
ATOM     11  C   UNL     1     103.012 103.060 112.293  1.00  0.00     0.000 C 
BRANCH  11  12
ATOM     12  C   UNL     1     103.972 104.201 112.678  1.00  0.00     0.006 C 
BRANCH  12  13
ATOM     13  C   UNL     1     104.446 105.001 111.458  1.00  0.00     0.053 C 
BRANCH  13  14
ATOM     14  C   UNL     1     104.524 106.469 111.749  1.00  0.00     0.041 C 
ATOM     15  O   UNL     1     104.538 106.883 112.940  1.00  0.00    -0.550 OA
ATOM     16  O   UNL     1     104.582 107.382 110.701  1.00  0.00    -0.550 OA
ENDBRANCH  13  14
ENDBRANCH  12  13
ENDBRANCH  11  12
ENDBRANCH  10  11
ENDBRANCH   9  10
ENDBRANCH   8   9
ENDBRANCH   7   8
ENDBRANCH   6   7
ENDBRANCH   5   6
ENDBRANCH   4   5
ENDBRANCH   3   4
ENDBRANCH   2   3
ENDBRANCH   1   2
BRANCH   1  17
ATOM     17  C   UNL     1     104.759 106.077 104.701  1.00  0.00     0.000 C 
BRANCH  17  18
ATOM     18  C   UNL     1     104.619 106.614 103.268  1.00  0.00     0.000 C 
BRANCH  18  19
ATOM     19  C   UNL     1     104.182 105.562 102.229  1.00  0.00     0.000 C 
BRANCH  19  20
ATOM     20  C   UNL     1     104.547 104.116 102.626  1.00  0.00     0.000 C 
BRANCH  20  21
ATOM     21  C   UNL     1     103.306 103.214 102.755  1.00  0.00     0.000 C 
BRANCH  21  22
ATOM     22  C   UNL     1     103.658 101.727 102.599  1.00  0.00    -0.000 C 
BRANCH  22  23
ATOM     23  C   UNL     1     103.168 101.138 101.255  1.00  0.00    -0.000 C 
BRANCH  23  24
ATOM     24  C   UNL     1     103.544 102.014 100.045  1.00  0.00    -0.000 C 
BRANCH  24  25
ATOM     25  C   UNL     1     103.470 101.272  98.697  1.00  0.00    -0.000 C 
BRANCH  25  26
ATOM     26  C   UNL     1     103.326 102.230  97.500  1.00  0.00    -0.000 C 
BRANCH  26  27
ATOM     27  C   UNL     1     103.181 103.697  97.937  1.00  0.00    -0.000 C 
BRANCH  27  28
ATOM     28  C   UNL     1     103.957 104.665  97.032  1.00  0.00    -0.000 C 
BRANCH  28  29
ATOM     29  C   UNL     1     104.894 105.555  97.857  1.00  0.00    -0.003 C 
ATOM     30  C   UNL     1     104.460 107.016  97.799  1.00  0.00     0.004 C 
ENDBRANCH  28  29
ENDBRANCH  27  28
ENDBRANCH  26  27
ENDBRANCH  25  26
ENDBRANCH  24  25
ENDBRANCH  23  24
ENDBRANCH  22  23
ENDBRANCH  21  22
ENDBRANCH  20  21
ENDBRANCH  19  20
ENDBRANCH  18  19
ENDBRANCH  17  18
ENDBRANCH   1  17
TORSDOF 26
ENDMDL
MODEL 5
REMARK VINA RESULT:     4.049      2.617      4.475
REMARK INTER + INTRA:           7.953
REMARK INTER:                   9.866
REMARK INTRA:                  -1.913
REMARK UNBOUND:                -2.251
REMARK SMILES CCCCCCCCCCCCCCCCCCCCCCCCCCCC(=O)[O-]
REMARK SMILES IDX 15 1 16 2 17 3 18 4 19 5 20 6 21 7 22 8 23 9 24 10 25 11
REMARK SMILES IDX 26 12 27 13 28 14 29 15 30 16 14 17 13 18 12 19 11 20 10 21
REMARK SMILES IDX 9 22 8 23 7 24 6 25 5 26 4 27 3 28 2 29 1 30
REMARK H PARENT
REMARK Flexibility Score: inf
ROOT
ATOM      1  C   UNL     1     104.631 104.599 107.100  1.00  0.00     0.000 C 
ENDROOT
BRANCH   1   2
ATOM      2  C   UNL     1     103.369 103.722 107.128  1.00  0.00     0.000 C 
BRANCH   2   3
ATOM      3  C   UNL     1     103.684 102.219 107.016  1.00  0.00     0.000 C 
BRANCH   3   4
ATOM      4  C   UNL     1     103.390 101.444 108.315  1.00  0.00     0.000 C 
BRANCH   4   5
ATOM      5  C   UNL     1     103.313 102.312 109.585  1.00  0.00     0.000 C 
BRANCH   5   6
ATOM      6  C   UNL     1     103.360 101.479 110.878  1.00  0.00     0.000 C 
BRANCH   6   7
ATOM      7  C   UNL     1     103.788 102.305 112.106  1.00  0.00     0.000 C 
BRANCH   7   8
ATOM      8  C   UNL     1     103.089 103.673 112.257  1.00  0.00     0.000 C 
BRANCH   8   9
ATOM      9  C   UNL     1     103.884 104.879 111.726  1.00  0.00     0.000 C 
BRANCH   9  10
ATOM     10  C   UNL     1     105.303 104.973 112.312  1.00  0.00     0.000 C 
BRANCH  10  11
ATOM     11  C   UNL     1     106.392 104.680 111.266  1.00  0.00     0.000 C 
BRANCH  11  12
ATOM     12  C   UNL     1     107.749 104.344 111.913  1.00  0.00     0.006 C 
BRANCH  12  13
ATOM     13  C   UNL     1     108.892 104.321 110.892  1.00  0.00     0.053 C 
BRANCH  13  14
ATOM     14  C   UNL     1     110.190 103.908 111.517  1.00  0.00     0.041 C 
ATOM     15  O   UNL     1     110.313 102.764 112.032  1.00  0.00    -0.550 OA
ATOM     16  O   UNL     1     111.267 104.789 111.528  1.00  0.00    -0.550 OA
ENDBRANCH  13  14
ENDBRANCH  12  13
ENDBRANCH  11  12
ENDBRANCH  10  11
ENDBRANCH   9  10
ENDBRANCH   8   9
ENDBRANCH   7   8
ENDBRANCH   6   7
ENDBRANCH   5   6
ENDBRANCH   4   5
ENDBRANCH   3   4
ENDBRANCH   2   3
ENDBRANCH   1   2
BRANCH   1  17
ATOM     17  C   UNL     1     104.309 106.104 107.134  1.00  0.00     0.000 C 
BRANCH  17  18
ATOM     18  C   UNL     1     104.663 106.816 105.818  1.00  0.00     0.000 C 
BRANCH  18  19
ATOM     19  C   UNL     1     104.873 105.874 104.616  1.00  0.00     0.000 C 
BRANCH  19  20
ATOM     20  C   UNL     1     104.470 106.501 103.264  1.00  0.00     0.000 C 
BRANCH  20  21
ATOM     21  C   UNL     1     104.057 105.440 102.227  1.00  0.00     0.000 C 
BRANCH  21  22
ATOM     22  C   UNL     1     104.489 104.027 102.647  1.00  0.00    -0.000 C 
BRANCH  22  23
ATOM     23  C   UNL     1     103.372 102.977 102.442  1.00  0.00    -0.000 C 
BRANCH  23  24
ATOM     24  C   UNL     1     103.594 102.100 101.197  1.00  0.00    -0.000 C 
BRANCH  24  25
ATOM     25  C   UNL     1     103.038 102.716  99.898  1.00  0.00    -0.000 C 
BRANCH  25  26
ATOM     26  C   UNL     1     103.355 101.866  98.655  1.00  0.00    -0.000 C 
BRANCH  26  27
ATOM     27  C   UNL     1     103.963 102.699  97.515  1.00  0.00    -0.000 C 
BRANCH  27  28
ATOM     28  C   UNL     1     103.529 104.172  97.559  1.00  0.00    -0.000 C 
BRANCH  28  29
ATOM     29  C   UNL     1     104.736 105.095  97.759  1.00  0.00    -0.003 C 
ATOM     30  C   UNL     1     104.319 106.562  97.724  1.00  0.00     0.004 C 
ENDBRANCH  28  29
ENDBRANCH  27  28
ENDBRANCH  26  27
ENDBRANCH  25  26
ENDBRANCH  24  25
ENDBRANCH  23  24
ENDBRANCH  22  23
ENDBRANCH  21  22
ENDBRANCH  20  21
ENDBRANCH  19  20
ENDBRANCH  18  19
ENDBRANCH  17  18
ENDBRANCH   1  17
TORSDOF 26
ENDMDL
MODEL 6
REMARK VINA RESULT:     4.230      2.463      3.806
REMARK INTER + INTRA:           8.409
REMARK INTER:                  10.436
REMARK INTRA:                  -2.027
REMARK UNBOUND:                -2.251
REMARK SMILES CCCCCCCCCCCCCCCCCCCCCCCCCCCC(=O)[O-]
REMARK SMILES IDX 15 1 16 2 17 3 18 4 19 5 20 6 21 7 22 8 23 9 24 10 25 11
REMARK SMILES IDX 26 12 27 13 28 14 29 15 30 16 14 17 13 18 12 19 11 20 10 21
REMARK SMILES IDX 9 22 8 23 7 24 6 25 5 26 4 27 3 28 2 29 1 30
REMARK H PARENT
REMARK Flexibility Score: inf
ROOT
ATOM      1  C   UNL     1     103.350 103.297 107.328  1.00  0.00     0.000 C 
ENDROOT
BRANCH   1   2
ATOM      2  C   UNL     1     104.594 104.147 107.021  1.00  0.00     0.000 C 
BRANCH   2   3
ATOM      3  C   UNL     1     104.283 105.652 106.935  1.00  0.00     0.000 C 
BRANCH   3   4
ATOM      4  C   UNL     1     104.675 106.420 108.212  1.00  0.00     0.000 C 
BRANCH   4   5
ATOM      5  C   UNL     1     104.844 105.547 109.469  1.00  0.00     0.000 C 
BRANCH   5   6
ATOM      6  C   UNL     1     104.516 106.304 110.768  1.00  0.00     0.000 C 
BRANCH   6   7
ATOM      7  C   UNL     1     104.599 105.409 112.019  1.00  0.00     0.000 C 
BRANCH   7   8
ATOM      8  C   UNL     1     104.978 103.936 111.752  1.00  0.00     0.000 C 
BRANCH   8   9
ATOM      9  C   UNL     1     103.830 102.924 111.913  1.00  0.00     0.000 C 
BRANCH   9  10
ATOM     10  C   UNL     1     102.528 103.561 112.428  1.00  0.00     0.000 C 
BRANCH  10  11
ATOM     11  C   UNL     1     101.450 103.661 111.335  1.00  0.00     0.000 C 
BRANCH  11  12
ATOM     12  C   UNL     1     100.032 103.778 111.923  1.00  0.00     0.006 C 
BRANCH  12  13
ATOM     13  C   UNL     1      98.975 104.054 110.847  1.00  0.00     0.053 C 
BRANCH  13  14
ATOM     14  C   UNL     1      97.662 104.459 111.444  1.00  0.00     0.041 C 
ATOM     15  O   UNL     1      97.521 105.601 111.961  1.00  0.00    -0.550 OA
ATOM     16  O   UNL     1      96.590 103.571 111.430  1.00  0.00    -0.550 OA
ENDBRANCH  13  14
ENDBRANCH  12  13
ENDBRANCH  11  12
ENDBRANCH  10  11
ENDBRANCH   9  10
ENDBRANCH   8   9
ENDBRANCH   7   8
ENDBRANCH   6   7
ENDBRANCH   5   6
ENDBRANCH   4   5
ENDBRANCH   3   4
ENDBRANCH   2   3
ENDBRANCH   1   2
BRANCH   1  17
ATOM     17  C   UNL     1     103.118 102.185 106.290  1.00  0.00     0.000 C 
BRANCH  17  18
ATOM     18  C   UNL     1     103.118 102.713 104.846  1.00  0.00     0.000 C 
BRANCH  18  19
ATOM     19  C   UNL     1     103.560 101.683 103.787  1.00  0.00     0.000 C 
BRANCH  19  20
ATOM     20  C   UNL     1     103.698 102.276 102.369  1.00  0.00     0.000 C 
BRANCH  20  21
ATOM     21  C   UNL     1     103.386 103.784 102.333  1.00  0.00     0.000 C 
BRANCH  21  22
ATOM     22  C   UNL     1     104.664 104.635 102.306  1.00  0.00    -0.000 C 
BRANCH  22  23
ATOM     23  C   UNL     1     104.370 106.152 102.374  1.00  0.00    -0.000 C 
BRANCH  23  24
ATOM     24  C   UNL     1     104.544 106.858 101.017  1.00  0.00    -0.000 C 
BRANCH  24  25
ATOM     25  C   UNL     1     104.744 105.889  99.836  1.00  0.00    -0.000 C 
BRANCH  25  26
ATOM     26  C   UNL     1     104.374 106.519  98.481  1.00  0.00    -0.000 C 
BRANCH  26  27
ATOM     27  C   UNL     1     104.332 105.484  97.345  1.00  0.00    -0.000 C 
BRANCH  27  28
ATOM     28  C   UNL     1     104.512 104.044  97.847  1.00  0.00    -0.000 C 
BRANCH  28  29
ATOM     29  C   UNL     1     103.247 103.215  97.604  1.00  0.00    -0.003 C 
ATOM     30  C   UNL     1     103.494 101.736  97.886  1.00  0.00     0.004 C 
ENDBRANCH  28  29
ENDBRANCH  27  28
ENDBRANCH  26  27
ENDBRANCH  25  26
ENDBRANCH  24  25
ENDBRANCH  23  24
ENDBRANCH  22  23
ENDBRANCH  21  22
ENDBRANCH  20  21
ENDBRANCH  19  20
ENDBRANCH  18  19
ENDBRANCH  17  18
ENDBRANCH   1  17
TORSDOF 26
ENDMDL
MODEL 7
REMARK VINA RESULT:     4.247      5.055     11.883
REMARK INTER + INTRA:           8.451
REMARK INTER:                   9.983
REMARK INTRA:                  -1.532
REMARK UNBOUND:                -2.251
REMARK SMILES CCCCCCCCCCCCCCCCCCCCCCCCCCCC(=O)[O-]
REMARK SMILES IDX 15 1 16 2 17 3 18 4 19 5 20 6 21 7 22 8 23 9 24 10 25 11
REMARK SMILES IDX 26 12 27 13 28 14 29 15 30 16 14 17 13 18 12 19 11 20 10 21
REMARK SMILES IDX 9 22 8 23 7 24 6 25 5 26 4 27 3 28 2 29 1 30
REMARK H PARENT
REMARK Flexibility Score: inf
ROOT
ATOM      1  C   UNL     1     104.431 106.249 102.312  1.00  0.00     0.000 C 
ENDROOT
BRANCH   1   2
ATOM      2  C   UNL     1     104.575 104.726 102.462  1.00  0.00     0.000 C 
BRANCH   2   3
ATOM      3  C   UNL     1     103.250 103.975 102.237  1.00  0.00     0.000 C 
BRANCH   3   4
ATOM      4  C   UNL     1     103.377 102.454 102.445  1.00  0.00     0.000 C 
BRANCH   4   5
ATOM      5  C   UNL     1     103.720 101.651 101.175  1.00  0.00     0.000 C 
BRANCH   5   6
ATOM      6  C   UNL     1     103.209 102.325  99.890  1.00  0.00     0.000 C 
BRANCH   6   7
ATOM      7  C   UNL     1     103.677 101.604  98.611  1.00  0.00     0.000 C 
BRANCH   7   8
ATOM      8  C   UNL     1     103.624 102.451  97.321  1.00  0.00     0.000 C 
BRANCH   8   9
ATOM      9  C   UNL     1     103.286 103.938  97.525  1.00  0.00     0.000 C 
BRANCH   9  10
ATOM     10  C   UNL     1     104.520 104.804  97.826  1.00  0.00     0.000 C 
BRANCH  10  11
ATOM     11  C   UNL     1     104.337 106.265  97.377  1.00  0.00     0.000 C 
BRANCH  11  12
ATOM     12  C   UNL     1     104.857 106.506  95.947  1.00  0.00     0.006 C 
BRANCH  12  13
ATOM     13  C   UNL     1     104.326 105.468  94.951  1.00  0.00     0.053 C 
BRANCH  13  14
ATOM     14  C   UNL     1     104.666 105.828  93.536  1.00  0.00     0.041 C 
ATOM     15  O   UNL     1     103.972 106.675  92.911  1.00  0.00    -0.550 OA
ATOM     16  O   UNL     1     105.752 105.226  92.908  1.00  0.00    -0.550 OA
ENDBRANCH  13  14
ENDBRANCH  12  13
ENDBRANCH  11  12
ENDBRANCH  10  11
ENDBRANCH   9  10
ENDBRANCH   8   9
ENDBRANCH   7   8
ENDBRANCH   6   7
ENDBRANCH   5   6
ENDBRANCH   4   5
ENDBRANCH   3   4
ENDBRANCH   2   3
ENDBRANCH   1   2
BRANCH   1  17
ATOM     17  C   UNL     1     104.762 107.008 103.609  1.00  0.00     0.000 C 
BRANCH  17  18
ATOM     18  C   UNL     1     104.748 106.100 104.848  1.00  0.00     0.000 C 
BRANCH  18  19
ATOM     19  C   UNL     1     104.514 106.838 106.181  1.00  0.00     0.000 C 
BRANCH  19  20
ATOM     20  C   UNL     1     104.511 105.905 107.411  1.00  0.00     0.000 C 
BRANCH  20  21
ATOM     21  C   UNL     1     104.711 104.428 107.024  1.00  0.00     0.000 C 
BRANCH  21  22
ATOM     22  C   UNL     1     103.398 103.635 107.085  1.00  0.00    -0.000 C 
BRANCH  22  23
ATOM     23  C   UNL     1     103.627 102.106 107.143  1.00  0.00    -0.000 C 
BRANCH  23  24
ATOM     24  C   UNL     1     103.232 101.493 108.499  1.00  0.00    -0.000 C 
BRANCH  24  25
ATOM     25  C   UNL     1     103.244 102.503 109.663  1.00  0.00    -0.000 C 
BRANCH  25  26
ATOM     26  C   UNL     1     103.405 101.825 111.035  1.00  0.00    -0.000 C 
BRANCH  26  27
ATOM     27  C   UNL     1     104.002 102.771 112.090  1.00  0.00    -0.000 C 
BRANCH  27  28
ATOM     28  C   UNL     1     103.465 104.205 111.973  1.00  0.00    -0.000 C 
BRANCH  28  29
ATOM     29  C   UNL     1     104.607 105.203 111.754  1.00  0.00    -0.003 C 
ATOM     30  C   UNL     1     104.499 106.383 112.715  1.00  0.00     0.004 C 
ENDBRANCH  28  29
ENDBRANCH  27  28
ENDBRANCH  26  27
ENDBRANCH  25  26
ENDBRANCH  24  25
ENDBRANCH  23  24
ENDBRANCH  22  23
ENDBRANCH  21  22
ENDBRANCH  20  21
ENDBRANCH  19  20
ENDBRANCH  18  19
ENDBRANCH  17  18
ENDBRANCH   1  17
TORSDOF 26
ENDMDL
MODEL 8
REMARK VINA RESULT:     4.363      3.886     11.222
REMARK INTER + INTRA:           8.743
REMARK INTER:                  10.470
REMARK INTRA:                  -1.726
REMARK UNBOUND:                -2.251
REMARK SMILES CCCCCCCCCCCCCCCCCCCCCCCCCCCC(=O)[O-]
REMARK SMILES IDX 15 1 16 2 17 3 18 4 19 5 20 6 21 7 22 8 23 9 24 10 25 11
REMARK SMILES IDX 26 12 27 13 28 14 29 15 30 16 14 17 13 18 12 19 11 20 10 21
REMARK SMILES IDX 9 22 8 23 7 24 6 25 5 26 4 27 3 28 2 29 1 30
REMARK H PARENT
REMARK Flexibility Score: inf
ROOT
ATOM      1  C   UNL     1     104.586 107.122 105.820  1.00  0.00     0.000 C 
ENDROOT
BRANCH   1   2
ATOM      2  C   UNL     1     104.712 106.094 104.684  1.00  0.00     0.000 C 
BRANCH   2   3
ATOM      3  C   UNL     1     104.391 106.690 103.301  1.00  0.00     0.000 C 
BRANCH   3   4
ATOM      4  C   UNL     1     104.671 105.711 102.145  1.00  0.00     0.000 C 
BRANCH   4   5
ATOM      5  C   UNL     1     104.757 104.229 102.555  1.00  0.00     0.000 C 
BRANCH   5   6
ATOM      6  C   UNL     1     103.379 103.551 102.631  1.00  0.00     0.000 C 
BRANCH   6   7
ATOM      7  C   UNL     1     103.472 102.018 102.751  1.00  0.00     0.000 C 
BRANCH   7   8
ATOM      8  C   UNL     1     103.495 101.251 101.411  1.00  0.00     0.000 C 
BRANCH   8   9
ATOM      9  C   UNL     1     103.381 102.129 100.151  1.00  0.00     0.000 C 
BRANCH   9  10
ATOM     10  C   UNL     1     103.292 101.313  98.851  1.00  0.00     0.000 C 
BRANCH  10  11
ATOM     11  C   UNL     1     103.679 102.139  97.611  1.00  0.00     0.000 C 
BRANCH  11  12
ATOM     12  C   UNL     1     103.106 103.568  97.659  1.00  0.00     0.006 C 
BRANCH  12  13
ATOM     13  C   UNL     1     103.892 104.541  96.774  1.00  0.00     0.053 C 
BRANCH  13  14
ATOM     14  C   UNL     1     104.732 105.480  97.586  1.00  0.00     0.041 C 
ATOM     15  O   UNL     1     105.896 105.150  97.941  1.00  0.00    -0.550 OA
ATOM     16  O   UNL     1     104.227 106.725  97.950  1.00  0.00    -0.550 OA
ENDBRANCH  13  14
ENDBRANCH  12  13
ENDBRANCH  11  12
ENDBRANCH  10  11
ENDBRANCH   9  10
ENDBRANCH   8   9
ENDBRANCH   7   8
ENDBRANCH   6   7
ENDBRANCH   5   6
ENDBRANCH   4   5
ENDBRANCH   3   4
ENDBRANCH   2   3
ENDBRANCH   1   2
BRANCH   1  17
ATOM     17  C   UNL     1     104.627 106.474 107.215  1.00  0.00     0.000 C 
BRANCH  17  18
ATOM     18  C   UNL     1     104.750 104.943 107.154  1.00  0.00     0.000 C 
BRANCH  18  19
ATOM     19  C   UNL     1     103.404 104.193 107.090  1.00  0.00     0.000 C 
BRANCH  19  20
ATOM     20  C   UNL     1     103.556 102.667 106.921  1.00  0.00     0.000 C 
BRANCH  20  21
ATOM     21  C   UNL     1     103.562 101.926 108.271  1.00  0.00     0.000 C 
BRANCH  21  22
ATOM     22  C   UNL     1     103.180 102.851 109.436  1.00  0.00    -0.000 C 
BRANCH  22  23
ATOM     23  C   UNL     1     103.401 102.190 110.817  1.00  0.00    -0.000 C 
BRANCH  23  24
ATOM     24  C   UNL     1     103.428 103.209 111.971  1.00  0.00    -0.000 C 
BRANCH  24  25
ATOM     25  C   UNL     1     104.093 104.548 111.598  1.00  0.00    -0.000 C 
BRANCH  25  26
ATOM     26  C   UNL     1     105.444 104.757 112.306  1.00  0.00    -0.000 C 
BRANCH  26  27
ATOM     27  C   UNL     1     106.631 104.697 111.331  1.00  0.00    -0.000 C 
BRANCH  27  28
ATOM     28  C   UNL     1     107.960 104.377 112.033  1.00  0.00    -0.000 C 
BRANCH  28  29
ATOM     29  C   UNL     1     109.040 103.994 111.016  1.00  0.00    -0.003 C 
ATOM     30  C   UNL     1     110.329 103.571 111.714  1.00  0.00     0.004 C 
ENDBRANCH  28  29
ENDBRANCH  27  28
ENDBRANCH  26  27
ENDBRANCH  25  26
ENDBRANCH  24  25
ENDBRANCH  23  24
ENDBRANCH  22  23
ENDBRANCH  21  22
ENDBRANCH  20  21
ENDBRANCH  19  20
ENDBRANCH  18  19
ENDBRANCH  17  18
ENDBRANCH   1  17
TORSDOF 26
ENDMDL
MODEL 9
REMARK VINA RESULT:     4.488      2.047      4.192
REMARK INTER + INTRA:           9.058
REMARK INTER:                  11.254
REMARK INTRA:                  -2.196
REMARK UNBOUND:                -2.251
REMARK SMILES CCCCCCCCCCCCCCCCCCCCCCCCCCCC(=O)[O-]
REMARK SMILES IDX 15 1 16 2 17 3 18 4 19 5 20 6 21 7 22 8 23 9 24 10 25 11
REMARK SMILES IDX 26 12 27 13 28 14 29 15 30 16 14 17 13 18 12 19 11 20 10 21
REMARK SMILES IDX 9 22 8 23 7 24 6 25 5 26 4 27 3 28 2 29 1 30
REMARK H PARENT
REMARK Flexibility Score: inf
ROOT
ATOM      1  C   UNL     1     104.520 106.143 103.003  1.00  0.00     0.000 C 
ENDROOT
BRANCH   1   2
ATOM      2  C   UNL     1     104.758 105.657 104.442  1.00  0.00     0.000 C 
BRANCH   2   3
ATOM      3  C   UNL     1     104.483 106.746 105.494  1.00  0.00     0.000 C 
BRANCH   3   4
ATOM      4  C   UNL     1     104.665 106.247 106.940  1.00  0.00     0.000 C 
BRANCH   4   5
ATOM      5  C   UNL     1     104.807 104.720 107.086  1.00  0.00     0.000 C 
BRANCH   5   6
ATOM      6  C   UNL     1     103.450 104.000 107.163  1.00  0.00     0.000 C 
BRANCH   6   7
ATOM      7  C   UNL     1     103.553 102.495 106.854  1.00  0.00     0.000 C 
BRANCH   7   8
ATOM      8  C   UNL     1     103.370 101.558 108.068  1.00  0.00     0.000 C 
BRANCH   8   9
ATOM      9  C   UNL     1     103.274 102.265 109.432  1.00  0.00     0.000 C 
BRANCH   9  10
ATOM     10  C   UNL     1     103.272 101.289 110.621  1.00  0.00     0.000 C 
BRANCH  10  11
ATOM     11  C   UNL     1     103.736 101.955 111.928  1.00  0.00     0.000 C 
BRANCH  11  12
ATOM     12  C   UNL     1     103.259 103.415 112.042  1.00  0.00     0.006 C 
BRANCH  12  13
ATOM     13  C   UNL     1     104.356 104.347 112.571  1.00  0.00     0.053 C 
BRANCH  13  14
ATOM     14  C   UNL     1     104.422 105.627 111.795  1.00  0.00     0.041 C 
ATOM     15  O   UNL     1     104.429 106.736 112.395  1.00  0.00    -0.550 OA
ATOM     16  O   UNL     1     104.478 105.595 110.405  1.00  0.00    -0.550 OA
ENDBRANCH  13  14
ENDBRANCH  12  13
ENDBRANCH  11  12
ENDBRANCH  10  11
ENDBRANCH   9  10
ENDBRANCH   8   9
ENDBRANCH   7   8
ENDBRANCH   6   7
ENDBRANCH   5   6
ENDBRANCH   4   5
ENDBRANCH   3   4
ENDBRANCH   2   3
ENDBRANCH   1   2
BRANCH   1  17
ATOM     17  C   UNL     1     104.190 104.993 102.034  1.00  0.00     0.000 C 
BRANCH  17  18
ATOM     18  C   UNL     1     103.556 103.785 102.742  1.00  0.00     0.000 C 
BRANCH  18  19
ATOM     19  C   UNL     1     103.564 102.483 101.916  1.00  0.00     0.000 C 
BRANCH  19  20
ATOM     20  C   UNL     1     103.189 102.691 100.433  1.00  0.00     0.000 C 
BRANCH  20  21
ATOM     21  C   UNL     1     103.528 101.465  99.566  1.00  0.00     0.000 C 
BRANCH  21  22
ATOM     22  C   UNL     1     103.541 101.806  98.069  1.00  0.00    -0.000 C 
BRANCH  22  23
ATOM     23  C   UNL     1     102.854 103.157  97.760  1.00  0.00    -0.000 C 
BRANCH  23  24
ATOM     24  C   UNL     1     103.790 104.158  97.058  1.00  0.00    -0.000 C 
BRANCH  24  25
ATOM     25  C   UNL     1     104.175 105.365  97.935  1.00  0.00    -0.000 C 
BRANCH  25  26
ATOM     26  C   UNL     1     105.699 105.533  98.077  1.00  0.00    -0.000 C 
BRANCH  26  27
ATOM     27  C   UNL     1     106.480 104.402  97.388  1.00  0.00    -0.000 C 
BRANCH  27  28
ATOM     28  C   UNL     1     107.954 104.760  97.147  1.00  0.00    -0.000 C 
BRANCH  28  29
ATOM     29  C   UNL     1     108.873 103.600  97.547  1.00  0.00    -0.003 C 
ATOM     30  C   UNL     1     110.342 104.000  97.441  1.00  0.00     0.004 C 
ENDBRANCH  28  29
ENDBRANCH  27  28
ENDBRANCH  26  27
ENDBRANCH  25  26
ENDBRANCH  24  25
ENDBRANCH  23  24
ENDBRANCH  22  23
ENDBRANCH  21  22
ENDBRANCH  20  21
ENDBRANCH  19  20
ENDBRANCH  18  19
ENDBRANCH  17  18
ENDBRANCH   1  17
TORSDOF 26
ENDMDL
