MODEL 1
REMARK VINA RESULT:    -2.931      0.000      0.000
REMARK INTER + INTRA:          -3.976
REMARK INTER:                  -3.616
REMARK INTRA:                  -0.360
REMARK UNBOUND:                -0.360
REMARK SMILES CCCCC=CC(C)=O
REMARK SMILES IDX 4 1 3 2 2 3 1 4 5 5 6 6 7 7 9 8 8 9
REMARK H PARENT
REMARK Flexibility Score: inf
ROOT
ATOM      1  C   UNL     1      99.819   4.219  77.997  1.00  0.00     0.027 C 
ENDROOT
BRANCH   1   2
ATOM      2  C   UNL     1     100.641   5.460  77.617  1.00  0.00     0.004 C 
BRANCH   2   3
ATOM      3  C   UNL     1     100.278   6.691  78.462  1.00  0.00    -0.003 C 
ATOM      4  C   UNL     1     101.430   7.163  79.347  1.00  0.00     0.004 C 
ENDBRANCH   2   3
ENDBRANCH   1   2
BRANCH   1   5
ATOM      5  C   UNL     1      99.431   3.431  76.776  1.00  0.00    -0.023 C 
ATOM      6  C   UNL     1      98.256   3.539  76.137  1.00  0.00     0.042 C 
BRANCH   6   7
ATOM      7  C   UNL     1      97.166   4.487  76.457  1.00  0.00     0.152 C 
ATOM      8  O   UNL     1      96.213   4.080  77.173  1.00  0.00    -0.295 OA
ATOM      9  C   UNL     1      97.112   5.885  75.921  1.00  0.00     0.093 C 
ENDBRANCH   6   7
ENDBRANCH   1   5
TORSDOF 4
ENDMDL
MODEL 2
REMARK VINA RESULT:    -2.920      3.693      5.763
REMARK INTER + INTRA:          -3.963
REMARK INTER:                  -3.577
REMARK INTRA:                  -0.386
REMARK UNBOUND:                -0.360
REMARK SMILES CCCCC=CC(C)=O
REMARK SMILES IDX 4 1 3 2 2 3 1 4 5 5 6 6 7 7 9 8 8 9
REMARK H PARENT
REMARK Flexibility Score: inf
ROOT
ATOM      1  C   UNL     1     100.391   9.921  78.638  1.00  0.00     0.027 C 
ENDROOT
BRANCH   1   2
ATOM      2  C   UNL     1      98.867  10.101  78.690  1.00  0.00     0.004 C 
BRANCH   2   3
ATOM      3  C   UNL     1      98.115   9.003  77.923  1.00  0.00    -0.003 C 
ATOM      4  C   UNL     1      96.984   9.554  77.056  1.00  0.00     0.004 C 
ENDBRANCH   2   3
ENDBRANCH   1   2
BRANCH   1   5
ATOM      5  C   UNL     1     100.917   9.367  79.934  1.00  0.00    -0.023 C 
ATOM      6  C   UNL     1     101.406   8.128  80.095  1.00  0.00     0.042 C 
BRANCH   6   7
ATOM      7  C   UNL     1     101.590   7.112  79.034  1.00  0.00     0.152 C 
ATOM      8  O   UNL     1     102.675   7.106  78.396  1.00  0.00    -0.295 OA
ATOM      9  C   UNL     1     100.525   6.132  78.645  1.00  0.00     0.093 C 
ENDBRANCH   6   7
ENDBRANCH   1   5
TORSDOF 4
ENDMDL
MODEL 3
REMARK VINA RESULT:    -2.912      3.553      5.700
REMARK INTER + INTRA:          -3.953
REMARK INTER:                  -3.492
REMARK INTRA:                  -0.461
REMARK UNBOUND:                -0.360
REMARK SMILES CCCCC=CC(C)=O
REMARK SMILES IDX 4 1 3 2 2 3 1 4 5 5 6 6 7 7 9 8 8 9
REMARK H PARENT
REMARK Flexibility Score: inf
ROOT
ATOM      1  C   UNL     1     101.718   7.418  78.859  1.00  0.00     0.027 C 
ENDROOT
BRANCH   1   2
ATOM      2  C   UNL     1     100.567   6.524  78.375  1.00  0.00     0.004 C 
BRANCH   2   3
ATOM      3  C   UNL     1      99.837   7.109  77.157  1.00  0.00    -0.003 C 
ATOM      4  C   UNL     1      98.445   7.640  77.499  1.00  0.00     0.004 C 
ENDBRANCH   2   3
ENDBRANCH   1   2
BRANCH   1   5
ATOM      5  C   UNL     1     101.427   7.986  80.222  1.00  0.00    -0.023 C 
ATOM      6  C   UNL     1     101.017   9.242  80.455  1.00  0.00     0.042 C 
BRANCH   6   7
ATOM      7  C   UNL     1     100.705  10.268  79.436  1.00  0.00     0.152 C 
ATOM      8  O   UNL     1      99.496  10.479  79.152  1.00  0.00    -0.295 OA
ATOM      9  C   UNL     1     101.758  11.023  78.684  1.00  0.00     0.093 C 
ENDBRANCH   6   7
ENDBRANCH   1   5
TORSDOF 4
ENDMDL
MODEL 4
REMARK VINA RESULT:    -2.890      3.932      5.662
REMARK INTER + INTRA:          -3.925
REMARK INTER:                  -3.329
REMARK INTRA:                  -0.596
REMARK UNBOUND:                -0.360
REMARK SMILES CCCCC=CC(C)=O
REMARK SMILES IDX 4 1 3 2 2 3 1 4 5 5 6 6 7 7 9 8 8 9
REMARK H PARENT
REMARK Flexibility Score: inf
ROOT
ATOM      1  C   UNL     1      99.812   8.186  77.336  1.00  0.00     0.027 C 
ENDROOT
BRANCH   1   2
ATOM      2  C   UNL     1      99.597   6.811  77.984  1.00  0.00     0.004 C 
BRANCH   2   3
ATOM      3  C   UNL     1     100.812   6.347  78.802  1.00  0.00    -0.003 C 
ATOM      4  C   UNL     1     102.130   6.918  78.282  1.00  0.00     0.004 C 
ENDBRANCH   2   3
ENDBRANCH   1   2
BRANCH   1   5
ATOM      5  C   UNL     1      98.957   9.235  77.993  1.00  0.00    -0.023 C 
ATOM      6  C   UNL     1      99.343  10.000  79.026  1.00  0.00     0.042 C 
BRANCH   6   7
ATOM      7  C   UNL     1     100.681  10.012  79.659  1.00  0.00     0.152 C 
ATOM      8  O   UNL     1     101.621  10.590  79.053  1.00  0.00    -0.295 OA
ATOM      9  C   UNL     1     100.981   9.319  80.953  1.00  0.00     0.093 C 
ENDBRANCH   6   7
ENDBRANCH   1   5
TORSDOF 4
ENDMDL
MODEL 5
REMARK VINA RESULT:    -2.878      1.016      2.253
REMARK INTER + INTRA:          -3.911
REMARK INTER:                  -3.514
REMARK INTRA:                  -0.397
REMARK UNBOUND:                -0.360
REMARK SMILES CCCCC=CC(C)=O
REMARK SMILES IDX 4 1 3 2 2 3 1 4 5 5 6 6 7 7 9 8 8 9
REMARK H PARENT
REMARK Flexibility Score: inf
ROOT
ATOM      1  C   UNL     1      98.256   7.299  77.249  1.00  0.00     0.027 C 
ENDROOT
BRANCH   1   2
ATOM      2  C   UNL     1      99.792   7.273  77.261  1.00  0.00     0.004 C 
BRANCH   2   3
ATOM      3  C   UNL     1     100.359   6.435  78.417  1.00  0.00    -0.003 C 
ATOM      4  C   UNL     1     101.436   7.173  79.212  1.00  0.00     0.004 C 
ENDBRANCH   2   3
ENDBRANCH   1   2
BRANCH   1   5
ATOM      5  C   UNL     1      97.717   6.868  75.912  1.00  0.00    -0.023 C 
ATOM      6  C   UNL     1      97.354   5.614  75.602  1.00  0.00     0.042 C 
BRANCH   6   7
ATOM      7  C   UNL     1      97.342   4.451  76.517  1.00  0.00     0.152 C 
ATOM      8  O   UNL     1      96.285   4.204  77.154  1.00  0.00    -0.295 OA
ATOM      9  C   UNL     1      98.544   3.592  76.765  1.00  0.00     0.093 C 
ENDBRANCH   6   7
ENDBRANCH   1   5
TORSDOF 4
ENDMDL
MODEL 6
REMARK VINA RESULT:    -2.849      1.505      2.717
REMARK INTER + INTRA:          -3.875
REMARK INTER:                  -3.276
REMARK INTRA:                  -0.599
REMARK UNBOUND:                -0.360
REMARK SMILES CCCCC=CC(C)=O
REMARK SMILES IDX 4 1 3 2 2 3 1 4 5 5 6 6 7 7 9 8 8 9
REMARK H PARENT
REMARK Flexibility Score: inf
ROOT
ATOM      1  C   UNL     1     100.118   5.909  76.906  1.00  0.00     0.027 C 
ENDROOT
BRANCH   1   2
ATOM      2  C   UNL     1     100.394   5.501  78.361  1.00  0.00     0.004 C 
BRANCH   2   3
ATOM      3  C   UNL     1     100.049   4.030  78.638  1.00  0.00    -0.003 C 
ATOM      4  C   UNL     1     100.218   3.140  77.407  1.00  0.00     0.004 C 
ENDBRANCH   2   3
ENDBRANCH   1   2
BRANCH   1   5
ATOM      5  C   UNL     1      98.942   6.844  76.819  1.00  0.00    -0.023 C 
ATOM      6  C   UNL     1      97.713   6.491  76.412  1.00  0.00     0.042 C 
BRANCH   6   7
ATOM      7  C   UNL     1      97.265   5.128  76.048  1.00  0.00     0.152 C 
ATOM      8  O   UNL     1      97.364   4.769  74.845  1.00  0.00    -0.295 OA
ATOM      9  C   UNL     1      96.646   4.180  77.029  1.00  0.00     0.093 C 
ENDBRANCH   6   7
ENDBRANCH   1   5
TORSDOF 4
ENDMDL
MODEL 7
REMARK VINA RESULT:    -2.818      8.259      9.386
REMARK INTER + INTRA:          -3.836
REMARK INTER:                  -3.393
REMARK INTRA:                  -0.443
REMARK UNBOUND:                -0.360
REMARK SMILES CCCCC=CC(C)=O
REMARK SMILES IDX 4 1 3 2 2 3 1 4 5 5 6 6 7 7 9 8 8 9
REMARK H PARENT
REMARK Flexibility Score: inf
ROOT
ATOM      1  C   UNL     1      96.260   6.215  68.630  1.00  0.00     0.027 C 
ENDROOT
BRANCH   1   2
ATOM      2  C   UNL     1      96.087   6.798  70.040  1.00  0.00     0.004 C 
BRANCH   2   3
ATOM      3  C   UNL     1      97.183   7.813  70.398  1.00  0.00    -0.003 C 
ATOM      4  C   UNL     1      97.787   8.491  69.168  1.00  0.00     0.004 C 
ENDBRANCH   2   3
ENDBRANCH   1   2
BRANCH   1   5
ATOM      5  C   UNL     1      96.646   4.761  68.687  1.00  0.00    -0.023 C 
ATOM      6  C   UNL     1      97.784   4.252  68.192  1.00  0.00     0.042 C 
BRANCH   6   7
ATOM      7  C   UNL     1      98.892   5.015  67.573  1.00  0.00     0.152 C 
ATOM      8  O   UNL     1      99.791   5.475  68.325  1.00  0.00    -0.295 OA
ATOM      9  C   UNL     1      98.961   5.315  66.107  1.00  0.00     0.093 C 
ENDBRANCH   6   7
ENDBRANCH   1   5
TORSDOF 4
ENDMDL
MODEL 8
REMARK VINA RESULT:    -2.789      2.256      4.085
REMARK INTER + INTRA:          -3.801
REMARK INTER:                  -3.291
REMARK INTRA:                  -0.509
REMARK UNBOUND:                -0.360
REMARK SMILES CCCCC=CC(C)=O
REMARK SMILES IDX 4 1 3 2 2 3 1 4 5 5 6 6 7 7 9 8 8 9
REMARK H PARENT
REMARK Flexibility Score: inf
ROOT
ATOM      1  C   UNL     1      99.710   4.687  76.656  1.00  0.00     0.027 C 
ENDROOT
BRANCH   1   2
ATOM      2  C   UNL     1      98.590   3.648  76.814  1.00  0.00     0.004 C 
BRANCH   2   3
ATOM      3  C   UNL     1      97.196   4.290  76.885  1.00  0.00    -0.003 C 
ATOM      4  C   UNL     1      97.019   5.436  75.889  1.00  0.00     0.004 C 
ENDBRANCH   2   3
ENDBRANCH   1   2
BRANCH   1   5
ATOM      5  C   UNL     1     100.271   5.087  77.994  1.00  0.00    -0.023 C 
ATOM      6  C   UNL     1     100.340   6.348  78.448  1.00  0.00     0.042 C 
BRANCH   6   7
ATOM      7  C   UNL     1      99.823   7.557  77.768  1.00  0.00     0.152 C 
ATOM      8  O   UNL     1     100.574   8.146  76.947  1.00  0.00    -0.295 OA
ATOM      9  C   UNL     1      98.475   8.144  78.055  1.00  0.00     0.093 C 
ENDBRANCH   6   7
ENDBRANCH   1   5
TORSDOF 4
ENDMDL
