MODEL 1
REMARK VINA RESULT:    -3.488      0.000      0.000
REMARK INTER + INTRA:          -4.563
REMARK INTER:                  -4.304
REMARK INTRA:                  -0.259
REMARK UNBOUND:                -0.259
REMARK SMILES C=CC[C@@H](C)C(=O)CC
REMARK SMILES IDX 4 1 5 2 6 3 7 4 8 5 9 6 3 7 2 8 1 9
REMARK H PARENT
REMARK Flexibility Score: inf
ROOT
ATOM      1  C   UNL     1       2.158   9.062  18.214  1.00  0.00     0.057 C 
ATOM      2  C   UNL     1       2.457  10.408  18.889  1.00  0.00     0.016 C 
ENDROOT
BRANCH   1   3
ATOM      3  C   UNL     1       1.247   8.218  19.082  1.00  0.00     0.135 C 
ATOM      4  O   UNL     1       1.742   7.472  19.913  1.00  0.00    -0.299 OA
BRANCH   3   5
ATOM      5  C   UNL     1      -0.255   8.250  18.933  1.00  0.00     0.072 C 
ATOM      6  C   UNL     1      -0.872   9.288  19.865  1.00  0.00     0.012 C 
ENDBRANCH   3   5
ENDBRANCH   1   3
BRANCH   1   7
ATOM      7  C   UNL     1       1.552   9.244  16.805  1.00  0.00     0.038 C 
BRANCH   7   8
ATOM      8  C   UNL     1       2.286  10.282  15.998  1.00  0.00    -0.034 C 
ATOM      9  C   UNL     1       1.642  11.267  15.364  1.00  0.00     0.004 C 
ENDBRANCH   7   8
ENDBRANCH   1   7
TORSDOF 4
ENDMDL
MODEL 2
REMARK VINA RESULT:    -3.429      6.885      8.256
REMARK INTER + INTRA:          -4.491
REMARK INTER:                  -4.228
REMARK INTRA:                  -0.263
REMARK UNBOUND:                -0.259
REMARK SMILES C=CC[C@@H](C)C(=O)CC
REMARK SMILES IDX 4 1 5 2 6 3 7 4 8 5 9 6 3 7 2 8 1 9
REMARK H PARENT
REMARK Flexibility Score: inf
ROOT
ATOM      1  C   UNL     1       1.304  15.855  21.906  1.00  0.00     0.057 C 
ATOM      2  C   UNL     1       0.178  16.896  21.981  1.00  0.00     0.016 C 
ENDROOT
BRANCH   1   3
ATOM      3  C   UNL     1       1.739  15.639  20.470  1.00  0.00     0.135 C 
ATOM      4  O   UNL     1       1.721  14.509  20.008  1.00  0.00    -0.299 OA
BRANCH   3   5
ATOM      5  C   UNL     1       2.221  16.775  19.600  1.00  0.00     0.072 C 
ATOM      6  C   UNL     1       3.059  16.252  18.438  1.00  0.00     0.012 C 
ENDBRANCH   3   5
ENDBRANCH   1   3
BRANCH   1   7
ATOM      7  C   UNL     1       2.511  16.245  22.787  1.00  0.00     0.038 C 
BRANCH   7   8
ATOM      8  C   UNL     1       3.479  15.106  22.965  1.00  0.00    -0.034 C 
ATOM      9  C   UNL     1       3.336  14.206  23.944  1.00  0.00     0.004 C 
ENDBRANCH   7   8
ENDBRANCH   1   7
TORSDOF 4
ENDMDL
MODEL 3
REMARK VINA RESULT:    -3.422      6.648      8.022
REMARK INTER + INTRA:          -4.481
REMARK INTER:                  -4.021
REMARK INTRA:                  -0.460
REMARK UNBOUND:                -0.259
REMARK SMILES C=CC[C@@H](C)C(=O)CC
REMARK SMILES IDX 4 1 5 2 6 3 7 4 8 5 9 6 3 7 2 8 1 9
REMARK H PARENT
REMARK Flexibility Score: inf
ROOT
ATOM      1  C   UNL     1       2.222  16.385  21.715  1.00  0.00     0.057 C 
ATOM      2  C   UNL     1       3.053  15.621  20.674  1.00  0.00     0.016 C 
ENDROOT
BRANCH   1   3
ATOM      3  C   UNL     1       0.743  16.120  21.519  1.00  0.00     0.135 C 
ATOM      4  O   UNL     1      -0.068  16.889  22.013  1.00  0.00    -0.299 OA
BRANCH   3   5
ATOM      5  C   UNL     1       0.239  14.921  20.755  1.00  0.00     0.072 C 
ATOM      6  C   UNL     1       0.056  13.723  21.681  1.00  0.00     0.012 C 
ENDBRANCH   3   5
ENDBRANCH   1   3
BRANCH   1   7
ATOM      7  C   UNL     1       2.649  16.043  23.159  1.00  0.00     0.038 C 
BRANCH   7   8
ATOM      8  C   UNL     1       3.499  14.802  23.224  1.00  0.00    -0.034 C 
ATOM      9  C   UNL     1       3.190  13.776  24.024  1.00  0.00     0.004 C 
ENDBRANCH   7   8
ENDBRANCH   1   7
TORSDOF 4
ENDMDL
MODEL 4
REMARK VINA RESULT:    -3.418      6.431      7.925
REMARK INTER + INTRA:          -4.477
REMARK INTER:                  -3.993
REMARK INTRA:                  -0.484
REMARK UNBOUND:                -0.259
REMARK SMILES C=CC[C@@H](C)C(=O)CC
REMARK SMILES IDX 4 1 5 2 6 3 7 4 8 5 9 6 3 7 2 8 1 9
REMARK H PARENT
REMARK Flexibility Score: inf
ROOT
ATOM      1  C   UNL     1       1.306  15.876  21.958  1.00  0.00     0.057 C 
ATOM      2  C   UNL     1       0.203  16.944  21.958  1.00  0.00     0.016 C 
ENDROOT
BRANCH   1   3
ATOM      3  C   UNL     1       1.795  15.611  20.548  1.00  0.00     0.135 C 
ATOM      4  O   UNL     1       2.295  16.525  19.910  1.00  0.00    -0.299 OA
BRANCH   3   5
ATOM      5  C   UNL     1       1.659  14.257  19.895  1.00  0.00     0.072 C 
ATOM      6  C   UNL     1       1.014  13.256  20.848  1.00  0.00     0.012 C 
ENDBRANCH   3   5
ENDBRANCH   1   3
BRANCH   1   7
ATOM      7  C   UNL     1       2.485  16.263  22.878  1.00  0.00     0.038 C 
BRANCH   7   8
ATOM      8  C   UNL     1       3.479  15.142  23.032  1.00  0.00    -0.034 C 
ATOM      9  C   UNL     1       3.321  14.181  23.948  1.00  0.00     0.004 C 
ENDBRANCH   7   8
ENDBRANCH   1   7
TORSDOF 4
ENDMDL
MODEL 5
REMARK VINA RESULT:    -3.356      6.559      7.908
REMARK INTER + INTRA:          -4.399
REMARK INTER:                  -3.883
REMARK INTRA:                  -0.517
REMARK UNBOUND:                -0.259
REMARK SMILES C=CC[C@@H](C)C(=O)CC
REMARK SMILES IDX 4 1 5 2 6 3 7 4 8 5 9 6 3 7 2 8 1 9
REMARK H PARENT
REMARK Flexibility Score: inf
ROOT
ATOM      1  C   UNL     1       0.973  16.495  20.953  1.00  0.00     0.057 C 
ATOM      2  C   UNL     1       0.051  17.043  22.052  1.00  0.00     0.016 C 
ENDROOT
BRANCH   1   3
ATOM      3  C   UNL     1       2.363  16.236  21.499  1.00  0.00     0.135 C 
ATOM      4  O   UNL     1       3.260  15.939  20.725  1.00  0.00    -0.299 OA
BRANCH   3   5
ATOM      5  C   UNL     1       2.669  16.307  22.975  1.00  0.00     0.072 C 
ATOM      6  C   UNL     1       3.167  14.962  23.494  1.00  0.00     0.012 C 
ENDBRANCH   3   5
ENDBRANCH   1   3
BRANCH   1   7
ATOM      7  C   UNL     1       0.399  15.218  20.301  1.00  0.00     0.038 C 
BRANCH   7   8
ATOM      8  C   UNL     1      -0.116  14.238  21.321  1.00  0.00    -0.034 C 
ATOM      9  C   UNL     1       0.466  13.051  21.516  1.00  0.00     0.004 C 
ENDBRANCH   7   8
ENDBRANCH   1   7
TORSDOF 4
ENDMDL
MODEL 6
REMARK VINA RESULT:    -3.339      1.735      2.743
REMARK INTER + INTRA:          -4.379
REMARK INTER:                  -3.995
REMARK INTRA:                  -0.384
REMARK UNBOUND:                -0.259
REMARK SMILES C=CC[C@@H](C)C(=O)CC
REMARK SMILES IDX 4 1 5 2 6 3 7 4 8 5 9 6 3 7 2 8 1 9
REMARK H PARENT
REMARK Flexibility Score: inf
ROOT
ATOM      1  C   UNL     1       0.254   9.421  19.254  1.00  0.00     0.057 C 
ATOM      2  C   UNL     1      -0.423   8.152  18.715  1.00  0.00     0.016 C 
ENDROOT
BRANCH   1   3
ATOM      3  C   UNL     1       1.056   9.111  20.502  1.00  0.00     0.135 C 
ATOM      4  O   UNL     1       1.874   9.926  20.900  1.00  0.00    -0.299 OA
BRANCH   3   5
ATOM      5  C   UNL     1       0.895   7.813  21.256  1.00  0.00     0.072 C 
ATOM      6  C   UNL     1       2.097   6.901  21.032  1.00  0.00     0.012 C 
ENDBRANCH   3   5
ENDBRANCH   1   3
BRANCH   1   7
ATOM      7  C   UNL     1       1.145  10.096  18.189  1.00  0.00     0.038 C 
BRANCH   7   8
ATOM      8  C   UNL     1       1.681   9.111  17.185  1.00  0.00    -0.034 C 
ATOM      9  C   UNL     1       2.983   8.812  17.116  1.00  0.00     0.004 C 
ENDBRANCH   7   8
ENDBRANCH   1   7
TORSDOF 4
ENDMDL
MODEL 7
REMARK VINA RESULT:    -3.339      1.800      4.158
REMARK INTER + INTRA:          -4.379
REMARK INTER:                  -3.987
REMARK INTRA:                  -0.392
REMARK UNBOUND:                -0.259
REMARK SMILES C=CC[C@@H](C)C(=O)CC
REMARK SMILES IDX 4 1 5 2 6 3 7 4 8 5 9 6 3 7 2 8 1 9
REMARK H PARENT
REMARK Flexibility Score: inf
ROOT
ATOM      1  C   UNL     1      -0.133   9.209  18.959  1.00  0.00     0.057 C 
ATOM      2  C   UNL     1      -0.657  10.123  20.076  1.00  0.00     0.016 C 
ENDROOT
BRANCH   1   3
ATOM      3  C   UNL     1       1.047   9.848  18.253  1.00  0.00     0.135 C 
ATOM      4  O   UNL     1       1.550  10.854  18.729  1.00  0.00    -0.299 OA
BRANCH   3   5
ATOM      5  C   UNL     1       1.604   9.295  16.964  1.00  0.00     0.072 C 
ATOM      6  C   UNL     1       3.044   8.828  17.150  1.00  0.00     0.012 C 
ENDBRANCH   3   5
ENDBRANCH   1   3
BRANCH   1   7
ATOM      7  C   UNL     1       0.244   7.808  19.487  1.00  0.00     0.038 C 
BRANCH   7   8
ATOM      8  C   UNL     1       1.053   7.875  20.755  1.00  0.00    -0.034 C 
ATOM      9  C   UNL     1       2.047   7.016  21.003  1.00  0.00     0.004 C 
ENDBRANCH   7   8
ENDBRANCH   1   7
TORSDOF 4
ENDMDL
MODEL 8
REMARK VINA RESULT:    -3.278      6.566      7.615
REMARK INTER + INTRA:          -4.304
REMARK INTER:                  -4.050
REMARK INTRA:                  -0.254
REMARK UNBOUND:                -0.259
REMARK SMILES C=CC[C@@H](C)C(=O)CC
REMARK SMILES IDX 4 1 5 2 6 3 7 4 8 5 9 6 3 7 2 8 1 9
REMARK H PARENT
REMARK Flexibility Score: inf
ROOT
ATOM      1  C   UNL     1       2.828  14.568  22.470  1.00  0.00     0.057 C 
ATOM      2  C   UNL     1       3.792  14.441  21.282  1.00  0.00     0.016 C 
ENDROOT
BRANCH   1   3
ATOM      3  C   UNL     1       3.407  13.902  23.702  1.00  0.00     0.135 C 
ATOM      4  O   UNL     1       4.461  14.315  24.161  1.00  0.00    -0.299 OA
BRANCH   3   5
ATOM      5  C   UNL     1       2.735  12.724  24.366  1.00  0.00     0.072 C 
ATOM      6  C   UNL     1       1.563  12.224  23.528  1.00  0.00     0.012 C 
ENDBRANCH   3   5
ENDBRANCH   1   3
BRANCH   1   7
ATOM      7  C   UNL     1       2.468  16.041  22.767  1.00  0.00     0.038 C 
BRANCH   7   8
ATOM      8  C   UNL     1       1.530  16.617  21.741  1.00  0.00    -0.034 C 
ATOM      9  C   UNL     1       0.222  16.757  21.981  1.00  0.00     0.004 C 
ENDBRANCH   7   8
ENDBRANCH   1   7
TORSDOF 4
ENDMDL
MODEL 9
REMARK VINA RESULT:    -3.266      1.861      2.512
REMARK INTER + INTRA:          -4.289
REMARK INTER:                  -3.833
REMARK INTRA:                  -0.456
REMARK UNBOUND:                -0.259
REMARK SMILES C=CC[C@@H](C)C(=O)CC
REMARK SMILES IDX 4 1 5 2 6 3 7 4 8 5 9 6 3 7 2 8 1 9
REMARK H PARENT
REMARK Flexibility Score: inf
ROOT
ATOM      1  C   UNL     1       0.678   9.270  18.351  1.00  0.00     0.057 C 
ATOM      2  C   UNL     1      -0.141   8.104  18.922  1.00  0.00     0.016 C 
ENDROOT
BRANCH   1   3
ATOM      3  C   UNL     1       0.793  10.391  19.365  1.00  0.00     0.135 C 
ATOM      4  O   UNL     1       1.650  10.322  20.233  1.00  0.00    -0.299 OA
BRANCH   3   5
ATOM      5  C   UNL     1      -0.138  11.579  19.353  1.00  0.00     0.072 C 
ATOM      6  C   UNL     1       0.060  12.412  18.091  1.00  0.00     0.012 C 
ENDBRANCH   3   5
ENDBRANCH   1   3
BRANCH   1   7
ATOM      7  C   UNL     1       2.078   8.817  17.881  1.00  0.00     0.038 C 
BRANCH   7   8
ATOM      8  C   UNL     1       2.640   9.718  16.813  1.00  0.00    -0.034 C 
ATOM      9  C   UNL     1       1.891  10.159  15.797  1.00  0.00     0.004 C 
ENDBRANCH   7   8
ENDBRANCH   1   7
TORSDOF 4
ENDMDL
