MODEL 1
REMARK VINA RESULT:    -4.307      0.000      0.000
REMARK INTER + INTRA:          -5.986
REMARK INTER:                  -5.818
REMARK INTRA:                  -0.169
REMARK UNBOUND:                -0.169
REMARK SMILES CCCCCCCC(=O)[O-]
REMARK SMILES IDX 5 1 6 2 7 3 8 4 9 5 10 6 4 7 3 8 2 9 1 10
REMARK H PARENT
REMARK Flexibility Score: inf
ROOT
ATOM      1  C   UNL     1      -4.009   0.399  -0.750  1.00  0.00     0.000 C 
ENDROOT
BRANCH   1   2
ATOM      2  C   UNL     1      -3.006   1.318  -0.031  1.00  0.00     0.006 C 
BRANCH   2   3
ATOM      3  C   UNL     1      -3.652   2.631   0.429  1.00  0.00     0.053 C 
BRANCH   3   4
ATOM      4  C   UNL     1      -2.997   3.824  -0.199  1.00  0.00     0.041 C 
ATOM      5  O   UNL     1      -2.579   4.769   0.521  1.00  0.00    -0.550 OA
ATOM      6  O   UNL     1      -2.823   3.878  -1.576  1.00  0.00    -0.550 OA
ENDBRANCH   3   4
ENDBRANCH   2   3
ENDBRANCH   1   2
BRANCH   1   7
ATOM      7  C   UNL     1      -3.383  -0.937  -1.181  1.00  0.00     0.000 C 
BRANCH   7   8
ATOM      8  C   UNL     1      -4.178  -1.632  -2.297  1.00  0.00    -0.000 C 
BRANCH   8   9
ATOM      9  C   UNL     1      -3.833  -3.124  -2.368  1.00  0.00    -0.003 C 
ATOM     10  C   UNL     1      -3.794  -3.748  -0.976  1.00  0.00     0.004 C 
ENDBRANCH   8   9
ENDBRANCH   7   8
ENDBRANCH   1   7
TORSDOF 6
ENDMDL
MODEL 2
REMARK VINA RESULT:    -4.249      3.694      6.340
REMARK INTER + INTRA:          -5.908
REMARK INTER:                  -5.791
REMARK INTRA:                  -0.117
REMARK UNBOUND:                -0.169
REMARK SMILES CCCCCCCC(=O)[O-]
REMARK SMILES IDX 5 1 6 2 7 3 8 4 9 5 10 6 4 7 3 8 2 9 1 10
REMARK H PARENT
REMARK Flexibility Score: inf
ROOT
ATOM      1  C   UNL     1      -2.968   0.245  -0.688  1.00  0.00     0.000 C 
ENDROOT
BRANCH   1   2
ATOM      2  C   UNL     1      -4.032  -0.822  -0.995  1.00  0.00     0.006 C 
BRANCH   2   3
ATOM      3  C   UNL     1      -3.782  -1.519  -2.339  1.00  0.00     0.053 C 
BRANCH   3   4
ATOM      4  C   UNL     1      -3.785  -3.011  -2.203  1.00  0.00     0.041 C 
ATOM      5  O   UNL     1      -3.844  -3.740  -3.227  1.00  0.00    -0.550 OA
ATOM      6  O   UNL     1      -3.693  -3.595  -0.946  1.00  0.00    -0.550 OA
ENDBRANCH   3   4
ENDBRANCH   2   3
ENDBRANCH   1   2
BRANCH   1   7
ATOM      7  C   UNL     1      -3.571   1.528  -0.096  1.00  0.00     0.000 C 
BRANCH   7   8
ATOM      8  C   UNL     1      -2.743   2.780  -0.424  1.00  0.00    -0.000 C 
BRANCH   8   9
ATOM      9  C   UNL     1      -3.320   4.017   0.274  1.00  0.00    -0.003 C 
ATOM     10  C   UNL     1      -3.038   5.284  -0.528  1.00  0.00     0.004 C 
ENDBRANCH   8   9
ENDBRANCH   7   8
ENDBRANCH   1   7
TORSDOF 6
ENDMDL
MODEL 3
REMARK VINA RESULT:    -3.769      3.162      6.021
REMARK INTER + INTRA:          -5.259
REMARK INTER:                  -5.070
REMARK INTRA:                  -0.189
REMARK UNBOUND:                -0.169
REMARK SMILES CCCCCCCC(=O)[O-]
REMARK SMILES IDX 5 1 6 2 7 3 8 4 9 5 10 6 4 7 3 8 2 9 1 10
REMARK H PARENT
REMARK Flexibility Score: inf
ROOT
ATOM      1  C   UNL     1      -3.538   1.539  -0.152  1.00  0.00     0.000 C 
ENDROOT
BRANCH   1   2
ATOM      2  C   UNL     1      -3.102   0.298  -0.950  1.00  0.00     0.006 C 
BRANCH   2   3
ATOM      3  C   UNL     1      -4.164  -0.809  -0.926  1.00  0.00     0.053 C 
BRANCH   3   4
ATOM      4  C   UNL     1      -3.754  -1.993  -1.746  1.00  0.00     0.041 C 
ATOM      5  O   UNL     1      -3.282  -1.830  -2.902  1.00  0.00    -0.550 OA
ATOM      6  O   UNL     1      -3.867  -3.275  -1.224  1.00  0.00    -0.550 OA
ENDBRANCH   3   4
ENDBRANCH   2   3
ENDBRANCH   1   2
BRANCH   1   7
ATOM      7  C   UNL     1      -2.613   2.744  -0.380  1.00  0.00     0.000 C 
BRANCH   7   8
ATOM      8  C   UNL     1      -3.173   4.044   0.217  1.00  0.00    -0.000 C 
BRANCH   8   9
ATOM      9  C   UNL     1      -3.070   5.198  -0.787  1.00  0.00    -0.003 C 
ATOM     10  C   UNL     1      -3.001   4.678  -2.220  1.00  0.00     0.004 C 
ENDBRANCH   8   9
ENDBRANCH   7   8
ENDBRANCH   1   7
TORSDOF 6
ENDMDL
MODEL 4
REMARK VINA RESULT:    -2.899     13.854     14.268
REMARK INTER + INTRA:          -4.084
REMARK INTER:                  -3.899
REMARK INTRA:                  -0.185
REMARK UNBOUND:                -0.169
REMARK SMILES CCCCCCCC(=O)[O-]
REMARK SMILES IDX 5 1 6 2 7 3 8 4 9 5 10 6 4 7 3 8 2 9 1 10
REMARK H PARENT
REMARK Flexibility Score: inf
ROOT
ATOM      1  C   UNL     1       7.049   2.456  -9.126  1.00  0.00     0.000 C 
ENDROOT
BRANCH   1   2
ATOM      2  C   UNL     1       6.628   3.761  -9.824  1.00  0.00     0.006 C 
BRANCH   2   3
ATOM      3  C   UNL     1       7.460   4.962  -9.356  1.00  0.00     0.053 C 
BRANCH   3   4
ATOM      4  C   UNL     1       6.724   6.255  -9.539  1.00  0.00     0.041 C 
ATOM      5  O   UNL     1       7.359   7.319  -9.759  1.00  0.00    -0.550 OA
ATOM      6  O   UNL     1       5.336   6.278  -9.495  1.00  0.00    -0.550 OA
ENDBRANCH   3   4
ENDBRANCH   2   3
ENDBRANCH   1   2
BRANCH   1   7
ATOM      7  C   UNL     1       7.499   1.373 -10.119  1.00  0.00     0.000 C 
BRANCH   7   8
ATOM      8  C   UNL     1       7.919   0.069  -9.424  1.00  0.00    -0.000 C 
BRANCH   8   9
ATOM      9  C   UNL     1       9.442  -0.005  -9.271  1.00  0.00    -0.003 C 
ATOM     10  C   UNL     1       9.862   0.206  -7.819  1.00  0.00     0.004 C 
ENDBRANCH   8   9
ENDBRANCH   7   8
ENDBRANCH   1   7
TORSDOF 6
ENDMDL
MODEL 5
REMARK VINA RESULT:    -2.887     10.540     12.130
REMARK INTER + INTRA:          -4.069
REMARK INTER:                  -3.575
REMARK INTRA:                  -0.494
REMARK UNBOUND:                -0.169
REMARK SMILES CCCCCCCC(=O)[O-]
REMARK SMILES IDX 5 1 6 2 7 3 8 4 9 5 10 6 4 7 3 8 2 9 1 10
REMARK H PARENT
REMARK Flexibility Score: inf
ROOT
ATOM      1  C   UNL     1      -6.602   9.741  -9.083  1.00  0.00     0.000 C 
ENDROOT
BRANCH   1   2
ATOM      2  C   UNL     1      -6.392   8.261  -8.718  1.00  0.00     0.006 C 
BRANCH   2   3
ATOM      3  C   UNL     1      -6.971   7.917  -7.340  1.00  0.00     0.053 C 
BRANCH   3   4
ATOM      4  C   UNL     1      -7.152   6.440  -7.165  1.00  0.00     0.041 C 
ATOM      5  O   UNL     1      -8.021   5.999  -6.367  1.00  0.00    -0.550 OA
ATOM      6  O   UNL     1      -6.382   5.551  -7.904  1.00  0.00    -0.550 OA
ENDBRANCH   3   4
ENDBRANCH   2   3
ENDBRANCH   1   2
BRANCH   1   7
ATOM      7  C   UNL     1      -8.088  10.125  -9.166  1.00  0.00     0.000 C 
BRANCH   7   8
ATOM      8  C   UNL     1      -8.880   9.223 -10.125  1.00  0.00    -0.000 C 
BRANCH   8   9
ATOM      9  C   UNL     1     -10.124   8.650  -9.435  1.00  0.00    -0.003 C 
ATOM     10  C   UNL     1     -10.092   7.124  -9.421  1.00  0.00     0.004 C 
ENDBRANCH   8   9
ENDBRANCH   7   8
ENDBRANCH   1   7
TORSDOF 6
ENDMDL
MODEL 6
REMARK VINA RESULT:    -2.879     10.332     12.290
REMARK INTER + INTRA:          -4.057
REMARK INTER:                  -3.665
REMARK INTRA:                  -0.392
REMARK UNBOUND:                -0.169
REMARK SMILES CCCCCCCC(=O)[O-]
REMARK SMILES IDX 5 1 6 2 7 3 8 4 9 5 10 6 4 7 3 8 2 9 1 10
REMARK H PARENT
REMARK Flexibility Score: inf
ROOT
ATOM      1  C   UNL     1      -7.732   9.043  -9.495  1.00  0.00     0.000 C 
ENDROOT
BRANCH   1   2
ATOM      2  C   UNL     1      -8.934   8.368  -8.812  1.00  0.00     0.006 C 
BRANCH   2   3
ATOM      3  C   UNL     1      -8.734   6.856  -8.648  1.00  0.00     0.053 C 
BRANCH   3   4
ATOM      4  C   UNL     1      -7.558   6.541  -7.774  1.00  0.00     0.041 C 
ATOM      5  O   UNL     1      -6.543   5.974  -8.257  1.00  0.00    -0.550 OA
ATOM      6  O   UNL     1      -7.572   6.900  -6.432  1.00  0.00    -0.550 OA
ENDBRANCH   3   4
ENDBRANCH   2   3
ENDBRANCH   1   2
BRANCH   1   7
ATOM      7  C   UNL     1      -7.070  10.109  -8.609  1.00  0.00     0.000 C 
BRANCH   7   8
ATOM      8  C   UNL     1      -5.593   9.805  -8.317  1.00  0.00    -0.000 C 
BRANCH   8   9
ATOM      9  C   UNL     1      -4.731  10.030  -9.565  1.00  0.00    -0.003 C 
ATOM     10  C   UNL     1      -3.908   8.789  -9.898  1.00  0.00     0.004 C 
ENDBRANCH   8   9
ENDBRANCH   7   8
ENDBRANCH   1   7
TORSDOF 6
ENDMDL
MODEL 7
REMARK VINA RESULT:    -2.820     12.824     14.014
REMARK INTER + INTRA:          -3.978
REMARK INTER:                  -3.688
REMARK INTRA:                  -0.290
REMARK UNBOUND:                -0.169
REMARK SMILES CCCCCCCC(=O)[O-]
REMARK SMILES IDX 5 1 6 2 7 3 8 4 9 5 10 6 4 7 3 8 2 9 1 10
REMARK H PARENT
REMARK Flexibility Score: inf
ROOT
ATOM      1  C   UNL     1       2.103  -7.658   8.899  1.00  0.00     0.000 C 
ENDROOT
BRANCH   1   2
ATOM      2  C   UNL     1       1.648  -6.723  10.032  1.00  0.00     0.006 C 
BRANCH   2   3
ATOM      3  C   UNL     1       0.418  -5.894   9.640  1.00  0.00     0.053 C 
BRANCH   3   4
ATOM      4  C   UNL     1       0.774  -4.770   8.716  1.00  0.00     0.041 C 
ATOM      5  O   UNL     1       1.394  -3.764   9.151  1.00  0.00    -0.550 OA
ATOM      6  O   UNL     1       0.448  -4.846   7.368  1.00  0.00    -0.550 OA
ENDBRANCH   3   4
ENDBRANCH   2   3
ENDBRANCH   1   2
BRANCH   1   7
ATOM      7  C   UNL     1       2.574  -9.027   9.415  1.00  0.00     0.000 C 
BRANCH   7   8
ATOM      8  C   UNL     1       4.045  -9.315   9.078  1.00  0.00    -0.000 C 
BRANCH   8   9
ATOM      9  C   UNL     1       4.781  -8.026   8.693  1.00  0.00    -0.003 C 
ATOM     10  C   UNL     1       5.598  -7.487   9.863  1.00  0.00     0.004 C 
ENDBRANCH   8   9
ENDBRANCH   7   8
ENDBRANCH   1   7
TORSDOF 6
ENDMDL
