MODEL 1
REMARK VINA RESULT:    -6.178      0.000      0.000
REMARK INTER + INTRA:          -7.093
REMARK INTER:                  -6.901
REMARK INTRA:                  -0.192
REMARK UNBOUND:                -0.192
REMARK SMILES CC(C)c1ccc(C=O)cc1
REMARK SMILES IDX 4 1 5 2 6 3 7 4 10 5 11 6 2 7 1 8 3 9 8 10 9 11
REMARK H PARENT
REMARK Flexibility Score: inf
ROOT
ATOM      1  C   UNL     1     -12.631   2.334  -9.349  1.00  0.00    -0.045 A 
ATOM      2  C   UNL     1     -13.954   1.947  -9.637  1.00  0.00     0.005 A 
ATOM      3  C   UNL     1     -14.234   0.650 -10.075  1.00  0.00     0.012 A 
ATOM      4  C   UNL     1     -13.198  -0.286 -10.232  1.00  0.00     0.014 A 
ATOM      5  C   UNL     1     -11.881   0.097  -9.946  1.00  0.00     0.012 A 
ATOM      6  C   UNL     1     -11.599   1.394  -9.508  1.00  0.00     0.005 A 
ENDROOT
BRANCH   1   7
ATOM      7  C   UNL     1     -12.312   3.739  -8.874  1.00  0.00     0.013 C 
ATOM      8  C   UNL     1     -10.920   3.805  -8.236  1.00  0.00     0.012 C 
ATOM      9  C   UNL     1     -13.386   4.253  -7.909  1.00  0.00     0.012 C 
ENDBRANCH   1   7
BRANCH   4  10
ATOM     10  C   UNL     1     -13.475  -1.659 -10.693  1.00  0.00     0.260 C 
ATOM     11  O   UNL     1     -13.061  -2.658 -10.048  1.00  0.00    -0.298 OA
ENDBRANCH   4  10
TORSDOF 2
ENDMDL
MODEL 2
REMARK VINA RESULT:    -5.900      2.475      5.004
REMARK INTER + INTRA:          -6.782
REMARK INTER:                  -6.587
REMARK INTRA:                  -0.195
REMARK UNBOUND:                -0.192
REMARK SMILES CC(C)c1ccc(C=O)cc1
REMARK SMILES IDX 4 1 5 2 6 3 7 4 10 5 11 6 2 7 1 8 3 9 8 10 9 11
REMARK H PARENT
REMARK Flexibility Score: inf
ROOT
ATOM      1  C   UNL     1     -13.395   0.173 -10.031  1.00  0.00    -0.045 A 
ATOM      2  C   UNL     1     -12.034   0.460  -9.816  1.00  0.00     0.005 A 
ATOM      3  C   UNL     1     -11.638   1.727  -9.378  1.00  0.00     0.012 A 
ATOM      4  C   UNL     1     -12.594   2.729  -9.146  1.00  0.00     0.014 A 
ATOM      5  C   UNL     1     -13.950   2.445  -9.360  1.00  0.00     0.012 A 
ATOM      6  C   UNL     1     -14.347   1.179  -9.798  1.00  0.00     0.005 A 
ENDROOT
BRANCH   1   7
ATOM      7  C   UNL     1     -13.839  -1.198 -10.507  1.00  0.00     0.013 C 
ATOM      8  C   UNL     1     -15.098  -1.661  -9.764  1.00  0.00     0.012 C 
ATOM      9  C   UNL     1     -12.709  -2.224 -10.371  1.00  0.00     0.012 C 
ENDBRANCH   1   7
BRANCH   4  10
ATOM     10  C   UNL     1     -12.195   4.072  -8.684  1.00  0.00     0.260 C 
ATOM     11  O   UNL     1     -13.037   5.004  -8.589  1.00  0.00    -0.298 OA
ENDBRANCH   4  10
TORSDOF 2
ENDMDL
MODEL 3
REMARK VINA RESULT:    -5.899      2.482      4.787
REMARK INTER + INTRA:          -6.781
REMARK INTER:                  -6.587
REMARK INTRA:                  -0.194
REMARK UNBOUND:                -0.192
REMARK SMILES CC(C)c1ccc(C=O)cc1
REMARK SMILES IDX 4 1 5 2 6 3 7 4 10 5 11 6 2 7 1 8 3 9 8 10 9 11
REMARK H PARENT
REMARK Flexibility Score: inf
ROOT
ATOM      1  C   UNL     1     -13.350   0.187 -10.026  1.00  0.00    -0.045 A 
ATOM      2  C   UNL     1     -14.324   1.173  -9.782  1.00  0.00     0.005 A 
ATOM      3  C   UNL     1     -13.951   2.442  -9.330  1.00  0.00     0.012 A 
ATOM      4  C   UNL     1     -12.598   2.749  -9.115  1.00  0.00     0.014 A 
ATOM      5  C   UNL     1     -11.626   1.768  -9.357  1.00  0.00     0.012 A 
ATOM      6  C   UNL     1     -11.998   0.499  -9.809  1.00  0.00     0.005 A 
ENDROOT
BRANCH   1   7
ATOM      7  C   UNL     1     -13.741  -1.196 -10.517  1.00  0.00     0.013 C 
ATOM      8  C   UNL     1     -15.025  -1.683  -9.834  1.00  0.00     0.012 C 
ATOM      9  C   UNL     1     -12.597  -2.196 -10.319  1.00  0.00     0.012 C 
ENDBRANCH   1   7
BRANCH   4  10
ATOM     10  C   UNL     1     -12.185   4.082  -8.638  1.00  0.00     0.260 C 
ATOM     11  O   UNL     1     -13.009   5.033  -8.572  1.00  0.00    -0.298 OA
ENDBRANCH   4  10
TORSDOF 2
ENDMDL
MODEL 4
REMARK VINA RESULT:    -5.722      1.837      2.627
REMARK INTER + INTRA:          -6.584
REMARK INTER:                  -6.390
REMARK INTRA:                  -0.193
REMARK UNBOUND:                -0.192
REMARK SMILES CC(C)c1ccc(C=O)cc1
REMARK SMILES IDX 4 1 5 2 6 3 7 4 10 5 11 6 2 7 1 8 3 9 8 10 9 11
REMARK H PARENT
REMARK Flexibility Score: inf
ROOT
ATOM      1  C   UNL     1     -12.670   0.493  -9.890  1.00  0.00    -0.045 A 
ATOM      2  C   UNL     1     -13.340  -0.685 -10.271  1.00  0.00     0.005 A 
ATOM      3  C   UNL     1     -12.670  -1.911 -10.278  1.00  0.00     0.012 A 
ATOM      4  C   UNL     1     -11.319  -1.984  -9.903  1.00  0.00     0.014 A 
ATOM      5  C   UNL     1     -10.649  -0.812  -9.524  1.00  0.00     0.012 A 
ATOM      6  C   UNL     1     -11.318   0.415  -9.516  1.00  0.00     0.005 A 
ENDROOT
BRANCH   1   7
ATOM      7  C   UNL     1     -13.385   1.832  -9.878  1.00  0.00     0.013 C 
ATOM      8  C   UNL     1     -12.480   2.938  -9.323  1.00  0.00     0.012 C 
ATOM      9  C   UNL     1     -14.700   1.749  -9.095  1.00  0.00     0.012 C 
ENDBRANCH   1   7
BRANCH   4  10
ATOM     10  C   UNL     1     -10.595  -3.269  -9.905  1.00  0.00     0.260 C 
ATOM     11  O   UNL     1      -9.336  -3.307  -9.897  1.00  0.00    -0.298 OA
ENDBRANCH   4  10
TORSDOF 2
ENDMDL
MODEL 5
REMARK VINA RESULT:    -5.186      2.829      4.524
REMARK INTER + INTRA:          -5.985
REMARK INTER:                  -5.794
REMARK INTRA:                  -0.191
REMARK UNBOUND:                -0.192
REMARK SMILES CC(C)c1ccc(C=O)cc1
REMARK SMILES IDX 4 1 5 2 6 3 7 4 10 5 11 6 2 7 1 8 3 9 8 10 9 11
REMARK H PARENT
REMARK Flexibility Score: inf
ROOT
ATOM      1  C   UNL     1     -12.613  -1.209 -10.271  1.00  0.00    -0.045 A 
ATOM      2  C   UNL     1     -11.423  -0.477 -10.101  1.00  0.00     0.005 A 
ATOM      3  C   UNL     1     -10.238  -1.124  -9.738  1.00  0.00     0.012 A 
ATOM      4  C   UNL     1     -10.221  -2.515  -9.540  1.00  0.00     0.014 A 
ATOM      5  C   UNL     1     -11.405  -3.246  -9.708  1.00  0.00     0.012 A 
ATOM      6  C   UNL     1     -12.590  -2.599 -10.071  1.00  0.00     0.005 A 
ENDROOT
BRANCH   1   7
ATOM      7  C   UNL     1     -13.907  -0.519 -10.664  1.00  0.00     0.013 C 
ATOM      8  C   UNL     1     -14.073   0.811  -9.919  1.00  0.00     0.012 C 
ATOM      9  C   UNL     1     -15.113  -1.436 -10.435  1.00  0.00     0.012 C 
ENDBRANCH   1   7
BRANCH   4  10
ATOM     10  C   UNL     1      -8.980  -3.215  -9.157  1.00  0.00     0.260 C 
ATOM     11  O   UNL     1      -8.592  -3.242  -7.959  1.00  0.00    -0.298 OA
ENDBRANCH   4  10
TORSDOF 2
ENDMDL
MODEL 6
REMARK VINA RESULT:    -5.147      2.556      5.064
REMARK INTER + INTRA:          -5.941
REMARK INTER:                  -5.752
REMARK INTRA:                  -0.189
REMARK UNBOUND:                -0.192
REMARK SMILES CC(C)c1ccc(C=O)cc1
REMARK SMILES IDX 4 1 5 2 6 3 7 4 10 5 11 6 2 7 1 8 3 9 8 10 9 11
REMARK H PARENT
REMARK Flexibility Score: inf
ROOT
ATOM      1  C   UNL     1     -11.577  -1.907  -9.984  1.00  0.00    -0.045 A 
ATOM      2  C   UNL     1     -11.044  -0.634  -9.708  1.00  0.00     0.005 A 
ATOM      3  C   UNL     1     -11.865   0.497  -9.722  1.00  0.00     0.012 A 
ATOM      4  C   UNL     1     -13.234   0.377 -10.010  1.00  0.00     0.014 A 
ATOM      5  C   UNL     1     -13.768  -0.889 -10.287  1.00  0.00     0.012 A 
ATOM      6  C   UNL     1     -12.948  -2.021 -10.273  1.00  0.00     0.005 A 
ENDROOT
BRANCH   1   7
ATOM      7  C   UNL     1     -10.698  -3.144  -9.973  1.00  0.00     0.013 C 
ATOM      8  C   UNL     1     -11.347  -4.277  -9.170  1.00  0.00     0.012 C 
ATOM      9  C   UNL     1      -9.298  -2.822  -9.441  1.00  0.00     0.012 C 
ENDBRANCH   1   7
BRANCH   4  10
ATOM     10  C   UNL     1     -14.115   1.560 -10.030  1.00  0.00     0.260 C 
ATOM     11  O   UNL     1     -14.818   1.864  -9.030  1.00  0.00    -0.298 OA
ENDBRANCH   4  10
TORSDOF 2
ENDMDL
MODEL 7
REMARK VINA RESULT:    -5.137      4.840      7.105
REMARK INTER + INTRA:          -5.930
REMARK INTER:                  -5.749
REMARK INTRA:                  -0.181
REMARK UNBOUND:                -0.192
REMARK SMILES CC(C)c1ccc(C=O)cc1
REMARK SMILES IDX 4 1 5 2 6 3 7 4 10 5 11 6 2 7 1 8 3 9 8 10 9 11
REMARK H PARENT
REMARK Flexibility Score: inf
ROOT
ATOM      1  C   UNL     1     -10.313  -4.676  -7.725  1.00  0.00    -0.045 A 
ATOM      2  C   UNL     1     -11.110  -4.575  -8.881  1.00  0.00     0.005 A 
ATOM      3  C   UNL     1     -11.199  -3.367  -9.578  1.00  0.00     0.012 A 
ATOM      4  C   UNL     1     -10.491  -2.238  -9.134  1.00  0.00     0.014 A 
ATOM      5  C   UNL     1      -9.697  -2.336  -7.983  1.00  0.00     0.012 A 
ATOM      6  C   UNL     1      -9.607  -3.544  -7.286  1.00  0.00     0.005 A 
ENDROOT
BRANCH   1   7
ATOM      7  C   UNL     1     -10.207  -5.982  -6.958  1.00  0.00     0.013 C 
ATOM      8  C   UNL     1     -10.322  -7.187  -7.899  1.00  0.00     0.012 C 
ATOM      9  C   UNL     1     -11.253  -6.052  -5.841  1.00  0.00     0.012 C 
ENDBRANCH   1   7
BRANCH   4  10
ATOM     10  C   UNL     1     -10.574  -0.954  -9.857  1.00  0.00     0.260 C 
ATOM     11  O   UNL     1     -10.941   0.099  -9.272  1.00  0.00    -0.298 OA
ENDBRANCH   4  10
TORSDOF 2
ENDMDL
MODEL 8
REMARK VINA RESULT:    -4.971      3.908      5.425
REMARK INTER + INTRA:          -5.745
REMARK INTER:                  -5.553
REMARK INTRA:                  -0.192
REMARK UNBOUND:                -0.192
REMARK SMILES CC(C)c1ccc(C=O)cc1
REMARK SMILES IDX 4 1 5 2 6 3 7 4 10 5 11 6 2 7 1 8 3 9 8 10 9 11
REMARK H PARENT
REMARK Flexibility Score: inf
ROOT
ATOM      1  C   UNL     1     -10.897  -2.110  -9.381  1.00  0.00    -0.045 A 
ATOM      2  C   UNL     1      -9.930  -2.063  -8.360  1.00  0.00     0.005 A 
ATOM      3  C   UNL     1      -9.605  -3.214  -7.636  1.00  0.00     0.012 A 
ATOM      4  C   UNL     1     -10.240  -4.434  -7.922  1.00  0.00     0.014 A 
ATOM      5  C   UNL     1     -11.204  -4.484  -8.938  1.00  0.00     0.012 A 
ATOM      6  C   UNL     1     -11.529  -3.333  -9.662  1.00  0.00     0.005 A 
ENDROOT
BRANCH   1   7
ATOM      7  C   UNL     1     -11.260  -0.868 -10.174  1.00  0.00     0.013 C 
ATOM      8  C   UNL     1     -11.071   0.400  -9.333  1.00  0.00     0.012 C 
ATOM      9  C   UNL     1     -12.688  -0.960 -10.722  1.00  0.00     0.012 C 
ENDBRANCH   1   7
BRANCH   4  10
ATOM     10  C   UNL     1      -9.911  -5.659  -7.169  1.00  0.00     0.260 C 
ATOM     11  O   UNL     1     -10.126  -5.740  -5.931  1.00  0.00    -0.298 OA
ENDBRANCH   4  10
TORSDOF 2
ENDMDL
MODEL 9
REMARK VINA RESULT:    -4.883      5.970      7.854
REMARK INTER + INTRA:          -5.646
REMARK INTER:                  -5.465
REMARK INTRA:                  -0.181
REMARK UNBOUND:                -0.192
REMARK SMILES CC(C)c1ccc(C=O)cc1
REMARK SMILES IDX 4 1 5 2 6 3 7 4 10 5 11 6 2 7 1 8 3 9 8 10 9 11
REMARK H PARENT
REMARK Flexibility Score: inf
ROOT
ATOM      1  C   UNL     1     -11.402  -5.511  -6.634  1.00  0.00    -0.045 A 
ATOM      2  C   UNL     1     -11.919  -5.500  -7.944  1.00  0.00     0.005 A 
ATOM      3  C   UNL     1     -11.313  -4.727  -8.938  1.00  0.00     0.012 A 
ATOM      4  C   UNL     1     -10.179  -3.953  -8.643  1.00  0.00     0.014 A 
ATOM      5  C   UNL     1      -9.663  -3.962  -7.340  1.00  0.00     0.012 A 
ATOM      6  C   UNL     1     -10.268  -4.735  -6.345  1.00  0.00     0.005 A 
ENDROOT
BRANCH   1   7
ATOM      7  C   UNL     1     -12.050  -6.346  -5.544  1.00  0.00     0.013 C 
ATOM      8  C   UNL     1     -11.279  -7.651  -5.315  1.00  0.00     0.012 C 
ATOM      9  C   UNL     1     -13.523  -6.623  -5.863  1.00  0.00     0.012 C 
ENDBRANCH   1   7
BRANCH   4  10
ATOM     10  C   UNL     1      -9.526  -3.130  -9.680  1.00  0.00     0.260 C 
ATOM     11  O   UNL     1      -9.929  -1.964  -9.934  1.00  0.00    -0.298 OA
ENDBRANCH   4  10
TORSDOF 2
ENDMDL
