MODEL 1
REMARK VINA RESULT:    -3.704      0.000      0.000
REMARK INTER + INTRA:          -6.570
REMARK INTER:                  -5.329
REMARK INTRA:                  -1.241
REMARK UNBOUND:                -1.241
REMARK SMILES O=C(CO)[C@@H](O)[C@H](O)[C@@H](O)CO
REMARK SMILES IDX 7 1 9 2 11 3 12 4 10 6 5 8 2 9 1 10 3 11 4 12 6 14 8 16
REMARK H PARENT 12 5 10 7 4 13 6 15 8 17
REMARK Flexibility Score: inf
ROOT
ATOM      1  C   UNL     1      70.669  34.355  57.954  1.00  0.00     0.181 C 
ENDROOT
BRANCH   1   2
ATOM      2  C   UNL     1      69.780  35.630  57.996  1.00  0.00     0.171 C 
BRANCH   2   3
ATOM      3  C   UNL     1      70.595  36.921  57.781  1.00  0.00     0.190 C 
BRANCH   3   4
ATOM      4  O   UNL     1      71.499  37.125  58.834  1.00  0.00    -0.394 OA
ATOM      5  H   UNL     1      71.514  36.284  59.363  1.00  0.00     0.210 HD
ENDBRANCH   3   4
ENDBRANCH   2   3
BRANCH   2   6
ATOM      6  O   UNL     1      69.041  35.701  59.192  1.00  0.00    -0.388 OA
ATOM      7  H   UNL     1      68.093  35.877  58.956  1.00  0.00     0.211 HD
ENDBRANCH   2   6
ENDBRANCH   1   2
BRANCH   1   8
ATOM      8  C   UNL     1      70.738  33.626  59.327  1.00  0.00     0.214 C 
BRANCH   8   9
ATOM      9  C   UNL     1      71.372  32.253  59.228  1.00  0.00     0.189 C 
ATOM     10  O   UNL     1      71.749  31.849  58.138  1.00  0.00    -0.294 OA
BRANCH   9  11
ATOM     11  C   UNL     1      71.571  31.373  60.435  1.00  0.00     0.234 C 
BRANCH  11  12
ATOM     12  O   UNL     1      72.577  31.902  61.256  1.00  0.00    -0.388 OA
ATOM     13  H   UNL     1      72.124  32.288  62.051  1.00  0.00     0.211 HD
ENDBRANCH  11  12
ENDBRANCH   9  11
ENDBRANCH   8   9
BRANCH   8  14
ATOM     14  O   UNL     1      71.412  34.404  60.284  1.00  0.00    -0.382 OA
ATOM     15  H   UNL     1      72.271  34.706  59.888  1.00  0.00     0.211 HD
ENDBRANCH   8  14
ENDBRANCH   1   8
BRANCH   1  16
ATOM     16  O   UNL     1      71.962  34.659  57.487  1.00  0.00    -0.387 OA
ATOM     17  H   UNL     1      72.220  33.968  56.824  1.00  0.00     0.211 HD
ENDBRANCH   1  16
TORSDOF 10
ENDMDL
MODEL 2
REMARK VINA RESULT:    -3.488     21.725     22.908
REMARK INTER + INTRA:          -6.258
REMARK INTER:                  -5.057
REMARK INTRA:                  -1.201
REMARK UNBOUND:                -1.241
REMARK SMILES O=C(CO)[C@@H](O)[C@H](O)[C@@H](O)CO
REMARK SMILES IDX 7 1 9 2 11 3 12 4 10 6 5 8 2 9 1 10 3 11 4 12 6 14 8 16
REMARK H PARENT 12 5 10 7 4 13 6 15 8 17
REMARK Flexibility Score: inf
ROOT
ATOM      1  C   UNL     1      55.546  19.406  52.884  1.00  0.00     0.181 C 
ENDROOT
BRANCH   1   2
ATOM      2  C   UNL     1      55.480  18.916  51.410  1.00  0.00     0.171 C 
BRANCH   2   3
ATOM      3  C   UNL     1      56.878  18.638  50.821  1.00  0.00     0.190 C 
BRANCH   3   4
ATOM      4  O   UNL     1      56.881  17.452  50.074  1.00  0.00    -0.394 OA
ATOM      5  H   UNL     1      56.244  16.833  50.519  1.00  0.00     0.210 HD
ENDBRANCH   3   4
ENDBRANCH   2   3
BRANCH   2   6
ATOM      6  O   UNL     1      54.770  19.821  50.600  1.00  0.00    -0.388 OA
ATOM      7  H   UNL     1      55.389  20.159  49.902  1.00  0.00     0.211 HD
ENDBRANCH   2   6
ENDBRANCH   1   2
BRANCH   1   8
ATOM      8  C   UNL     1      54.142  19.513  53.544  1.00  0.00     0.214 C 
BRANCH   8   9
ATOM      9  C   UNL     1      53.862  20.895  54.103  1.00  0.00     0.189 C 
ATOM     10  O   UNL     1      54.352  21.211  55.177  1.00  0.00    -0.294 OA
BRANCH   9  11
ATOM     11  C   UNL     1      53.015  21.900  53.368  1.00  0.00     0.234 C 
BRANCH  11  12
ATOM     12  O   UNL     1      53.495  22.074  52.062  1.00  0.00    -0.388 OA
ATOM     13  H   UNL     1      54.386  21.635  52.025  1.00  0.00     0.211 HD
ENDBRANCH  11  12
ENDBRANCH   9  11
ENDBRANCH   8   9
BRANCH   8  14
ATOM     14  O   UNL     1      53.126  19.138  52.647  1.00  0.00    -0.382 OA
ATOM     15  H   UNL     1      52.849  18.210  52.865  1.00  0.00     0.211 HD
ENDBRANCH   8  14
ENDBRANCH   1   8
BRANCH   1  16
ATOM     16  O   UNL     1      56.234  20.631  52.977  1.00  0.00    -0.387 OA
ATOM     17  H   UNL     1      55.610  21.355  52.710  1.00  0.00     0.211 HD
ENDBRANCH   1  16
TORSDOF 10
ENDMDL
MODEL 3
REMARK VINA RESULT:    -3.238     22.236     23.039
REMARK INTER + INTRA:          -5.898
REMARK INTER:                  -4.927
REMARK INTRA:                  -0.972
REMARK UNBOUND:                -1.241
REMARK SMILES O=C(CO)[C@@H](O)[C@H](O)[C@@H](O)CO
REMARK SMILES IDX 7 1 9 2 11 3 12 4 10 6 5 8 2 9 1 10 3 11 4 12 6 14 8 16
REMARK H PARENT 12 5 10 7 4 13 6 15 8 17
REMARK Flexibility Score: inf
ROOT
ATOM      1  C   UNL     1      55.426  19.209  52.919  1.00  0.00     0.181 C 
ENDROOT
BRANCH   1   2
ATOM      2  C   UNL     1      54.359  20.340  52.899  1.00  0.00     0.171 C 
BRANCH   2   3
ATOM      3  C   UNL     1      53.109  19.980  53.727  1.00  0.00     0.190 C 
BRANCH   3   4
ATOM      4  O   UNL     1      53.423  19.870  55.089  1.00  0.00    -0.394 OA
ATOM      5  H   UNL     1      53.893  20.708  55.342  1.00  0.00     0.210 HD
ENDBRANCH   3   4
ENDBRANCH   2   3
BRANCH   2   6
ATOM      6  O   UNL     1      54.003  20.686  51.583  1.00  0.00    -0.388 OA
ATOM      7  H   UNL     1      54.830  20.936  51.097  1.00  0.00     0.211 HD
ENDBRANCH   2   6
ENDBRANCH   1   2
BRANCH   1   8
ATOM      8  C   UNL     1      56.015  18.915  51.509  1.00  0.00     0.214 C 
BRANCH   8   9
ATOM      9  C   UNL     1      57.350  18.199  51.571  1.00  0.00     0.189 C 
ATOM     10  O   UNL     1      57.809  17.890  52.660  1.00  0.00    -0.294 OA
BRANCH   9  11
ATOM     11  C   UNL     1      58.124  17.838  50.330  1.00  0.00     0.234 C 
BRANCH  11  12
ATOM     12  O   UNL     1      57.368  16.976  49.523  1.00  0.00    -0.388 OA
ATOM     13  H   UNL     1      57.843  16.908  48.654  1.00  0.00     0.211 HD
ENDBRANCH  11  12
ENDBRANCH   9  11
ENDBRANCH   8   9
BRANCH   8  14
ATOM     14  O   UNL     1      55.109  18.184  50.720  1.00  0.00    -0.382 OA
ATOM     15  H   UNL     1      55.528  17.313  50.495  1.00  0.00     0.211 HD
ENDBRANCH   8  14
ENDBRANCH   1   8
BRANCH   1  16
ATOM     16  O   UNL     1      54.905  18.035  53.494  1.00  0.00    -0.387 OA
ATOM     17  H   UNL     1      55.278  17.259  53.001  1.00  0.00     0.211 HD
ENDBRANCH   1  16
TORSDOF 10
ENDMDL
MODEL 4
REMARK VINA RESULT:    -3.206     11.667     13.146
REMARK INTER + INTRA:          -5.852
REMARK INTER:                  -4.476
REMARK INTRA:                  -1.376
REMARK UNBOUND:                -1.241
REMARK SMILES O=C(CO)[C@@H](O)[C@H](O)[C@@H](O)CO
REMARK SMILES IDX 7 1 9 2 11 3 12 4 10 6 5 8 2 9 1 10 3 11 4 12 6 14 8 16
REMARK H PARENT 12 5 10 7 4 13 6 15 8 17
REMARK Flexibility Score: inf
ROOT
ATOM      1  C   UNL     1      63.408  31.297  50.459  1.00  0.00     0.181 C 
ENDROOT
BRANCH   1   2
ATOM      2  C   UNL     1      62.191  30.397  50.813  1.00  0.00     0.171 C 
BRANCH   2   3
ATOM      3  C   UNL     1      62.515  28.895  50.678  1.00  0.00     0.190 C 
BRANCH   3   4
ATOM      4  O   UNL     1      62.763  28.554  49.340  1.00  0.00    -0.394 OA
ATOM      5  H   UNL     1      63.746  28.451  49.250  1.00  0.00     0.210 HD
ENDBRANCH   3   4
ENDBRANCH   2   3
BRANCH   2   6
ATOM      6  O   UNL     1      61.062  30.734  50.045  1.00  0.00    -0.388 OA
ATOM      7  H   UNL     1      60.860  29.970  49.444  1.00  0.00     0.211 HD
ENDBRANCH   2   6
ENDBRANCH   1   2
BRANCH   1   8
ATOM      8  C   UNL     1      63.247  32.755  50.978  1.00  0.00     0.214 C 
BRANCH   8   9
ATOM      9  C   UNL     1      63.543  33.792  49.913  1.00  0.00     0.189 C 
ATOM     10  O   UNL     1      64.706  34.052  49.644  1.00  0.00    -0.294 OA
BRANCH   9  11
ATOM     11  C   UNL     1      62.449  34.502  49.159  1.00  0.00     0.234 C 
BRANCH  11  12
ATOM     12  O   UNL     1      61.542  33.570  48.633  1.00  0.00    -0.388 OA
ATOM     13  H   UNL     1      61.852  33.357  47.714  1.00  0.00     0.211 HD
ENDBRANCH  11  12
ENDBRANCH   9  11
ENDBRANCH   8   9
BRANCH   8  14
ATOM     14  O   UNL     1      61.966  32.966  51.518  1.00  0.00    -0.382 OA
ATOM     15  H   UNL     1      61.352  32.289  51.130  1.00  0.00     0.211 HD
ENDBRANCH   8  14
ENDBRANCH   1   8
BRANCH   1  16
ATOM     16  O   UNL     1      63.653  31.289  49.072  1.00  0.00    -0.387 OA
ATOM     17  H   UNL     1      63.617  32.226  48.748  1.00  0.00     0.211 HD
ENDBRANCH   1  16
TORSDOF 10
ENDMDL
MODEL 5
REMARK VINA RESULT:    -3.192      1.470      4.220
REMARK INTER + INTRA:          -5.832
REMARK INTER:                  -4.652
REMARK INTRA:                  -1.180
REMARK UNBOUND:                -1.241
REMARK SMILES O=C(CO)[C@@H](O)[C@H](O)[C@@H](O)CO
REMARK SMILES IDX 7 1 9 2 11 3 12 4 10 6 5 8 2 9 1 10 3 11 4 12 6 14 8 16
REMARK H PARENT 12 5 10 7 4 13 6 15 8 17
REMARK Flexibility Score: inf
ROOT
ATOM      1  C   UNL     1      70.712  33.257  58.211  1.00  0.00     0.181 C 
ENDROOT
BRANCH   1   2
ATOM      2  C   UNL     1      71.326  33.353  59.636  1.00  0.00     0.171 C 
BRANCH   2   3
ATOM      3  C   UNL     1      71.488  31.971  60.298  1.00  0.00     0.190 C 
BRANCH   3   4
ATOM      4  O   UNL     1      72.545  31.977  61.220  1.00  0.00    -0.394 OA
ATOM      5  H   UNL     1      72.209  31.532  62.042  1.00  0.00     0.210 HD
ENDBRANCH   3   4
ENDBRANCH   2   3
BRANCH   2   6
ATOM      6  O   UNL     1      70.580  34.216  60.460  1.00  0.00    -0.388 OA
ATOM      7  H   UNL     1      71.081  35.067  60.546  1.00  0.00     0.211 HD
ENDBRANCH   2   6
ENDBRANCH   1   2
BRANCH   1   8
ATOM      8  C   UNL     1      70.682  34.629  57.476  1.00  0.00     0.214 C 
BRANCH   8   9
ATOM      9  C   UNL     1      69.281  35.051  57.083  1.00  0.00     0.189 C 
ATOM     10  O   UNL     1      68.770  34.560  56.088  1.00  0.00    -0.294 OA
BRANCH   9  11
ATOM     11  C   UNL     1      68.487  36.046  57.889  1.00  0.00     0.234 C 
BRANCH  11  12
ATOM     12  O   UNL     1      68.496  35.685  59.244  1.00  0.00    -0.388 OA
ATOM     13  H   UNL     1      69.437  35.762  59.554  1.00  0.00     0.211 HD
ENDBRANCH  11  12
ENDBRANCH   9  11
ENDBRANCH   8   9
BRANCH   8  14
ATOM     14  O   UNL     1      71.294  35.633  58.247  1.00  0.00    -0.382 OA
ATOM     15  H   UNL     1      72.251  35.397  58.359  1.00  0.00     0.211 HD
ENDBRANCH   8  14
ENDBRANCH   1   8
BRANCH   1  16
ATOM     16  O   UNL     1      69.424  32.691  58.255  1.00  0.00    -0.387 OA
ATOM     17  H   UNL     1      69.523  31.709  58.361  1.00  0.00     0.211 HD
ENDBRANCH   1  16
TORSDOF 10
ENDMDL
MODEL 6
REMARK VINA RESULT:    -3.155      1.687      2.844
REMARK INTER + INTRA:          -5.779
REMARK INTER:                  -4.610
REMARK INTRA:                  -1.170
REMARK UNBOUND:                -1.241
REMARK SMILES O=C(CO)[C@@H](O)[C@H](O)[C@@H](O)CO
REMARK SMILES IDX 7 1 9 2 11 3 12 4 10 6 5 8 2 9 1 10 3 11 4 12 6 14 8 16
REMARK H PARENT 12 5 10 7 4 13 6 15 8 17
REMARK Flexibility Score: inf
ROOT
ATOM      1  C   UNL     1      71.604  32.763  59.599  1.00  0.00     0.181 C 
ENDROOT
BRANCH   1   2
ATOM      2  C   UNL     1      70.747  33.270  58.405  1.00  0.00     0.171 C 
BRANCH   2   3
ATOM      3  C   UNL     1      70.487  34.789  58.474  1.00  0.00     0.190 C 
BRANCH   3   4
ATOM      4  O   UNL     1      69.857  35.136  59.677  1.00  0.00    -0.394 OA
ATOM      5  H   UNL     1      68.912  35.346  59.455  1.00  0.00     0.210 HD
ENDBRANCH   3   4
ENDBRANCH   2   3
BRANCH   2   6
ATOM      6  O   UNL     1      69.535  32.562  58.307  1.00  0.00    -0.388 OA
ATOM      7  H   UNL     1      68.999  32.755  59.119  1.00  0.00     0.211 HD
ENDBRANCH   2   6
ENDBRANCH   1   2
BRANCH   1   8
ATOM      8  C   UNL     1      72.105  31.303  59.400  1.00  0.00     0.214 C 
BRANCH   8   9
ATOM      9  C   UNL     1      71.361  30.307  60.267  1.00  0.00     0.189 C 
ATOM     10  O   UNL     1      70.212  30.008  59.977  1.00  0.00    -0.294 OA
BRANCH   9  11
ATOM     11  C   UNL     1      71.998  29.655  61.467  1.00  0.00     0.234 C 
BRANCH  11  12
ATOM     12  O   UNL     1      72.570  30.629  62.297  1.00  0.00    -0.388 OA
ATOM     13  H   UNL     1      73.240  31.116  61.747  1.00  0.00     0.211 HD
ENDBRANCH  11  12
ENDBRANCH   9  11
ENDBRANCH   8   9
BRANCH   8  14
ATOM     14  O   UNL     1      72.035  30.919  58.049  1.00  0.00    -0.382 OA
ATOM     15  H   UNL     1      72.580  31.557  57.519  1.00  0.00     0.211 HD
ENDBRANCH   8  14
ENDBRANCH   1   8
BRANCH   1  16
ATOM     16  O   UNL     1      70.901  32.885  60.812  1.00  0.00    -0.387 OA
ATOM     17  H   UNL     1      70.055  32.374  60.731  1.00  0.00     0.211 HD
ENDBRANCH   1  16
TORSDOF 10
ENDMDL
MODEL 7
REMARK VINA RESULT:    -3.123     21.367     22.711
REMARK INTER + INTRA:          -5.733
REMARK INTER:                  -4.983
REMARK INTRA:                  -0.750
REMARK UNBOUND:                -1.241
REMARK SMILES O=C(CO)[C@@H](O)[C@H](O)[C@@H](O)CO
REMARK SMILES IDX 7 1 9 2 11 3 12 4 10 6 5 8 2 9 1 10 3 11 4 12 6 14 8 16
REMARK H PARENT 12 5 10 7 4 13 6 15 8 17
REMARK Flexibility Score: inf
ROOT
ATOM      1  C   UNL     1      57.893  18.360  51.621  1.00  0.00     0.181 C 
ENDROOT
BRANCH   1   2
ATOM      2  C   UNL     1      58.365  17.309  50.577  1.00  0.00     0.171 C 
BRANCH   2   3
ATOM      3  C   UNL     1      59.684  17.716  49.891  1.00  0.00     0.190 C 
BRANCH   3   4
ATOM      4  O   UNL     1      59.966  16.875  48.805  1.00  0.00    -0.394 OA
ATOM      5  H   UNL     1      60.777  16.357  49.049  1.00  0.00     0.210 HD
ENDBRANCH   3   4
ENDBRANCH   2   3
BRANCH   2   6
ATOM      6  O   UNL     1      57.366  17.050  49.621  1.00  0.00    -0.388 OA
ATOM      7  H   UNL     1      57.575  16.183  49.186  1.00  0.00     0.211 HD
ENDBRANCH   2   6
ENDBRANCH   1   2
BRANCH   1   8
ATOM      8  C   UNL     1      56.362  18.629  51.551  1.00  0.00     0.214 C 
BRANCH   8   9
ATOM      9  C   UNL     1      55.839  19.353  52.776  1.00  0.00     0.189 C 
ATOM     10  O   UNL     1      56.636  19.838  53.565  1.00  0.00    -0.294 OA
BRANCH   9  11
ATOM     11  C   UNL     1      54.365  19.513  53.045  1.00  0.00     0.234 C 
BRANCH  11  12
ATOM     12  O   UNL     1      53.626  19.141  51.913  1.00  0.00    -0.388 OA
ATOM     13  H   UNL     1      53.614  18.148  51.893  1.00  0.00     0.211 HD
ENDBRANCH  11  12
ENDBRANCH   9  11
ENDBRANCH   8   9
BRANCH   8  14
ATOM     14  O   UNL     1      56.021  19.337  50.386  1.00  0.00    -0.382 OA
ATOM     15  H   UNL     1      56.860  19.575  49.912  1.00  0.00     0.211 HD
ENDBRANCH   8  14
ENDBRANCH   1   8
BRANCH   1  16
ATOM     16  O   UNL     1      58.614  19.561  51.488  1.00  0.00    -0.387 OA
ATOM     17  H   UNL     1      59.299  19.590  52.205  1.00  0.00     0.211 HD
ENDBRANCH   1  16
TORSDOF 10
ENDMDL
MODEL 8
REMARK VINA RESULT:    -3.120     21.340     22.401
REMARK INTER + INTRA:          -5.729
REMARK INTER:                  -4.635
REMARK INTRA:                  -1.094
REMARK UNBOUND:                -1.241
REMARK SMILES O=C(CO)[C@@H](O)[C@H](O)[C@@H](O)CO
REMARK SMILES IDX 7 1 9 2 11 3 12 4 10 6 5 8 2 9 1 10 3 11 4 12 6 14 8 16
REMARK H PARENT 12 5 10 7 4 13 6 15 8 17
REMARK Flexibility Score: inf
ROOT
ATOM      1  C   UNL     1      56.595  18.253  51.596  1.00  0.00     0.181 C 
ENDROOT
BRANCH   1   2
ATOM      2  C   UNL     1      56.360  19.245  52.769  1.00  0.00     0.171 C 
BRANCH   2   3
ATOM      3  C   UNL     1      54.871  19.609  52.940  1.00  0.00     0.190 C 
BRANCH   3   4
ATOM      4  O   UNL     1      54.121  19.183  51.835  1.00  0.00    -0.394 OA
ATOM      5  H   UNL     1      54.636  19.438  51.025  1.00  0.00     0.210 HD
ENDBRANCH   3   4
ENDBRANCH   2   3
BRANCH   2   6
ATOM      6  O   UNL     1      57.143  20.405  52.625  1.00  0.00    -0.388 OA
ATOM      7  H   UNL     1      57.274  20.568  51.655  1.00  0.00     0.211 HD
ENDBRANCH   2   6
ENDBRANCH   1   2
BRANCH   1   8
ATOM      8  C   UNL     1      58.019  17.627  51.615  1.00  0.00     0.214 C 
BRANCH   8   9
ATOM      9  C   UNL     1      58.888  18.114  50.472  1.00  0.00     0.189 C 
ATOM     10  O   UNL     1      59.273  19.274  50.472  1.00  0.00    -0.294 OA
BRANCH   9  11
ATOM     11  C   UNL     1      59.308  17.211  49.342  1.00  0.00     0.234 C 
BRANCH  11  12
ATOM     12  O   UNL     1      58.198  16.879  48.551  1.00  0.00    -0.388 OA
ATOM     13  H   UNL     1      57.556  16.405  49.144  1.00  0.00     0.211 HD
ENDBRANCH  11  12
ENDBRANCH   9  11
ENDBRANCH   8   9
BRANCH   8  14
ATOM     14  O   UNL     1      58.661  17.857  52.844  1.00  0.00    -0.382 OA
ATOM     15  H   UNL     1      59.241  17.076  53.041  1.00  0.00     0.211 HD
ENDBRANCH   8  14
ENDBRANCH   1   8
BRANCH   1  16
ATOM     16  O   UNL     1      56.340  18.870  50.356  1.00  0.00    -0.387 OA
ATOM     17  H   UNL     1      56.777  19.760  50.360  1.00  0.00     0.211 HD
ENDBRANCH   1  16
TORSDOF 10
ENDMDL
MODEL 9
REMARK VINA RESULT:    -3.084      1.506      4.817
REMARK INTER + INTRA:          -5.677
REMARK INTER:                  -4.447
REMARK INTRA:                  -1.230
REMARK UNBOUND:                -1.241
REMARK SMILES O=C(CO)[C@@H](O)[C@H](O)[C@@H](O)CO
REMARK SMILES IDX 7 1 9 2 11 3 12 4 10 6 5 8 2 9 1 10 3 11 4 12 6 14 8 16
REMARK H PARENT 12 5 10 7 4 13 6 15 8 17
REMARK Flexibility Score: inf
ROOT
ATOM      1  C   UNL     1      71.702  31.344  59.337  1.00  0.00     0.181 C 
ENDROOT
BRANCH   1   2
ATOM      2  C   UNL     1      72.387  30.598  60.517  1.00  0.00     0.171 C 
BRANCH   2   3
ATOM      3  C   UNL     1      71.418  29.651  61.252  1.00  0.00     0.190 C 
BRANCH   3   4
ATOM      4  O   UNL     1      70.439  30.375  61.947  1.00  0.00    -0.394 OA
ATOM      5  H   UNL     1      70.380  31.265  61.511  1.00  0.00     0.210 HD
ENDBRANCH   3   4
ENDBRANCH   2   3
BRANCH   2   6
ATOM      6  O   UNL     1      72.981  31.500  61.418  1.00  0.00    -0.388 OA
ATOM      7  H   UNL     1      73.232  32.317  60.914  1.00  0.00     0.211 HD
ENDBRANCH   2   6
ENDBRANCH   1   2
BRANCH   1   8
ATOM      8  C   UNL     1      71.571  32.873  59.589  1.00  0.00     0.214 C 
BRANCH   8   9
ATOM      9  C   UNL     1      70.918  33.603  58.431  1.00  0.00     0.189 C 
ATOM     10  O   UNL     1      71.016  33.138  57.305  1.00  0.00    -0.294 OA
BRANCH   9  11
ATOM     11  C   UNL     1      70.135  34.875  58.625  1.00  0.00     0.234 C 
BRANCH  11  12
ATOM     12  O   UNL     1      70.875  35.785  59.393  1.00  0.00    -0.388 OA
ATOM     13  H   UNL     1      70.224  36.429  59.779  1.00  0.00     0.211 HD
ENDBRANCH  11  12
ENDBRANCH   9  11
ENDBRANCH   8   9
BRANCH   8  14
ATOM     14  O   UNL     1      70.875  33.136  60.782  1.00  0.00    -0.382 OA
ATOM     15  H   UNL     1      69.991  33.521  60.546  1.00  0.00     0.211 HD
ENDBRANCH   8  14
ENDBRANCH   1   8
BRANCH   1  16
ATOM     16  O   UNL     1      70.446  30.779  59.046  1.00  0.00    -0.387 OA
ATOM     17  H   UNL     1      70.593  29.972  58.488  1.00  0.00     0.211 HD
ENDBRANCH   1  16
TORSDOF 10
ENDMDL
