MODEL 1
REMARK VINA RESULT:    -4.075      0.000      0.000
REMARK INTER + INTRA:          -5.401
REMARK INTER:                  -5.028
REMARK INTRA:                  -0.373
REMARK UNBOUND:                -0.373
REMARK SMILES C=CC[C@H](C)C(=O)CC
REMARK SMILES IDX 4 1 5 2 6 3 7 4 8 5 9 6 3 7 2 8 1 9
REMARK H PARENT
REMARK Flexibility Score: inf
ROOT
ATOM      1  C   UNL     1      17.018  17.137  13.738  1.00  0.00     0.057 C 
ATOM      2  C   UNL     1      16.968  18.086  12.533  1.00  0.00     0.016 C 
ENDROOT
BRANCH   1   3
ATOM      3  C   UNL     1      15.743  16.324  13.805  1.00  0.00     0.135 C 
ATOM      4  O   UNL     1      14.764  16.679  13.162  1.00  0.00    -0.299 OA
BRANCH   3   5
ATOM      5  C   UNL     1      15.649  15.087  14.660  1.00  0.00     0.072 C 
ATOM      6  C   UNL     1      14.882  15.378  15.946  1.00  0.00     0.012 C 
ENDBRANCH   3   5
ENDBRANCH   1   3
BRANCH   1   7
ATOM      7  C   UNL     1      17.224  17.904  15.061  1.00  0.00     0.038 C 
BRANCH   7   8
ATOM      8  C   UNL     1      18.295  17.287  15.921  1.00  0.00    -0.034 C 
ATOM      9  C   UNL     1      19.141  16.369  15.443  1.00  0.00     0.004 C 
ENDBRANCH   7   8
ENDBRANCH   1   7
TORSDOF 4
ENDMDL
MODEL 2
REMARK VINA RESULT:    -4.069      1.543      3.045
REMARK INTER + INTRA:          -5.393
REMARK INTER:                  -5.043
REMARK INTRA:                  -0.350
REMARK UNBOUND:                -0.373
REMARK SMILES C=CC[C@H](C)C(=O)CC
REMARK SMILES IDX 4 1 5 2 6 3 7 4 8 5 9 6 3 7 2 8 1 9
REMARK H PARENT
REMARK Flexibility Score: inf
ROOT
ATOM      1  C   UNL     1      16.576  17.342  14.260  1.00  0.00     0.057 C 
ATOM      2  C   UNL     1      17.412  17.962  15.388  1.00  0.00     0.016 C 
ENDROOT
BRANCH   1   3
ATOM      3  C   UNL     1      16.719  15.835  14.285  1.00  0.00     0.135 C 
ATOM      4  O   UNL     1      17.801  15.325  14.024  1.00  0.00    -0.299 OA
BRANCH   3   5
ATOM      5  C   UNL     1      15.550  14.945  14.614  1.00  0.00     0.072 C 
ATOM      6  C   UNL     1      14.889  15.382  15.917  1.00  0.00     0.012 C 
ENDBRANCH   3   5
ENDBRANCH   1   3
BRANCH   1   7
ATOM      7  C   UNL     1      16.987  17.888  12.877  1.00  0.00     0.038 C 
BRANCH   7   8
ATOM      8  C   UNL     1      16.094  17.385  11.773  1.00  0.00    -0.034 C 
ATOM      9  C   UNL     1      14.792  17.681  11.731  1.00  0.00     0.004 C 
ENDBRANCH   7   8
ENDBRANCH   1   7
TORSDOF 4
ENDMDL
MODEL 3
REMARK VINA RESULT:    -4.008      1.408      3.135
REMARK INTER + INTRA:          -5.318
REMARK INTER:                  -4.898
REMARK INTRA:                  -0.421
REMARK UNBOUND:                -0.373
REMARK SMILES C=CC[C@H](C)C(=O)CC
REMARK SMILES IDX 4 1 5 2 6 3 7 4 8 5 9 6 3 7 2 8 1 9
REMARK H PARENT
REMARK Flexibility Score: inf
ROOT
ATOM      1  C   UNL     1      16.746  17.201  13.842  1.00  0.00     0.057 C 
ATOM      2  C   UNL     1      16.927  18.101  12.612  1.00  0.00     0.016 C 
ENDROOT
BRANCH   1   3
ATOM      3  C   UNL     1      18.031  16.454  14.125  1.00  0.00     0.135 C 
ATOM      4  O   UNL     1      18.489  15.695  13.281  1.00  0.00    -0.299 OA
BRANCH   3   5
ATOM      5  C   UNL     1      18.757  16.616  15.435  1.00  0.00     0.072 C 
ATOM      6  C   UNL     1      18.097  17.695  16.287  1.00  0.00     0.012 C 
ENDBRANCH   3   5
ENDBRANCH   1   3
BRANCH   1   7
ATOM      7  C   UNL     1      15.586  16.201  13.653  1.00  0.00     0.038 C 
BRANCH   7   8
ATOM      8  C   UNL     1      15.512  15.191  14.767  1.00  0.00    -0.034 C 
ATOM      9  C   UNL     1      14.938  15.476  15.940  1.00  0.00     0.004 C 
ENDBRANCH   7   8
ENDBRANCH   1   7
TORSDOF 4
ENDMDL
MODEL 4
REMARK VINA RESULT:    -3.923      1.595      3.526
REMARK INTER + INTRA:          -5.213
REMARK INTER:                  -4.697
REMARK INTRA:                  -0.516
REMARK UNBOUND:                -0.373
REMARK SMILES C=CC[C@H](C)C(=O)CC
REMARK SMILES IDX 4 1 5 2 6 3 7 4 8 5 9 6 3 7 2 8 1 9
REMARK H PARENT
REMARK Flexibility Score: inf
ROOT
ATOM      1  C   UNL     1      17.538  16.496  14.386  1.00  0.00     0.057 C 
ATOM      2  C   UNL     1      17.093  17.684  15.250  1.00  0.00     0.016 C 
ENDROOT
BRANCH   1   3
ATOM      3  C   UNL     1      17.497  16.882  12.923  1.00  0.00     0.135 C 
ATOM      4  O   UNL     1      18.057  16.176  12.094  1.00  0.00    -0.299 OA
BRANCH   3   5
ATOM      5  C   UNL     1      16.788  18.129  12.464  1.00  0.00     0.072 C 
ATOM      6  C   UNL     1      15.510  17.777  11.711  1.00  0.00     0.012 C 
ENDBRANCH   3   5
ENDBRANCH   1   3
BRANCH   1   7
ATOM      7  C   UNL     1      16.657  15.252  14.628  1.00  0.00     0.038 C 
BRANCH   7   8
ATOM      8  C   UNL     1      15.243  15.613  14.996  1.00  0.00    -0.034 C 
ATOM      9  C   UNL     1      14.216  15.362  14.179  1.00  0.00     0.004 C 
ENDBRANCH   7   8
ENDBRANCH   1   7
TORSDOF 4
ENDMDL
MODEL 5
REMARK VINA RESULT:    -3.872      1.589      2.909
REMARK INTER + INTRA:          -5.150
REMARK INTER:                  -4.734
REMARK INTRA:                  -0.416
REMARK UNBOUND:                -0.373
REMARK SMILES C=CC[C@H](C)C(=O)CC
REMARK SMILES IDX 4 1 5 2 6 3 7 4 8 5 9 6 3 7 2 8 1 9
REMARK H PARENT
REMARK Flexibility Score: inf
ROOT
ATOM      1  C   UNL     1      15.860  16.479  14.407  1.00  0.00     0.057 C 
ATOM      2  C   UNL     1      14.823  15.348  14.375  1.00  0.00     0.016 C 
ENDROOT
BRANCH   1   3
ATOM      3  C   UNL     1      17.064  16.096  13.573  1.00  0.00     0.135 C 
ATOM      4  O   UNL     1      17.770  15.160  13.923  1.00  0.00    -0.299 OA
BRANCH   3   5
ATOM      5  C   UNL     1      17.419  16.854  12.321  1.00  0.00     0.072 C 
ATOM      6  C   UNL     1      16.659  18.175  12.256  1.00  0.00     0.012 C 
ENDBRANCH   3   5
ENDBRANCH   1   3
BRANCH   1   7
ATOM      7  C   UNL     1      16.301  16.810  15.848  1.00  0.00     0.038 C 
BRANCH   7   8
ATOM      8  C   UNL     1      17.287  17.947  15.900  1.00  0.00    -0.034 C 
ATOM      9  C   UNL     1      18.404  17.878  16.631  1.00  0.00     0.004 C 
ENDBRANCH   7   8
ENDBRANCH   1   7
TORSDOF 4
ENDMDL
MODEL 6
REMARK VINA RESULT:    -3.871      1.761      3.532
REMARK INTER + INTRA:          -5.149
REMARK INTER:                  -4.857
REMARK INTRA:                  -0.292
REMARK UNBOUND:                -0.373
REMARK SMILES C=CC[C@H](C)C(=O)CC
REMARK SMILES IDX 4 1 5 2 6 3 7 4 8 5 9 6 3 7 2 8 1 9
REMARK H PARENT
REMARK Flexibility Score: inf
ROOT
ATOM      1  C   UNL     1      16.382  15.861  14.087  1.00  0.00     0.057 C 
ATOM      2  C   UNL     1      15.334  15.094  14.906  1.00  0.00     0.016 C 
ENDROOT
BRANCH   1   3
ATOM      3  C   UNL     1      17.447  16.417  15.008  1.00  0.00     0.135 C 
ATOM      4  O   UNL     1      18.591  15.990  14.938  1.00  0.00    -0.299 OA
BRANCH   3   5
ATOM      5  C   UNL     1      17.123  17.483  16.021  1.00  0.00     0.072 C 
ATOM      6  C   UNL     1      18.363  17.857  16.826  1.00  0.00     0.012 C 
ENDBRANCH   3   5
ENDBRANCH   1   3
BRANCH   1   7
ATOM      7  C   UNL     1      15.744  17.003  13.268  1.00  0.00     0.038 C 
BRANCH   7   8
ATOM      8  C   UNL     1      16.738  17.688  12.368  1.00  0.00    -0.034 C 
ATOM      9  C   UNL     1      17.371  17.033  11.391  1.00  0.00     0.004 C 
ENDBRANCH   7   8
ENDBRANCH   1   7
TORSDOF 4
ENDMDL
MODEL 7
REMARK VINA RESULT:    -3.760      1.513      3.535
REMARK INTER + INTRA:          -5.013
REMARK INTER:                  -4.655
REMARK INTRA:                  -0.358
REMARK UNBOUND:                -0.373
REMARK SMILES C=CC[C@H](C)C(=O)CC
REMARK SMILES IDX 4 1 5 2 6 3 7 4 8 5 9 6 3 7 2 8 1 9
REMARK H PARENT
REMARK Flexibility Score: inf
ROOT
ATOM      1  C   UNL     1      17.288  16.658  15.262  1.00  0.00     0.057 C 
ATOM      2  C   UNL     1      17.860  17.772  16.149  1.00  0.00     0.016 C 
ENDROOT
BRANCH   1   3
ATOM      3  C   UNL     1      17.404  17.051  13.805  1.00  0.00     0.135 C 
ATOM      4  O   UNL     1      16.830  18.053  13.400  1.00  0.00    -0.299 OA
BRANCH   3   5
ATOM      5  C   UNL     1      18.207  16.224  12.835  1.00  0.00     0.072 C 
ATOM      6  C   UNL     1      19.546  15.824  13.445  1.00  0.00     0.012 C 
ENDBRANCH   3   5
ENDBRANCH   1   3
BRANCH   1   7
ATOM      7  C   UNL     1      15.816  16.350  15.609  1.00  0.00     0.038 C 
BRANCH   7   8
ATOM      8  C   UNL     1      15.277  15.178  14.832  1.00  0.00    -0.034 C 
ATOM      9  C   UNL     1      14.192  15.285  14.059  1.00  0.00     0.004 C 
ENDBRANCH   7   8
ENDBRANCH   1   7
TORSDOF 4
ENDMDL
MODEL 8
REMARK VINA RESULT:    -3.740      0.852      1.513
REMARK INTER + INTRA:          -4.988
REMARK INTER:                  -4.732
REMARK INTRA:                  -0.256
REMARK UNBOUND:                -0.373
REMARK SMILES C=CC[C@H](C)C(=O)CC
REMARK SMILES IDX 4 1 5 2 6 3 7 4 8 5 9 6 3 7 2 8 1 9
REMARK H PARENT
REMARK Flexibility Score: inf
ROOT
ATOM      1  C   UNL     1      17.356  17.006  14.169  1.00  0.00     0.057 C 
ATOM      2  C   UNL     1      17.324  17.929  15.395  1.00  0.00     0.016 C 
ENDROOT
BRANCH   1   3
ATOM      3  C   UNL     1      15.990  16.388  13.957  1.00  0.00     0.135 C 
ATOM      4  O   UNL     1      15.176  16.951  13.237  1.00  0.00    -0.299 OA
BRANCH   3   5
ATOM      5  C   UNL     1      15.607  15.094  14.625  1.00  0.00     0.072 C 
ATOM      6  C   UNL     1      14.950  15.359  15.976  1.00  0.00     0.012 C 
ENDBRANCH   3   5
ENDBRANCH   1   3
BRANCH   1   7
ATOM      7  C   UNL     1      18.419  15.898  14.315  1.00  0.00     0.038 C 
BRANCH   7   8
ATOM      8  C   UNL     1      19.457  16.232  15.354  1.00  0.00    -0.034 C 
ATOM      9  C   UNL     1      20.765  16.127  15.102  1.00  0.00     0.004 C 
ENDBRANCH   7   8
ENDBRANCH   1   7
TORSDOF 4
ENDMDL
MODEL 9
REMARK VINA RESULT:    -3.635      1.579      2.783
REMARK INTER + INTRA:          -4.858
REMARK INTER:                  -4.601
REMARK INTRA:                  -0.257
REMARK UNBOUND:                -0.373
REMARK SMILES C=CC[C@H](C)C(=O)CC
REMARK SMILES IDX 4 1 5 2 6 3 7 4 8 5 9 6 3 7 2 8 1 9
REMARK H PARENT
REMARK Flexibility Score: inf
ROOT
ATOM      1  C   UNL     1      16.267  16.541  14.488  1.00  0.00     0.057 C 
ATOM      2  C   UNL     1      15.304  15.372  14.738  1.00  0.00     0.016 C 
ENDROOT
BRANCH   1   3
ATOM      3  C   UNL     1      15.942  17.199  13.164  1.00  0.00     0.135 C 
ATOM      4  O   UNL     1      16.764  17.936  12.636  1.00  0.00    -0.299 OA
BRANCH   3   5
ATOM      5  C   UNL     1      14.617  16.973  12.484  1.00  0.00     0.072 C 
ATOM      6  C   UNL     1      14.558  17.718  11.155  1.00  0.00     0.012 C 
ENDBRANCH   3   5
ENDBRANCH   1   3
BRANCH   1   7
ATOM      7  C   UNL     1      17.740  16.083  14.502  1.00  0.00     0.038 C 
BRANCH   7   8
ATOM      8  C   UNL     1      18.547  16.777  15.567  1.00  0.00    -0.034 C 
ATOM      9  C   UNL     1      18.035  17.766  16.306  1.00  0.00     0.004 C 
ENDBRANCH   7   8
ENDBRANCH   1   7
TORSDOF 4
ENDMDL
