MODEL 1
REMARK VINA RESULT:    -4.080      0.000      0.000
REMARK INTER + INTRA:          -9.472
REMARK INTER:                  -7.419
REMARK INTRA:                  -2.052
REMARK UNBOUND:                -2.052
REMARK SMILES CCCCCCCCCCCCCC[C@H](C)C(=O)[O-]
REMARK SMILES IDX 9 1 10 2 11 3 12 4 13 5 14 6 15 7 16 8 17 9 18 10 19 11 8 12
REMARK SMILES IDX 7 13 6 14 5 15 4 16 3 17 2 18 1 19
REMARK H PARENT
REMARK Flexibility Score: inf
ROOT
ATOM      1  C   UNL     1      46.554  -5.668  75.961  1.00  0.00     0.000 C 
ENDROOT
BRANCH   1   2
ATOM      2  C   UNL     1      46.921  -4.769  74.768  1.00  0.00     0.000 C 
BRANCH   2   3
ATOM      3  C   UNL     1      46.976  -5.541  73.441  1.00  0.00     0.000 C 
BRANCH   3   4
ATOM      4  C   UNL     1      48.207  -5.135  72.622  1.00  0.00     0.000 C 
BRANCH   4   5
ATOM      5  C   UNL     1      48.527  -3.647  72.807  1.00  0.00     0.001 C 
BRANCH   5   6
ATOM      6  C   UNL     1      50.003  -3.356  72.491  1.00  0.00     0.009 C 
BRANCH   6   7
ATOM      7  C   UNL     1      50.381  -1.888  72.776  1.00  0.00     0.032 C 
ATOM      8  C   UNL     1      49.765  -0.956  71.726  1.00  0.00     0.014 C 
BRANCH   7   9
ATOM      9  C   UNL     1      51.874  -1.699  72.816  1.00  0.00     0.044 C 
ATOM     10  O   UNL     1      52.442  -0.907  72.018  1.00  0.00    -0.550 OA
ATOM     11  O   UNL     1      52.636  -2.405  73.738  1.00  0.00    -0.550 OA
ENDBRANCH   7   9
ENDBRANCH   6   7
ENDBRANCH   5   6
ENDBRANCH   4   5
ENDBRANCH   3   4
ENDBRANCH   2   3
ENDBRANCH   1   2
BRANCH   1  12
ATOM     12  C   UNL     1      47.725  -6.548  76.423  1.00  0.00     0.000 C 
BRANCH  12  13
ATOM     13  C   UNL     1      47.446  -7.152  77.804  1.00  0.00    -0.000 C 
BRANCH  13  14
ATOM     14  C   UNL     1      48.141  -6.343  78.909  1.00  0.00    -0.000 C 
BRANCH  14  15
ATOM     15  C   UNL     1      49.664  -6.260  78.716  1.00  0.00    -0.000 C 
BRANCH  15  16
ATOM     16  C   UNL     1      50.187  -4.814  78.767  1.00  0.00    -0.000 C 
BRANCH  16  17
ATOM     17  C   UNL     1      49.080  -3.768  78.538  1.00  0.00    -0.000 C 
BRANCH  17  18
ATOM     18  C   UNL     1      49.109  -3.082  77.161  1.00  0.00    -0.003 C 
ATOM     19  C   UNL     1      50.202  -3.626  76.243  1.00  0.00     0.004 C 
ENDBRANCH  17  18
ENDBRANCH  16  17
ENDBRANCH  15  16
ENDBRANCH  14  15
ENDBRANCH  13  14
ENDBRANCH  12  13
ENDBRANCH   1  12
TORSDOF 14
ENDMDL
MODEL 2
REMARK VINA RESULT:    -4.066      3.812      6.545
REMARK INTER + INTRA:          -9.447
REMARK INTER:                  -7.113
REMARK INTRA:                  -2.333
REMARK UNBOUND:                -2.052
REMARK SMILES CCCCCCCCCCCCCC[C@H](C)C(=O)[O-]
REMARK SMILES IDX 9 1 10 2 11 3 12 4 13 5 14 6 15 7 16 8 17 9 18 10 19 11 8 12
REMARK SMILES IDX 7 13 6 14 5 15 4 16 3 17 2 18 1 19
REMARK H PARENT
REMARK Flexibility Score: inf
ROOT
ATOM      1  C   UNL     1      51.633  -3.041  72.402  1.00  0.00     0.000 C 
ENDROOT
BRANCH   1   2
ATOM      2  C   UNL     1      51.471  -3.852  73.699  1.00  0.00     0.000 C 
BRANCH   2   3
ATOM      3  C   UNL     1      50.022  -4.300  73.938  1.00  0.00     0.000 C 
BRANCH   3   4
ATOM      4  C   UNL     1      49.363  -4.750  72.628  1.00  0.00     0.000 C 
BRANCH   4   5
ATOM      5  C   UNL     1      47.858  -4.459  72.639  1.00  0.00     0.001 C 
BRANCH   5   6
ATOM      6  C   UNL     1      47.248  -4.756  74.017  1.00  0.00     0.009 C 
BRANCH   6   7
ATOM      7  C   UNL     1      46.026  -5.693  73.924  1.00  0.00     0.032 C 
ATOM      8  C   UNL     1      44.986  -5.334  74.991  1.00  0.00     0.014 C 
BRANCH   7   9
ATOM      9  C   UNL     1      46.427  -7.138  74.064  1.00  0.00     0.044 C 
ATOM     10  O   UNL     1      46.944  -7.559  75.133  1.00  0.00    -0.550 OA
ATOM     11  O   UNL     1      46.227  -8.017  73.008  1.00  0.00    -0.550 OA
ENDBRANCH   7   9
ENDBRANCH   6   7
ENDBRANCH   5   6
ENDBRANCH   4   5
ENDBRANCH   3   4
ENDBRANCH   2   3
ENDBRANCH   1   2
BRANCH   1  12
ATOM     12  C   UNL     1      52.170  -1.624  72.652  1.00  0.00     0.000 C 
BRANCH  12  13
ATOM     13  C   UNL     1      51.175  -0.565  72.163  1.00  0.00    -0.000 C 
BRANCH  13  14
ATOM     14  C   UNL     1      49.939  -1.222  71.530  1.00  0.00    -0.000 C 
BRANCH  14  15
ATOM     15  C   UNL     1      48.637  -0.874  72.269  1.00  0.00    -0.000 C 
BRANCH  15  16
ATOM     16  C   UNL     1      48.736   0.450  73.046  1.00  0.00    -0.000 C 
BRANCH  16  17
ATOM     17  C   UNL     1      48.478   0.280  74.555  1.00  0.00    -0.000 C 
BRANCH  17  18
ATOM     18  C   UNL     1      49.020  -1.026  75.164  1.00  0.00    -0.003 C 
ATOM     19  C   UNL     1      47.985  -1.768  76.008  1.00  0.00     0.004 C 
ENDBRANCH  17  18
ENDBRANCH  16  17
ENDBRANCH  15  16
ENDBRANCH  14  15
ENDBRANCH  13  14
ENDBRANCH  12  13
ENDBRANCH   1  12
TORSDOF 14
ENDMDL
MODEL 3
REMARK VINA RESULT:    -4.041      2.301      4.395
REMARK INTER + INTRA:          -9.401
REMARK INTER:                  -7.233
REMARK INTRA:                  -2.168
REMARK UNBOUND:                -2.052
REMARK SMILES CCCCCCCCCCCCCC[C@H](C)C(=O)[O-]
REMARK SMILES IDX 9 1 10 2 11 3 12 4 13 5 14 6 15 7 16 8 17 9 18 10 19 11 8 12
REMARK SMILES IDX 7 13 6 14 5 15 4 16 3 17 2 18 1 19
REMARK H PARENT
REMARK Flexibility Score: inf
ROOT
ATOM      1  C   UNL     1      48.451   0.370  75.517  1.00  0.00     0.000 C 
ENDROOT
BRANCH   1   2
ATOM      2  C   UNL     1      49.112   0.545  74.140  1.00  0.00     0.000 C 
BRANCH   2   3
ATOM      3  C   UNL     1      48.302  -0.106  73.009  1.00  0.00     0.000 C 
BRANCH   3   4
ATOM      4  C   UNL     1      49.215  -0.905  72.070  1.00  0.00     0.000 C 
BRANCH   4   5
ATOM      5  C   UNL     1      50.692  -0.677  72.412  1.00  0.00     0.001 C 
BRANCH   5   6
ATOM      6  C   UNL     1      51.519  -1.948  72.163  1.00  0.00     0.009 C 
BRANCH   6   7
ATOM      7  C   UNL     1      52.983  -1.790  72.621  1.00  0.00     0.032 C 
ATOM      8  C   UNL     1      53.756  -0.880  71.660  1.00  0.00     0.014 C 
BRANCH   7   9
ATOM      9  C   UNL     1      53.675  -3.123  72.732  1.00  0.00     0.044 C 
ATOM     10  O   UNL     1      54.648  -3.405  71.983  1.00  0.00    -0.550 OA
ATOM     11  O   UNL     1      53.238  -4.054  73.666  1.00  0.00    -0.550 OA
ENDBRANCH   7   9
ENDBRANCH   6   7
ENDBRANCH   5   6
ENDBRANCH   4   5
ENDBRANCH   3   4
ENDBRANCH   2   3
ENDBRANCH   1   2
BRANCH   1  12
ATOM     12  C   UNL     1      47.949  -1.062  75.756  1.00  0.00     0.000 C 
BRANCH  12  13
ATOM     13  C   UNL     1      48.778  -1.761  76.840  1.00  0.00    -0.000 C 
BRANCH  13  14
ATOM     14  C   UNL     1      50.142  -2.204  76.288  1.00  0.00    -0.000 C 
BRANCH  14  15
ATOM     15  C   UNL     1      50.019  -3.258  75.175  1.00  0.00    -0.000 C 
BRANCH  15  16
ATOM     16  C   UNL     1      49.210  -4.490  75.616  1.00  0.00    -0.000 C 
BRANCH  16  17
ATOM     17  C   UNL     1      47.956  -4.724  74.752  1.00  0.00    -0.000 C 
BRANCH  17  18
ATOM     18  C   UNL     1      48.075  -4.249  73.293  1.00  0.00    -0.003 C 
ATOM     19  C   UNL     1      47.549  -5.270  72.285  1.00  0.00     0.004 C 
ENDBRANCH  17  18
ENDBRANCH  16  17
ENDBRANCH  15  16
ENDBRANCH  14  15
ENDBRANCH  13  14
ENDBRANCH  12  13
ENDBRANCH   1  12
TORSDOF 14
ENDMDL
MODEL 4
REMARK VINA RESULT:    -4.017      1.311      2.046
REMARK INTER + INTRA:          -9.357
REMARK INTER:                  -7.829
REMARK INTRA:                  -1.529
REMARK UNBOUND:                -2.052
REMARK SMILES CCCCCCCCCCCCCC[C@H](C)C(=O)[O-]
REMARK SMILES IDX 9 1 10 2 11 3 12 4 13 5 14 6 15 7 16 8 17 9 18 10 19 11 8 12
REMARK SMILES IDX 7 13 6 14 5 15 4 16 3 17 2 18 1 19
REMARK H PARENT
REMARK Flexibility Score: inf
ROOT
ATOM      1  C   UNL     1      48.130  -5.491  75.328  1.00  0.00     0.000 C 
ENDROOT
BRANCH   1   2
ATOM      2  C   UNL     1      48.973  -4.206  75.376  1.00  0.00     0.000 C 
BRANCH   2   3
ATOM      3  C   UNL     1      48.462  -3.128  74.409  1.00  0.00     0.000 C 
BRANCH   3   4
ATOM      4  C   UNL     1      48.700  -3.540  72.952  1.00  0.00     0.000 C 
BRANCH   4   5
ATOM      5  C   UNL     1      50.174  -3.884  72.709  1.00  0.00     0.001 C 
BRANCH   5   6
ATOM      6  C   UNL     1      50.854  -2.819  71.836  1.00  0.00     0.009 C 
BRANCH   6   7
ATOM      7  C   UNL     1      51.558  -1.737  72.681  1.00  0.00     0.032 C 
ATOM      8  C   UNL     1      51.083  -0.337  72.274  1.00  0.00     0.014 C 
BRANCH   7   9
ATOM      9  C   UNL     1      53.056  -1.825  72.554  1.00  0.00     0.044 C 
ATOM     10  O   UNL     1      53.711  -2.647  73.249  1.00  0.00    -0.550 OA
ATOM     11  O   UNL     1      53.726  -0.994  71.666  1.00  0.00    -0.550 OA
ENDBRANCH   7   9
ENDBRANCH   6   7
ENDBRANCH   5   6
ENDBRANCH   4   5
ENDBRANCH   3   4
ENDBRANCH   2   3
ENDBRANCH   1   2
BRANCH   1  12
ATOM     12  C   UNL     1      47.201  -5.637  76.542  1.00  0.00     0.000 C 
BRANCH  12  13
ATOM     13  C   UNL     1      47.551  -6.890  77.354  1.00  0.00    -0.000 C 
BRANCH  13  14
ATOM     14  C   UNL     1      47.875  -6.528  78.811  1.00  0.00    -0.000 C 
BRANCH  14  15
ATOM     15  C   UNL     1      49.043  -5.536  78.932  1.00  0.00    -0.000 C 
BRANCH  15  16
ATOM     16  C   UNL     1      50.393  -6.165  78.548  1.00  0.00    -0.000 C 
BRANCH  16  17
ATOM     17  C   UNL     1      51.428  -5.124  78.081  1.00  0.00    -0.000 C 
BRANCH  17  18
ATOM     18  C   UNL     1      51.276  -3.728  78.712  1.00  0.00    -0.003 C 
ATOM     19  C   UNL     1      52.268  -3.471  79.845  1.00  0.00     0.004 C 
ENDBRANCH  17  18
ENDBRANCH  16  17
ENDBRANCH  15  16
ENDBRANCH  14  15
ENDBRANCH  13  14
ENDBRANCH  12  13
ENDBRANCH   1  12
TORSDOF 14
ENDMDL
MODEL 5
REMARK VINA RESULT:    -4.001      2.869      6.336
REMARK INTER + INTRA:          -9.327
REMARK INTER:                  -6.839
REMARK INTRA:                  -2.488
REMARK UNBOUND:                -2.052
REMARK SMILES CCCCCCCCCCCCCC[C@H](C)C(=O)[O-]
REMARK SMILES IDX 9 1 10 2 11 3 12 4 13 5 14 6 15 7 16 8 17 9 18 10 19 11 8 12
REMARK SMILES IDX 7 13 6 14 5 15 4 16 3 17 2 18 1 19
REMARK H PARENT
REMARK Flexibility Score: inf
ROOT
ATOM      1  C   UNL     1      48.865   0.663  73.296  1.00  0.00     0.000 C 
ENDROOT
BRANCH   1   2
ATOM      2  C   UNL     1      48.292   0.600  74.721  1.00  0.00     0.000 C 
BRANCH   2   3
ATOM      3  C   UNL     1      48.149  -0.839  75.238  1.00  0.00     0.000 C 
BRANCH   3   4
ATOM      4  C   UNL     1      49.373  -1.249  76.066  1.00  0.00     0.000 C 
BRANCH   4   5
ATOM      5  C   UNL     1      49.449  -2.772  76.222  1.00  0.00     0.001 C 
BRANCH   5   6
ATOM      6  C   UNL     1      50.891  -3.229  76.495  1.00  0.00     0.009 C 
BRANCH   6   7
ATOM      7  C   UNL     1      50.994  -4.757  76.675  1.00  0.00     0.032 C 
ATOM      8  C   UNL     1      49.614  -5.412  76.541  1.00  0.00     0.014 C 
BRANCH   7   9
ATOM      9  C   UNL     1      51.605  -5.117  78.003  1.00  0.00     0.044 C 
ATOM     10  O   UNL     1      52.383  -6.103  78.105  1.00  0.00    -0.550 OA
ATOM     11  O   UNL     1      51.310  -4.359  79.129  1.00  0.00    -0.550 OA
ENDBRANCH   7   9
ENDBRANCH   6   7
ENDBRANCH   5   6
ENDBRANCH   4   5
ENDBRANCH   3   4
ENDBRANCH   2   3
ENDBRANCH   1   2
BRANCH   1  12
ATOM     12  C   UNL     1      48.574  -0.607  72.483  1.00  0.00     0.000 C 
BRANCH  12  13
ATOM     13  C   UNL     1      49.723  -0.916  71.516  1.00  0.00    -0.000 C 
BRANCH  13  14
ATOM     14  C   UNL     1      51.065  -0.985  72.260  1.00  0.00    -0.000 C 
BRANCH  14  15
ATOM     15  C   UNL     1      51.286  -2.334  72.963  1.00  0.00    -0.000 C 
BRANCH  15  16
ATOM     16  C   UNL     1      50.728  -3.518  72.156  1.00  0.00    -0.000 C 
BRANCH  16  17
ATOM     17  C   UNL     1      49.876  -4.477  73.009  1.00  0.00    -0.000 C 
BRANCH  17  18
ATOM     18  C   UNL     1      48.357  -4.241  72.932  1.00  0.00    -0.003 C 
ATOM     19  C   UNL     1      47.596  -5.423  72.335  1.00  0.00     0.004 C 
ENDBRANCH  17  18
ENDBRANCH  16  17
ENDBRANCH  15  16
ENDBRANCH  14  15
ENDBRANCH  13  14
ENDBRANCH  12  13
ENDBRANCH   1  12
TORSDOF 14
ENDMDL
MODEL 6
REMARK VINA RESULT:    -3.969      1.798      3.582
REMARK INTER + INTRA:          -9.269
REMARK INTER:                  -6.661
REMARK INTRA:                  -2.608
REMARK UNBOUND:                -2.052
REMARK SMILES CCCCCCCCCCCCCC[C@H](C)C(=O)[O-]
REMARK SMILES IDX 9 1 10 2 11 3 12 4 13 5 14 6 15 7 16 8 17 9 18 10 19 11 8 12
REMARK SMILES IDX 7 13 6 14 5 15 4 16 3 17 2 18 1 19
REMARK H PARENT
REMARK Flexibility Score: inf
ROOT
ATOM      1  C   UNL     1      48.681  -2.089  76.012  1.00  0.00     0.000 C 
ENDROOT
BRANCH   1   2
ATOM      2  C   UNL     1      47.892  -0.958  75.330  1.00  0.00     0.000 C 
BRANCH   2   3
ATOM      3  C   UNL     1      48.799   0.179  74.836  1.00  0.00     0.000 C 
BRANCH   3   4
ATOM      4  C   UNL     1      48.393   0.629  73.427  1.00  0.00     0.000 C 
BRANCH   4   5
ATOM      5  C   UNL     1      48.602  -0.496  72.406  1.00  0.00     0.001 C 
BRANCH   5   6
ATOM      6  C   UNL     1      50.097  -0.717  72.127  1.00  0.00     0.009 C 
BRANCH   6   7
ATOM      7  C   UNL     1      50.432  -2.205  71.891  1.00  0.00     0.032 C 
ATOM      8  C   UNL     1      49.320  -3.104  72.445  1.00  0.00     0.014 C 
BRANCH   7   9
ATOM      9  C   UNL     1      51.751  -2.579  72.513  1.00  0.00     0.044 C 
ATOM     10  O   UNL     1      52.091  -3.788  72.616  1.00  0.00    -0.550 OA
ATOM     11  O   UNL     1      52.603  -1.586  72.979  1.00  0.00    -0.550 OA
ENDBRANCH   7   9
ENDBRANCH   6   7
ENDBRANCH   5   6
ENDBRANCH   4   5
ENDBRANCH   3   4
ENDBRANCH   2   3
ENDBRANCH   1   2
BRANCH   1  12
ATOM     12  C   UNL     1      50.197  -1.964  75.803  1.00  0.00     0.000 C 
BRANCH  12  13
ATOM     13  C   UNL     1      50.904  -3.292  76.101  1.00  0.00    -0.000 C 
BRANCH  13  14
ATOM     14  C   UNL     1      50.046  -4.484  75.651  1.00  0.00    -0.000 C 
BRANCH  14  15
ATOM     15  C   UNL     1      50.285  -5.743  76.500  1.00  0.00    -0.000 C 
BRANCH  15  16
ATOM     16  C   UNL     1      49.208  -5.937  77.582  1.00  0.00    -0.000 C 
BRANCH  16  17
ATOM     17  C   UNL     1      49.599  -5.314  78.935  1.00  0.00    -0.000 C 
BRANCH  17  18
ATOM     18  C   UNL     1      48.904  -3.980  79.262  1.00  0.00    -0.003 C 
ATOM     19  C   UNL     1      49.884  -2.868  79.634  1.00  0.00     0.004 C 
ENDBRANCH  17  18
ENDBRANCH  16  17
ENDBRANCH  15  16
ENDBRANCH  14  15
ENDBRANCH  13  14
ENDBRANCH  12  13
ENDBRANCH   1  12
TORSDOF 14
ENDMDL
MODEL 7
REMARK VINA RESULT:    -3.968      3.070      6.030
REMARK INTER + INTRA:          -9.268
REMARK INTER:                  -6.490
REMARK INTRA:                  -2.778
REMARK UNBOUND:                -2.052
REMARK SMILES CCCCCCCCCCCCCC[C@H](C)C(=O)[O-]
REMARK SMILES IDX 9 1 10 2 11 3 12 4 13 5 14 6 15 7 16 8 17 9 18 10 19 11 8 12
REMARK SMILES IDX 7 13 6 14 5 15 4 16 3 17 2 18 1 19
REMARK H PARENT
REMARK Flexibility Score: inf
ROOT
ATOM      1  C   UNL     1      48.834   0.281  73.429  1.00  0.00     0.000 C 
ENDROOT
BRANCH   1   2
ATOM      2  C   UNL     1      48.286  -0.392  74.698  1.00  0.00     0.000 C 
BRANCH   2   3
ATOM      3  C   UNL     1      49.398  -0.944  75.602  1.00  0.00     0.000 C 
BRANCH   3   4
ATOM      4  C   UNL     1      49.571  -2.454  75.399  1.00  0.00     0.000 C 
BRANCH   4   5
ATOM      5  C   UNL     1      48.398  -3.231  76.010  1.00  0.00     0.001 C 
BRANCH   5   6
ATOM      6  C   UNL     1      47.619  -3.995  74.929  1.00  0.00     0.009 C 
BRANCH   6   7
ATOM      7  C   UNL     1      48.553  -4.741  73.954  1.00  0.00     0.032 C 
ATOM      8  C   UNL     1      48.120  -4.506  72.503  1.00  0.00     0.014 C 
BRANCH   7   9
ATOM      9  C   UNL     1      48.591  -6.217  74.246  1.00  0.00     0.044 C 
ATOM     10  O   UNL     1      49.215  -7.005  73.486  1.00  0.00    -0.550 OA
ATOM     11  O   UNL     1      47.932  -6.720  75.360  1.00  0.00    -0.550 OA
ENDBRANCH   7   9
ENDBRANCH   6   7
ENDBRANCH   5   6
ENDBRANCH   4   5
ENDBRANCH   3   4
ENDBRANCH   2   3
ENDBRANCH   1   2
BRANCH   1  12
ATOM     12  C   UNL     1      48.622  -0.569  72.168  1.00  0.00     0.000 C 
BRANCH  12  13
ATOM     13  C   UNL     1      49.886  -1.366  71.824  1.00  0.00    -0.000 C 
BRANCH  13  14
ATOM     14  C   UNL     1      51.149  -0.615  72.272  1.00  0.00    -0.000 C 
BRANCH  14  15
ATOM     15  C   UNL     1      52.364  -1.542  72.435  1.00  0.00    -0.000 C 
BRANCH  15  16
ATOM     16  C   UNL     1      51.964  -3.021  72.572  1.00  0.00    -0.000 C 
BRANCH  16  17
ATOM     17  C   UNL     1      52.756  -3.756  73.670  1.00  0.00    -0.000 C 
BRANCH  17  18
ATOM     18  C   UNL     1      52.208  -5.145  74.046  1.00  0.00    -0.003 C 
ATOM     19  C   UNL     1      51.968  -5.308  75.546  1.00  0.00     0.004 C 
ENDBRANCH  17  18
ENDBRANCH  16  17
ENDBRANCH  15  16
ENDBRANCH  14  15
ENDBRANCH  13  14
ENDBRANCH  12  13
ENDBRANCH   1  12
TORSDOF 14
ENDMDL
MODEL 8
REMARK VINA RESULT:    -3.932      4.963      7.678
REMARK INTER + INTRA:          -9.202
REMARK INTER:                  -6.521
REMARK INTRA:                  -2.682
REMARK UNBOUND:                -2.052
REMARK SMILES CCCCCCCCCCCCCC[C@H](C)C(=O)[O-]
REMARK SMILES IDX 9 1 10 2 11 3 12 4 13 5 14 6 15 7 16 8 17 9 18 10 19 11 8 12
REMARK SMILES IDX 7 13 6 14 5 15 4 16 3 17 2 18 1 19
REMARK H PARENT
REMARK Flexibility Score: inf
ROOT
ATOM      1  C   UNL     1      50.412  -6.373  78.623  1.00  0.00     0.000 C 
ENDROOT
BRANCH   1   2
ATOM      2  C   UNL     1      49.330  -5.288  78.751  1.00  0.00     0.000 C 
BRANCH   2   3
ATOM      3  C   UNL     1      47.907  -5.856  78.639  1.00  0.00     0.000 C 
BRANCH   3   4
ATOM      4  C   UNL     1      47.878  -7.341  79.019  1.00  0.00     0.000 C 
BRANCH   4   5
ATOM      5  C   UNL     1      47.318  -8.193  77.875  1.00  0.00     0.001 C 
BRANCH   5   6
ATOM      6  C   UNL     1      48.062  -9.533  77.768  1.00  0.00     0.009 C 
BRANCH   6   7
ATOM      7  C   UNL     1      48.915  -9.827  79.019  1.00  0.00     0.032 C 
ATOM      8  C   UNL     1      50.346 -10.206  78.622  1.00  0.00     0.014 C 
BRANCH   7   9
ATOM      9  C   UNL     1      48.309 -10.923  79.856  1.00  0.00     0.044 C 
ATOM     10  O   UNL     1      47.509 -10.648  80.791  1.00  0.00    -0.550 OA
ATOM     11  O   UNL     1      48.632 -12.249  79.601  1.00  0.00    -0.550 OA
ENDBRANCH   7   9
ENDBRANCH   6   7
ENDBRANCH   5   6
ENDBRANCH   4   5
ENDBRANCH   3   4
ENDBRANCH   2   3
ENDBRANCH   1   2
BRANCH   1  12
ATOM     12  C   UNL     1      51.145  -6.323  77.275  1.00  0.00     0.000 C 
BRANCH  12  13
ATOM     13  C   UNL     1      50.449  -7.212  76.237  1.00  0.00    -0.000 C 
BRANCH  13  14
ATOM     14  C   UNL     1      50.013  -6.391  75.015  1.00  0.00    -0.000 C 
BRANCH  14  15
ATOM     15  C   UNL     1      48.485  -6.336  74.850  1.00  0.00    -0.000 C 
BRANCH  15  16
ATOM     16  C   UNL     1      47.955  -4.896  74.746  1.00  0.00    -0.000 C 
BRANCH  16  17
ATOM     17  C   UNL     1      46.680  -4.665  75.580  1.00  0.00    -0.000 C 
BRANCH  17  18
ATOM     18  C   UNL     1      45.378  -5.167  74.930  1.00  0.00    -0.003 C 
ATOM     19  C   UNL     1      44.880  -6.483  75.526  1.00  0.00     0.004 C 
ENDBRANCH  17  18
ENDBRANCH  16  17
ENDBRANCH  15  16
ENDBRANCH  14  15
ENDBRANCH  13  14
ENDBRANCH  12  13
ENDBRANCH   1  12
TORSDOF 14
ENDMDL
MODEL 9
REMARK VINA RESULT:    -3.921      3.333      6.428
REMARK INTER + INTRA:          -9.183
REMARK INTER:                  -6.960
REMARK INTRA:                  -2.223
REMARK UNBOUND:                -2.052
REMARK SMILES CCCCCCCCCCCCCC[C@H](C)C(=O)[O-]
REMARK SMILES IDX 9 1 10 2 11 3 12 4 13 5 14 6 15 7 16 8 17 9 18 10 19 11 8 12
REMARK SMILES IDX 7 13 6 14 5 15 4 16 3 17 2 18 1 19
REMARK H PARENT
REMARK Flexibility Score: inf
ROOT
ATOM      1  C   UNL     1      49.096   0.270  73.050  1.00  0.00     0.000 C 
ENDROOT
BRANCH   1   2
ATOM      2  C   UNL     1      48.190   0.045  74.272  1.00  0.00     0.000 C 
BRANCH   2   3
ATOM      3  C   UNL     1      48.928  -0.631  75.437  1.00  0.00     0.000 C 
BRANCH   3   4
ATOM      4  C   UNL     1      48.576  -2.122  75.517  1.00  0.00     0.000 C 
BRANCH   4   5
ATOM      5  C   UNL     1      49.789  -2.994  75.173  1.00  0.00     0.001 C 
BRANCH   5   6
ATOM      6  C   UNL     1      50.863  -2.902  76.267  1.00  0.00     0.009 C 
BRANCH   6   7
ATOM      7  C   UNL     1      51.208  -4.283  76.863  1.00  0.00     0.032 C 
ATOM      8  C   UNL     1      50.472  -5.397  76.110  1.00  0.00     0.014 C 
BRANCH   7   9
ATOM      9  C   UNL     1      50.877  -4.350  78.330  1.00  0.00     0.044 C 
ATOM     10  O   UNL     1      51.183  -3.402  79.101  1.00  0.00    -0.550 OA
ATOM     11  O   UNL     1      50.229  -5.466  78.843  1.00  0.00    -0.550 OA
ENDBRANCH   7   9
ENDBRANCH   6   7
ENDBRANCH   5   6
ENDBRANCH   4   5
ENDBRANCH   3   4
ENDBRANCH   2   3
ENDBRANCH   1   2
BRANCH   1  12
ATOM     12  C   UNL     1      48.956  -0.837  71.995  1.00  0.00     0.000 C 
BRANCH  12  13
ATOM     13  C   UNL     1      50.277  -1.592  71.812  1.00  0.00    -0.000 C 
BRANCH  13  14
ATOM     14  C   UNL     1      51.437  -0.842  72.483  1.00  0.00    -0.000 C 
BRANCH  14  15
ATOM     15  C   UNL     1      52.794  -1.532  72.271  1.00  0.00    -0.000 C 
BRANCH  15  16
ATOM     16  C   UNL     1      53.195  -2.422  73.459  1.00  0.00    -0.000 C 
BRANCH  16  17
ATOM     17  C   UNL     1      52.796  -3.897  73.264  1.00  0.00    -0.000 C 
BRANCH  17  18
ATOM     18  C   UNL     1      53.737  -4.918  73.929  1.00  0.00    -0.003 C 
ATOM     19  C   UNL     1      55.215  -4.627  73.673  1.00  0.00     0.004 C 
ENDBRANCH  17  18
ENDBRANCH  16  17
ENDBRANCH  15  16
ENDBRANCH  14  15
ENDBRANCH  13  14
ENDBRANCH  12  13
ENDBRANCH   1  12
TORSDOF 14
ENDMDL
