MODEL 1
REMARK VINA RESULT:    -6.017      0.000      0.000
REMARK INTER + INTRA:          -6.017
REMARK INTER:                  -6.017
REMARK INTRA:                   0.000
REMARK UNBOUND:                 0.000
REMARK SMILES O=c1ccc2ccc3occc3c2o1
REMARK SMILES IDX 6 1 7 2 8 3 12 4 11 5 10 6 9 7 13 8 5 9 4 10 3 11 2 12 1 13
REMARK SMILES IDX 14 14
REMARK H PARENT
REMARK Flexibility Score: inf
ROOT
ATOM      1  C   UNL     1       8.928  51.390  25.103  1.00  0.00     0.016 A 
ATOM      2  C   UNL     1       7.756  51.759  24.416  1.00  0.00     0.048 A 
ATOM      3  C   UNL     1       7.877  52.193  23.097  1.00  0.00     0.137 A 
ATOM      4  C   UNL     1       9.091  52.265  22.468  1.00  0.00     0.064 A 
ATOM      5  C   UNL     1       8.855  52.726  21.194  1.00  0.00     0.054 A 
ATOM      6  C   UNL     1       7.477  52.906  21.137  1.00  0.00     0.196 A 
ATOM      7  O   UNL     1       6.921  52.579  22.290  1.00  0.00    -0.464 OA
ATOM      8  C   UNL     1      10.274  51.909  23.113  1.00  0.00     0.149 A 
ATOM      9  C   UNL     1      10.187  51.463  24.457  1.00  0.00     0.018 A 
ATOM     10  C   UNL     1      11.369  51.103  25.109  1.00  0.00     0.019 A 
ATOM     11  C   UNL     1      12.583  51.194  24.426  1.00  0.00     0.094 A 
ATOM     12  C   UNL     1      12.588  51.644  23.099  1.00  0.00     0.336 A 
ATOM     13  O   UNL     1      13.675  51.732  22.470  1.00  0.00    -0.246 OA
ATOM     14  O   UNL     1      11.450  51.982  22.497  1.00  0.00    -0.422 OA
ENDROOT
TORSDOF 0
ENDMDL
MODEL 2
REMARK VINA RESULT:    -5.734      1.717      3.883
REMARK INTER + INTRA:          -5.734
REMARK INTER:                  -5.734
REMARK INTRA:                   0.000
REMARK UNBOUND:                 0.000
REMARK SMILES O=c1ccc2ccc3occc3c2o1
REMARK SMILES IDX 6 1 7 2 8 3 12 4 11 5 10 6 9 7 13 8 5 9 4 10 3 11 2 12 1 13
REMARK SMILES IDX 14 14
REMARK H PARENT
REMARK Flexibility Score: inf
ROOT
ATOM      1  C   UNL     1      11.130  50.598  23.101  1.00  0.00     0.016 A 
ATOM      2  C   UNL     1      11.674  51.138  21.920  1.00  0.00     0.048 A 
ATOM      3  C   UNL     1      10.920  52.082  21.222  1.00  0.00     0.137 A 
ATOM      4  C   UNL     1       9.685  52.485  21.656  1.00  0.00     0.064 A 
ATOM      5  C   UNL     1       9.224  53.410  20.748  1.00  0.00     0.054 A 
ATOM      6  C   UNL     1      10.239  53.506  19.801  1.00  0.00     0.196 A 
ATOM      7  O   UNL     1      11.238  52.699  20.113  1.00  0.00    -0.464 OA
ATOM      8  C   UNL     1       9.113  51.974  22.820  1.00  0.00     0.149 A 
ATOM      9  C   UNL     1       9.853  51.012  23.554  1.00  0.00     0.018 A 
ATOM     10  C   UNL     1       9.286  50.496  24.723  1.00  0.00     0.019 A 
ATOM     11  C   UNL     1       8.024  50.939  25.124  1.00  0.00     0.094 A 
ATOM     12  C   UNL     1       7.355  51.892  24.344  1.00  0.00     0.336 A 
ATOM     13  O   UNL     1       6.216  52.300  24.694  1.00  0.00    -0.246 OA
ATOM     14  O   UNL     1       7.914  52.370  23.235  1.00  0.00    -0.422 OA
ENDROOT
TORSDOF 0
ENDMDL
MODEL 3
REMARK VINA RESULT:    -5.707      1.086      4.231
REMARK INTER + INTRA:          -5.707
REMARK INTER:                  -5.707
REMARK INTRA:                   0.000
REMARK UNBOUND:                 0.000
REMARK SMILES O=c1ccc2ccc3occc3c2o1
REMARK SMILES IDX 6 1 7 2 8 3 12 4 11 5 10 6 9 7 13 8 5 9 4 10 3 11 2 12 1 13
REMARK SMILES IDX 14 14
REMARK H PARENT
REMARK Flexibility Score: inf
ROOT
ATOM      1  C   UNL     1      11.162  51.323  25.125  1.00  0.00     0.016 A 
ATOM      2  C   UNL     1      12.398  51.217  24.459  1.00  0.00     0.048 A 
ATOM      3  C   UNL     1      12.415  51.392  23.076  1.00  0.00     0.137 A 
ATOM      4  C   UNL     1      11.275  51.659  22.366  1.00  0.00     0.064 A 
ATOM      5  C   UNL     1      11.643  51.771  21.045  1.00  0.00     0.054 A 
ATOM      6  C   UNL     1      13.017  51.558  21.046  1.00  0.00     0.196 A 
ATOM      7  O   UNL     1      13.449  51.334  22.274  1.00  0.00    -0.464 OA
ATOM      8  C   UNL     1      10.033  51.772  22.988  1.00  0.00     0.149 A 
ATOM      9  C   UNL     1       9.979  51.599  24.395  1.00  0.00     0.018 A 
ATOM     10  C   UNL     1       8.737  51.712  25.026  1.00  0.00     0.019 A 
ATOM     11  C   UNL     1       7.603  51.985  24.259  1.00  0.00     0.094 A 
ATOM     12  C   UNL     1       7.736  52.142  22.873  1.00  0.00     0.336 A 
ATOM     13  O   UNL     1       6.723  52.389  22.169  1.00  0.00    -0.246 OA
ATOM     14  O   UNL     1       8.929  52.031  22.293  1.00  0.00    -0.422 OA
ENDROOT
TORSDOF 0
ENDMDL
MODEL 4
REMARK VINA RESULT:    -5.679      1.145      1.538
REMARK INTER + INTRA:          -5.679
REMARK INTER:                  -5.679
REMARK INTRA:                   0.000
REMARK UNBOUND:                 0.000
REMARK SMILES O=c1ccc2ccc3occc3c2o1
REMARK SMILES IDX 6 1 7 2 8 3 12 4 11 5 10 6 9 7 13 8 5 9 4 10 3 11 2 12 1 13
REMARK SMILES IDX 14 14
REMARK H PARENT
REMARK Flexibility Score: inf
ROOT
ATOM      1  C   UNL     1       7.981  52.016  23.752  1.00  0.00     0.016 A 
ATOM      2  C   UNL     1       7.383  52.311  22.513  1.00  0.00     0.048 A 
ATOM      3  C   UNL     1       8.216  52.502  21.411  1.00  0.00     0.137 A 
ATOM      4  C   UNL     1       9.579  52.408  21.510  1.00  0.00     0.064 A 
ATOM      5  C   UNL     1      10.088  52.649  20.254  1.00  0.00     0.054 A 
ATOM      6  C   UNL     1       8.969  52.878  19.461  1.00  0.00     0.196 A 
ATOM      7  O   UNL     1       7.865  52.783  20.181  1.00  0.00    -0.464 OA
ATOM      8  C   UNL     1      10.209  52.117  22.718  1.00  0.00     0.149 A 
ATOM      9  C   UNL     1       9.391  51.918  23.860  1.00  0.00     0.018 A 
ATOM     10  C   UNL     1      10.016  51.625  25.075  1.00  0.00     0.019 A 
ATOM     11  C   UNL     1      11.408  51.540  25.125  1.00  0.00     0.094 A 
ATOM     12  C   UNL     1      12.148  51.751  23.953  1.00  0.00     0.336 A 
ATOM     13  O   UNL     1      13.405  51.678  23.983  1.00  0.00    -0.246 OA
ATOM     14  O   UNL     1      11.532  52.028  22.807  1.00  0.00    -0.422 OA
ENDROOT
TORSDOF 0
ENDMDL
MODEL 5
REMARK VINA RESULT:    -5.576      1.291      4.282
REMARK INTER + INTRA:          -5.576
REMARK INTER:                  -5.576
REMARK INTRA:                   0.000
REMARK UNBOUND:                 0.000
REMARK SMILES O=c1ccc2ccc3occc3c2o1
REMARK SMILES IDX 6 1 7 2 8 3 12 4 11 5 10 6 9 7 13 8 5 9 4 10 3 11 2 12 1 13
REMARK SMILES IDX 14 14
REMARK H PARENT
REMARK Flexibility Score: inf
ROOT
ATOM      1  C   UNL     1       9.632  51.534  24.922  1.00  0.00     0.016 A 
ATOM      2  C   UNL     1      11.004  51.293  25.125  1.00  0.00     0.048 A 
ATOM      3  C   UNL     1      11.859  51.401  24.029  1.00  0.00     0.137 A 
ATOM      4  C   UNL     1      11.398  51.732  22.782  1.00  0.00     0.064 A 
ATOM      5  C   UNL     1      12.490  51.750  21.944  1.00  0.00     0.054 A 
ATOM      6  C   UNL     1      13.565  51.421  22.763  1.00  0.00     0.196 A 
ATOM      7  O   UNL     1      13.155  51.217  24.003  1.00  0.00    -0.464 OA
ATOM      8  C   UNL     1      10.049  51.979  22.540  1.00  0.00     0.149 A 
ATOM      9  C   UNL     1       9.150  51.878  23.634  1.00  0.00     0.018 A 
ATOM     10  C   UNL     1       7.795  52.125  23.399  1.00  0.00     0.019 A 
ATOM     11  C   UNL     1       7.374  52.459  22.111  1.00  0.00     0.094 A 
ATOM     12  C   UNL     1       8.322  52.539  21.081  1.00  0.00     0.336 A 
ATOM     13  O   UNL     1       7.957  52.839  19.914  1.00  0.00    -0.246 OA
ATOM     14  O   UNL     1       9.607  52.300  21.328  1.00  0.00    -0.422 OA
ENDROOT
TORSDOF 0
ENDMDL
MODEL 6
REMARK VINA RESULT:    -5.396      1.447      4.424
REMARK INTER + INTRA:          -5.396
REMARK INTER:                  -5.396
REMARK INTRA:                   0.000
REMARK UNBOUND:                 0.000
REMARK SMILES O=c1ccc2ccc3occc3c2o1
REMARK SMILES IDX 6 1 7 2 8 3 12 4 11 5 10 6 9 7 13 8 5 9 4 10 3 11 2 12 1 13
REMARK SMILES IDX 14 14
REMARK H PARENT
REMARK Flexibility Score: inf
ROOT
ATOM      1  C   UNL     1      12.675  51.635  24.716  1.00  0.00     0.016 A 
ATOM      2  C   UNL     1      13.746  51.553  23.806  1.00  0.00     0.048 A 
ATOM      3  C   UNL     1      13.447  51.497  22.445  1.00  0.00     0.137 A 
ATOM      4  C   UNL     1      12.156  51.520  21.986  1.00  0.00     0.064 A 
ATOM      5  C   UNL     1      12.219  51.450  20.614  1.00  0.00     0.054 A 
ATOM      6  C   UNL     1      13.578  51.388  20.328  1.00  0.00     0.196 A 
ATOM      7  O   UNL     1      14.286  51.417  21.443  1.00  0.00    -0.464 OA
ATOM      8  C   UNL     1      11.070  51.601  22.855  1.00  0.00     0.149 A 
ATOM      9  C   UNL     1      11.338  51.660  24.247  1.00  0.00     0.018 A 
ATOM     10  C   UNL     1      10.253  51.743  25.124  1.00  0.00     0.019 A 
ATOM     11  C   UNL     1       8.957  51.763  24.609  1.00  0.00     0.094 A 
ATOM     12  C   UNL     1       8.772  51.701  23.220  1.00  0.00     0.336 A 
ATOM     13  O   UNL     1       7.608  51.719  22.741  1.00  0.00    -0.246 OA
ATOM     14  O   UNL     1       9.820  51.623  22.404  1.00  0.00    -0.422 OA
ENDROOT
TORSDOF 0
ENDMDL
MODEL 7
REMARK VINA RESULT:    -5.309      4.563      8.170
REMARK INTER + INTRA:          -5.309
REMARK INTER:                  -5.309
REMARK INTRA:                   0.000
REMARK UNBOUND:                 0.000
REMARK SMILES O=c1ccc2ccc3occc3c2o1
REMARK SMILES IDX 6 1 7 2 8 3 12 4 11 5 10 6 9 7 13 8 5 9 4 10 3 11 2 12 1 13
REMARK SMILES IDX 14 14
REMARK H PARENT
REMARK Flexibility Score: inf
ROOT
ATOM      1  C   UNL     1       3.906  55.025  19.878  1.00  0.00     0.016 A 
ATOM      2  C   UNL     1       4.843  54.647  20.858  1.00  0.00     0.048 A 
ATOM      3  C   UNL     1       5.679  53.566  20.584  1.00  0.00     0.137 A 
ATOM      4  C   UNL     1       5.608  52.878  19.402  1.00  0.00     0.064 A 
ATOM      5  C   UNL     1       6.559  51.885  19.459  1.00  0.00     0.054 A 
ATOM      6  C   UNL     1       7.157  52.045  20.704  1.00  0.00     0.196 A 
ATOM      7  O   UNL     1       6.609  53.057  21.353  1.00  0.00    -0.464 OA
ATOM      8  C   UNL     1       4.694  53.221  18.407  1.00  0.00     0.149 A 
ATOM      9  C   UNL     1       3.828  54.317  18.653  1.00  0.00     0.018 A 
ATOM     10  C   UNL     1       2.910  54.667  17.660  1.00  0.00     0.019 A 
ATOM     11  C   UNL     1       2.875  53.935  16.472  1.00  0.00     0.094 A 
ATOM     12  C   UNL     1       3.764  52.865  16.302  1.00  0.00     0.336 A 
ATOM     13  O   UNL     1       3.744  52.195  15.236  1.00  0.00    -0.246 OA
ATOM     14  O   UNL     1       4.630  52.549  17.262  1.00  0.00    -0.422 OA
ENDROOT
TORSDOF 0
ENDMDL
MODEL 8
REMARK VINA RESULT:    -5.286      1.182      2.658
REMARK INTER + INTRA:          -5.286
REMARK INTER:                  -5.286
REMARK INTRA:                   0.000
REMARK UNBOUND:                 0.000
REMARK SMILES O=c1ccc2ccc3occc3c2o1
REMARK SMILES IDX 6 1 7 2 8 3 12 4 11 5 10 6 9 7 13 8 5 9 4 10 3 11 2 12 1 13
REMARK SMILES IDX 14 14
REMARK H PARENT
REMARK Flexibility Score: inf
ROOT
ATOM      1  C   UNL     1       9.105  52.496  21.116  1.00  0.00     0.016 A 
ATOM      2  C   UNL     1       7.865  52.525  21.782  1.00  0.00     0.048 A 
ATOM      3  C   UNL     1       7.838  52.185  23.134  1.00  0.00     0.137 A 
ATOM      4  C   UNL     1       8.974  51.831  23.813  1.00  0.00     0.064 A 
ATOM      5  C   UNL     1       8.596  51.561  25.109  1.00  0.00     0.054 A 
ATOM      6  C   UNL     1       7.222  51.775  25.125  1.00  0.00     0.196 A 
ATOM      7  O   UNL     1       6.799  52.146  23.929  1.00  0.00    -0.464 OA
ATOM      8  C   UNL     1      10.219  51.791  23.191  1.00  0.00     0.149 A 
ATOM      9  C   UNL     1      10.283  52.132  21.815  1.00  0.00     0.018 A 
ATOM     10  C   UNL     1      11.530  52.095  21.184  1.00  0.00     0.019 A 
ATOM     11  C   UNL     1      12.658  51.728  21.919  1.00  0.00     0.094 A 
ATOM     12  C   UNL     1      12.514  51.405  23.276  1.00  0.00     0.336 A 
ATOM     13  O   UNL     1      13.523  51.072  23.951  1.00  0.00    -0.246 OA
ATOM     14  O   UNL     1      11.318  51.447  23.856  1.00  0.00    -0.422 OA
ENDROOT
TORSDOF 0
ENDMDL
MODEL 9
REMARK VINA RESULT:    -5.181      1.407      4.955
REMARK INTER + INTRA:          -5.181
REMARK INTER:                  -5.181
REMARK INTRA:                   0.000
REMARK UNBOUND:                 0.000
REMARK SMILES O=c1ccc2ccc3occc3c2o1
REMARK SMILES IDX 6 1 7 2 8 3 12 4 11 5 10 6 9 7 13 8 5 9 4 10 3 11 2 12 1 13
REMARK SMILES IDX 14 14
REMARK H PARENT
REMARK Flexibility Score: inf
ROOT
ATOM      1  C   UNL     1      10.852  52.142  21.234  1.00  0.00     0.016 A 
ATOM      2  C   UNL     1      12.143  51.823  21.697  1.00  0.00     0.048 A 
ATOM      3  C   UNL     1      12.289  51.469  23.038  1.00  0.00     0.137 A 
ATOM      4  C   UNL     1      11.222  51.426  23.895  1.00  0.00     0.064 A 
ATOM      5  C   UNL     1      11.712  51.046  25.124  1.00  0.00     0.054 A 
ATOM      6  C   UNL     1      13.078  50.880  24.920  1.00  0.00     0.196 A 
ATOM      7  O   UNL     1      13.392  51.141  23.663  1.00  0.00    -0.464 OA
ATOM      8  C   UNL     1       9.930  51.734  23.475  1.00  0.00     0.149 A 
ATOM      9  C   UNL     1       9.745  52.099  22.117  1.00  0.00     0.018 A 
ATOM     10  C   UNL     1       8.451  52.409  21.688  1.00  0.00     0.019 A 
ATOM     11  C   UNL     1       7.396  52.351  22.600  1.00  0.00     0.094 A 
ATOM     12  C   UNL     1       7.659  51.982  23.927  1.00  0.00     0.336 A 
ATOM     13  O   UNL     1       6.717  51.926  24.760  1.00  0.00    -0.246 OA
ATOM     14  O   UNL     1       8.899  51.691  24.313  1.00  0.00    -0.422 OA
ENDROOT
TORSDOF 0
ENDMDL
