MODEL 1
REMARK VINA RESULT:    -1.884      0.000      0.000
REMARK INTER + INTRA:          -2.550
REMARK INTER:                  -2.325
REMARK INTRA:                  -0.225
REMARK UNBOUND:                -0.225
REMARK SMILES O=c1c(O)c(-c2cc(O)c(O)c(O)c2)oc2cc(O)cc(O)c12
REMARK SMILES IDX 5 1 3 2 2 3 1 4 23 5 21 6 20 7 18 8 17 9 16 10 15 11 6 12
REMARK SMILES IDX 7 13 8 14 14 15 10 16 12 17 9 18 11 20 13 22 4 24 22 26
REMARK SMILES IDX 19 28
REMARK H PARENT 9 19 11 21 13 23 4 25 22 27 19 29
REMARK Flexibility Score: inf
ROOT
ATOM      1  C   UNL     1      13.103 -33.081 -32.446  1.00  0.00     0.180 A 
ATOM      2  C   UNL     1      14.311 -32.374 -32.570  1.00  0.00     0.208 A 
ATOM      3  C   UNL     1      14.399 -31.335 -33.511  1.00  0.00     0.238 A 
ATOM      4  O   UNL     1      15.500 -30.742 -33.656  1.00  0.00    -0.285 OA
ATOM      5  C   UNL     1      13.273 -31.006 -34.304  1.00  0.00     0.111 A 
ATOM      6  C   UNL     1      13.236 -29.947 -35.259  1.00  0.00     0.134 A 
ATOM      7  C   UNL     1      12.111 -29.795 -36.080  1.00  0.00     0.093 A 
ATOM      8  C   UNL     1      10.996 -30.624 -35.934  1.00  0.00     0.123 A 
ATOM      9  C   UNL     1      10.999 -31.623 -34.963  1.00  0.00     0.094 A 
ATOM     10  C   UNL     1      12.121 -31.822 -34.154  1.00  0.00     0.146 A 
ATOM     11  O   UNL     1      12.086 -32.792 -33.249  1.00  0.00    -0.452 OA
ENDROOT
BRANCH   1  12
ATOM     12  C   UNL     1      12.927 -34.171 -31.459  1.00  0.00     0.029 A 
ATOM     13  C   UNL     1      12.801 -35.511 -31.862  1.00  0.00     0.062 A 
ATOM     14  C   UNL     1      12.660 -36.531 -30.912  1.00  0.00     0.162 A 
ATOM     15  C   UNL     1      12.945 -33.870 -30.088  1.00  0.00     0.062 A 
ATOM     16  C   UNL     1      12.655 -36.218 -29.543  1.00  0.00     0.200 A 
ATOM     17  C   UNL     1      12.802 -34.882 -29.133  1.00  0.00     0.162 A 
BRANCH  14  18
ATOM     18  O   UNL     1      12.529 -37.857 -31.326  1.00  0.00    -0.504 OA
ATOM     19  H   UNL     1      13.044 -38.606 -30.880  1.00  0.00     0.293 HD
ENDBRANCH  14  18
BRANCH  16  20
ATOM     20  O   UNL     1      12.510 -37.221 -28.583  1.00  0.00    -0.502 OA
ATOM     21  H   UNL     1      12.836 -38.168 -28.738  1.00  0.00     0.293 HD
ENDBRANCH  16  20
BRANCH  17  22
ATOM     22  O   UNL     1      12.810 -34.540 -27.781  1.00  0.00    -0.504 OA
ATOM     23  H   UNL     1      13.094 -33.624 -27.458  1.00  0.00     0.293 HD
ENDBRANCH  17  22
ENDBRANCH   1  12
BRANCH   2  24
ATOM     24  O   UNL     1      15.417 -32.729 -31.793  1.00  0.00    -0.502 OA
ATOM     25  H   UNL     1      16.029 -33.500 -32.036  1.00  0.00     0.293 HD
ENDBRANCH   2  24
BRANCH   6  26
ATOM     26  O   UNL     1      14.258 -29.007 -35.422  1.00  0.00    -0.507 OA
ATOM     27  H   UNL     1      14.719 -28.806 -36.297  1.00  0.00     0.293 HD
ENDBRANCH   6  26
BRANCH   8  28
ATOM     28  O   UNL     1       9.875 -30.456 -36.743  1.00  0.00    -0.508 OA
ATOM     29  H   UNL     1       9.489 -31.223 -37.280  1.00  0.00     0.293 HD
ENDBRANCH   8  28
TORSDOF 7
ENDMDL
MODEL 2
REMARK VINA RESULT:    -1.749      0.096      1.756
REMARK INTER + INTRA:          -2.383
REMARK INTER:                  -2.081
REMARK INTRA:                  -0.302
REMARK UNBOUND:                -0.225
REMARK SMILES O=c1c(O)c(-c2cc(O)c(O)c(O)c2)oc2cc(O)cc(O)c12
REMARK SMILES IDX 5 1 3 2 2 3 1 4 23 5 21 6 20 7 18 8 17 9 16 10 15 11 6 12
REMARK SMILES IDX 7 13 8 14 14 15 10 16 12 17 9 18 11 20 13 22 4 24 22 26
REMARK SMILES IDX 19 28
REMARK H PARENT 9 19 11 21 13 23 4 25 22 27 19 29
REMARK Flexibility Score: inf
ROOT
ATOM      1  C   UNL     1      13.171 -33.016 -32.417  1.00  0.00     0.180 A 
ATOM      2  C   UNL     1      14.374 -32.306 -32.571  1.00  0.00     0.208 A 
ATOM      3  C   UNL     1      14.444 -31.287 -33.536  1.00  0.00     0.238 A 
ATOM      4  O   UNL     1      15.540 -30.692 -33.708  1.00  0.00    -0.285 OA
ATOM      5  C   UNL     1      13.306 -30.982 -34.321  1.00  0.00     0.111 A 
ATOM      6  C   UNL     1      13.252 -29.943 -35.298  1.00  0.00     0.134 A 
ATOM      7  C   UNL     1      12.116 -29.815 -36.108  1.00  0.00     0.093 A 
ATOM      8  C   UNL     1      11.007 -30.646 -35.929  1.00  0.00     0.123 A 
ATOM      9  C   UNL     1      11.028 -31.623 -34.937  1.00  0.00     0.094 A 
ATOM     10  C   UNL     1      12.161 -31.800 -34.139  1.00  0.00     0.146 A 
ATOM     11  O   UNL     1      12.142 -32.750 -33.213  1.00  0.00    -0.452 OA
ENDROOT
BRANCH   1  12
ATOM     12  C   UNL     1      13.014 -34.086 -31.404  1.00  0.00     0.029 A 
ATOM     13  C   UNL     1      12.905 -33.788 -30.036  1.00  0.00     0.062 A 
ATOM     14  C   UNL     1      12.733 -34.812 -29.094  1.00  0.00     0.162 A 
ATOM     15  C   UNL     1      12.912 -35.422 -31.822  1.00  0.00     0.062 A 
ATOM     16  C   UNL     1      12.655 -36.149 -29.519  1.00  0.00     0.200 A 
ATOM     17  C   UNL     1      12.742 -36.450 -30.889  1.00  0.00     0.162 A 
BRANCH  14  18
ATOM     18  O   UNL     1      12.633 -34.504 -27.738  1.00  0.00    -0.504 OA
ATOM     19  H   UNL     1      12.826 -35.192 -27.021  1.00  0.00     0.293 HD
ENDBRANCH  14  18
BRANCH  16  20
ATOM     20  O   UNL     1      12.489 -37.181 -28.595  1.00  0.00    -0.502 OA
ATOM     21  H   UNL     1      11.585 -37.408 -28.196  1.00  0.00     0.293 HD
ENDBRANCH  16  20
BRANCH  17  22
ATOM     22  O   UNL     1      12.661 -37.766 -31.343  1.00  0.00    -0.504 OA
ATOM     23  H   UNL     1      12.744 -38.559 -30.719  1.00  0.00     0.293 HD
ENDBRANCH  17  22
ENDBRANCH   1  12
BRANCH   2  24
ATOM     24  O   UNL     1      15.492 -32.639 -31.801  1.00  0.00    -0.502 OA
ATOM     25  H   UNL     1      16.369 -32.936 -32.213  1.00  0.00     0.293 HD
ENDBRANCH   2  24
BRANCH   6  26
ATOM     26  O   UNL     1      14.267 -29.002 -35.495  1.00  0.00    -0.507 OA
ATOM     27  H   UNL     1      14.876 -28.974 -36.299  1.00  0.00     0.293 HD
ENDBRANCH   6  26
BRANCH   8  28
ATOM     28  O   UNL     1       9.875 -30.501 -36.728  1.00  0.00    -0.508 OA
ATOM     29  H   UNL     1       8.946 -30.684 -36.369  1.00  0.00     0.293 HD
ENDBRANCH   8  28
TORSDOF 7
ENDMDL
MODEL 3
REMARK VINA RESULT:    -1.668      2.522      7.458
REMARK INTER + INTRA:          -2.283
REMARK INTER:                  -2.545
REMARK INTRA:                   0.262
REMARK UNBOUND:                -0.225
REMARK SMILES O=c1c(O)c(-c2cc(O)c(O)c(O)c2)oc2cc(O)cc(O)c12
REMARK SMILES IDX 5 1 3 2 2 3 1 4 23 5 21 6 20 7 18 8 17 9 16 10 15 11 6 12
REMARK SMILES IDX 7 13 8 14 14 15 10 16 12 17 9 18 11 20 13 22 4 24 22 26
REMARK SMILES IDX 19 28
REMARK H PARENT 9 19 11 21 13 23 4 25 22 27 19 29
REMARK Flexibility Score: inf
ROOT
ATOM      1  C   UNL     1      10.722 -32.614 -32.855  1.00  0.00     0.180 A 
ATOM      2  C   UNL     1      10.450 -32.059 -31.593  1.00  0.00     0.208 A 
ATOM      3  C   UNL     1      10.723 -32.817 -30.443  1.00  0.00     0.238 A 
ATOM      4  O   UNL     1      10.426 -32.337 -29.317  1.00  0.00    -0.285 OA
ATOM      5  C   UNL     1      11.281 -34.113 -30.569  1.00  0.00     0.111 A 
ATOM      6  C   UNL     1      11.636 -34.952 -29.471  1.00  0.00     0.134 A 
ATOM      7  C   UNL     1      12.058 -36.266 -29.714  1.00  0.00     0.093 A 
ATOM      8  C   UNL     1      12.200 -36.747 -31.018  1.00  0.00     0.123 A 
ATOM      9  C   UNL     1      11.914 -35.915 -32.097  1.00  0.00     0.094 A 
ATOM     10  C   UNL     1      11.455 -34.612 -31.886  1.00  0.00     0.146 A 
ATOM     11  O   UNL     1      11.183 -33.856 -32.943  1.00  0.00    -0.452 OA
ENDROOT
BRANCH   1  12
ATOM     12  C   UNL     1      10.484 -31.866 -34.111  1.00  0.00     0.029 A 
ATOM     13  C   UNL     1      10.506 -30.462 -34.143  1.00  0.00     0.062 A 
ATOM     14  C   UNL     1      10.302 -29.773 -35.346  1.00  0.00     0.162 A 
ATOM     15  C   UNL     1      10.289 -32.573 -35.308  1.00  0.00     0.062 A 
ATOM     16  C   UNL     1      10.085 -30.488 -36.535  1.00  0.00     0.200 A 
ATOM     17  C   UNL     1      10.083 -31.893 -36.513  1.00  0.00     0.162 A 
BRANCH  14  18
ATOM     18  O   UNL     1      10.320 -28.378 -35.362  1.00  0.00    -0.504 OA
ATOM     19  H   UNL     1      10.444 -27.838 -34.515  1.00  0.00     0.293 HD
ENDBRANCH  14  18
BRANCH  16  20
ATOM     20  O   UNL     1       9.875 -29.817 -37.741  1.00  0.00    -0.502 OA
ATOM     21  H   UNL     1      10.570 -29.802 -38.479  1.00  0.00     0.293 HD
ENDBRANCH  16  20
BRANCH  17  22
ATOM     22  O   UNL     1       9.878 -32.631 -37.678  1.00  0.00    -0.504 OA
ATOM     23  H   UNL     1       9.792 -33.640 -37.670  1.00  0.00     0.293 HD
ENDBRANCH  17  22
ENDBRANCH   1  12
BRANCH   2  24
ATOM     24  O   UNL     1       9.879 -30.788 -31.492  1.00  0.00    -0.502 OA
ATOM     25  H   UNL     1       8.925 -30.595 -31.774  1.00  0.00     0.293 HD
ENDBRANCH   2  24
BRANCH   6  26
ATOM     26  O   UNL     1      11.618 -34.541 -28.135  1.00  0.00    -0.507 OA
ATOM     27  H   UNL     1      12.154 -34.969 -27.395  1.00  0.00     0.293 HD
ENDBRANCH   6  26
BRANCH   8  28
ATOM     28  O   UNL     1      12.636 -38.049 -31.251  1.00  0.00    -0.508 OA
ATOM     29  H   UNL     1      12.768 -38.708 -30.493  1.00  0.00     0.293 HD
ENDBRANCH   8  28
TORSDOF 7
ENDMDL
MODEL 4
REMARK VINA RESULT:    -1.595      1.341      7.069
REMARK INTER + INTRA:          -2.193
REMARK INTER:                  -1.963
REMARK INTRA:                  -0.230
REMARK UNBOUND:                -0.225
REMARK SMILES O=c1c(O)c(-c2cc(O)c(O)c(O)c2)oc2cc(O)cc(O)c12
REMARK SMILES IDX 5 1 3 2 2 3 1 4 23 5 21 6 20 7 18 8 17 9 16 10 15 11 6 12
REMARK SMILES IDX 7 13 8 14 14 15 10 16 12 17 9 18 11 20 13 22 4 24 22 26
REMARK SMILES IDX 19 28
REMARK H PARENT 9 19 11 21 13 23 4 25 22 27 19 29
REMARK Flexibility Score: inf
ROOT
ATOM      1  C   UNL     1      12.650 -33.293 -32.116  1.00  0.00     0.180 A 
ATOM      2  C   UNL     1      12.909 -32.918 -30.787  1.00  0.00     0.208 A 
ATOM      3  C   UNL     1      13.066 -33.919 -29.815  1.00  0.00     0.238 A 
ATOM      4  O   UNL     1      13.243 -33.577 -28.616  1.00  0.00    -0.285 OA
ATOM      5  C   UNL     1      12.979 -35.283 -30.188  1.00  0.00     0.111 A 
ATOM      6  C   UNL     1      13.162 -36.380 -29.294  1.00  0.00     0.134 A 
ATOM      7  C   UNL     1      12.924 -37.685 -29.745  1.00  0.00     0.093 A 
ATOM      8  C   UNL     1      12.573 -37.935 -31.074  1.00  0.00     0.123 A 
ATOM      9  C   UNL     1      12.451 -36.875 -31.968  1.00  0.00     0.094 A 
ATOM     10  C   UNL     1      12.646 -35.559 -31.540  1.00  0.00     0.146 A 
ATOM     11  O   UNL     1      12.509 -34.578 -32.422  1.00  0.00    -0.452 OA
ENDROOT
BRANCH   1  12
ATOM     12  C   UNL     1      12.498 -32.295 -33.200  1.00  0.00     0.029 A 
ATOM     13  C   UNL     1      13.570 -31.481 -33.601  1.00  0.00     0.062 A 
ATOM     14  C   UNL     1      13.414 -30.559 -34.645  1.00  0.00     0.162 A 
ATOM     15  C   UNL     1      11.275 -32.199 -33.882  1.00  0.00     0.062 A 
ATOM     16  C   UNL     1      12.179 -30.453 -35.307  1.00  0.00     0.200 A 
ATOM     17  C   UNL     1      11.110 -31.280 -34.924  1.00  0.00     0.162 A 
BRANCH  14  18
ATOM     18  O   UNL     1      14.484 -29.751 -35.029  1.00  0.00    -0.504 OA
ATOM     19  H   UNL     1      14.780 -29.686 -35.995  1.00  0.00     0.293 HD
ENDBRANCH  14  18
BRANCH  16  20
ATOM     20  O   UNL     1      12.004 -29.536 -36.345  1.00  0.00    -0.502 OA
ATOM     21  H   UNL     1      12.632 -28.753 -36.485  1.00  0.00     0.293 HD
ENDBRANCH  16  20
BRANCH  17  22
ATOM     22  O   UNL     1       9.875 -31.204 -35.567  1.00  0.00    -0.504 OA
ATOM     23  H   UNL     1       9.078 -31.755 -35.272  1.00  0.00     0.293 HD
ENDBRANCH  17  22
ENDBRANCH   1  12
BRANCH   2  24
ATOM     24  O   UNL     1      12.969 -31.566 -30.437  1.00  0.00    -0.502 OA
ATOM     25  H   UNL     1      13.838 -31.106 -30.191  1.00  0.00     0.293 HD
ENDBRANCH   2  24
BRANCH   6  26
ATOM     26  O   UNL     1      13.599 -36.247 -27.973  1.00  0.00    -0.507 OA
ATOM     27  H   UNL     1      13.339 -36.863 -27.217  1.00  0.00     0.293 HD
ENDBRANCH   6  26
BRANCH   8  28
ATOM     28  O   UNL     1      12.354 -39.237 -31.517  1.00  0.00    -0.508 OA
ATOM     29  H   UNL     1      12.581 -40.039 -30.942  1.00  0.00     0.293 HD
ENDBRANCH   8  28
TORSDOF 7
ENDMDL
MODEL 5
REMARK VINA RESULT:    -0.418      2.011      7.325
REMARK INTER + INTRA:          -0.740
REMARK INTER:                  -1.050
REMARK INTRA:                   0.310
REMARK UNBOUND:                -0.225
REMARK SMILES O=c1c(O)c(-c2cc(O)c(O)c(O)c2)oc2cc(O)cc(O)c12
REMARK SMILES IDX 5 1 3 2 2 3 1 4 23 5 21 6 20 7 18 8 17 9 16 10 15 11 6 12
REMARK SMILES IDX 7 13 8 14 14 15 10 16 12 17 9 18 11 20 13 22 4 24 22 26
REMARK SMILES IDX 19 28
REMARK H PARENT 9 19 11 21 13 23 4 25 22 27 19 29
REMARK Flexibility Score: inf
ROOT
ATOM      1  C   UNL     1      11.637 -32.405 -32.645  1.00  0.00     0.180 A 
ATOM      2  C   UNL     1      10.739 -33.478 -32.512  1.00  0.00     0.208 A 
ATOM      3  C   UNL     1      10.640 -34.134 -31.274  1.00  0.00     0.238 A 
ATOM      4  O   UNL     1       9.875 -35.129 -31.177  1.00  0.00    -0.285 OA
ATOM      5  C   UNL     1      11.427 -33.698 -30.181  1.00  0.00     0.111 A 
ATOM      6  C   UNL     1      11.378 -34.262 -28.872  1.00  0.00     0.134 A 
ATOM      7  C   UNL     1      12.296 -33.837 -27.901  1.00  0.00     0.093 A 
ATOM      8  C   UNL     1      13.216 -32.823 -28.176  1.00  0.00     0.123 A 
ATOM      9  C   UNL     1      13.231 -32.224 -29.433  1.00  0.00     0.094 A 
ATOM     10  C   UNL     1      12.353 -32.652 -30.433  1.00  0.00     0.146 A 
ATOM     11  O   UNL     1      12.408 -32.061 -31.620  1.00  0.00    -0.452 OA
ENDROOT
BRANCH   1  12
ATOM     12  C   UNL     1      11.777 -31.649 -33.911  1.00  0.00     0.029 A 
ATOM     13  C   UNL     1      10.754 -31.634 -34.873  1.00  0.00     0.062 A 
ATOM     14  C   UNL     1      10.896 -30.893 -36.054  1.00  0.00     0.162 A 
ATOM     15  C   UNL     1      12.933 -30.883 -34.132  1.00  0.00     0.062 A 
ATOM     16  C   UNL     1      12.065 -30.148 -36.278  1.00  0.00     0.200 A 
ATOM     17  C   UNL     1      13.084 -30.142 -35.309  1.00  0.00     0.162 A 
BRANCH  14  18
ATOM     18  O   UNL     1       9.875 -30.893 -37.004  1.00  0.00    -0.504 OA
ATOM     19  H   UNL     1       9.763 -30.132 -37.662  1.00  0.00     0.293 HD
ENDBRANCH  14  18
BRANCH  16  20
ATOM     20  O   UNL     1      12.226 -29.409 -37.451  1.00  0.00    -0.502 OA
ATOM     21  H   UNL     1      12.158 -28.398 -37.465  1.00  0.00     0.293 HD
ENDBRANCH  16  20
BRANCH  17  22
ATOM     22  O   UNL     1      14.253 -29.406 -35.497  1.00  0.00    -0.504 OA
ATOM     23  H   UNL     1      14.893 -29.206 -34.739  1.00  0.00     0.293 HD
ENDBRANCH  17  22
ENDBRANCH   1  12
BRANCH   2  24
ATOM     24  O   UNL     1       9.987 -33.906 -33.610  1.00  0.00    -0.502 OA
ATOM     25  H   UNL     1       9.528 -33.260 -34.241  1.00  0.00     0.293 HD
ENDBRANCH   2  24
BRANCH   6  26
ATOM     26  O   UNL     1      10.439 -35.215 -28.466  1.00  0.00    -0.507 OA
ATOM     27  H   UNL     1       9.707 -35.049 -27.792  1.00  0.00     0.293 HD
ENDBRANCH   6  26
BRANCH   8  28
ATOM     28  O   UNL     1      14.114 -32.395 -27.200  1.00  0.00    -0.508 OA
ATOM     29  H   UNL     1      13.968 -31.536 -26.685  1.00  0.00     0.293 HD
ENDBRANCH   8  28
TORSDOF 7
ENDMDL
MODEL 6
REMARK VINA RESULT:    -0.134      1.976      7.431
REMARK INTER + INTRA:          -0.390
REMARK INTER:                  -0.779
REMARK INTRA:                   0.389
REMARK UNBOUND:                -0.225
REMARK SMILES O=c1c(O)c(-c2cc(O)c(O)c(O)c2)oc2cc(O)cc(O)c12
REMARK SMILES IDX 5 1 3 2 2 3 1 4 23 5 21 6 20 7 18 8 17 9 16 10 15 11 6 12
REMARK SMILES IDX 7 13 8 14 14 15 10 16 12 17 9 18 11 20 13 22 4 24 22 26
REMARK SMILES IDX 19 28
REMARK H PARENT 9 19 11 21 13 23 4 25 22 27 19 29
REMARK Flexibility Score: inf
ROOT
ATOM      1  C   UNL     1      11.651 -32.418 -32.569  1.00  0.00     0.180 A 
ATOM      2  C   UNL     1      10.760 -33.502 -32.487  1.00  0.00     0.208 A 
ATOM      3  C   UNL     1      10.643 -34.197 -31.272  1.00  0.00     0.238 A 
ATOM      4  O   UNL     1       9.886 -35.201 -31.220  1.00  0.00    -0.285 OA
ATOM      5  C   UNL     1      11.406 -33.788 -30.151  1.00  0.00     0.111 A 
ATOM      6  C   UNL     1      11.337 -34.393 -28.860  1.00  0.00     0.134 A 
ATOM      7  C   UNL     1      12.231 -33.991 -27.860  1.00  0.00     0.093 A 
ATOM      8  C   UNL     1      13.148 -32.961 -28.085  1.00  0.00     0.123 A 
ATOM      9  C   UNL     1      13.181 -32.323 -29.323  1.00  0.00     0.094 A 
ATOM     10  C   UNL     1      12.327 -32.727 -30.352  1.00  0.00     0.146 A 
ATOM     11  O   UNL     1      12.400 -32.100 -31.520  1.00  0.00    -0.452 OA
ENDROOT
BRANCH   1  12
ATOM     12  C   UNL     1      11.809 -31.622 -33.808  1.00  0.00     0.029 A 
ATOM     13  C   UNL     1      12.985 -30.900 -34.069  1.00  0.00     0.062 A 
ATOM     14  C   UNL     1      13.126 -30.172 -35.259  1.00  0.00     0.162 A 
ATOM     15  C   UNL     1      10.787 -31.635 -34.771  1.00  0.00     0.062 A 
ATOM     16  C   UNL     1      12.089 -30.171 -36.207  1.00  0.00     0.200 A 
ATOM     17  C   UNL     1      10.918 -30.909 -35.960  1.00  0.00     0.162 A 
BRANCH  14  18
ATOM     18  O   UNL     1      14.296 -29.454 -35.503  1.00  0.00    -0.504 OA
ATOM     19  H   UNL     1      14.344 -28.749 -36.228  1.00  0.00     0.293 HD
ENDBRANCH  14  18
BRANCH  16  20
ATOM     20  O   UNL     1      12.210 -29.448 -37.394  1.00  0.00    -0.502 OA
ATOM     21  H   UNL     1      12.839 -29.730 -38.137  1.00  0.00     0.293 HD
ENDBRANCH  16  20
BRANCH  17  22
ATOM     22  O   UNL     1       9.875 -30.935 -36.884  1.00  0.00    -0.504 OA
ATOM     23  H   UNL     1       8.916 -30.747 -36.621  1.00  0.00     0.293 HD
ENDBRANCH  17  22
ENDBRANCH   1  12
BRANCH   2  24
ATOM     24  O   UNL     1      10.034 -33.903 -33.612  1.00  0.00    -0.502 OA
ATOM     25  H   UNL     1       9.352 -33.303 -34.062  1.00  0.00     0.293 HD
ENDBRANCH   2  24
BRANCH   6  26
ATOM     26  O   UNL     1      10.399 -35.366 -28.503  1.00  0.00    -0.507 OA
ATOM     27  H   UNL     1      10.223 -36.213 -29.022  1.00  0.00     0.293 HD
ENDBRANCH   6  26
BRANCH   8  28
ATOM     28  O   UNL     1      14.023 -32.556 -27.080  1.00  0.00    -0.508 OA
ATOM     29  H   UNL     1      14.060 -31.595 -26.764  1.00  0.00     0.293 HD
ENDBRANCH   8  28
TORSDOF 7
ENDMDL
MODEL 7
REMARK VINA RESULT:     0.090      1.758      7.313
REMARK INTER + INTRA:          -0.113
REMARK INTER:                  -0.214
REMARK INTRA:                   0.101
REMARK UNBOUND:                -0.225
REMARK SMILES O=c1c(O)c(-c2cc(O)c(O)c(O)c2)oc2cc(O)cc(O)c12
REMARK SMILES IDX 5 1 3 2 2 3 1 4 23 5 21 6 20 7 18 8 17 9 16 10 15 11 6 12
REMARK SMILES IDX 7 13 8 14 14 15 10 16 12 17 9 18 11 20 13 22 4 24 22 26
REMARK SMILES IDX 19 28
REMARK H PARENT 9 19 11 21 13 23 4 25 22 27 19 29
REMARK Flexibility Score: inf
ROOT
ATOM      1  C   UNL     1      12.422 -32.772 -31.849  1.00  0.00     0.180 A 
ATOM      2  C   UNL     1      11.988 -34.104 -31.741  1.00  0.00     0.208 A 
ATOM      3  C   UNL     1      12.087 -34.754 -30.500  1.00  0.00     0.238 A 
ATOM      4  O   UNL     1      11.748 -35.964 -30.422  1.00  0.00    -0.285 OA
ATOM      5  C   UNL     1      12.605 -34.059 -29.380  1.00  0.00     0.111 A 
ATOM      6  C   UNL     1      12.713 -34.605 -28.067  1.00  0.00     0.134 A 
ATOM      7  C   UNL     1      13.360 -33.872 -27.064  1.00  0.00     0.093 A 
ATOM      8  C   UNL     1      13.843 -32.585 -27.312  1.00  0.00     0.123 A 
ATOM      9  C   UNL     1      13.688 -32.019 -28.575  1.00  0.00     0.094 A 
ATOM     10  C   UNL     1      13.080 -32.741 -29.605  1.00  0.00     0.146 A 
ATOM     11  O   UNL     1      12.963 -32.168 -30.797  1.00  0.00    -0.452 OA
ENDROOT
BRANCH   1  12
ATOM     12  C   UNL     1      12.325 -32.013 -33.118  1.00  0.00     0.029 A 
ATOM     13  C   UNL     1      13.393 -31.229 -33.585  1.00  0.00     0.062 A 
ATOM     14  C   UNL     1      13.291 -30.538 -34.800  1.00  0.00     0.162 A 
ATOM     15  C   UNL     1      11.165 -32.123 -33.900  1.00  0.00     0.062 A 
ATOM     16  C   UNL     1      12.117 -30.635 -35.566  1.00  0.00     0.200 A 
ATOM     17  C   UNL     1      11.054 -31.435 -35.113  1.00  0.00     0.162 A 
BRANCH  14  18
ATOM     18  O   UNL     1      14.355 -29.757 -35.251  1.00  0.00    -0.504 OA
ATOM     19  H   UNL     1      14.332 -28.746 -35.198  1.00  0.00     0.293 HD
ENDBRANCH  14  18
BRANCH  16  20
ATOM     20  O   UNL     1      11.996 -29.949 -36.775  1.00  0.00    -0.502 OA
ATOM     21  H   UNL     1      11.143 -29.472 -37.043  1.00  0.00     0.293 HD
ENDBRANCH  16  20
BRANCH  17  22
ATOM     22  O   UNL     1       9.879 -31.558 -35.853  1.00  0.00    -0.504 OA
ATOM     23  H   UNL     1       9.671 -32.384 -36.401  1.00  0.00     0.293 HD
ENDBRANCH  17  22
ENDBRANCH   1  12
BRANCH   2  24
ATOM     24  O   UNL     1      11.501 -34.778 -32.864  1.00  0.00    -0.502 OA
ATOM     25  H   UNL     1      12.066 -35.433 -33.394  1.00  0.00     0.293 HD
ENDBRANCH   2  24
BRANCH   6  26
ATOM     26  O   UNL     1      12.183 -35.843 -27.690  1.00  0.00    -0.507 OA
ATOM     27  H   UNL     1      11.279 -35.974 -27.260  1.00  0.00     0.293 HD
ENDBRANCH   6  26
BRANCH   8  28
ATOM     28  O   UNL     1      14.471 -31.855 -26.305  1.00  0.00    -0.508 OA
ATOM     29  H   UNL     1      15.477 -31.739 -26.283  1.00  0.00     0.293 HD
ENDBRANCH   8  28
TORSDOF 7
ENDMDL
