MODEL 1
REMARK VINA RESULT:    -3.653      0.000      0.000
REMARK INTER + INTRA:          -4.085
REMARK INTER:                  -4.080
REMARK INTRA:                  -0.005
REMARK UNBOUND:                -0.005
REMARK SMILES CCCC(=O)[O-]
REMARK SMILES IDX 3 1 4 2 5 3 6 4 2 5 1 6
REMARK H PARENT
REMARK Flexibility Score: inf
ROOT
ATOM      1  C   UNL     1      -1.177   1.823   6.704  1.00  0.00     0.052 C 
ENDROOT
BRANCH   1   2
ATOM      2  C   UNL     1       0.296   1.905   6.954  1.00  0.00     0.041 C 
ATOM      3  O   UNL     1       0.984   2.801   6.398  1.00  0.00    -0.550 OA
ATOM      4  O   UNL     1       0.917   0.962   7.763  1.00  0.00    -0.550 OA
ENDBRANCH   1   2
BRANCH   1   5
ATOM      5  C   UNL     1      -1.455   1.118   5.374  1.00  0.00     0.003 C 
ATOM      6  C   UNL     1      -2.888   0.596   5.316  1.00  0.00     0.004 C 
ENDBRANCH   1   5
TORSDOF 2
ENDMDL
MODEL 2
REMARK VINA RESULT:    -3.651      0.152      1.324
REMARK INTER + INTRA:          -4.083
REMARK INTER:                  -4.077
REMARK INTRA:                  -0.007
REMARK UNBOUND:                -0.005
REMARK SMILES CCCC(=O)[O-]
REMARK SMILES IDX 3 1 4 2 5 3 6 4 2 5 1 6
REMARK H PARENT
REMARK Flexibility Score: inf
ROOT
ATOM      1  C   UNL     1      -1.101   1.876   6.759  1.00  0.00     0.052 C 
ENDROOT
BRANCH   1   2
ATOM      2  C   UNL     1       0.367   1.881   7.042  1.00  0.00     0.041 C 
ATOM      3  O   UNL     1       0.885   0.954   7.720  1.00  0.00    -0.550 OA
ATOM      4  O   UNL     1       1.158   2.933   6.598  1.00  0.00    -0.550 OA
ENDBRANCH   1   2
BRANCH   1   5
ATOM      5  C   UNL     1      -1.388   1.168   5.433  1.00  0.00     0.003 C 
ATOM      6  C   UNL     1      -2.827   0.661   5.379  1.00  0.00     0.004 C 
ENDBRANCH   1   5
TORSDOF 2
ENDMDL
MODEL 3
REMARK VINA RESULT:    -3.565      1.165      1.372
REMARK INTER + INTRA:          -3.988
REMARK INTER:                  -3.960
REMARK INTRA:                  -0.028
REMARK UNBOUND:                -0.005
REMARK SMILES CCCC(=O)[O-]
REMARK SMILES IDX 3 1 4 2 5 3 6 4 2 5 1 6
REMARK H PARENT
REMARK Flexibility Score: inf
ROOT
ATOM      1  C   UNL     1       0.084   0.538   5.782  1.00  0.00     0.052 C 
ENDROOT
BRANCH   1   2
ATOM      2  C   UNL     1       0.629   0.649   7.170  1.00  0.00     0.041 C 
ATOM      3  O   UNL     1       0.917   1.777   7.650  1.00  0.00    -0.550 OA
ATOM      4  O   UNL     1       0.863  -0.498   7.918  1.00  0.00    -0.550 OA
ENDBRANCH   1   2
BRANCH   1   5
ATOM      5  C   UNL     1      -1.079   1.514   5.584  1.00  0.00     0.003 C 
ATOM      6  C   UNL     1      -2.421   0.789   5.629  1.00  0.00     0.004 C 
ENDBRANCH   1   5
TORSDOF 2
ENDMDL
MODEL 4
REMARK VINA RESULT:    -3.541      1.214      1.859
REMARK INTER + INTRA:          -3.961
REMARK INTER:                  -3.913
REMARK INTRA:                  -0.047
REMARK UNBOUND:                -0.005
REMARK SMILES CCCC(=O)[O-]
REMARK SMILES IDX 3 1 4 2 5 3 6 4 2 5 1 6
REMARK H PARENT
REMARK Flexibility Score: inf
ROOT
ATOM      1  C   UNL     1       0.205   0.543   5.716  1.00  0.00     0.052 C 
ENDROOT
BRANCH   1   2
ATOM      2  C   UNL     1       0.658   0.616   7.139  1.00  0.00     0.041 C 
ATOM      3  O   UNL     1       0.772  -0.435   7.823  1.00  0.00    -0.550 OA
ATOM      4  O   UNL     1       0.910   1.850   7.727  1.00  0.00    -0.550 OA
ENDBRANCH   1   2
BRANCH   1   5
ATOM      5  C   UNL     1      -0.932   1.538   5.465  1.00  0.00     0.003 C 
ATOM      6  C   UNL     1      -2.293   0.889   5.700  1.00  0.00     0.004 C 
ENDBRANCH   1   5
TORSDOF 2
ENDMDL
MODEL 5
REMARK VINA RESULT:    -3.347      1.883      2.321
REMARK INTER + INTRA:          -3.743
REMARK INTER:                  -3.686
REMARK INTRA:                  -0.057
REMARK UNBOUND:                -0.005
REMARK SMILES CCCC(=O)[O-]
REMARK SMILES IDX 3 1 4 2 5 3 6 4 2 5 1 6
REMARK H PARENT
REMARK Flexibility Score: inf
ROOT
ATOM      1  C   UNL     1      -1.979   0.967   5.405  1.00  0.00     0.052 C 
ENDROOT
BRANCH   1   2
ATOM      2  C   UNL     1      -0.571   1.251   4.989  1.00  0.00     0.041 C 
ATOM      3  O   UNL     1      -0.290   2.324   4.393  1.00  0.00    -0.550 OA
ATOM      4  O   UNL     1       0.424   0.309   5.217  1.00  0.00    -0.550 OA
ENDBRANCH   1   2
BRANCH   1   5
ATOM      5  C   UNL     1      -2.023   0.506   6.865  1.00  0.00     0.003 C 
ATOM      6  C   UNL     1      -1.997   1.697   7.819  1.00  0.00     0.004 C 
ENDBRANCH   1   5
TORSDOF 2
ENDMDL
MODEL 6
REMARK VINA RESULT:    -3.263      1.753      2.247
REMARK INTER + INTRA:          -3.650
REMARK INTER:                  -3.612
REMARK INTRA:                  -0.038
REMARK UNBOUND:                -0.005
REMARK SMILES CCCC(=O)[O-]
REMARK SMILES IDX 3 1 4 2 5 3 6 4 2 5 1 6
REMARK H PARENT
REMARK Flexibility Score: inf
ROOT
ATOM      1  C   UNL     1      -0.740   1.852   6.366  1.00  0.00     0.052 C 
ENDROOT
BRANCH   1   2
ATOM      2  C   UNL     1      -0.017   1.519   5.099  1.00  0.00     0.041 C 
ATOM      3  O   UNL     1       0.670   0.466   5.019  1.00  0.00    -0.550 OA
ATOM      4  O   UNL     1      -0.061   2.396   4.023  1.00  0.00    -0.550 OA
ENDBRANCH   1   2
BRANCH   1   5
ATOM      5  C   UNL     1      -1.852   0.833   6.629  1.00  0.00     0.003 C 
ATOM      6  C   UNL     1      -2.756   0.677   5.409  1.00  0.00     0.004 C 
ENDBRANCH   1   5
TORSDOF 2
ENDMDL
MODEL 7
REMARK VINA RESULT:    -3.262      2.522      2.836
REMARK INTER + INTRA:          -3.649
REMARK INTER:                  -3.611
REMARK INTRA:                  -0.038
REMARK UNBOUND:                -0.005
REMARK SMILES CCCC(=O)[O-]
REMARK SMILES IDX 3 1 4 2 5 3 6 4 2 5 1 6
REMARK H PARENT
REMARK Flexibility Score: inf
ROOT
ATOM      1  C   UNL     1      -0.045   1.054   6.596  1.00  0.00     0.052 C 
ENDROOT
BRANCH   1   2
ATOM      2  C   UNL     1      -0.900   1.450   5.434  1.00  0.00     0.041 C 
ATOM      3  O   UNL     1      -0.445   2.217   4.545  1.00  0.00    -0.550 OA
ATOM      4  O   UNL     1      -2.215   1.010   5.358  1.00  0.00    -0.550 OA
ENDBRANCH   1   2
BRANCH   1   5
ATOM      5  C   UNL     1       0.384  -0.410   6.469  1.00  0.00     0.003 C 
ATOM      6  C   UNL     1      -0.421  -1.303   7.409  1.00  0.00     0.004 C 
ENDBRANCH   1   5
TORSDOF 2
ENDMDL
MODEL 8
REMARK VINA RESULT:    -3.156      1.968      2.466
REMARK INTER + INTRA:          -3.530
REMARK INTER:                  -3.493
REMARK INTRA:                  -0.038
REMARK UNBOUND:                -0.005
REMARK SMILES CCCC(=O)[O-]
REMARK SMILES IDX 3 1 4 2 5 3 6 4 2 5 1 6
REMARK H PARENT
REMARK Flexibility Score: inf
ROOT
ATOM      1  C   UNL     1      -0.241   0.518   6.316  1.00  0.00     0.052 C 
ENDROOT
BRANCH   1   2
ATOM      2  C   UNL     1       0.583   1.664   6.810  1.00  0.00     0.041 C 
ATOM      3  O   UNL     1       0.932   1.720   8.019  1.00  0.00    -0.550 OA
ATOM      4  O   UNL     1       0.927   2.697   5.946  1.00  0.00    -0.550 OA
ENDBRANCH   1   2
BRANCH   1   5
ATOM      5  C   UNL     1       0.281  -0.802   6.891  1.00  0.00     0.003 C 
ATOM      6  C   UNL     1      -0.799  -1.516   7.699  1.00  0.00     0.004 C 
ENDBRANCH   1   5
TORSDOF 2
ENDMDL
MODEL 9
REMARK VINA RESULT:    -3.053     14.965     15.461
REMARK INTER + INTRA:          -3.416
REMARK INTER:                  -3.409
REMARK INTRA:                  -0.007
REMARK UNBOUND:                -0.005
REMARK SMILES CCCC(=O)[O-]
REMARK SMILES IDX 3 1 4 2 5 3 6 4 2 5 1 6
REMARK H PARENT
REMARK Flexibility Score: inf
ROOT
ATOM      1  C   UNL     1      -7.818  -7.897  -3.353  1.00  0.00     0.052 C 
ENDROOT
BRANCH   1   2
ATOM      2  C   UNL     1      -7.688  -6.987  -4.533  1.00  0.00     0.041 C 
ATOM      3  O   UNL     1      -6.955  -7.309  -5.505  1.00  0.00    -0.550 OA
ATOM      4  O   UNL     1      -8.340  -5.760  -4.539  1.00  0.00    -0.550 OA
ENDBRANCH   1   2
BRANCH   1   5
ATOM      5  C   UNL     1      -6.440  -8.205  -2.762  1.00  0.00     0.003 C 
ATOM      6  C   UNL     1      -6.560  -9.042  -1.491  1.00  0.00     0.004 C 
ENDBRANCH   1   5
TORSDOF 2
ENDMDL
