MODEL 1
REMARK VINA RESULT:    -6.879      0.000      0.000
REMARK INTER + INTRA:          -6.879
REMARK INTER:                  -6.879
REMARK INTRA:                   0.000
REMARK UNBOUND:                 0.000
REMARK SMILES O=c1ccc2ccc3occc3c2o1
REMARK SMILES IDX 6 1 7 2 8 3 12 4 11 5 10 6 9 7 13 8 5 9 4 10 3 11 2 12 1 13
REMARK SMILES IDX 14 14
REMARK H PARENT
REMARK Flexibility Score: inf
ROOT
ATOM      1  C   UNL     1      71.128  39.614  -5.286  1.00  0.00     0.016 A 
ATOM      2  C   UNL     1      71.269  40.361  -4.101  1.00  0.00     0.048 A 
ATOM      3  C   UNL     1      72.427  41.121  -3.940  1.00  0.00     0.137 A 
ATOM      4  C   UNL     1      73.410  41.155  -4.891  1.00  0.00     0.064 A 
ATOM      5  C   UNL     1      74.396  41.990  -4.420  1.00  0.00     0.054 A 
ATOM      6  C   UNL     1      73.930  42.416  -3.181  1.00  0.00     0.196 A 
ATOM      7  O   UNL     1      72.750  41.881  -2.921  1.00  0.00    -0.464 OA
ATOM      8  C   UNL     1      73.307  40.429  -6.077  1.00  0.00     0.149 A 
ATOM      9  C   UNL     1      72.142  39.645  -6.275  1.00  0.00     0.018 A 
ATOM     10  C   UNL     1      72.033  38.915  -7.461  1.00  0.00     0.019 A 
ATOM     11  C   UNL     1      73.062  38.980  -8.402  1.00  0.00     0.094 A 
ATOM     12  C   UNL     1      74.182  39.778  -8.135  1.00  0.00     0.336 A 
ATOM     13  O   UNL     1      75.118  39.847  -8.974  1.00  0.00    -0.246 OA
ATOM     14  O   UNL     1      74.266  40.465  -6.998  1.00  0.00    -0.422 OA
ENDROOT
TORSDOF 0
ENDMDL
MODEL 2
REMARK VINA RESULT:    -6.391      1.267      2.677
REMARK INTER + INTRA:          -6.391
REMARK INTER:                  -6.391
REMARK INTRA:                   0.000
REMARK UNBOUND:                 0.000
REMARK SMILES O=c1ccc2ccc3occc3c2o1
REMARK SMILES IDX 6 1 7 2 8 3 12 4 11 5 10 6 9 7 13 8 5 9 4 10 3 11 2 12 1 13
REMARK SMILES IDX 14 14
REMARK H PARENT
REMARK Flexibility Score: inf
ROOT
ATOM      1  C   UNL     1      74.774  41.754  -5.674  1.00  0.00     0.016 A 
ATOM      2  C   UNL     1      73.991  41.758  -4.504  1.00  0.00     0.048 A 
ATOM      3  C   UNL     1      72.822  41.000  -4.495  1.00  0.00     0.137 A 
ATOM      4  C   UNL     1      72.426  40.266  -5.581  1.00  0.00     0.064 A 
ATOM      5  C   UNL     1      71.246  39.648  -5.239  1.00  0.00     0.054 A 
ATOM      6  C   UNL     1      71.000  40.062  -3.934  1.00  0.00     0.196 A 
ATOM      7  O   UNL     1      71.960  40.869  -3.516  1.00  0.00    -0.464 OA
ATOM      8  C   UNL     1      73.174  40.235  -6.757  1.00  0.00     0.149 A 
ATOM      9  C   UNL     1      74.371  40.995  -6.801  1.00  0.00     0.018 A 
ATOM     10  C   UNL     1      75.125  40.969  -7.976  1.00  0.00     0.019 A 
ATOM     11  C   UNL     1      74.681  40.206  -9.058  1.00  0.00     0.094 A 
ATOM     12  C   UNL     1      73.488  39.482  -8.938  1.00  0.00     0.336 A 
ATOM     13  O   UNL     1      73.075  38.789  -9.904  1.00  0.00    -0.246 OA
ATOM     14  O   UNL     1      72.785  39.520  -7.808  1.00  0.00    -0.422 OA
ENDROOT
TORSDOF 0
ENDMDL
MODEL 3
REMARK VINA RESULT:    -6.347      1.102      4.267
REMARK INTER + INTRA:          -6.347
REMARK INTER:                  -6.347
REMARK INTRA:                   0.000
REMARK UNBOUND:                 0.000
REMARK SMILES O=c1ccc2ccc3occc3c2o1
REMARK SMILES IDX 6 1 7 2 8 3 12 4 11 5 10 6 9 7 13 8 5 9 4 10 3 11 2 12 1 13
REMARK SMILES IDX 14 14
REMARK H PARENT
REMARK Flexibility Score: inf
ROOT
ATOM      1  C   UNL     1      71.344  39.298  -6.647  1.00  0.00     0.016 A 
ATOM      2  C   UNL     1      72.000  39.117  -7.879  1.00  0.00     0.048 A 
ATOM      3  C   UNL     1      73.257  39.698  -8.044  1.00  0.00     0.137 A 
ATOM      4  C   UNL     1      73.853  40.429  -7.051  1.00  0.00     0.064 A 
ATOM      5  C   UNL     1      75.067  40.853  -7.540  1.00  0.00     0.054 A 
ATOM      6  C   UNL     1      75.125  40.336  -8.829  1.00  0.00     0.196 A 
ATOM      7  O   UNL     1      74.029  39.650  -9.102  1.00  0.00    -0.464 OA
ATOM      8  C   UNL     1      73.235  40.631  -5.818  1.00  0.00     0.149 A 
ATOM      9  C   UNL     1      71.956  40.053  -5.616  1.00  0.00     0.018 A 
ATOM     10  C   UNL     1      71.331  40.252  -4.382  1.00  0.00     0.019 A 
ATOM     11  C   UNL     1      71.978  41.005  -3.400  1.00  0.00     0.094 A 
ATOM     12  C   UNL     1      73.241  41.544  -3.676  1.00  0.00     0.336 A 
ATOM     13  O   UNL     1      73.837  42.225  -2.801  1.00  0.00    -0.246 OA
ATOM     14  O   UNL     1      73.819  41.342  -4.858  1.00  0.00    -0.422 OA
ENDROOT
TORSDOF 0
ENDMDL
MODEL 4
REMARK VINA RESULT:    -6.087      2.144      5.383
REMARK INTER + INTRA:          -6.087
REMARK INTER:                  -6.087
REMARK INTRA:                   0.000
REMARK UNBOUND:                 0.000
REMARK SMILES O=c1ccc2ccc3occc3c2o1
REMARK SMILES IDX 6 1 7 2 8 3 12 4 11 5 10 6 9 7 13 8 5 9 4 10 3 11 2 12 1 13
REMARK SMILES IDX 14 14
REMARK H PARENT
REMARK Flexibility Score: inf
ROOT
ATOM      1  C   UNL     1      74.528  42.395  -5.415  1.00  0.00     0.016 A 
ATOM      2  C   UNL     1      73.963  41.205  -5.912  1.00  0.00     0.048 A 
ATOM      3  C   UNL     1      72.895  40.645  -5.212  1.00  0.00     0.137 A 
ATOM      4  C   UNL     1      72.395  41.218  -4.074  1.00  0.00     0.064 A 
ATOM      5  C   UNL     1      71.360  40.419  -3.644  1.00  0.00     0.054 A 
ATOM      6  C   UNL     1      71.304  39.389  -4.577  1.00  0.00     0.196 A 
ATOM      7  O   UNL     1      72.233  39.551  -5.503  1.00  0.00    -0.464 OA
ATOM      8  C   UNL     1      72.927  42.395  -3.551  1.00  0.00     0.149 A 
ATOM      9  C   UNL     1      74.015  42.993  -4.238  1.00  0.00     0.018 A 
ATOM     10  C   UNL     1      74.552  44.173  -3.720  1.00  0.00     0.019 A 
ATOM     11  C   UNL     1      74.009  44.720  -2.556  1.00  0.00     0.094 A 
ATOM     12  C   UNL     1      72.935  44.071  -1.934  1.00  0.00     0.336 A 
ATOM     13  O   UNL     1      72.434  44.552  -0.884  1.00  0.00    -0.246 OA
ATOM     14  O   UNL     1      72.437  42.947  -2.445  1.00  0.00    -0.422 OA
ENDROOT
TORSDOF 0
ENDMDL
MODEL 5
REMARK VINA RESULT:    -6.083      1.515      4.237
REMARK INTER + INTRA:          -6.083
REMARK INTER:                  -6.083
REMARK INTRA:                   0.000
REMARK UNBOUND:                 0.000
REMARK SMILES O=c1ccc2ccc3occc3c2o1
REMARK SMILES IDX 6 1 7 2 8 3 12 4 11 5 10 6 9 7 13 8 5 9 4 10 3 11 2 12 1 13
REMARK SMILES IDX 14 14
REMARK H PARENT
REMARK Flexibility Score: inf
ROOT
ATOM      1  C   UNL     1      71.230  40.020  -3.918  1.00  0.00     0.016 A 
ATOM      2  C   UNL     1      71.116  39.169  -5.034  1.00  0.00     0.048 A 
ATOM      3  C   UNL     1      72.011  39.347  -6.088  1.00  0.00     0.137 A 
ATOM      4  C   UNL     1      72.979  40.315  -6.061  1.00  0.00     0.064 A 
ATOM      5  C   UNL     1      73.677  40.216  -7.242  1.00  0.00     0.054 A 
ATOM      6  C   UNL     1      73.067  39.168  -7.922  1.00  0.00     0.196 A 
ATOM      7  O   UNL     1      72.075  38.668  -7.207  1.00  0.00    -0.464 OA
ATOM      8  C   UNL     1      73.124  41.176  -4.975  1.00  0.00     0.149 A 
ATOM      9  C   UNL     1      72.230  41.023  -3.884  1.00  0.00     0.018 A 
ATOM     10  C   UNL     1      72.370  41.883  -2.792  1.00  0.00     0.019 A 
ATOM     11  C   UNL     1      73.373  42.855  -2.810  1.00  0.00     0.094 A 
ATOM     12  C   UNL     1      74.216  42.944  -3.924  1.00  0.00     0.336 A 
ATOM     13  O   UNL     1      75.125  43.815  -3.955  1.00  0.00    -0.246 OA
ATOM     14  O   UNL     1      74.066  42.114  -4.954  1.00  0.00    -0.422 OA
ENDROOT
TORSDOF 0
ENDMDL
MODEL 6
REMARK VINA RESULT:    -6.059      2.153      5.180
REMARK INTER + INTRA:          -6.059
REMARK INTER:                  -6.059
REMARK INTRA:                   0.000
REMARK UNBOUND:                 0.000
REMARK SMILES O=c1ccc2ccc3occc3c2o1
REMARK SMILES IDX 6 1 7 2 8 3 12 4 11 5 10 6 9 7 13 8 5 9 4 10 3 11 2 12 1 13
REMARK SMILES IDX 14 14
REMARK H PARENT
REMARK Flexibility Score: inf
ROOT
ATOM      1  C   UNL     1      72.275  41.432  -3.225  1.00  0.00     0.016 A 
ATOM      2  C   UNL     1      72.638  40.629  -4.322  1.00  0.00     0.048 A 
ATOM      3  C   UNL     1      73.617  41.111  -5.191  1.00  0.00     0.137 A 
ATOM      4  C   UNL     1      74.219  42.326  -5.002  1.00  0.00     0.064 A 
ATOM      5  C   UNL     1      75.122  42.489  -6.026  1.00  0.00     0.054 A 
ATOM      6  C   UNL     1      75.002  41.331  -6.786  1.00  0.00     0.196 A 
ATOM      7  O   UNL     1      74.095  40.525  -6.262  1.00  0.00    -0.464 OA
ATOM      8  C   UNL     1      73.886  43.149  -3.928  1.00  0.00     0.149 A 
ATOM      9  C   UNL     1      72.894  42.690  -3.023  1.00  0.00     0.018 A 
ATOM     10  C   UNL     1      72.555  43.511  -1.945  1.00  0.00     0.019 A 
ATOM     11  C   UNL     1      73.196  44.742  -1.794  1.00  0.00     0.094 A 
ATOM     12  C   UNL     1      74.166  45.126  -2.729  1.00  0.00     0.336 A 
ATOM     13  O   UNL     1      74.752  46.233  -2.606  1.00  0.00    -0.246 OA
ATOM     14  O   UNL     1      74.473  44.329  -3.749  1.00  0.00    -0.422 OA
ENDROOT
TORSDOF 0
ENDMDL
MODEL 7
REMARK VINA RESULT:    -5.533     12.650     15.386
REMARK INTER + INTRA:          -5.533
REMARK INTER:                  -5.533
REMARK INTRA:                   0.000
REMARK UNBOUND:                 0.000
REMARK SMILES O=c1ccc2ccc3occc3c2o1
REMARK SMILES IDX 6 1 7 2 8 3 12 4 11 5 10 6 9 7 13 8 5 9 4 10 3 11 2 12 1 13
REMARK SMILES IDX 14 14
REMARK H PARENT
REMARK Flexibility Score: inf
ROOT
ATOM      1  C   UNL     1      73.259  48.850   8.510  1.00  0.00     0.016 A 
ATOM      2  C   UNL     1      72.183  49.215   9.341  1.00  0.00     0.048 A 
ATOM      3  C   UNL     1      70.896  49.163   8.808  1.00  0.00     0.137 A 
ATOM      4  C   UNL     1      70.662  48.773   7.516  1.00  0.00     0.064 A 
ATOM      5  C   UNL     1      69.302  48.836   7.319  1.00  0.00     0.054 A 
ATOM      6  C   UNL     1      68.792  49.272   8.536  1.00  0.00     0.196 A 
ATOM      7  O   UNL     1      69.768  49.459   9.407  1.00  0.00    -0.464 OA
ATOM      8  C   UNL     1      71.701  48.404   6.663  1.00  0.00     0.149 A 
ATOM      9  C   UNL     1      73.024  48.444   7.173  1.00  0.00     0.018 A 
ATOM     10  C   UNL     1      74.069  48.076   6.323  1.00  0.00     0.019 A 
ATOM     11  C   UNL     1      73.781  47.685   5.014  1.00  0.00     0.094 A 
ATOM     12  C   UNL     1      72.449  47.671   4.583  1.00  0.00     0.336 A 
ATOM     13  O   UNL     1      72.174  47.321   3.405  1.00  0.00    -0.246 OA
ATOM     14  O   UNL     1      71.468  48.026   5.410  1.00  0.00    -0.422 OA
ENDROOT
TORSDOF 0
ENDMDL
MODEL 8
REMARK VINA RESULT:    -5.446     12.137     15.608
REMARK INTER + INTRA:          -5.446
REMARK INTER:                  -5.446
REMARK INTRA:                   0.000
REMARK UNBOUND:                 0.000
REMARK SMILES O=c1ccc2ccc3occc3c2o1
REMARK SMILES IDX 6 1 7 2 8 3 12 4 11 5 10 6 9 7 13 8 5 9 4 10 3 11 2 12 1 13
REMARK SMILES IDX 14 14
REMARK H PARENT
REMARK Flexibility Score: inf
ROOT
ATOM      1  C   UNL     1      70.102  49.645   6.664  1.00  0.00     0.016 A 
ATOM      2  C   UNL     1      70.210  49.308   5.302  1.00  0.00     0.048 A 
ATOM      3  C   UNL     1      71.254  48.469   4.915  1.00  0.00     0.137 A 
ATOM      4  C   UNL     1      72.160  47.978   5.816  1.00  0.00     0.064 A 
ATOM      5  C   UNL     1      73.045  47.196   5.110  1.00  0.00     0.054 A 
ATOM      6  C   UNL     1      72.602  47.271   3.794  1.00  0.00     0.196 A 
ATOM      7  O   UNL     1      71.530  48.038   3.708  1.00  0.00    -0.464 OA
ATOM      8  C   UNL     1      72.087  48.288   7.173  1.00  0.00     0.149 A 
ATOM      9  C   UNL     1      71.036  49.139   7.602  1.00  0.00     0.018 A 
ATOM     10  C   UNL     1      70.957  49.454   8.961  1.00  0.00     0.019 A 
ATOM     11  C   UNL     1      71.904  48.929   9.842  1.00  0.00     0.094 A 
ATOM     12  C   UNL     1      72.913  48.096   9.342  1.00  0.00     0.336 A 
ATOM     13  O   UNL     1      73.774  47.615  10.124  1.00  0.00    -0.246 OA
ATOM     14  O   UNL     1      72.970  47.808   8.044  1.00  0.00    -0.422 OA
ENDROOT
TORSDOF 0
ENDMDL
MODEL 9
REMARK VINA RESULT:    -5.356     13.413     15.614
REMARK INTER + INTRA:          -5.356
REMARK INTER:                  -5.356
REMARK INTRA:                   0.000
REMARK UNBOUND:                 0.000
REMARK SMILES O=c1ccc2ccc3occc3c2o1
REMARK SMILES IDX 6 1 7 2 8 3 12 4 11 5 10 6 9 7 13 8 5 9 4 10 3 11 2 12 1 13
REMARK SMILES IDX 14 14
REMARK H PARENT
REMARK Flexibility Score: inf
ROOT
ATOM      1  C   UNL     1      70.759  49.402   8.900  1.00  0.00     0.016 A 
ATOM      2  C   UNL     1      71.666  48.900   9.853  1.00  0.00     0.048 A 
ATOM      3  C   UNL     1      72.721  48.109   9.401  1.00  0.00     0.137 A 
ATOM      4  C   UNL     1      72.889  47.814   8.075  1.00  0.00     0.064 A 
ATOM      5  C   UNL     1      74.010  47.023   7.979  1.00  0.00     0.054 A 
ATOM      6  C   UNL     1      74.456  46.889   9.289  1.00  0.00     0.196 A 
ATOM      7  O   UNL     1      73.666  47.549  10.117  1.00  0.00    -0.464 OA
ATOM      8  C   UNL     1      72.012  48.291   7.101  1.00  0.00     0.149 A 
ATOM      9  C   UNL     1      70.928  49.101   7.526  1.00  0.00     0.018 A 
ATOM     10  C   UNL     1      70.046  49.582   6.555  1.00  0.00     0.019 A 
ATOM     11  C   UNL     1      70.258  49.255   5.215  1.00  0.00     0.094 A 
ATOM     12  C   UNL     1      71.352  48.450   4.874  1.00  0.00     0.336 A 
ATOM     13  O   UNL     1      71.556  48.146   3.669  1.00  0.00    -0.246 OA
ATOM     14  O   UNL     1      72.180  48.001   5.815  1.00  0.00    -0.422 OA
ENDROOT
TORSDOF 0
ENDMDL
