MODEL 1
REMARK VINA RESULT:    -5.160      0.000      0.000
REMARK INTER + INTRA:          -5.160
REMARK INTER:                  -5.160
REMARK INTRA:                   0.000
REMARK UNBOUND:                 0.000
REMARK SMILES CC1(C)O[C@]2(C)CC[C@H]1CC2
REMARK SMILES IDX 1 1 2 2 9 3 8 4 7 5 5 6 4 7 11 8 10 9 6 10 3 11
REMARK H PARENT
REMARK Flexibility Score: inf
ROOT
ATOM      1  C   UNL     1      10.584  21.963  18.024  1.00  0.00     0.042 C 
ATOM      2  C   UNL     1      11.447  20.711  17.758  1.00  0.00     0.066 C 
ATOM      3  C   UNL     1      12.968  21.009  18.056  1.00  0.00     0.021 C 
ATOM      4  C   UNL     1      13.455  22.102  17.075  1.00  0.00     0.009 C 
ATOM      5  C   UNL     1      13.093  21.686  15.629  1.00  0.00     0.035 C 
ATOM      6  C   UNL     1      12.447  20.270  15.633  1.00  0.00     0.066 C 
ATOM      7  O   UNL     1      11.240  20.309  16.395  1.00  0.00    -0.369 OA
ATOM      8  C   UNL     1      13.436  19.266  16.292  1.00  0.00     0.035 C 
ATOM      9  C   UNL     1      13.789  19.739  17.723  1.00  0.00     0.009 C 
ATOM     10  C   UNL     1      12.116  19.831  14.203  1.00  0.00     0.042 C 
ATOM     11  C   UNL     1      10.920  19.587  18.675  1.00  0.00     0.042 C 
ENDROOT
TORSDOF 0
ENDMDL
MODEL 2
REMARK VINA RESULT:    -5.150      0.999      3.290
REMARK INTER + INTRA:          -5.150
REMARK INTER:                  -5.150
REMARK INTRA:                   0.000
REMARK UNBOUND:                 0.000
REMARK SMILES CC1(C)O[C@]2(C)CC[C@H]1CC2
REMARK SMILES IDX 1 1 2 2 9 3 8 4 7 5 5 6 4 7 11 8 10 9 6 10 3 11
REMARK H PARENT
REMARK Flexibility Score: inf
ROOT
ATOM      1  C   UNL     1      13.734  18.809  15.506  1.00  0.00     0.042 C 
ATOM      2  C   UNL     1      13.051  20.135  15.905  1.00  0.00     0.066 C 
ATOM      3  C   UNL     1      13.780  20.786  17.144  1.00  0.00     0.021 C 
ATOM      4  C   UNL     1      13.638  19.831  18.354  1.00  0.00     0.009 C 
ATOM      5  C   UNL     1      12.147  19.458  18.535  1.00  0.00     0.035 C 
ATOM      6  C   UNL     1      11.279  20.237  17.504  1.00  0.00     0.066 C 
ATOM      7  O   UNL     1      11.670  19.860  16.183  1.00  0.00    -0.369 OA
ATOM      8  C   UNL     1      11.519  21.762  17.693  1.00  0.00     0.035 C 
ATOM      9  C   UNL     1      13.024  22.081  17.530  1.00  0.00     0.009 C 
ATOM     10  C   UNL     1       9.796  19.902  17.696  1.00  0.00     0.042 C 
ATOM     11  C   UNL     1      13.116  21.072  14.679  1.00  0.00     0.042 C 
ENDROOT
TORSDOF 0
ENDMDL
MODEL 3
REMARK VINA RESULT:    -5.085      1.263      2.551
REMARK INTER + INTRA:          -5.085
REMARK INTER:                  -5.085
REMARK INTRA:                   0.000
REMARK UNBOUND:                 0.000
REMARK SMILES CC1(C)O[C@]2(C)CC[C@H]1CC2
REMARK SMILES IDX 1 1 2 2 9 3 8 4 7 5 5 6 4 7 11 8 10 9 6 10 3 11
REMARK H PARENT
REMARK Flexibility Score: inf
ROOT
ATOM      1  C   UNL     1      10.040  19.669  17.922  1.00  0.00     0.042 C 
ATOM      2  C   UNL     1      11.328  20.485  18.167  1.00  0.00     0.066 C 
ATOM      3  C   UNL     1      11.689  21.351  16.898  1.00  0.00     0.021 C 
ATOM      4  C   UNL     1      11.986  20.393  15.719  1.00  0.00     0.009 C 
ATOM      5  C   UNL     1      13.029  19.341  16.169  1.00  0.00     0.035 C 
ATOM      6  C   UNL     1      13.499  19.652  17.619  1.00  0.00     0.066 C 
ATOM      7  O   UNL     1      12.380  19.567  18.503  1.00  0.00    -0.369 OA
ATOM      8  C   UNL     1      14.079  21.095  17.664  1.00  0.00     0.035 C 
ATOM      9  C   UNL     1      13.011  22.105  17.180  1.00  0.00     0.009 C 
ATOM     10  C   UNL     1      14.558  18.638  18.065  1.00  0.00     0.042 C 
ATOM     11  C   UNL     1      11.072  21.391  19.391  1.00  0.00     0.042 C 
ENDROOT
TORSDOF 0
ENDMDL
MODEL 4
REMARK VINA RESULT:    -5.072      1.682      2.862
REMARK INTER + INTRA:          -5.072
REMARK INTER:                  -5.072
REMARK INTRA:                   0.000
REMARK UNBOUND:                 0.000
REMARK SMILES CC1(C)O[C@]2(C)CC[C@H]1CC2
REMARK SMILES IDX 1 1 2 2 9 3 8 4 7 5 5 6 4 7 11 8 10 9 6 10 3 11
REMARK H PARENT
REMARK Flexibility Score: inf
ROOT
ATOM      1  C   UNL     1      11.613  20.576  20.648  1.00  0.00     0.042 C 
ATOM      2  C   UNL     1      11.844  20.213  19.165  1.00  0.00     0.066 C 
ATOM      3  C   UNL     1      12.142  21.508  18.314  1.00  0.00     0.021 C 
ATOM      4  C   UNL     1      10.895  22.423  18.360  1.00  0.00     0.009 C 
ATOM      5  C   UNL     1       9.645  21.599  17.966  1.00  0.00     0.035 C 
ATOM      6  C   UNL     1      10.070  20.156  17.566  1.00  0.00     0.066 C 
ATOM      7  O   UNL     1      10.680  19.519  18.689  1.00  0.00    -0.369 OA
ATOM      8  C   UNL     1      11.098  20.236  16.402  1.00  0.00     0.035 C 
ATOM      9  C   UNL     1      12.314  21.091  16.833  1.00  0.00     0.009 C 
ATOM     10  C   UNL     1       8.845  19.339  17.140  1.00  0.00     0.042 C 
ATOM     11  C   UNL     1      13.039  19.237  19.112  1.00  0.00     0.042 C 
ENDROOT
TORSDOF 0
ENDMDL
MODEL 5
REMARK VINA RESULT:    -4.767      1.593      2.936
REMARK INTER + INTRA:          -4.767
REMARK INTER:                  -4.767
REMARK INTRA:                   0.000
REMARK UNBOUND:                 0.000
REMARK SMILES CC1(C)O[C@]2(C)CC[C@H]1CC2
REMARK SMILES IDX 1 1 2 2 9 3 8 4 7 5 5 6 4 7 11 8 10 9 6 10 3 11
REMARK H PARENT
REMARK Flexibility Score: inf
ROOT
ATOM      1  C   UNL     1      10.782  21.188  20.581  1.00  0.00     0.042 C 
ATOM      2  C   UNL     1      10.683  21.235  19.041  1.00  0.00     0.066 C 
ATOM      3  C   UNL     1      10.673  19.776  18.439  1.00  0.00     0.021 C 
ATOM      4  C   UNL     1      12.022  19.097  18.778  1.00  0.00     0.009 C 
ATOM      5  C   UNL     1      13.182  20.026  18.344  1.00  0.00     0.035 C 
ATOM      6  C   UNL     1      12.610  21.285  17.631  1.00  0.00     0.066 C 
ATOM      7  O   UNL     1      11.786  22.009  18.546  1.00  0.00    -0.369 OA
ATOM      8  C   UNL     1      11.750  20.831  16.416  1.00  0.00     0.035 C 
ATOM      9  C   UNL     1      10.624  19.884  16.895  1.00  0.00     0.009 C 
ATOM     10  C   UNL     1      13.750  22.197  17.166  1.00  0.00     0.042 C 
ATOM     11  C   UNL     1       9.377  21.980  18.688  1.00  0.00     0.042 C 
ENDROOT
TORSDOF 0
ENDMDL
MODEL 6
REMARK VINA RESULT:    -4.705      1.524      3.093
REMARK INTER + INTRA:          -4.705
REMARK INTER:                  -4.705
REMARK INTRA:                   0.000
REMARK UNBOUND:                 0.000
REMARK SMILES CC1(C)O[C@]2(C)CC[C@H]1CC2
REMARK SMILES IDX 1 1 2 2 9 3 8 4 7 5 5 6 4 7 11 8 10 9 6 10 3 11
REMARK H PARENT
REMARK Flexibility Score: inf
ROOT
ATOM      1  C   UNL     1      10.816  19.967  15.767  1.00  0.00     0.042 C 
ATOM      2  C   UNL     1      10.640  20.231  17.278  1.00  0.00     0.066 C 
ATOM      3  C   UNL     1      11.073  21.705  17.640  1.00  0.00     0.021 C 
ATOM      4  C   UNL     1      12.582  21.863  17.332  1.00  0.00     0.009 C 
ATOM      5  C   UNL     1      13.363  20.715  18.017  1.00  0.00     0.035 C 
ATOM      6  C   UNL     1      12.388  19.844  18.860  1.00  0.00     0.066 C 
ATOM      7  O   UNL     1      11.415  19.257  17.994  1.00  0.00    -0.369 OA
ATOM      8  C   UNL     1      11.667  20.751  19.898  1.00  0.00     0.035 C 
ATOM      9  C   UNL     1      10.926  21.897  19.169  1.00  0.00     0.009 C 
ATOM     10  C   UNL     1      13.154  18.724  19.572  1.00  0.00     0.042 C 
ATOM     11  C   UNL     1       9.151  20.002  17.615  1.00  0.00     0.042 C 
ENDROOT
TORSDOF 0
ENDMDL
MODEL 7
REMARK VINA RESULT:    -4.679      1.078      2.545
REMARK INTER + INTRA:          -4.679
REMARK INTER:                  -4.679
REMARK INTRA:                   0.000
REMARK UNBOUND:                 0.000
REMARK SMILES CC1(C)O[C@]2(C)CC[C@H]1CC2
REMARK SMILES IDX 1 1 2 2 9 3 8 4 7 5 5 6 4 7 11 8 10 9 6 10 3 11
REMARK H PARENT
REMARK Flexibility Score: inf
ROOT
ATOM      1  C   UNL     1      12.997  18.519  18.969  1.00  0.00     0.042 C 
ATOM      2  C   UNL     1      13.547  19.569  17.980  1.00  0.00     0.066 C 
ATOM      3  C   UNL     1      12.996  21.006  18.330  1.00  0.00     0.021 C 
ATOM      4  C   UNL     1      11.458  20.996  18.161  1.00  0.00     0.009 C 
ATOM      5  C   UNL     1      11.104  20.432  16.763  1.00  0.00     0.035 C 
ATOM      6  C   UNL     1      12.409  20.152  15.962  1.00  0.00     0.066 C 
ATOM      7  O   UNL     1      13.179  19.167  16.652  1.00  0.00    -0.369 OA
ATOM      8  C   UNL     1      13.232  21.468  15.861  1.00  0.00     0.035 C 
ATOM      9  C   UNL     1      13.536  22.007  17.280  1.00  0.00     0.009 C 
ATOM     10  C   UNL     1      12.072  19.625  14.563  1.00  0.00     0.042 C 
ATOM     11  C   UNL     1      15.087  19.535  18.083  1.00  0.00     0.042 C 
ENDROOT
TORSDOF 0
ENDMDL
MODEL 8
REMARK VINA RESULT:    -4.582      1.373      3.479
REMARK INTER + INTRA:          -4.582
REMARK INTER:                  -4.582
REMARK INTRA:                   0.000
REMARK UNBOUND:                 0.000
REMARK SMILES CC1(C)O[C@]2(C)CC[C@H]1CC2
REMARK SMILES IDX 1 1 2 2 9 3 8 4 7 5 5 6 4 7 11 8 10 9 6 10 3 11
REMARK H PARENT
REMARK Flexibility Score: inf
ROOT
ATOM      1  C   UNL     1      13.414  22.288  17.101  1.00  0.00     0.042 C 
ATOM      2  C   UNL     1      12.384  21.139  17.056  1.00  0.00     0.066 C 
ATOM      3  C   UNL     1      10.964  21.644  17.525  1.00  0.00     0.021 C 
ATOM      4  C   UNL     1      11.067  22.092  19.002  1.00  0.00     0.009 C 
ATOM      5  C   UNL     1      11.717  20.959  19.833  1.00  0.00     0.035 C 
ATOM      6  C   UNL     1      11.964  19.717  18.929  1.00  0.00     0.066 C 
ATOM      7  O   UNL     1      12.871  20.071  17.884  1.00  0.00    -0.369 OA
ATOM      8  C   UNL     1      10.612  19.270  18.304  1.00  0.00     0.035 C 
ATOM      9  C   UNL     1       9.988  20.443  17.508  1.00  0.00     0.009 C 
ATOM     10  C   UNL     1      12.576  18.575  19.747  1.00  0.00     0.042 C 
ATOM     11  C   UNL     1      12.329  20.629  15.599  1.00  0.00     0.042 C 
ENDROOT
TORSDOF 0
ENDMDL
MODEL 9
REMARK VINA RESULT:    -4.531      1.191      3.103
REMARK INTER + INTRA:          -4.531
REMARK INTER:                  -4.531
REMARK INTRA:                   0.000
REMARK UNBOUND:                 0.000
REMARK SMILES CC1(C)O[C@]2(C)CC[C@H]1CC2
REMARK SMILES IDX 1 1 2 2 9 3 8 4 7 5 5 6 4 7 11 8 10 9 6 10 3 11
REMARK H PARENT
REMARK Flexibility Score: inf
ROOT
ATOM      1  C   UNL     1      14.926  19.406  18.324  1.00  0.00     0.042 C 
ATOM      2  C   UNL     1      13.844  19.444  17.223  1.00  0.00     0.066 C 
ATOM      3  C   UNL     1      13.836  20.845  16.497  1.00  0.00     0.021 C 
ATOM      4  C   UNL     1      13.457  21.931  17.533  1.00  0.00     0.009 C 
ATOM      5  C   UNL     1      12.155  21.511  18.257  1.00  0.00     0.035 C 
ATOM      6  C   UNL     1      11.613  20.189  17.641  1.00  0.00     0.066 C 
ATOM      7  O   UNL     1      12.577  19.152  17.833  1.00  0.00    -0.369 OA
ATOM      8  C   UNL     1      11.383  20.398  16.117  1.00  0.00     0.035 C 
ATOM      9  C   UNL     1      12.703  20.844  15.443  1.00  0.00     0.009 C 
ATOM     10  C   UNL     1      10.304  19.779  18.326  1.00  0.00     0.042 C 
ATOM     11  C   UNL     1      14.166  18.313  16.223  1.00  0.00     0.042 C 
ENDROOT
TORSDOF 0
ENDMDL
