MODEL 1
REMARK VINA RESULT:    -4.910      0.000      0.000
REMARK INTER + INTRA:         -11.087
REMARK INTER:                  -9.504
REMARK INTRA:                  -1.584
REMARK UNBOUND:                -1.584
REMARK SMILES CCCCCCCCCCCCCCCCCC(=O)[O-]
REMARK SMILES IDX 10 1 11 2 12 3 13 4 14 5 15 6 16 7 17 8 18 9 19 10 20 11
REMARK SMILES IDX 9 12 8 13 7 14 6 15 5 16 4 17 3 18 2 19 1 20
REMARK H PARENT
REMARK Flexibility Score: inf
ROOT
ATOM      1  C   UNL     1      -8.310   6.430  28.065  1.00  0.00     0.000 C 
ENDROOT
BRANCH   1   2
ATOM      2  C   UNL     1      -6.796   6.197  27.942  1.00  0.00     0.000 C 
BRANCH   2   3
ATOM      3  C   UNL     1      -5.973   7.206  28.763  1.00  0.00     0.000 C 
BRANCH   3   4
ATOM      4  C   UNL     1      -6.470   7.337  30.213  1.00  0.00     0.000 C 
BRANCH   4   5
ATOM      5  C   UNL     1      -5.368   7.233  31.287  1.00  0.00     0.000 C 
BRANCH   5   6
ATOM      6  C   UNL     1      -4.370   6.074  31.092  1.00  0.00     0.000 C 
BRANCH   6   7
ATOM      7  C   UNL     1      -4.890   4.690  31.522  1.00  0.00     0.006 C 
BRANCH   7   8
ATOM      8  C   UNL     1      -3.920   3.953  32.455  1.00  0.00     0.053 C 
BRANCH   8   9
ATOM      9  C   UNL     1      -4.340   4.117  33.880  1.00  0.00     0.041 C 
ATOM     10  O   UNL     1      -4.220   5.233  34.451  1.00  0.00    -0.550 OA
ATOM     11  O   UNL     1      -4.822   3.027  34.595  1.00  0.00    -0.550 OA
ENDBRANCH   8   9
ENDBRANCH   7   8
ENDBRANCH   6   7
ENDBRANCH   5   6
ENDBRANCH   4   5
ENDBRANCH   3   4
ENDBRANCH   2   3
ENDBRANCH   1   2
BRANCH   1  12
ATOM     12  C   UNL     1      -8.740   7.805  27.523  1.00  0.00     0.000 C 
BRANCH  12  13
ATOM     13  C   UNL     1      -8.698   7.872  25.988  1.00  0.00    -0.000 C 
BRANCH  13  14
ATOM     14  C   UNL     1      -7.639   8.858  25.465  1.00  0.00    -0.000 C 
BRANCH  14  15
ATOM     15  C   UNL     1      -6.442   8.148  24.813  1.00  0.00    -0.000 C 
BRANCH  15  16
ATOM     16  C   UNL     1      -5.097   8.802  25.172  1.00  0.00    -0.000 C 
BRANCH  16  17
ATOM     17  C   UNL     1      -4.663   9.854  24.130  1.00  0.00    -0.000 C 
BRANCH  17  18
ATOM     18  C   UNL     1      -5.390   9.720  22.778  1.00  0.00    -0.000 C 
BRANCH  18  19
ATOM     19  C   UNL     1      -6.107  10.997  22.308  1.00  0.00    -0.003 C 
ATOM     20  C   UNL     1      -6.529  11.901  23.467  1.00  0.00     0.004 C 
ENDBRANCH  18  19
ENDBRANCH  17  18
ENDBRANCH  16  17
ENDBRANCH  15  16
ENDBRANCH  14  15
ENDBRANCH  13  14
ENDBRANCH  12  13
ENDBRANCH   1  12
TORSDOF 16
ENDMDL
MODEL 2
REMARK VINA RESULT:    -4.897     14.735     17.543
REMARK INTER + INTRA:         -11.061
REMARK INTER:                  -8.659
REMARK INTRA:                  -2.402
REMARK UNBOUND:                -1.584
REMARK SMILES CCCCCCCCCCCCCCCCCC(=O)[O-]
REMARK SMILES IDX 10 1 11 2 12 3 13 4 14 5 15 6 16 7 17 8 18 9 19 10 20 11
REMARK SMILES IDX 9 12 8 13 7 14 6 15 5 16 4 17 3 18 2 19 1 20
REMARK H PARENT
REMARK Flexibility Score: inf
ROOT
ATOM      1  C   UNL     1     -20.939   0.000  26.089  1.00  0.00     0.000 C 
ENDROOT
BRANCH   1   2
ATOM      2  C   UNL     1     -20.104   1.274  26.300  1.00  0.00     0.000 C 
BRANCH   2   3
ATOM      3  C   UNL     1     -19.200   1.190  27.544  1.00  0.00     0.000 C 
BRANCH   3   4
ATOM      4  C   UNL     1     -19.995   0.963  28.842  1.00  0.00     0.000 C 
BRANCH   4   5
ATOM      5  C   UNL     1     -19.538  -0.251  29.677  1.00  0.00     0.000 C 
BRANCH   5   6
ATOM      6  C   UNL     1     -18.525  -1.181  28.981  1.00  0.00     0.000 C 
BRANCH   6   7
ATOM      7  C   UNL     1     -17.812  -2.178  29.914  1.00  0.00     0.006 C 
BRANCH   7   8
ATOM      8  C   UNL     1     -18.030  -1.863  31.399  1.00  0.00     0.053 C 
BRANCH   8   9
ATOM      9  C   UNL     1     -16.718  -1.686  32.093  1.00  0.00     0.041 C 
ATOM     10  O   UNL     1     -16.477  -2.311  33.160  1.00  0.00    -0.550 OA
ATOM     11  O   UNL     1     -15.777  -0.797  31.590  1.00  0.00    -0.550 OA
ENDBRANCH   8   9
ENDBRANCH   7   8
ENDBRANCH   6   7
ENDBRANCH   5   6
ENDBRANCH   4   5
ENDBRANCH   3   4
ENDBRANCH   2   3
ENDBRANCH   1   2
BRANCH   1  12
ATOM     12  C   UNL     1     -22.380   0.309  25.646  1.00  0.00     0.000 C 
BRANCH  12  13
ATOM     13  C   UNL     1     -23.429  -0.298  26.593  1.00  0.00    -0.000 C 
BRANCH  13  14
ATOM     14  C   UNL     1     -23.571   0.491  27.906  1.00  0.00    -0.000 C 
BRANCH  14  15
ATOM     15  C   UNL     1     -23.468  -0.408  29.148  1.00  0.00    -0.000 C 
BRANCH  15  16
ATOM     16  C   UNL     1     -22.782  -1.752  28.852  1.00  0.00    -0.000 C 
BRANCH  16  17
ATOM     17  C   UNL     1     -22.516  -2.567  30.135  1.00  0.00    -0.000 C 
BRANCH  17  18
ATOM     18  C   UNL     1     -21.678  -3.838  29.898  1.00  0.00    -0.000 C 
BRANCH  18  19
ATOM     19  C   UNL     1     -20.752  -4.221  31.064  1.00  0.00    -0.003 C 
ATOM     20  C   UNL     1     -21.409  -5.187  32.050  1.00  0.00     0.004 C 
ENDBRANCH  18  19
ENDBRANCH  17  18
ENDBRANCH  16  17
ENDBRANCH  15  16
ENDBRANCH  14  15
ENDBRANCH  13  14
ENDBRANCH  12  13
ENDBRANCH   1  12
TORSDOF 16
ENDMDL
MODEL 3
REMARK VINA RESULT:    -4.897      2.815      4.351
REMARK INTER + INTRA:         -11.061
REMARK INTER:                  -8.591
REMARK INTRA:                  -2.470
REMARK UNBOUND:                -1.584
REMARK SMILES CCCCCCCCCCCCCCCCCC(=O)[O-]
REMARK SMILES IDX 10 1 11 2 12 3 13 4 14 5 15 6 16 7 17 8 18 9 19 10 20 11
REMARK SMILES IDX 9 12 8 13 7 14 6 15 5 16 4 17 3 18 2 19 1 20
REMARK H PARENT
REMARK Flexibility Score: inf
ROOT
ATOM      1  C   UNL     1      -4.733   7.216  25.625  1.00  0.00     0.000 C 
ENDROOT
BRANCH   1   2
ATOM      2  C   UNL     1      -4.670   8.338  26.673  1.00  0.00     0.000 C 
BRANCH   2   3
ATOM      3  C   UNL     1      -3.900   7.923  27.940  1.00  0.00     0.000 C 
BRANCH   3   4
ATOM      4  C   UNL     1      -4.287   8.761  29.171  1.00  0.00     0.000 C 
BRANCH   4   5
ATOM      5  C   UNL     1      -4.736   7.940  30.398  1.00  0.00     0.000 C 
BRANCH   5   6
ATOM      6  C   UNL     1      -4.649   6.410  30.230  1.00  0.00     0.000 C 
BRANCH   6   7
ATOM      7  C   UNL     1      -6.006   5.689  30.131  1.00  0.00     0.006 C 
BRANCH   7   8
ATOM      8  C   UNL     1      -6.572   5.680  28.705  1.00  0.00     0.053 C 
BRANCH   8   9
ATOM      9  C   UNL     1      -7.737   6.611  28.600  1.00  0.00     0.041 C 
ATOM     10  O   UNL     1      -8.217   7.145  29.635  1.00  0.00    -0.550 OA
ATOM     11  O   UNL     1      -8.324   6.855  27.364  1.00  0.00    -0.550 OA
ENDBRANCH   8   9
ENDBRANCH   7   8
ENDBRANCH   6   7
ENDBRANCH   5   6
ENDBRANCH   4   5
ENDBRANCH   3   4
ENDBRANCH   2   3
ENDBRANCH   1   2
BRANCH   1  12
ATOM     12  C   UNL     1      -3.901   7.536  24.370  1.00  0.00     0.000 C 
BRANCH  12  13
ATOM     13  C   UNL     1      -4.777   7.775  23.129  1.00  0.00    -0.000 C 
BRANCH  13  14
ATOM     14  C   UNL     1      -4.527   9.148  22.481  1.00  0.00    -0.000 C 
BRANCH  14  15
ATOM     15  C   UNL     1      -4.307  10.259  23.520  1.00  0.00    -0.000 C 
BRANCH  15  16
ATOM     16  C   UNL     1      -5.306  11.419  23.369  1.00  0.00    -0.000 C 
BRANCH  16  17
ATOM     17  C   UNL     1      -6.770  10.932  23.371  1.00  0.00    -0.000 C 
BRANCH  17  18
ATOM     18  C   UNL     1      -7.212  10.308  24.708  1.00  0.00    -0.000 C 
BRANCH  18  19
ATOM     19  C   UNL     1      -7.984   8.986  24.573  1.00  0.00    -0.003 C 
ATOM     20  C   UNL     1      -8.444   8.711  23.141  1.00  0.00     0.004 C 
ENDBRANCH  18  19
ENDBRANCH  17  18
ENDBRANCH  16  17
ENDBRANCH  15  16
ENDBRANCH  14  15
ENDBRANCH  13  14
ENDBRANCH  12  13
ENDBRANCH   1  12
TORSDOF 16
ENDMDL
MODEL 4
REMARK VINA RESULT:    -4.870     14.783     17.700
REMARK INTER + INTRA:         -11.008
REMARK INTER:                  -8.956
REMARK INTRA:                  -2.052
REMARK UNBOUND:                -1.584
REMARK SMILES CCCCCCCCCCCCCCCCCC(=O)[O-]
REMARK SMILES IDX 10 1 11 2 12 3 13 4 14 5 15 6 16 7 17 8 18 9 19 10 20 11
REMARK SMILES IDX 9 12 8 13 7 14 6 15 5 16 4 17 3 18 2 19 1 20
REMARK H PARENT
REMARK Flexibility Score: inf
ROOT
ATOM      1  C   UNL     1     -20.640   0.877  26.570  1.00  0.00     0.000 C 
ENDROOT
BRANCH   1   2
ATOM      2  C   UNL     1     -21.668   0.052  25.779  1.00  0.00     0.000 C 
BRANCH   2   3
ATOM      3  C   UNL     1     -22.987  -0.145  26.548  1.00  0.00     0.000 C 
BRANCH   3   4
ATOM      4  C   UNL     1     -22.963   0.503  27.944  1.00  0.00     0.000 C 
BRANCH   4   5
ATOM      5  C   UNL     1     -23.106  -0.486  29.119  1.00  0.00     0.000 C 
BRANCH   5   6
ATOM      6  C   UNL     1     -22.192  -1.726  29.047  1.00  0.00     0.000 C 
BRANCH   6   7
ATOM      7  C   UNL     1     -22.373  -2.734  30.197  1.00  0.00     0.006 C 
BRANCH   7   8
ATOM      8  C   UNL     1     -21.942  -4.156  29.816  1.00  0.00     0.053 C 
BRANCH   8   9
ATOM      9  C   UNL     1     -20.593  -4.462  30.384  1.00  0.00     0.041 C 
ATOM     10  O   UNL     1     -19.719  -5.024  29.673  1.00  0.00    -0.550 OA
ATOM     11  O   UNL     1     -20.315  -4.170  31.714  1.00  0.00    -0.550 OA
ENDBRANCH   8   9
ENDBRANCH   7   8
ENDBRANCH   6   7
ENDBRANCH   5   6
ENDBRANCH   4   5
ENDBRANCH   3   4
ENDBRANCH   2   3
ENDBRANCH   1   2
BRANCH   1  12
ATOM     12  C   UNL     1     -19.298   0.143  26.734  1.00  0.00     0.000 C 
BRANCH  12  13
ATOM     13  C   UNL     1     -18.524   0.603  27.982  1.00  0.00    -0.000 C 
BRANCH  13  14
ATOM     14  C   UNL     1     -18.856  -0.237  29.228  1.00  0.00    -0.000 C 
BRANCH  14  15
ATOM     15  C   UNL     1     -18.478  -1.717  29.059  1.00  0.00    -0.000 C 
BRANCH  15  16
ATOM     16  C   UNL     1     -17.428  -2.182  30.084  1.00  0.00    -0.000 C 
BRANCH  16  17
ATOM     17  C   UNL     1     -16.726  -0.996  30.778  1.00  0.00    -0.000 C 
BRANCH  17  18
ATOM     18  C   UNL     1     -16.533  -1.195  32.294  1.00  0.00    -0.000 C 
BRANCH  18  19
ATOM     19  C   UNL     1     -17.552  -2.139  32.951  1.00  0.00    -0.003 C 
ATOM     20  C   UNL     1     -16.892  -3.304  33.690  1.00  0.00     0.004 C 
ENDBRANCH  18  19
ENDBRANCH  17  18
ENDBRANCH  16  17
ENDBRANCH  15  16
ENDBRANCH  14  15
ENDBRANCH  13  14
ENDBRANCH  12  13
ENDBRANCH   1  12
TORSDOF 16
ENDMDL
MODEL 5
REMARK VINA RESULT:    -4.822     14.631     17.291
REMARK INTER + INTRA:         -10.916
REMARK INTER:                  -8.773
REMARK INTRA:                  -2.143
REMARK UNBOUND:                -1.584
REMARK SMILES CCCCCCCCCCCCCCCCCC(=O)[O-]
REMARK SMILES IDX 10 1 11 2 12 3 13 4 14 5 15 6 16 7 17 8 18 9 19 10 20 11
REMARK SMILES IDX 9 12 8 13 7 14 6 15 5 16 4 17 3 18 2 19 1 20
REMARK H PARENT
REMARK Flexibility Score: inf
ROOT
ATOM      1  C   UNL     1     -19.222   0.860  26.779  1.00  0.00     0.000 C 
ENDROOT
BRANCH   1   2
ATOM      2  C   UNL     1     -18.585   0.509  28.133  1.00  0.00     0.000 C 
BRANCH   2   3
ATOM      3  C   UNL     1     -19.631   0.311  29.246  1.00  0.00     0.000 C 
BRANCH   3   4
ATOM      4  C   UNL     1     -19.522  -1.066  29.925  1.00  0.00     0.000 C 
BRANCH   4   5
ATOM      5  C   UNL     1     -18.419  -1.982  29.358  1.00  0.00     0.000 C 
BRANCH   5   6
ATOM      6  C   UNL     1     -17.437  -2.550  30.402  1.00  0.00     0.000 C 
BRANCH   6   7
ATOM      7  C   UNL     1     -16.672  -1.491  31.218  1.00  0.00     0.006 C 
BRANCH   7   8
ATOM      8  C   UNL     1     -17.247  -1.296  32.627  1.00  0.00     0.053 C 
BRANCH   8   9
ATOM      9  C   UNL     1     -17.441  -2.617  33.299  1.00  0.00     0.041 C 
ATOM     10  O   UNL     1     -18.603  -3.052  33.519  1.00  0.00    -0.550 OA
ATOM     11  O   UNL     1     -16.340  -3.350  33.726  1.00  0.00    -0.550 OA
ENDBRANCH   8   9
ENDBRANCH   7   8
ENDBRANCH   6   7
ENDBRANCH   5   6
ENDBRANCH   4   5
ENDBRANCH   3   4
ENDBRANCH   2   3
ENDBRANCH   1   2
BRANCH   1  12
ATOM     12  C   UNL     1     -20.742   1.075  26.882  1.00  0.00     0.000 C 
BRANCH  12  13
ATOM     13  C   UNL     1     -21.537   0.074  26.028  1.00  0.00    -0.000 C 
BRANCH  13  14
ATOM     14  C   UNL     1     -22.983  -0.111  26.523  1.00  0.00    -0.000 C 
BRANCH  14  15
ATOM     15  C   UNL     1     -23.152   0.266  28.003  1.00  0.00    -0.000 C 
BRANCH  15  16
ATOM     16  C   UNL     1     -23.714  -0.890  28.848  1.00  0.00    -0.000 C 
BRANCH  16  17
ATOM     17  C   UNL     1     -22.770  -2.110  28.871  1.00  0.00    -0.000 C 
BRANCH  17  18
ATOM     18  C   UNL     1     -23.135  -3.155  29.943  1.00  0.00    -0.000 C 
BRANCH  18  19
ATOM     19  C   UNL     1     -21.942  -3.675  30.761  1.00  0.00    -0.003 C 
ATOM     20  C   UNL     1     -21.037  -4.613  29.962  1.00  0.00     0.004 C 
ENDBRANCH  18  19
ENDBRANCH  17  18
ENDBRANCH  16  17
ENDBRANCH  15  16
ENDBRANCH  14  15
ENDBRANCH  13  14
ENDBRANCH  12  13
ENDBRANCH   1  12
TORSDOF 16
ENDMDL
MODEL 6
REMARK VINA RESULT:    -4.818     14.925     17.870
REMARK INTER + INTRA:         -10.907
REMARK INTER:                  -8.882
REMARK INTRA:                  -2.025
REMARK UNBOUND:                -1.584
REMARK SMILES CCCCCCCCCCCCCCCCCC(=O)[O-]
REMARK SMILES IDX 10 1 11 2 12 3 13 4 14 5 15 6 16 7 17 8 18 9 19 10 20 11
REMARK SMILES IDX 9 12 8 13 7 14 6 15 5 16 4 17 3 18 2 19 1 20
REMARK H PARENT
REMARK Flexibility Score: inf
ROOT
ATOM      1  C   UNL     1     -20.172   1.325  26.374  1.00  0.00     0.000 C 
ENDROOT
BRANCH   1   2
ATOM      2  C   UNL     1     -20.872   0.000  26.029  1.00  0.00     0.000 C 
BRANCH   2   3
ATOM      3  C   UNL     1     -22.353   0.192  25.659  1.00  0.00     0.000 C 
BRANCH   3   4
ATOM      4  C   UNL     1     -23.309  -0.455  26.677  1.00  0.00     0.000 C 
BRANCH   4   5
ATOM      5  C   UNL     1     -23.596   0.399  27.929  1.00  0.00     0.000 C 
BRANCH   5   6
ATOM      6  C   UNL     1     -22.700   0.100  29.147  1.00  0.00     0.000 C 
BRANCH   6   7
ATOM      7  C   UNL     1     -23.019  -1.217  29.879  1.00  0.00     0.006 C 
BRANCH   7   8
ATOM      8  C   UNL     1     -21.965  -2.305  29.632  1.00  0.00     0.053 C 
BRANCH   8   9
ATOM      9  C   UNL     1     -22.325  -3.556  30.366  1.00  0.00     0.041 C 
ATOM     10  O   UNL     1     -21.886  -4.670  29.973  1.00  0.00    -0.550 OA
ATOM     11  O   UNL     1     -23.182  -3.501  31.458  1.00  0.00    -0.550 OA
ENDBRANCH   8   9
ENDBRANCH   7   8
ENDBRANCH   6   7
ENDBRANCH   5   6
ENDBRANCH   4   5
ENDBRANCH   3   4
ENDBRANCH   2   3
ENDBRANCH   1   2
BRANCH   1  12
ATOM     12  C   UNL     1     -19.490   1.289  27.752  1.00  0.00     0.000 C 
BRANCH  12  13
ATOM     13  C   UNL     1     -18.537   0.091  27.905  1.00  0.00    -0.000 C 
BRANCH  13  14
ATOM     14  C   UNL     1     -18.745  -0.668  29.228  1.00  0.00    -0.000 C 
BRANCH  14  15
ATOM     15  C   UNL     1     -18.175  -2.094  29.185  1.00  0.00    -0.000 C 
BRANCH  15  16
ATOM     16  C   UNL     1     -18.478  -2.892  30.465  1.00  0.00    -0.000 C 
BRANCH  16  17
ATOM     17  C   UNL     1     -17.195  -3.264  31.238  1.00  0.00    -0.000 C 
BRANCH  17  18
ATOM     18  C   UNL     1     -17.013  -2.476  32.549  1.00  0.00    -0.000 C 
BRANCH  18  19
ATOM     19  C   UNL     1     -16.778  -0.968  32.362  1.00  0.00    -0.003 C 
ATOM     20  C   UNL     1     -15.526  -0.660  31.541  1.00  0.00     0.004 C 
ENDBRANCH  18  19
ENDBRANCH  17  18
ENDBRANCH  16  17
ENDBRANCH  15  16
ENDBRANCH  14  15
ENDBRANCH  13  14
ENDBRANCH  12  13
ENDBRANCH   1  12
TORSDOF 16
ENDMDL
MODEL 7
REMARK VINA RESULT:    -4.760      2.788      7.108
REMARK INTER + INTRA:         -10.795
REMARK INTER:                  -8.603
REMARK INTRA:                  -2.193
REMARK UNBOUND:                -1.584
REMARK SMILES CCCCCCCCCCCCCCCCCC(=O)[O-]
REMARK SMILES IDX 10 1 11 2 12 3 13 4 14 5 15 6 16 7 17 8 18 9 19 10 20 11
REMARK SMILES IDX 9 12 8 13 7 14 6 15 5 16 4 17 3 18 2 19 1 20
REMARK H PARENT
REMARK Flexibility Score: inf
ROOT
ATOM      1  C   UNL     1      -5.108   7.298  23.895  1.00  0.00     0.000 C 
ENDROOT
BRANCH   1   2
ATOM      2  C   UNL     1      -5.803   7.878  22.654  1.00  0.00     0.000 C 
BRANCH   2   3
ATOM      3  C   UNL     1      -5.610   9.400  22.523  1.00  0.00     0.000 C 
BRANCH   3   4
ATOM      4  C   UNL     1      -6.844  10.196  22.982  1.00  0.00     0.000 C 
BRANCH   4   5
ATOM      5  C   UNL     1      -7.971   9.345  23.600  1.00  0.00     0.000 C 
BRANCH   5   6
ATOM      6  C   UNL     1      -8.027   9.350  25.141  1.00  0.00     0.000 C 
BRANCH   6   7
ATOM      7  C   UNL     1      -8.353   7.989  25.784  1.00  0.00     0.006 C 
BRANCH   7   8
ATOM      8  C   UNL     1      -7.592   7.753  27.095  1.00  0.00     0.053 C 
BRANCH   8   9
ATOM      9  C   UNL     1      -8.236   6.658  27.882  1.00  0.00     0.041 C 
ATOM     10  O   UNL     1      -9.252   6.898  28.587  1.00  0.00    -0.550 OA
ATOM     11  O   UNL     1      -7.689   5.381  27.877  1.00  0.00    -0.550 OA
ENDBRANCH   8   9
ENDBRANCH   7   8
ENDBRANCH   6   7
ENDBRANCH   5   6
ENDBRANCH   4   5
ENDBRANCH   3   4
ENDBRANCH   2   3
ENDBRANCH   1   2
BRANCH   1  12
ATOM     12  C   UNL     1      -4.127   8.293  24.539  1.00  0.00     0.000 C 
BRANCH  12  13
ATOM     13  C   UNL     1      -4.267   8.351  26.069  1.00  0.00    -0.000 C 
BRANCH  13  14
ATOM     14  C   UNL     1      -4.142   6.967  26.730  1.00  0.00    -0.000 C 
BRANCH  14  15
ATOM     15  C   UNL     1      -4.122   7.046  28.264  1.00  0.00    -0.000 C 
BRANCH  15  16
ATOM     16  C   UNL     1      -4.269   8.485  28.786  1.00  0.00    -0.000 C 
BRANCH  16  17
ATOM     17  C   UNL     1      -4.936   8.537  30.177  1.00  0.00    -0.000 C 
BRANCH  17  18
ATOM     18  C   UNL     1      -5.793   7.297  30.497  1.00  0.00    -0.000 C 
BRANCH  18  19
ATOM     19  C   UNL     1      -5.273   6.445  31.667  1.00  0.00    -0.003 C 
ATOM     20  C   UNL     1      -5.099   4.972  31.297  1.00  0.00     0.004 C 
ENDBRANCH  18  19
ENDBRANCH  17  18
ENDBRANCH  16  17
ENDBRANCH  15  16
ENDBRANCH  14  15
ENDBRANCH  13  14
ENDBRANCH  12  13
ENDBRANCH   1  12
TORSDOF 16
ENDMDL
MODEL 8
REMARK VINA RESULT:    -4.748     14.892     17.799
REMARK INTER + INTRA:         -10.772
REMARK INTER:                  -8.564
REMARK INTRA:                  -2.208
REMARK UNBOUND:                -1.584
REMARK SMILES CCCCCCCCCCCCCCCCCC(=O)[O-]
REMARK SMILES IDX 10 1 11 2 12 3 13 4 14 5 15 6 16 7 17 8 18 9 19 10 20 11
REMARK SMILES IDX 9 12 8 13 7 14 6 15 5 16 4 17 3 18 2 19 1 20
REMARK H PARENT
REMARK Flexibility Score: inf
ROOT
ATOM      1  C   UNL     1     -22.531   0.428  26.676  1.00  0.00     0.000 C 
ENDROOT
BRANCH   1   2
ATOM      2  C   UNL     1     -21.204   0.065  25.991  1.00  0.00     0.000 C 
BRANCH   2   3
ATOM      3  C   UNL     1     -20.059   1.021  26.373  1.00  0.00     0.000 C 
BRANCH   3   4
ATOM      4  C   UNL     1     -20.191   1.562  27.808  1.00  0.00     0.000 C 
BRANCH   4   5
ATOM      5  C   UNL     1     -19.622   0.636  28.902  1.00  0.00     0.000 C 
BRANCH   5   6
ATOM      6  C   UNL     1     -18.460  -0.273  28.454  1.00  0.00     0.000 C 
BRANCH   6   7
ATOM      7  C   UNL     1     -18.119  -1.417  29.426  1.00  0.00     0.006 C 
BRANCH   7   8
ATOM      8  C   UNL     1     -18.400  -1.058  30.891  1.00  0.00     0.053 C 
BRANCH   8   9
ATOM      9  C   UNL     1     -17.174  -1.260  31.722  1.00  0.00     0.041 C 
ATOM     10  O   UNL     1     -17.259  -1.804  32.855  1.00  0.00    -0.550 OA
ATOM     11  O   UNL     1     -15.941  -0.807  31.268  1.00  0.00    -0.550 OA
ENDBRANCH   8   9
ENDBRANCH   7   8
ENDBRANCH   6   7
ENDBRANCH   5   6
ENDBRANCH   4   5
ENDBRANCH   3   4
ENDBRANCH   2   3
ENDBRANCH   1   2
BRANCH   1  12
ATOM     12  C   UNL     1     -23.023  -0.677  27.627  1.00  0.00     0.000 C 
BRANCH  12  13
ATOM     13  C   UNL     1     -23.255  -0.162  29.057  1.00  0.00    -0.000 C 
BRANCH  13  14
ATOM     14  C   UNL     1     -22.951  -1.225  30.128  1.00  0.00    -0.000 C 
BRANCH  14  15
ATOM     15  C   UNL     1     -21.884  -2.232  29.671  1.00  0.00    -0.000 C 
BRANCH  15  16
ATOM     16  C   UNL     1     -21.953  -3.561  30.445  1.00  0.00    -0.000 C 
BRANCH  16  17
ATOM     17  C   UNL     1     -20.563  -4.035  30.916  1.00  0.00    -0.000 C 
BRANCH  17  18
ATOM     18  C   UNL     1     -19.733  -4.714  29.810  1.00  0.00    -0.000 C 
BRANCH  18  19
ATOM     19  C   UNL     1     -20.361  -5.994  29.234  1.00  0.00    -0.003 C 
ATOM     20  C   UNL     1     -20.686  -7.031  30.309  1.00  0.00     0.004 C 
ENDBRANCH  18  19
ENDBRANCH  17  18
ENDBRANCH  16  17
ENDBRANCH  15  16
ENDBRANCH  14  15
ENDBRANCH  13  14
ENDBRANCH  12  13
ENDBRANCH   1  12
TORSDOF 16
ENDMDL
MODEL 9
REMARK VINA RESULT:    -4.719      3.998      8.044
REMARK INTER + INTRA:         -10.716
REMARK INTER:                  -8.691
REMARK INTRA:                  -2.025
REMARK UNBOUND:                -1.584
REMARK SMILES CCCCCCCCCCCCCCCCCC(=O)[O-]
REMARK SMILES IDX 10 1 11 2 12 3 13 4 14 5 15 6 16 7 17 8 18 9 19 10 20 11
REMARK SMILES IDX 9 12 8 13 7 14 6 15 5 16 4 17 3 18 2 19 1 20
REMARK H PARENT
REMARK Flexibility Score: inf
ROOT
ATOM      1  C   UNL     1      -5.210   8.115  27.013  1.00  0.00     0.000 C 
ENDROOT
BRANCH   1   2
ATOM      2  C   UNL     1      -5.183   7.212  25.769  1.00  0.00     0.000 C 
BRANCH   2   3
ATOM      3  C   UNL     1      -3.875   7.347  24.968  1.00  0.00     0.000 C 
BRANCH   3   4
ATOM      4  C   UNL     1      -4.119   7.657  23.481  1.00  0.00     0.000 C 
BRANCH   4   5
ATOM      5  C   UNL     1      -4.322   9.151  23.157  1.00  0.00     0.000 C 
BRANCH   5   6
ATOM      6  C   UNL     1      -5.572   9.476  22.315  1.00  0.00     0.000 C 
BRANCH   6   7
ATOM      7  C   UNL     1      -6.511  10.532  22.926  1.00  0.00     0.006 C 
BRANCH   7   8
ATOM      8  C   UNL     1      -7.004  10.149  24.327  1.00  0.00     0.053 C 
BRANCH   8   9
ATOM      9  C   UNL     1      -8.060   9.095  24.240  1.00  0.00     0.041 C 
ATOM     10  O   UNL     1      -8.404   8.455  25.269  1.00  0.00    -0.550 OA
ATOM     11  O   UNL     1      -8.634   8.784  23.013  1.00  0.00    -0.550 OA
ENDBRANCH   8   9
ENDBRANCH   7   8
ENDBRANCH   6   7
ENDBRANCH   5   6
ENDBRANCH   4   5
ENDBRANCH   3   4
ENDBRANCH   2   3
ENDBRANCH   1   2
BRANCH   1  12
ATOM     12  C   UNL     1      -3.971   7.925  27.905  1.00  0.00     0.000 C 
BRANCH  12  13
ATOM     13  C   UNL     1      -3.899   8.961  29.040  1.00  0.00    -0.000 C 
BRANCH  13  14
ATOM     14  C   UNL     1      -4.324   8.381  30.401  1.00  0.00    -0.000 C 
BRANCH  14  15
ATOM     15  C   UNL     1      -4.224   6.849  30.446  1.00  0.00    -0.000 C 
BRANCH  15  16
ATOM     16  C   UNL     1      -5.510   6.185  30.967  1.00  0.00    -0.000 C 
BRANCH  16  17
ATOM     17  C   UNL     1      -6.737   6.526  30.096  1.00  0.00    -0.000 C 
BRANCH  17  18
ATOM     18  C   UNL     1      -6.830   5.689  28.805  1.00  0.00    -0.000 C 
BRANCH  18  19
ATOM     19  C   UNL     1      -8.039   6.018  27.915  1.00  0.00    -0.003 C 
ATOM     20  C   UNL     1      -8.960   7.072  28.530  1.00  0.00     0.004 C 
ENDBRANCH  18  19
ENDBRANCH  17  18
ENDBRANCH  16  17
ENDBRANCH  15  16
ENDBRANCH  14  15
ENDBRANCH  13  14
ENDBRANCH  12  13
ENDBRANCH   1  12
TORSDOF 16
ENDMDL
