MODEL 1
REMARK VINA RESULT:    -3.910      0.000      0.000
REMARK INTER + INTRA:          -4.357
REMARK INTER:                  -4.481
REMARK INTRA:                   0.125
REMARK UNBOUND:                 0.125
REMARK SMILES CC(C)[C@H]([NH3+])C(=O)[O-]
REMARK SMILES IDX 4 1 5 2 6 6 7 7 8 8 2 9 1 10 3 11
REMARK H PARENT 5 3 5 4 5 5
REMARK Flexibility Score: inf
ROOT
ATOM      1  C   UNL     1     160.196 166.176 151.388  1.00  0.00     0.230 C 
ENDROOT
BRANCH   1   2
ATOM      2  N   UNL     1     159.725 164.783 151.435  1.00  0.00    -0.350 N 
ATOM      3  H   UNL     1     160.288 164.233 152.122  1.00  0.00     0.345 HD
ATOM      4  H   UNL     1     158.730 164.751 151.758  1.00  0.00     0.345 HD
ATOM      5  H   UNL     1     159.790 164.337 150.490  1.00  0.00     0.345 HD
ENDBRANCH   1   2
BRANCH   1   6
ATOM      6  C   UNL     1     159.019 167.092 151.165  1.00  0.00     0.099 C 
ATOM      7  O   UNL     1     158.840 168.087 151.917  1.00  0.00    -0.544 OA
ATOM      8  O   UNL     1     158.127 166.846 150.129  1.00  0.00    -0.544 OA
ENDBRANCH   1   6
BRANCH   1   9
ATOM      9  C   UNL     1     161.275 166.385 150.282  1.00  0.00     0.047 C 
ATOM     10  C   UNL     1     160.871 165.687 148.970  1.00  0.00     0.014 C 
ATOM     11  C   UNL     1     161.529 167.875 150.002  1.00  0.00     0.014 C 
ENDBRANCH   1   9
TORSDOF 3
ENDMDL
MODEL 2
REMARK VINA RESULT:    -3.907     21.957     22.733
REMARK INTER + INTRA:          -4.354
REMARK INTER:                  -4.492
REMARK INTRA:                   0.138
REMARK UNBOUND:                 0.125
REMARK SMILES CC(C)[C@H]([NH3+])C(=O)[O-]
REMARK SMILES IDX 4 1 5 2 6 6 7 7 8 8 2 9 1 10 3 11
REMARK H PARENT 5 3 5 4 5 5
REMARK Flexibility Score: inf
ROOT
ATOM      1  C   UNL     1     160.194 151.858 166.618  1.00  0.00     0.230 C 
ENDROOT
BRANCH   1   2
ATOM      2  N   UNL     1     159.747 153.258 166.564  1.00  0.00    -0.350 N 
ATOM      3  H   UNL     1     158.705 153.305 166.505  1.00  0.00     0.345 HD
ATOM      4  H   UNL     1     160.028 153.759 167.439  1.00  0.00     0.345 HD
ATOM      5  H   UNL     1     160.168 153.751 165.742  1.00  0.00     0.345 HD
ENDBRANCH   1   2
BRANCH   1   6
ATOM      6  C   UNL     1     158.998 150.962 166.830  1.00  0.00     0.099 C 
ATOM      7  O   UNL     1     158.768 150.014 166.034  1.00  0.00    -0.544 OA
ATOM      8  O   UNL     1     158.146 151.177 167.907  1.00  0.00    -0.544 OA
ENDBRANCH   1   6
BRANCH   1   9
ATOM      9  C   UNL     1     161.259 151.631 167.734  1.00  0.00     0.047 C 
ATOM     10  C   UNL     1     160.848 152.326 169.045  1.00  0.00     0.014 C 
ATOM     11  C   UNL     1     161.493 150.137 168.008  1.00  0.00     0.014 C 
ENDBRANCH   1   9
TORSDOF 3
ENDMDL
MODEL 3
REMARK VINA RESULT:    -3.905     14.914     15.645
REMARK INTER + INTRA:          -4.352
REMARK INTER:                  -4.473
REMARK INTRA:                   0.121
REMARK UNBOUND:                 0.125
REMARK SMILES CC(C)[C@H]([NH3+])C(=O)[O-]
REMARK SMILES IDX 4 1 5 2 6 6 7 7 8 8 2 9 1 10 3 11
REMARK H PARENT 5 3 5 4 5 5
REMARK Flexibility Score: inf
ROOT
ATOM      1  C   UNL     1     157.801 151.843 151.377  1.00  0.00     0.230 C 
ENDROOT
BRANCH   1   2
ATOM      2  N   UNL     1     158.280 153.233 151.418  1.00  0.00    -0.350 N 
ATOM      3  H   UNL     1     159.127 153.307 152.027  1.00  0.00     0.345 HD
ATOM      4  H   UNL     1     158.563 153.544 150.461  1.00  0.00     0.345 HD
ATOM      5  H   UNL     1     157.533 153.872 151.776  1.00  0.00     0.345 HD
ENDBRANCH   1   2
BRANCH   1   6
ATOM      6  C   UNL     1     158.973 150.918 151.159  1.00  0.00     0.099 C 
ATOM      7  O   UNL     1     159.139 149.920 151.908  1.00  0.00    -0.544 OA
ATOM      8  O   UNL     1     159.873 151.161 150.129  1.00  0.00    -0.544 OA
ENDBRANCH   1   6
BRANCH   1   9
ATOM      9  C   UNL     1     156.720 151.635 150.272  1.00  0.00     0.047 C 
ATOM     10  C   UNL     1     157.123 152.334 148.961  1.00  0.00     0.014 C 
ATOM     11  C   UNL     1     156.466 150.145 149.991  1.00  0.00     0.014 C 
ENDBRANCH   1   9
TORSDOF 3
ENDMDL
MODEL 4
REMARK VINA RESULT:    -3.896     16.020     17.025
REMARK INTER + INTRA:          -4.341
REMARK INTER:                  -4.486
REMARK INTRA:                   0.145
REMARK UNBOUND:                 0.125
REMARK SMILES CC(C)[C@H]([NH3+])C(=O)[O-]
REMARK SMILES IDX 4 1 5 2 6 6 7 7 8 8 2 9 1 10 3 11
REMARK H PARENT 5 3 5 4 5 5
REMARK Flexibility Score: inf
ROOT
ATOM      1  C   UNL     1     157.811 166.162 166.599  1.00  0.00     0.230 C 
ENDROOT
BRANCH   1   2
ATOM      2  N   UNL     1     158.256 164.761 166.583  1.00  0.00    -0.350 N 
ATOM      3  H   UNL     1     159.185 164.669 167.053  1.00  0.00     0.345 HD
ATOM      4  H   UNL     1     157.582 164.163 167.116  1.00  0.00     0.345 HD
ATOM      5  H   UNL     1     158.322 164.404 165.601  1.00  0.00     0.345 HD
ENDBRANCH   1   2
BRANCH   1   6
ATOM      6  C   UNL     1     159.001 167.060 166.827  1.00  0.00     0.099 C 
ATOM      7  O   UNL     1     159.245 168.004 166.031  1.00  0.00    -0.544 OA
ATOM      8  O   UNL     1     159.835 166.852 167.920  1.00  0.00    -0.544 OA
ENDBRANCH   1   6
BRANCH   1   9
ATOM      9  C   UNL     1     156.716 166.410 167.681  1.00  0.00     0.047 C 
ATOM     10  C   UNL     1     157.102 165.761 169.023  1.00  0.00     0.014 C 
ATOM     11  C   UNL     1     156.459 167.910 167.904  1.00  0.00     0.014 C 
ENDBRANCH   1   9
TORSDOF 3
ENDMDL
MODEL 5
REMARK VINA RESULT:    -3.892     14.182     14.975
REMARK INTER + INTRA:          -4.336
REMARK INTER:                  -4.302
REMARK INTRA:                  -0.034
REMARK UNBOUND:                 0.125
REMARK SMILES CC(C)[C@H]([NH3+])C(=O)[O-]
REMARK SMILES IDX 4 1 5 2 6 6 7 7 8 8 2 9 1 10 3 11
REMARK H PARENT 5 3 5 4 5 5
REMARK Flexibility Score: inf
ROOT
ATOM      1  C   UNL     1     159.465 151.637 149.890  1.00  0.00     0.230 C 
ENDROOT
BRANCH   1   2
ATOM      2  N   UNL     1     160.416 150.933 150.764  1.00  0.00    -0.350 N 
ATOM      3  H   UNL     1     159.907 150.281 151.403  1.00  0.00     0.345 HD
ATOM      4  H   UNL     1     161.070 150.352 150.191  1.00  0.00     0.345 HD
ATOM      5  H   UNL     1     160.974 151.614 151.330  1.00  0.00     0.345 HD
ENDBRANCH   1   2
BRANCH   1   6
ATOM      6  C   UNL     1     159.565 153.121 150.140  1.00  0.00     0.099 C 
ATOM      7  O   UNL     1     160.502 153.788 149.626  1.00  0.00    -0.544 OA
ATOM      8  O   UNL     1     158.623 153.762 150.934  1.00  0.00    -0.544 OA
ENDBRANCH   1   6
BRANCH   1   9
ATOM      9  C   UNL     1     158.003 151.138 150.104  1.00  0.00     0.047 C 
ATOM     10  C   UNL     1     157.127 151.442 148.875  1.00  0.00     0.014 C 
ATOM     11  C   UNL     1     157.948 149.631 150.401  1.00  0.00     0.014 C 
ENDBRANCH   1   9
TORSDOF 3
ENDMDL
MODEL 6
REMARK VINA RESULT:    -3.888     16.682     17.270
REMARK INTER + INTRA:          -4.332
REMARK INTER:                  -4.285
REMARK INTRA:                  -0.047
REMARK UNBOUND:                 0.125
REMARK SMILES CC(C)[C@H]([NH3+])C(=O)[O-]
REMARK SMILES IDX 4 1 5 2 6 6 7 7 8 8 2 9 1 10 3 11
REMARK H PARENT 5 3 5 4 5 5
REMARK Flexibility Score: inf
ROOT
ATOM      1  C   UNL     1     158.869 166.783 167.235  1.00  0.00     0.230 C 
ENDROOT
BRANCH   1   2
ATOM      2  N   UNL     1     160.297 167.133 167.192  1.00  0.00    -0.350 N 
ATOM      3  H   UNL     1     160.498 167.737 166.363  1.00  0.00     0.345 HD
ATOM      4  H   UNL     1     160.559 167.683 168.042  1.00  0.00     0.345 HD
ATOM      5  H   UNL     1     160.889 166.271 167.150  1.00  0.00     0.345 HD
ENDBRANCH   1   2
BRANCH   1   6
ATOM      6  C   UNL     1     158.141 167.772 168.110  1.00  0.00     0.099 C 
ATOM      7  O   UNL     1     158.708 168.260 169.123  1.00  0.00    -0.544 OA
ATOM      8  O   UNL     1     156.841 168.154 167.803  1.00  0.00    -0.544 OA
ENDBRANCH   1   6
BRANCH   1   9
ATOM      9  C   UNL     1     158.645 165.326 167.743  1.00  0.00     0.047 C 
ATOM     10  C   UNL     1     157.943 164.467 166.676  1.00  0.00     0.014 C 
ATOM     11  C   UNL     1     159.965 164.649 168.146  1.00  0.00     0.014 C 
ENDBRANCH   1   9
TORSDOF 3
ENDMDL
MODEL 7
REMARK VINA RESULT:    -3.886     22.328     23.087
REMARK INTER + INTRA:          -4.329
REMARK INTER:                  -4.282
REMARK INTRA:                  -0.047
REMARK UNBOUND:                 0.125
REMARK SMILES CC(C)[C@H]([NH3+])C(=O)[O-]
REMARK SMILES IDX 4 1 5 2 6 6 7 7 8 8 2 9 1 10 3 11
REMARK H PARENT 5 3 5 4 5 5
REMARK Flexibility Score: inf
ROOT
ATOM      1  C   UNL     1     159.101 151.193 167.268  1.00  0.00     0.230 C 
ENDROOT
BRANCH   1   2
ATOM      2  N   UNL     1     157.673 150.840 167.236  1.00  0.00    -0.350 N 
ATOM      3  H   UNL     1     157.557 149.803 167.190  1.00  0.00     0.345 HD
ATOM      4  H   UNL     1     157.203 151.163 168.113  1.00  0.00     0.345 HD
ATOM      5  H   UNL     1     157.200 151.284 166.414  1.00  0.00     0.345 HD
ENDBRANCH   1   2
BRANCH   1   6
ATOM      6  C   UNL     1     159.841 150.194 168.123  1.00  0.00     0.099 C 
ATOM      7  O   UNL     1     159.278 149.677 169.124  1.00  0.00    -0.544 OA
ATOM      8  O   UNL     1     161.147 149.838 167.810  1.00  0.00    -0.544 OA
ENDBRANCH   1   6
BRANCH   1   9
ATOM      9  C   UNL     1     159.328 152.644 167.792  1.00  0.00     0.047 C 
ATOM     10  C   UNL     1     160.073 153.501 166.752  1.00  0.00     0.014 C 
ATOM     11  C   UNL     1     158.004 153.335 168.158  1.00  0.00     0.014 C 
ENDBRANCH   1   9
TORSDOF 3
ENDMDL
MODEL 8
REMARK VINA RESULT:    -3.802     21.970     22.756
REMARK INTER + INTRA:          -4.233
REMARK INTER:                  -4.183
REMARK INTRA:                  -0.049
REMARK UNBOUND:                 0.125
REMARK SMILES CC(C)[C@H]([NH3+])C(=O)[O-]
REMARK SMILES IDX 4 1 5 2 6 6 7 7 8 8 2 9 1 10 3 11
REMARK H PARENT 5 3 5 4 5 5
REMARK Flexibility Score: inf
ROOT
ATOM      1  C   UNL     1     159.154 152.099 167.717  1.00  0.00     0.230 C 
ENDROOT
BRANCH   1   2
ATOM      2  N   UNL     1     159.792 152.352 166.416  1.00  0.00    -0.350 N 
ATOM      3  H   UNL     1     160.095 153.349 166.349  1.00  0.00     0.345 HD
ATOM      4  H   UNL     1     160.650 151.762 166.316  1.00  0.00     0.345 HD
ATOM      5  H   UNL     1     159.135 152.131 165.632  1.00  0.00     0.345 HD
ENDBRANCH   1   2
BRANCH   1   6
ATOM      6  C   UNL     1     158.691 153.408 168.308  1.00  0.00     0.099 C 
ATOM      7  O   UNL     1     157.495 153.777 168.172  1.00  0.00    -0.544 OA
ATOM      8  O   UNL     1     159.582 154.212 169.008  1.00  0.00    -0.544 OA
ENDBRANCH   1   6
BRANCH   1   9
ATOM      9  C   UNL     1     160.113 151.358 168.699  1.00  0.00     0.047 C 
ATOM     10  C   UNL     1     159.532 149.998 169.125  1.00  0.00     0.014 C 
ATOM     11  C   UNL     1     161.506 151.141 168.085  1.00  0.00     0.014 C 
ENDBRANCH   1   9
TORSDOF 3
ENDMDL
MODEL 9
REMARK VINA RESULT:    -3.762      2.163      2.668
REMARK INTER + INTRA:          -4.187
REMARK INTER:                  -4.138
REMARK INTRA:                  -0.049
REMARK UNBOUND:                 0.125
REMARK SMILES CC(C)[C@H]([NH3+])C(=O)[O-]
REMARK SMILES IDX 4 1 5 2 6 6 7 7 8 8 2 9 1 10 3 11
REMARK H PARENT 5 3 5 4 5 5
REMARK Flexibility Score: inf
ROOT
ATOM      1  C   UNL     1     159.166 165.885 150.241  1.00  0.00     0.230 C 
ENDROOT
BRANCH   1   2
ATOM      2  N   UNL     1     159.736 165.614 151.570  1.00  0.00    -0.350 N 
ATOM      3  H   UNL     1     159.731 164.587 151.763  1.00  0.00     0.345 HD
ATOM      4  H   UNL     1     160.734 165.928 151.604  1.00  0.00     0.345 HD
ATOM      5  H   UNL     1     159.197 166.114 152.314  1.00  0.00     0.345 HD
ENDBRANCH   1   2
BRANCH   1   6
ATOM      6  C   UNL     1     158.725 164.586 149.614  1.00  0.00     0.099 C 
ATOM      7  O   UNL     1     157.512 164.250 149.640  1.00  0.00    -0.544 OA
ATOM      8  O   UNL     1     159.654 163.755 149.000  1.00  0.00    -0.544 OA
ENDBRANCH   1   6
BRANCH   1   9
ATOM      9  C   UNL     1     160.179 166.629 149.317  1.00  0.00     0.047 C 
ATOM     10  C   UNL     1     159.629 167.998 148.877  1.00  0.00     0.014 C 
ATOM     11  C   UNL     1     161.541 166.830 150.003  1.00  0.00     0.014 C 
ENDBRANCH   1   9
TORSDOF 3
ENDMDL
