MODEL 1
REMARK VINA RESULT:    -4.408      0.000      0.000
REMARK INTER + INTRA:          -5.040
REMARK INTER:                  -4.795
REMARK INTRA:                  -0.245
REMARK UNBOUND:                -0.245
REMARK SMILES O=C([O-])c1ccccc1O
REMARK SMILES IDX 4 1 9 2 5 3 8 4 6 5 7 6 2 7 1 8 3 9 10 10
REMARK H PARENT 10 11
REMARK Flexibility Score: inf
ROOT
ATOM      1  C   UNL     1      -5.797   3.594  15.572  1.00  0.00     0.039 A 
ATOM      2  C   UNL     1      -6.320   4.529  16.497  1.00  0.00     0.124 A 
ATOM      3  C   UNL     1      -6.412   3.473  14.309  1.00  0.00     0.014 A 
ATOM      4  C   UNL     1      -7.430   5.313  16.147  1.00  0.00     0.047 A 
ATOM      5  C   UNL     1      -7.516   4.261  13.975  1.00  0.00     0.001 A 
ATOM      6  C   UNL     1      -8.025   5.179  14.891  1.00  0.00     0.004 A 
ENDROOT
BRANCH   1   7
ATOM      7  C   UNL     1      -4.625   2.743  15.900  1.00  0.00     0.075 C 
ATOM      8  O   UNL     1      -4.645   1.994  16.913  1.00  0.00    -0.545 OA
ATOM      9  O   UNL     1      -3.487   2.750  15.102  1.00  0.00    -0.545 OA
ENDBRANCH   1   7
BRANCH   2  10
ATOM     10  O   UNL     1      -5.746   4.683  17.758  1.00  0.00    -0.507 OA
ATOM     11  H   UNL     1      -5.671   5.592  18.202  1.00  0.00     0.293 HD
ENDBRANCH   2  10
TORSDOF 2
ENDMDL
MODEL 2
REMARK VINA RESULT:    -3.758      2.324      4.040
REMARK INTER + INTRA:          -4.332
REMARK INTER:                  -4.094
REMARK INTRA:                  -0.239
REMARK UNBOUND:                -0.245
REMARK SMILES O=C([O-])c1ccccc1O
REMARK SMILES IDX 4 1 9 2 5 3 8 4 6 5 7 6 2 7 1 8 3 9 10 10
REMARK H PARENT 10 11
REMARK Flexibility Score: inf
ROOT
ATOM      1  C   UNL     1      -6.606   4.838  15.690  1.00  0.00     0.039 A 
ATOM      2  C   UNL     1      -6.278   3.704  14.911  1.00  0.00     0.124 A 
ATOM      3  C   UNL     1      -6.352   4.806  17.076  1.00  0.00     0.014 A 
ATOM      4  C   UNL     1      -5.709   2.576  15.522  1.00  0.00     0.047 A 
ATOM      5  C   UNL     1      -5.785   3.676  17.671  1.00  0.00     0.001 A 
ATOM      6  C   UNL     1      -5.465   2.563  16.896  1.00  0.00     0.004 A 
ENDROOT
BRANCH   1   7
ATOM      7  C   UNL     1      -7.211   6.054  15.085  1.00  0.00     0.075 C 
ATOM      8  O   UNL     1      -8.317   5.983  14.485  1.00  0.00    -0.545 OA
ATOM      9  O   UNL     1      -6.577   7.288  15.168  1.00  0.00    -0.545 OA
ENDBRANCH   1   7
BRANCH   2  10
ATOM     10  O   UNL     1      -6.513   3.690  13.536  1.00  0.00    -0.507 OA
ATOM     11  H   UNL     1      -7.283   3.169  13.132  1.00  0.00     0.293 HD
ENDBRANCH   2  10
TORSDOF 2
ENDMDL
MODEL 3
REMARK VINA RESULT:    -3.656      0.961      2.144
REMARK INTER + INTRA:          -4.222
REMARK INTER:                  -3.971
REMARK INTRA:                  -0.251
REMARK UNBOUND:                -0.245
REMARK SMILES O=C([O-])c1ccccc1O
REMARK SMILES IDX 4 1 9 2 5 3 8 4 6 5 7 6 2 7 1 8 3 9 10 10
REMARK H PARENT 10 11
REMARK Flexibility Score: inf
ROOT
ATOM      1  C   UNL     1      -5.877   3.552  15.636  1.00  0.00     0.039 A 
ATOM      2  C   UNL     1      -6.220   3.667  14.269  1.00  0.00     0.124 A 
ATOM      3  C   UNL     1      -6.681   4.201  16.594  1.00  0.00     0.014 A 
ATOM      4  C   UNL     1      -7.346   4.417  13.890  1.00  0.00     0.047 A 
ATOM      5  C   UNL     1      -7.798   4.943  16.203  1.00  0.00     0.001 A 
ATOM      6  C   UNL     1      -8.130   5.051  14.854  1.00  0.00     0.004 A 
ENDROOT
BRANCH   1   7
ATOM      7  C   UNL     1      -4.695   2.770  16.081  1.00  0.00     0.075 C 
ATOM      8  O   UNL     1      -4.762   2.043  17.108  1.00  0.00    -0.545 OA
ATOM      9  O   UNL     1      -3.495   2.820  15.381  1.00  0.00    -0.545 OA
ENDBRANCH   1   7
BRANCH   2  10
ATOM     10  O   UNL     1      -5.453   3.044  13.284  1.00  0.00    -0.507 OA
ATOM     11  H   UNL     1      -4.558   3.417  12.990  1.00  0.00     0.293 HD
ENDBRANCH   2  10
TORSDOF 2
ENDMDL
MODEL 4
REMARK VINA RESULT:    -3.498      2.374      3.509
REMARK INTER + INTRA:          -4.050
REMARK INTER:                  -3.803
REMARK INTRA:                  -0.246
REMARK UNBOUND:                -0.245
REMARK SMILES O=C([O-])c1ccccc1O
REMARK SMILES IDX 4 1 9 2 5 3 8 4 6 5 7 6 2 7 1 8 3 9 10 10
REMARK H PARENT 10 11
REMARK Flexibility Score: inf
ROOT
ATOM      1  C   UNL     1      -6.802   4.731  15.701  1.00  0.00     0.039 A 
ATOM      2  C   UNL     1      -6.143   4.933  16.936  1.00  0.00     0.124 A 
ATOM      3  C   UNL     1      -6.895   3.421  15.188  1.00  0.00     0.014 A 
ATOM      4  C   UNL     1      -5.599   3.838  17.626  1.00  0.00     0.047 A 
ATOM      5  C   UNL     1      -6.349   2.341  15.886  1.00  0.00     0.001 A 
ATOM      6  C   UNL     1      -5.701   2.549  17.102  1.00  0.00     0.004 A 
ENDROOT
BRANCH   1   7
ATOM      7  C   UNL     1      -7.392   5.860  14.936  1.00  0.00     0.075 C 
ATOM      8  O   UNL     1      -8.475   5.708  14.311  1.00  0.00    -0.545 OA
ATOM      9  O   UNL     1      -6.769   7.101  14.894  1.00  0.00    -0.545 OA
ENDBRANCH   1   7
BRANCH   2  10
ATOM     10  O   UNL     1      -6.025   6.211  17.482  1.00  0.00    -0.507 OA
ATOM     11  H   UNL     1      -6.756   6.906  17.375  1.00  0.00     0.293 HD
ENDBRANCH   2  10
TORSDOF 2
ENDMDL
MODEL 5
REMARK VINA RESULT:    -2.537      1.778      3.272
REMARK INTER + INTRA:          -3.005
REMARK INTER:                  -2.824
REMARK INTRA:                  -0.181
REMARK UNBOUND:                -0.245
REMARK SMILES O=C([O-])c1ccccc1O
REMARK SMILES IDX 4 1 9 2 5 3 8 4 6 5 7 6 2 7 1 8 3 9 10 10
REMARK H PARENT 10 11
REMARK Flexibility Score: inf
ROOT
ATOM      1  C   UNL     1      -6.465   5.781  16.030  1.00  0.00     0.039 A 
ATOM      2  C   UNL     1      -6.140   4.532  16.610  1.00  0.00     0.124 A 
ATOM      3  C   UNL     1      -7.199   5.799  14.826  1.00  0.00     0.014 A 
ATOM      4  C   UNL     1      -6.550   3.343  15.986  1.00  0.00     0.047 A 
ATOM      5  C   UNL     1      -7.600   4.608  14.217  1.00  0.00     0.001 A 
ATOM      6  C   UNL     1      -7.276   3.382  14.795  1.00  0.00     0.004 A 
ENDROOT
BRANCH   1   7
ATOM      7  C   UNL     1      -6.052   7.063  16.655  1.00  0.00     0.075 C 
ATOM      8  O   UNL     1      -5.789   7.116  17.886  1.00  0.00    -0.545 OA
ATOM      9  O   UNL     1      -5.943   8.227  15.902  1.00  0.00    -0.545 OA
ENDBRANCH   1   7
BRANCH   2  10
ATOM     10  O   UNL     1      -5.415   4.463  17.799  1.00  0.00    -0.507 OA
ATOM     11  H   UNL     1      -4.762   3.710  17.983  1.00  0.00     0.293 HD
ENDBRANCH   2  10
TORSDOF 2
ENDMDL
MODEL 6
REMARK VINA RESULT:    -2.163      1.880      3.410
REMARK INTER + INTRA:          -2.598
REMARK INTER:                  -2.500
REMARK INTRA:                  -0.098
REMARK UNBOUND:                -0.245
REMARK SMILES O=C([O-])c1ccccc1O
REMARK SMILES IDX 4 1 9 2 5 3 8 4 6 5 7 6 2 7 1 8 3 9 10 10
REMARK H PARENT 10 11
REMARK Flexibility Score: inf
ROOT
ATOM      1  C   UNL     1      -6.224   3.848  15.266  1.00  0.00     0.039 A 
ATOM      2  C   UNL     1      -5.478   3.477  16.409  1.00  0.00     0.124 A 
ATOM      3  C   UNL     1      -5.695   3.568  13.990  1.00  0.00     0.014 A 
ATOM      4  C   UNL     1      -4.235   2.842  16.257  1.00  0.00     0.047 A 
ATOM      5  C   UNL     1      -4.457   2.935  13.854  1.00  0.00     0.001 A 
ATOM      6  C   UNL     1      -3.728   2.573  14.985  1.00  0.00     0.004 A 
ENDROOT
BRANCH   1   7
ATOM      7  C   UNL     1      -7.543   4.523  15.379  1.00  0.00     0.075 C 
ATOM      8  O   UNL     1      -7.968   4.905  16.502  1.00  0.00    -0.545 OA
ATOM      9  O   UNL     1      -8.333   4.749  14.258  1.00  0.00    -0.545 OA
ENDBRANCH   1   7
BRANCH   2  10
ATOM     10  O   UNL     1      -5.960   3.734  17.692  1.00  0.00    -0.507 OA
ATOM     11  H   UNL     1      -6.112   4.680  18.025  1.00  0.00     0.293 HD
ENDBRANCH   2  10
TORSDOF 2
ENDMDL
MODEL 7
REMARK VINA RESULT:    -1.892      2.393      3.141
REMARK INTER + INTRA:          -2.304
REMARK INTER:                  -2.089
REMARK INTRA:                  -0.215
REMARK UNBOUND:                -0.245
REMARK SMILES O=C([O-])c1ccccc1O
REMARK SMILES IDX 4 1 9 2 5 3 8 4 6 5 7 6 2 7 1 8 3 9 10 10
REMARK H PARENT 10 11
REMARK Flexibility Score: inf
ROOT
ATOM      1  C   UNL     1      -6.618   5.454  15.634  1.00  0.00     0.039 A 
ATOM      2  C   UNL     1      -6.153   5.451  16.970  1.00  0.00     0.124 A 
ATOM      3  C   UNL     1      -6.667   6.677  14.935  1.00  0.00     0.014 A 
ATOM      4  C   UNL     1      -5.749   6.654  17.573  1.00  0.00     0.047 A 
ATOM      5  C   UNL     1      -6.262   7.865  15.548  1.00  0.00     0.001 A 
ATOM      6  C   UNL     1      -5.804   7.854  16.864  1.00  0.00     0.004 A 
ENDROOT
BRANCH   1   7
ATOM      7  C   UNL     1      -7.056   4.206  14.957  1.00  0.00     0.075 C 
ATOM      8  O   UNL     1      -7.849   4.256  13.979  1.00  0.00    -0.545 OA
ATOM      9  O   UNL     1      -6.603   2.962  15.382  1.00  0.00    -0.545 OA
ENDBRANCH   1   7
BRANCH   2  10
ATOM     10  O   UNL     1      -6.088   4.266  17.702  1.00  0.00    -0.507 OA
ATOM     11  H   UNL     1      -5.675   3.424  17.318  1.00  0.00     0.293 HD
ENDBRANCH   2  10
TORSDOF 2
ENDMDL
MODEL 8
REMARK VINA RESULT:    -1.890      2.180      2.948
REMARK INTER + INTRA:          -2.301
REMARK INTER:                  -2.177
REMARK INTRA:                  -0.124
REMARK UNBOUND:                -0.245
REMARK SMILES O=C([O-])c1ccccc1O
REMARK SMILES IDX 4 1 9 2 5 3 8 4 6 5 7 6 2 7 1 8 3 9 10 10
REMARK H PARENT 10 11
REMARK Flexibility Score: inf
ROOT
ATOM      1  C   UNL     1      -6.307   4.785  16.288  1.00  0.00     0.039 A 
ATOM      2  C   UNL     1      -6.672   5.335  15.036  1.00  0.00     0.124 A 
ATOM      3  C   UNL     1      -5.937   5.658  17.330  1.00  0.00     0.014 A 
ATOM      4  C   UNL     1      -6.662   6.727  14.854  1.00  0.00     0.047 A 
ATOM      5  C   UNL     1      -5.932   7.041  17.134  1.00  0.00     0.001 A 
ATOM      6  C   UNL     1      -6.293   7.575  15.899  1.00  0.00     0.004 A 
ENDROOT
BRANCH   1   7
ATOM      7  C   UNL     1      -6.303   3.318  16.525  1.00  0.00     0.075 C 
ATOM      8  O   UNL     1      -5.861   2.850  17.608  1.00  0.00    -0.545 OA
ATOM      9  O   UNL     1      -6.784   2.434  15.567  1.00  0.00    -0.545 OA
ENDBRANCH   1   7
BRANCH   2  10
ATOM     10  O   UNL     1      -7.045   4.510  13.975  1.00  0.00    -0.507 OA
ATOM     11  H   UNL     1      -8.013   4.409  13.693  1.00  0.00     0.293 HD
ENDBRANCH   2  10
TORSDOF 2
ENDMDL
MODEL 9
REMARK VINA RESULT:    -1.830      1.960      2.769
REMARK INTER + INTRA:          -2.236
REMARK INTER:                  -2.069
REMARK INTRA:                  -0.167
REMARK UNBOUND:                -0.245
REMARK SMILES O=C([O-])c1ccccc1O
REMARK SMILES IDX 4 1 9 2 5 3 8 4 6 5 7 6 2 7 1 8 3 9 10 10
REMARK H PARENT 10 11
REMARK Flexibility Score: inf
ROOT
ATOM      1  C   UNL     1      -5.350   3.400  14.997  1.00  0.00     0.039 A 
ATOM      2  C   UNL     1      -6.551   4.105  14.749  1.00  0.00     0.124 A 
ATOM      3  C   UNL     1      -4.981   3.138  16.332  1.00  0.00     0.014 A 
ATOM      4  C   UNL     1      -7.350   4.527  15.823  1.00  0.00     0.047 A 
ATOM      5  C   UNL     1      -5.786   3.563  17.391  1.00  0.00     0.001 A 
ATOM      6  C   UNL     1      -6.968   4.257  17.138  1.00  0.00     0.004 A 
ENDROOT
BRANCH   1   7
ATOM      7  C   UNL     1      -4.474   2.936  13.890  1.00  0.00     0.075 C 
ATOM      8  O   UNL     1      -4.936   2.803  12.726  1.00  0.00    -0.545 OA
ATOM      9  O   UNL     1      -3.134   2.641  14.111  1.00  0.00    -0.545 OA
ENDBRANCH   1   7
BRANCH   2  10
ATOM     10  O   UNL     1      -6.957   4.389  13.445  1.00  0.00    -0.507 OA
ATOM     11  H   UNL     1      -6.797   5.297  13.023  1.00  0.00     0.293 HD
ENDBRANCH   2  10
TORSDOF 2
ENDMDL
