MODEL 1
REMARK VINA RESULT:    -3.912      0.000      0.000
REMARK INTER + INTRA:          -8.712
REMARK INTER:                  -6.886
REMARK INTRA:                  -1.827
REMARK UNBOUND:                -1.827
REMARK SMILES CCCCCCCCCCCCCCC(=O)[O-]
REMARK SMILES IDX 9 1 10 2 11 3 12 4 13 5 14 6 15 7 16 8 17 9 8 10 7 11 6 12
REMARK SMILES IDX 5 13 4 14 3 15 2 16 1 17
REMARK H PARENT
REMARK Flexibility Score: inf
ROOT
ATOM      1  C   UNL     1     184.148 181.830 201.201  1.00  0.00     0.000 C 
ENDROOT
BRANCH   1   2
ATOM      2  C   UNL     1     184.783 183.196 201.491  1.00  0.00     0.000 C 
BRANCH   2   3
ATOM      3  C   UNL     1     185.323 183.837 200.205  1.00  0.00     0.000 C 
BRANCH   3   4
ATOM      4  C   UNL     1     184.194 184.201 199.214  1.00  0.00     0.000 C 
BRANCH   4   5
ATOM      5  C   UNL     1     184.563 185.350 198.257  1.00  0.00     0.006 C 
BRANCH   5   6
ATOM      6  C   UNL     1     185.192 186.566 198.953  1.00  0.00     0.053 C 
BRANCH   6   7
ATOM      7  C   UNL     1     185.512 187.660 197.981  1.00  0.00     0.041 C 
ATOM      8  O   UNL     1     186.686 188.107 197.890  1.00  0.00    -0.550 OA
ATOM      9  O   UNL     1     184.508 188.203 197.191  1.00  0.00    -0.550 OA
ENDBRANCH   6   7
ENDBRANCH   5   6
ENDBRANCH   4   5
ENDBRANCH   3   4
ENDBRANCH   2   3
ENDBRANCH   1   2
BRANCH   1  10
ATOM     10  C   UNL     1     182.935 181.585 202.106  1.00  0.00     0.000 C 
BRANCH  10  11
ATOM     11  C   UNL     1     181.641 181.510 201.283  1.00  0.00    -0.000 C 
BRANCH  11  12
ATOM     12  C   UNL     1     181.074 182.897 200.931  1.00  0.00    -0.000 C 
BRANCH  12  13
ATOM     13  C   UNL     1     180.945 183.868 202.120  1.00  0.00    -0.000 C 
BRANCH  13  14
ATOM     14  C   UNL     1     181.755 185.173 201.990  1.00  0.00    -0.000 C 
BRANCH  14  15
ATOM     15  C   UNL     1     181.091 186.270 201.135  1.00  0.00    -0.000 C 
BRANCH  15  16
ATOM     16  C   UNL     1     182.065 187.293 200.525  1.00  0.00    -0.003 C 
ATOM     17  C   UNL     1     181.629 187.780 199.144  1.00  0.00     0.004 C 
ENDBRANCH  15  16
ENDBRANCH  14  15
ENDBRANCH  13  14
ENDBRANCH  12  13
ENDBRANCH  11  12
ENDBRANCH  10  11
ENDBRANCH   1  10
TORSDOF 13
ENDMDL
MODEL 2
REMARK VINA RESULT:    -3.820      1.405      3.850
REMARK INTER + INTRA:          -8.550
REMARK INTER:                  -6.820
REMARK INTRA:                  -1.730
REMARK UNBOUND:                -1.827
REMARK SMILES CCCCCCCCCCCCCCC(=O)[O-]
REMARK SMILES IDX 9 1 10 2 11 3 12 4 13 5 14 6 15 7 16 8 17 9 8 10 7 11 6 12
REMARK SMILES IDX 5 13 4 14 3 15 2 16 1 17
REMARK H PARENT
REMARK Flexibility Score: inf
ROOT
ATOM      1  C   UNL     1     181.495 184.593 201.563  1.00  0.00     0.000 C 
ENDROOT
BRANCH   1   2
ATOM      2  C   UNL     1     180.272 185.517 201.557  1.00  0.00     0.000 C 
BRANCH   2   3
ATOM      3  C   UNL     1     180.675 186.965 201.241  1.00  0.00     0.000 C 
BRANCH   3   4
ATOM      4  C   UNL     1     182.102 187.061 200.658  1.00  0.00     0.000 C 
BRANCH   4   5
ATOM      5  C   UNL     1     182.135 187.501 199.182  1.00  0.00     0.006 C 
BRANCH   5   6
ATOM      6  C   UNL     1     183.550 187.714 198.625  1.00  0.00     0.053 C 
BRANCH   6   7
ATOM      7  C   UNL     1     183.689 189.044 197.950  1.00  0.00     0.041 C 
ATOM      8  O   UNL     1     183.651 189.127 196.694  1.00  0.00    -0.550 OA
ATOM      9  O   UNL     1     183.883 190.191 198.709  1.00  0.00    -0.550 OA
ENDBRANCH   6   7
ENDBRANCH   5   6
ENDBRANCH   4   5
ENDBRANCH   3   4
ENDBRANCH   2   3
ENDBRANCH   1   2
BRANCH   1  10
ATOM     10  C   UNL     1     181.129 183.191 201.062  1.00  0.00     0.000 C 
BRANCH  10  11
ATOM     11  C   UNL     1     181.911 182.112 201.825  1.00  0.00    -0.000 C 
BRANCH  11  12
ATOM     12  C   UNL     1     183.087 181.538 201.014  1.00  0.00    -0.000 C 
BRANCH  12  13
ATOM     13  C   UNL     1     183.029 181.818 199.499  1.00  0.00    -0.000 C 
BRANCH  13  14
ATOM     14  C   UNL     1     184.260 182.543 198.922  1.00  0.00    -0.000 C 
BRANCH  14  15
ATOM     15  C   UNL     1     184.226 184.080 199.041  1.00  0.00    -0.000 C 
BRANCH  15  16
ATOM     16  C   UNL     1     185.002 184.653 200.240  1.00  0.00    -0.003 C 
ATOM     17  C   UNL     1     186.059 183.691 200.780  1.00  0.00     0.004 C 
ENDBRANCH  15  16
ENDBRANCH  14  15
ENDBRANCH  13  14
ENDBRANCH  12  13
ENDBRANCH  11  12
ENDBRANCH  10  11
ENDBRANCH   1  10
TORSDOF 13
ENDMDL
MODEL 3
REMARK VINA RESULT:    -3.792      1.441      2.360
REMARK INTER + INTRA:          -8.501
REMARK INTER:                  -6.677
REMARK INTRA:                  -1.824
REMARK UNBOUND:                -1.827
REMARK SMILES CCCCCCCCCCCCCCC(=O)[O-]
REMARK SMILES IDX 9 1 10 2 11 3 12 4 13 5 14 6 15 7 16 8 17 9 8 10 7 11 6 12
REMARK SMILES IDX 5 13 4 14 3 15 2 16 1 17
REMARK H PARENT
REMARK Flexibility Score: inf
ROOT
ATOM      1  C   UNL     1     184.888 183.036 199.060  1.00  0.00     0.000 C 
ENDROOT
BRANCH   1   2
ATOM      2  C   UNL     1     184.835 184.107 197.964  1.00  0.00     0.000 C 
BRANCH   2   3
ATOM      3  C   UNL     1     184.543 185.492 198.560  1.00  0.00     0.000 C 
BRANCH   3   4
ATOM      4  C   UNL     1     185.337 185.749 199.860  1.00  0.00     0.000 C 
BRANCH   4   5
ATOM      5  C   UNL     1     186.097 187.089 199.862  1.00  0.00     0.006 C 
BRANCH   5   6
ATOM      6  C   UNL     1     186.223 187.738 198.476  1.00  0.00     0.053 C 
BRANCH   6   7
ATOM      7  C   UNL     1     187.025 189.002 198.523  1.00  0.00     0.041 C 
ATOM      8  O   UNL     1     186.590 190.052 197.981  1.00  0.00    -0.550 OA
ATOM      9  O   UNL     1     188.265 189.015 199.148  1.00  0.00    -0.550 OA
ENDBRANCH   6   7
ENDBRANCH   5   6
ENDBRANCH   4   5
ENDBRANCH   3   4
ENDBRANCH   2   3
ENDBRANCH   1   2
BRANCH   1  10
ATOM     10  C   UNL     1     183.500 182.431 199.305  1.00  0.00     0.000 C 
BRANCH  10  11
ATOM     11  C   UNL     1     183.046 182.667 200.753  1.00  0.00    -0.000 C 
BRANCH  11  12
ATOM     12  C   UNL     1     181.789 183.551 200.851  1.00  0.00    -0.000 C 
BRANCH  12  13
ATOM     13  C   UNL     1     182.035 184.973 201.391  1.00  0.00    -0.000 C 
BRANCH  13  14
ATOM     14  C   UNL     1     181.186 186.078 200.732  1.00  0.00    -0.000 C 
BRANCH  14  15
ATOM     15  C   UNL     1     181.954 187.368 200.381  1.00  0.00    -0.000 C 
BRANCH  15  16
ATOM     16  C   UNL     1     181.509 188.050 199.075  1.00  0.00    -0.003 C 
ATOM     17  C   UNL     1     182.657 188.747 198.347  1.00  0.00     0.004 C 
ENDBRANCH  15  16
ENDBRANCH  14  15
ENDBRANCH  13  14
ENDBRANCH  12  13
ENDBRANCH  11  12
ENDBRANCH  10  11
ENDBRANCH   1  10
TORSDOF 13
ENDMDL
MODEL 4
REMARK VINA RESULT:    -3.760      2.965      5.906
REMARK INTER + INTRA:          -8.445
REMARK INTER:                  -6.375
REMARK INTRA:                  -2.070
REMARK UNBOUND:                -1.827
REMARK SMILES CCCCCCCCCCCCCCC(=O)[O-]
REMARK SMILES IDX 9 1 10 2 11 3 12 4 13 5 14 6 15 7 16 8 17 9 8 10 7 11 6 12
REMARK SMILES IDX 5 13 4 14 3 15 2 16 1 17
REMARK H PARENT
REMARK Flexibility Score: inf
ROOT
ATOM      1  C   UNL     1     186.143 187.946 198.151  1.00  0.00     0.000 C 
ENDROOT
BRANCH   1   2
ATOM      2  C   UNL     1     186.358 187.366 199.555  1.00  0.00     0.000 C 
BRANCH   2   3
ATOM      3  C   UNL     1     185.336 186.261 199.857  1.00  0.00     0.000 C 
BRANCH   3   4
ATOM      4  C   UNL     1     184.846 185.550 198.576  1.00  0.00     0.000 C 
BRANCH   4   5
ATOM      5  C   UNL     1     184.134 184.212 198.849  1.00  0.00     0.006 C 
BRANCH   5   6
ATOM      6  C   UNL     1     183.260 184.215 200.112  1.00  0.00     0.053 C 
BRANCH   6   7
ATOM      7  C   UNL     1     182.441 182.966 200.227  1.00  0.00     0.041 C 
ATOM      8  O   UNL     1     182.689 181.973 199.493  1.00  0.00    -0.550 OA
ATOM      9  O   UNL     1     181.389 182.906 201.132  1.00  0.00    -0.550 OA
ENDBRANCH   6   7
ENDBRANCH   5   6
ENDBRANCH   4   5
ENDBRANCH   3   4
ENDBRANCH   2   3
ENDBRANCH   1   2
BRANCH   1  10
ATOM     10  C   UNL     1     186.289 189.472 198.158  1.00  0.00     0.000 C 
BRANCH  10  11
ATOM     11  C   UNL     1     184.924 190.157 198.002  1.00  0.00    -0.000 C 
BRANCH  11  12
ATOM     12  C   UNL     1     183.877 189.257 197.320  1.00  0.00    -0.000 C 
BRANCH  12  13
ATOM     13  C   UNL     1     182.436 189.804 197.342  1.00  0.00    -0.000 C 
BRANCH  13  14
ATOM     14  C   UNL     1     181.509 189.159 198.391  1.00  0.00    -0.000 C 
BRANCH  14  15
ATOM     15  C   UNL     1     182.055 187.872 199.039  1.00  0.00    -0.000 C 
BRANCH  15  16
ATOM     16  C   UNL     1     182.202 187.931 200.570  1.00  0.00    -0.003 C 
ATOM     17  C   UNL     1     183.105 189.070 201.038  1.00  0.00     0.004 C 
ENDBRANCH  15  16
ENDBRANCH  14  15
ENDBRANCH  13  14
ENDBRANCH  12  13
ENDBRANCH  11  12
ENDBRANCH  10  11
ENDBRANCH   1  10
TORSDOF 13
ENDMDL
MODEL 5
REMARK VINA RESULT:    -3.748      1.795      4.037
REMARK INTER + INTRA:          -8.424
REMARK INTER:                  -6.618
REMARK INTRA:                  -1.805
REMARK UNBOUND:                -1.827
REMARK SMILES CCCCCCCCCCCCCCC(=O)[O-]
REMARK SMILES IDX 9 1 10 2 11 3 12 4 13 5 14 6 15 7 16 8 17 9 8 10 7 11 6 12
REMARK SMILES IDX 5 13 4 14 3 15 2 16 1 17
REMARK H PARENT
REMARK Flexibility Score: inf
ROOT
ATOM      1  C   UNL     1     180.430 186.870 200.559  1.00  0.00     0.000 C 
ENDROOT
BRANCH   1   2
ATOM      2  C   UNL     1     181.426 187.695 201.382  1.00  0.00     0.000 C 
BRANCH   2   3
ATOM      3  C   UNL     1     182.727 187.928 200.602  1.00  0.00     0.000 C 
BRANCH   3   4
ATOM      4  C   UNL     1     182.555 187.676 199.088  1.00  0.00     0.000 C 
BRANCH   4   5
ATOM      5  C   UNL     1     183.818 187.992 198.264  1.00  0.00     0.006 C 
BRANCH   5   6
ATOM      6  C   UNL     1     183.739 189.310 197.480  1.00  0.00     0.053 C 
BRANCH   6   7
ATOM      7  C   UNL     1     184.382 190.440 198.223  1.00  0.00     0.041 C 
ATOM      8  O   UNL     1     183.694 191.421 198.611  1.00  0.00    -0.550 OA
ATOM      9  O   UNL     1     185.749 190.420 198.470  1.00  0.00    -0.550 OA
ENDBRANCH   6   7
ENDBRANCH   5   6
ENDBRANCH   4   5
ENDBRANCH   3   4
ENDBRANCH   2   3
ENDBRANCH   1   2
BRANCH   1  10
ATOM     10  C   UNL     1     179.580 185.970 201.464  1.00  0.00     0.000 C 
BRANCH  10  11
ATOM     11  C   UNL     1     180.417 184.819 202.040  1.00  0.00    -0.000 C 
BRANCH  11  12
ATOM     12  C   UNL     1     180.806 183.773 200.979  1.00  0.00    -0.000 C 
BRANCH  12  13
ATOM     13  C   UNL     1     182.223 183.186 201.133  1.00  0.00    -0.000 C 
BRANCH  13  14
ATOM     14  C   UNL     1     183.298 184.189 201.596  1.00  0.00    -0.000 C 
BRANCH  14  15
ATOM     15  C   UNL     1     184.349 184.555 200.530  1.00  0.00    -0.000 C 
BRANCH  15  16
ATOM     16  C   UNL     1     183.912 184.302 199.076  1.00  0.00    -0.003 C 
ATOM     17  C   UNL     1     184.803 183.294 198.353  1.00  0.00     0.004 C 
ENDBRANCH  15  16
ENDBRANCH  14  15
ENDBRANCH  13  14
ENDBRANCH  12  13
ENDBRANCH  11  12
ENDBRANCH  10  11
ENDBRANCH   1  10
TORSDOF 13
ENDMDL
MODEL 6
REMARK VINA RESULT:    -3.710      1.709      3.037
REMARK INTER + INTRA:          -8.357
REMARK INTER:                  -6.997
REMARK INTRA:                  -1.360
REMARK UNBOUND:                -1.827
REMARK SMILES CCCCCCCCCCCCCCC(=O)[O-]
REMARK SMILES IDX 9 1 10 2 11 3 12 4 13 5 14 6 15 7 16 8 17 9 8 10 7 11 6 12
REMARK SMILES IDX 5 13 4 14 3 15 2 16 1 17
REMARK H PARENT
REMARK Flexibility Score: inf
ROOT
ATOM      1  C   UNL     1     184.849 183.623 198.284  1.00  0.00     0.000 C 
ENDROOT
BRANCH   1   2
ATOM      2  C   UNL     1     184.792 184.786 199.281  1.00  0.00     0.000 C 
BRANCH   2   3
ATOM      3  C   UNL     1     184.793 186.138 198.552  1.00  0.00     0.000 C 
BRANCH   3   4
ATOM      4  C   UNL     1     184.861 187.331 199.532  1.00  0.00     0.000 C 
BRANCH   4   5
ATOM      5  C   UNL     1     185.402 188.623 198.891  1.00  0.00     0.006 C 
BRANCH   5   6
ATOM      6  C   UNL     1     186.884 188.551 198.494  1.00  0.00     0.053 C 
BRANCH   6   7
ATOM      7  C   UNL     1     187.786 188.684 199.682  1.00  0.00     0.041 C 
ATOM      8  O   UNL     1     188.320 187.665 200.193  1.00  0.00    -0.550 OA
ATOM      9  O   UNL     1     188.021 189.935 200.239  1.00  0.00    -0.550 OA
ENDBRANCH   6   7
ENDBRANCH   5   6
ENDBRANCH   4   5
ENDBRANCH   3   4
ENDBRANCH   2   3
ENDBRANCH   1   2
BRANCH   1  10
ATOM     10  C   UNL     1     184.150 182.380 198.848  1.00  0.00     0.000 C 
BRANCH  10  11
ATOM     11  C   UNL     1     184.146 182.401 200.383  1.00  0.00    -0.000 C 
BRANCH  11  12
ATOM     12  C   UNL     1     183.318 181.255 200.995  1.00  0.00    -0.000 C 
BRANCH  12  13
ATOM     13  C   UNL     1     182.108 181.706 201.837  1.00  0.00    -0.000 C 
BRANCH  13  14
ATOM     14  C   UNL     1     181.235 182.800 201.192  1.00  0.00    -0.000 C 
BRANCH  14  15
ATOM     15  C   UNL     1     181.028 184.061 202.054  1.00  0.00    -0.000 C 
BRANCH  15  16
ATOM     16  C   UNL     1     182.032 185.197 201.789  1.00  0.00    -0.003 C 
ATOM     17  C   UNL     1     181.552 186.180 200.723  1.00  0.00     0.004 C 
ENDBRANCH  15  16
ENDBRANCH  14  15
ENDBRANCH  13  14
ENDBRANCH  12  13
ENDBRANCH  11  12
ENDBRANCH  10  11
ENDBRANCH   1  10
TORSDOF 13
ENDMDL
MODEL 7
REMARK VINA RESULT:    -3.693      2.518      4.543
REMARK INTER + INTRA:          -8.326
REMARK INTER:                  -6.753
REMARK INTRA:                  -1.573
REMARK UNBOUND:                -1.827
REMARK SMILES CCCCCCCCCCCCCCC(=O)[O-]
REMARK SMILES IDX 9 1 10 2 11 3 12 4 13 5 14 6 15 7 16 8 17 9 8 10 7 11 6 12
REMARK SMILES IDX 5 13 4 14 3 15 2 16 1 17
REMARK H PARENT
REMARK Flexibility Score: inf
ROOT
ATOM      1  C   UNL     1     182.176 186.410 201.429  1.00  0.00     0.000 C 
ENDROOT
BRANCH   1   2
ATOM      2  C   UNL     1     182.989 186.838 200.201  1.00  0.00     0.000 C 
BRANCH   2   3
ATOM      3  C   UNL     1     182.092 187.511 199.152  1.00  0.00     0.000 C 
BRANCH   3   4
ATOM      4  C   UNL     1     182.817 188.657 198.412  1.00  0.00     0.000 C 
BRANCH   4   5
ATOM      5  C   UNL     1     183.492 189.669 199.357  1.00  0.00     0.006 C 
BRANCH   5   6
ATOM      6  C   UNL     1     182.513 190.629 200.048  1.00  0.00     0.053 C 
BRANCH   6   7
ATOM      7  C   UNL     1     182.575 192.006 199.462  1.00  0.00     0.041 C 
ATOM      8  O   UNL     1     183.135 192.201 198.352  1.00  0.00    -0.550 OA
ATOM      9  O   UNL     1     182.031 193.081 200.155  1.00  0.00    -0.550 OA
ENDBRANCH   6   7
ENDBRANCH   5   6
ENDBRANCH   4   5
ENDBRANCH   3   4
ENDBRANCH   2   3
ENDBRANCH   1   2
BRANCH   1  10
ATOM     10  C   UNL     1     180.866 185.732 201.012  1.00  0.00     0.000 C 
BRANCH  10  11
ATOM     11  C   UNL     1     180.495 184.606 201.988  1.00  0.00    -0.000 C 
BRANCH  11  12
ATOM     12  C   UNL     1     181.474 183.418 201.933  1.00  0.00    -0.000 C 
BRANCH  12  13
ATOM     13  C   UNL     1     181.474 182.638 200.604  1.00  0.00    -0.000 C 
BRANCH  13  14
ATOM     14  C   UNL     1     182.802 182.676 199.824  1.00  0.00    -0.000 C 
BRANCH  14  15
ATOM     15  C   UNL     1     184.026 183.134 200.642  1.00  0.00    -0.000 C 
BRANCH  15  16
ATOM     16  C   UNL     1     185.145 183.795 199.818  1.00  0.00    -0.003 C 
ATOM     17  C   UNL     1     184.734 184.076 198.374  1.00  0.00     0.004 C 
ENDBRANCH  15  16
ENDBRANCH  14  15
ENDBRANCH  13  14
ENDBRANCH  12  13
ENDBRANCH  11  12
ENDBRANCH  10  11
ENDBRANCH   1  10
TORSDOF 13
ENDMDL
MODEL 8
REMARK VINA RESULT:    -3.690      2.233      4.500
REMARK INTER + INTRA:          -8.321
REMARK INTER:                  -6.486
REMARK INTRA:                  -1.835
REMARK UNBOUND:                -1.827
REMARK SMILES CCCCCCCCCCCCCCC(=O)[O-]
REMARK SMILES IDX 9 1 10 2 11 3 12 4 13 5 14 6 15 7 16 8 17 9 8 10 7 11 6 12
REMARK SMILES IDX 5 13 4 14 3 15 2 16 1 17
REMARK H PARENT
REMARK Flexibility Score: inf
ROOT
ATOM      1  C   UNL     1     180.629 185.441 200.981  1.00  0.00     0.000 C 
ENDROOT
BRANCH   1   2
ATOM      2  C   UNL     1     180.562 184.136 201.783  1.00  0.00     0.000 C 
BRANCH   2   3
ATOM      3  C   UNL     1     181.215 182.980 201.012  1.00  0.00     0.000 C 
BRANCH   3   4
ATOM      4  C   UNL     1     182.415 182.373 201.774  1.00  0.00     0.000 C 
BRANCH   4   5
ATOM      5  C   UNL     1     183.529 181.849 200.849  1.00  0.00     0.006 C 
BRANCH   5   6
ATOM      6  C   UNL     1     183.490 182.434 199.429  1.00  0.00     0.053 C 
BRANCH   6   7
ATOM      7  C   UNL     1     184.745 183.182 199.100  1.00  0.00     0.041 C 
ATOM      8  O   UNL     1     185.596 183.423 199.995  1.00  0.00    -0.550 OA
ATOM      9  O   UNL     1     184.964 183.634 197.805  1.00  0.00    -0.550 OA
ENDBRANCH   6   7
ENDBRANCH   5   6
ENDBRANCH   4   5
ENDBRANCH   3   4
ENDBRANCH   2   3
ENDBRANCH   1   2
BRANCH   1  10
ATOM     10  C   UNL     1     181.753 186.346 201.497  1.00  0.00     0.000 C 
BRANCH  10  11
ATOM     11  C   UNL     1     183.071 186.060 200.763  1.00  0.00    -0.000 C 
BRANCH  11  12
ATOM     12  C   UNL     1     182.971 186.281 199.243  1.00  0.00    -0.000 C 
BRANCH  12  13
ATOM     13  C   UNL     1     183.912 187.363 198.679  1.00  0.00    -0.000 C 
BRANCH  13  14
ATOM     14  C   UNL     1     183.209 188.631 198.155  1.00  0.00    -0.000 C 
BRANCH  14  15
ATOM     15  C   UNL     1     181.770 188.839 198.669  1.00  0.00    -0.000 C 
BRANCH  15  16
ATOM     16  C   UNL     1     181.582 190.055 199.592  1.00  0.00    -0.003 C 
ATOM     17  C   UNL     1     182.551 190.062 200.773  1.00  0.00     0.004 C 
ENDBRANCH  15  16
ENDBRANCH  14  15
ENDBRANCH  13  14
ENDBRANCH  12  13
ENDBRANCH  11  12
ENDBRANCH  10  11
ENDBRANCH   1  10
TORSDOF 13
ENDMDL
MODEL 9
REMARK VINA RESULT:    -3.658      1.706      3.867
REMARK INTER + INTRA:          -8.264
REMARK INTER:                  -6.388
REMARK INTRA:                  -1.877
REMARK UNBOUND:                -1.827
REMARK SMILES CCCCCCCCCCCCCCC(=O)[O-]
REMARK SMILES IDX 9 1 10 2 11 3 12 4 13 5 14 6 15 7 16 8 17 9 8 10 7 11 6 12
REMARK SMILES IDX 5 13 4 14 3 15 2 16 1 17
REMARK H PARENT
REMARK Flexibility Score: inf
ROOT
ATOM      1  C   UNL     1     181.625 185.210 201.960  1.00  0.00     0.000 C 
ENDROOT
BRANCH   1   2
ATOM      2  C   UNL     1     182.444 186.348 201.338  1.00  0.00     0.000 C 
BRANCH   2   3
ATOM      3  C   UNL     1     181.861 186.770 199.982  1.00  0.00     0.000 C 
BRANCH   3   4
ATOM      4  C   UNL     1     182.822 187.687 199.192  1.00  0.00     0.000 C 
BRANCH   4   5
ATOM      5  C   UNL     1     183.458 188.796 200.051  1.00  0.00     0.006 C 
BRANCH   5   6
ATOM      6  C   UNL     1     184.833 189.263 199.551  1.00  0.00     0.053 C 
BRANCH   6   7
ATOM      7  C   UNL     1     185.951 188.571 200.266  1.00  0.00     0.041 C 
ATOM      8  O   UNL     1     186.467 187.528 199.784  1.00  0.00    -0.550 OA
ATOM      9  O   UNL     1     186.411 189.065 201.480  1.00  0.00    -0.550 OA
ENDBRANCH   6   7
ENDBRANCH   5   6
ENDBRANCH   4   5
ENDBRANCH   3   4
ENDBRANCH   2   3
ENDBRANCH   1   2
BRANCH   1  10
ATOM     10  C   UNL     1     180.433 184.840 201.070  1.00  0.00     0.000 C 
BRANCH  10  11
ATOM     11  C   UNL     1     180.506 183.369 200.637  1.00  0.00    -0.000 C 
BRANCH  11  12
ATOM     12  C   UNL     1     181.867 182.719 200.947  1.00  0.00    -0.000 C 
BRANCH  12  13
ATOM     13  C   UNL     1     182.399 181.771 199.855  1.00  0.00    -0.000 C 
BRANCH  13  14
ATOM     14  C   UNL     1     183.692 182.238 199.158  1.00  0.00    -0.000 C 
BRANCH  14  15
ATOM     15  C   UNL     1     183.894 183.765 199.114  1.00  0.00    -0.000 C 
BRANCH  15  16
ATOM     16  C   UNL     1     185.174 184.269 199.805  1.00  0.00    -0.003 C 
ATOM     17  C   UNL     1     185.386 183.653 201.187  1.00  0.00     0.004 C 
ENDBRANCH  15  16
ENDBRANCH  14  15
ENDBRANCH  13  14
ENDBRANCH  12  13
ENDBRANCH  11  12
ENDBRANCH  10  11
ENDBRANCH   1  10
TORSDOF 13
ENDMDL
