MODEL 1
REMARK VINA RESULT:    -6.188      0.000      0.000
REMARK INTER + INTRA:         -13.238
REMARK INTER:                 -11.615
REMARK INTRA:                  -1.623
REMARK UNBOUND:                -1.623
REMARK SMILES O=C([O-])CCCCCCCCCCCCCCC(=O)[O-]
REMARK SMILES IDX 10 1 9 2 8 3 7 4 6 5 5 6 4 7 2 8 1 9 3 10 11 11 12 12 13 13
REMARK SMILES IDX 14 14 15 15 16 16 17 17 18 18 19 19 20 20
REMARK H PARENT
REMARK Flexibility Score: inf
ROOT
ATOM      1  C   UNL     1     -14.300   2.860 -17.960  1.00  0.00     0.000 C 
ENDROOT
BRANCH   1   2
ATOM      2  C   UNL     1     -13.277   3.256 -16.884  1.00  0.00     0.000 C 
BRANCH   2   3
ATOM      3  C   UNL     1     -13.607   2.659 -15.505  1.00  0.00     0.000 C 
BRANCH   3   4
ATOM      4  C   UNL     1     -15.125   2.632 -15.225  1.00  0.00     0.000 C 
BRANCH   4   5
ATOM      5  C   UNL     1     -15.480   2.678 -13.727  1.00  0.00     0.000 C 
BRANCH   5   6
ATOM      6  C   UNL     1     -15.000   1.464 -12.908  1.00  0.00     0.006 C 
BRANCH   6   7
ATOM      7  C   UNL     1     -15.598   1.380 -11.494  1.00  0.00     0.053 C 
BRANCH   7   8
ATOM      8  C   UNL     1     -17.095   1.375 -11.518  1.00  0.00     0.041 C 
ATOM      9  O   UNL     1     -17.741   2.303 -10.964  1.00  0.00    -0.550 OA
ATOM     10  O   UNL     1     -17.778   0.326 -12.120  1.00  0.00    -0.550 OA
ENDBRANCH   7   8
ENDBRANCH   6   7
ENDBRANCH   5   6
ENDBRANCH   4   5
ENDBRANCH   3   4
ENDBRANCH   2   3
ENDBRANCH   1   2
BRANCH   1  11
ATOM     11  C   UNL     1     -13.878   1.605 -18.740  1.00  0.00     0.000 C 
BRANCH  11  12
ATOM     12  C   UNL     1     -14.511   1.590 -20.139  1.00  0.00     0.000 C 
BRANCH  12  13
ATOM     13  C   UNL     1     -15.269   0.287 -20.433  1.00  0.00     0.000 C 
BRANCH  13  14
ATOM     14  C   UNL     1     -15.378  -0.629 -19.201  1.00  0.00     0.000 C 
BRANCH  14  15
ATOM     15  C   UNL     1     -16.840  -1.016 -18.891  1.00  0.00     0.000 C 
BRANCH  15  16
ATOM     16  C   UNL     1     -17.804   0.183 -18.876  1.00  0.00     0.006 C 
BRANCH  16  17
ATOM     17  C   UNL     1     -17.620   1.082 -17.649  1.00  0.00     0.053 C 
BRANCH  17  18
ATOM     18  C   UNL     1     -18.098   0.385 -16.414  1.00  0.00     0.041 C 
ATOM     19  O   UNL     1     -17.270  -0.036 -15.564  1.00  0.00    -0.550 OA
ATOM     20  O   UNL     1     -19.459   0.242 -16.180  1.00  0.00    -0.550 OA
ENDBRANCH  17  18
ENDBRANCH  16  17
ENDBRANCH  15  16
ENDBRANCH  14  15
ENDBRANCH  13  14
ENDBRANCH  12  13
ENDBRANCH  11  12
ENDBRANCH   1  11
TORSDOF 15
ENDMDL
MODEL 2
REMARK VINA RESULT:    -6.146      2.138      6.013
REMARK INTER + INTRA:         -13.157
REMARK INTER:                 -11.289
REMARK INTRA:                  -1.868
REMARK UNBOUND:                -1.623
REMARK SMILES O=C([O-])CCCCCCCCCCCCCCC(=O)[O-]
REMARK SMILES IDX 10 1 9 2 8 3 7 4 6 5 5 6 4 7 2 8 1 9 3 10 11 11 12 12 13 13
REMARK SMILES IDX 14 14 15 15 16 16 17 17 18 18 19 19 20 20
REMARK H PARENT
REMARK Flexibility Score: inf
ROOT
ATOM      1  C   UNL     1     -17.701   0.802 -17.863  1.00  0.00     0.000 C 
ENDROOT
BRANCH   1   2
ATOM      2  C   UNL     1     -17.741  -0.010 -19.167  1.00  0.00     0.000 C 
BRANCH   2   3
ATOM      3  C   UNL     1     -16.377  -0.624 -19.525  1.00  0.00     0.000 C 
BRANCH   3   4
ATOM      4  C   UNL     1     -15.419   0.405 -20.163  1.00  0.00     0.000 C 
BRANCH   4   5
ATOM      5  C   UNL     1     -13.962   0.276 -19.681  1.00  0.00     0.000 C 
BRANCH   5   6
ATOM      6  C   UNL     1     -13.643   1.017 -18.369  1.00  0.00     0.006 C 
BRANCH   6   7
ATOM      7  C   UNL     1     -14.136   2.472 -18.330  1.00  0.00     0.053 C 
BRANCH   7   8
ATOM      8  C   UNL     1     -14.382   2.943 -16.930  1.00  0.00     0.041 C 
ATOM      9  O   UNL     1     -15.529   3.335 -16.586  1.00  0.00    -0.550 OA
ATOM     10  O   UNL     1     -13.338   2.984 -16.015  1.00  0.00    -0.550 OA
ENDBRANCH   7   8
ENDBRANCH   6   7
ENDBRANCH   5   6
ENDBRANCH   4   5
ENDBRANCH   3   4
ENDBRANCH   2   3
ENDBRANCH   1   2
BRANCH   1  11
ATOM     11  C   UNL     1     -16.905   0.097 -16.754  1.00  0.00     0.000 C 
BRANCH  11  12
ATOM     12  C   UNL     1     -17.364   0.566 -15.366  1.00  0.00     0.000 C 
BRANCH  12  13
ATOM     13  C   UNL     1     -17.263  -0.540 -14.304  1.00  0.00     0.000 C 
BRANCH  13  14
ATOM     14  C   UNL     1     -18.276  -0.360 -13.160  1.00  0.00     0.000 C 
BRANCH  14  15
ATOM     15  C   UNL     1     -17.598   0.084 -11.846  1.00  0.00     0.000 C 
BRANCH  15  16
ATOM     16  C   UNL     1     -17.392   1.605 -11.743  1.00  0.00     0.006 C 
BRANCH  16  17
ATOM     17  C   UNL     1     -15.942   1.992 -11.430  1.00  0.00     0.053 C 
BRANCH  17  18
ATOM     18  C   UNL     1     -15.183   2.240 -12.695  1.00  0.00     0.041 C 
ATOM     19  O   UNL     1     -15.178   3.386 -13.217  1.00  0.00    -0.550 OA
ATOM     20  O   UNL     1     -14.441   1.216 -13.272  1.00  0.00    -0.550 OA
ENDBRANCH  17  18
ENDBRANCH  16  17
ENDBRANCH  15  16
ENDBRANCH  14  15
ENDBRANCH  13  14
ENDBRANCH  12  13
ENDBRANCH  11  12
ENDBRANCH   1  11
TORSDOF 15
ENDMDL
MODEL 3
REMARK VINA RESULT:    -6.136      2.326      4.193
REMARK INTER + INTRA:         -13.140
REMARK INTER:                 -11.376
REMARK INTRA:                  -1.764
REMARK UNBOUND:                -1.623
REMARK SMILES O=C([O-])CCCCCCCCCCCCCCC(=O)[O-]
REMARK SMILES IDX 10 1 9 2 8 3 7 4 6 5 5 6 4 7 2 8 1 9 3 10 11 11 12 12 13 13
REMARK SMILES IDX 14 14 15 15 16 16 17 17 18 18 19 19 20 20
REMARK H PARENT
REMARK Flexibility Score: inf
ROOT
ATOM      1  C   UNL     1     -16.770   0.051 -15.683  1.00  0.00     0.000 C 
ENDROOT
BRANCH   1   2
ATOM      2  C   UNL     1     -17.933  -0.907 -15.380  1.00  0.00     0.000 C 
BRANCH   2   3
ATOM      3  C   UNL     1     -18.691  -0.532 -14.095  1.00  0.00     0.000 C 
BRANCH   3   4
ATOM      4  C   UNL     1     -17.786  -0.578 -12.846  1.00  0.00     0.000 C 
BRANCH   4   5
ATOM      5  C   UNL     1     -17.917   0.661 -11.939  1.00  0.00     0.000 C 
BRANCH   5   6
ATOM      6  C   UNL     1     -16.663   0.995 -11.110  1.00  0.00     0.006 C 
BRANCH   6   7
ATOM      7  C   UNL     1     -15.933   2.272 -11.556  1.00  0.00     0.053 C 
BRANCH   7   8
ATOM      8  C   UNL     1     -15.301   2.116 -12.905  1.00  0.00     0.041 C 
ATOM      9  O   UNL     1     -15.562   2.935 -13.825  1.00  0.00    -0.550 OA
ATOM     10  O   UNL     1     -14.454   1.044 -13.156  1.00  0.00    -0.550 OA
ENDBRANCH   7   8
ENDBRANCH   6   7
ENDBRANCH   5   6
ENDBRANCH   4   5
ENDBRANCH   3   4
ENDBRANCH   2   3
ENDBRANCH   1   2
BRANCH   1  11
ATOM     11  C   UNL     1     -17.116   1.066 -16.784  1.00  0.00     0.000 C 
BRANCH  11  12
ATOM     12  C   UNL     1     -18.051   0.443 -17.830  1.00  0.00     0.000 C 
BRANCH  12  13
ATOM     13  C   UNL     1     -17.383   0.288 -19.205  1.00  0.00     0.000 C 
BRANCH  13  14
ATOM     14  C   UNL     1     -16.198  -0.695 -19.184  1.00  0.00     0.000 C 
BRANCH  14  15
ATOM     15  C   UNL     1     -14.937  -0.100 -19.845  1.00  0.00     0.000 C 
BRANCH  15  16
ATOM     16  C   UNL     1     -13.973   0.564 -18.848  1.00  0.00     0.006 C 
BRANCH  16  17
ATOM     17  C   UNL     1     -14.019   2.095 -18.902  1.00  0.00     0.053 C 
BRANCH  17  18
ATOM     18  C   UNL     1     -13.581   2.678 -17.596  1.00  0.00     0.041 C 
ATOM     19  O   UNL     1     -13.652   1.994 -16.541  1.00  0.00    -0.550 OA
ATOM     20  O   UNL     1     -13.050   3.961 -17.550  1.00  0.00    -0.550 OA
ENDBRANCH  17  18
ENDBRANCH  16  17
ENDBRANCH  15  16
ENDBRANCH  14  15
ENDBRANCH  13  14
ENDBRANCH  12  13
ENDBRANCH  11  12
ENDBRANCH   1  11
TORSDOF 15
ENDMDL
MODEL 4
REMARK VINA RESULT:    -6.116      2.713      5.411
REMARK INTER + INTRA:         -13.101
REMARK INTER:                 -11.466
REMARK INTRA:                  -1.635
REMARK UNBOUND:                -1.623
REMARK SMILES O=C([O-])CCCCCCCCCCCCCCC(=O)[O-]
REMARK SMILES IDX 10 1 9 2 8 3 7 4 6 5 5 6 4 7 2 8 1 9 3 10 11 11 12 12 13 13
REMARK SMILES IDX 14 14 15 15 16 16 17 17 18 18 19 19 20 20
REMARK H PARENT
REMARK Flexibility Score: inf
ROOT
ATOM      1  C   UNL     1     -15.293   1.951 -12.367  1.00  0.00     0.000 C 
ENDROOT
BRANCH   1   2
ATOM      2  C   UNL     1     -16.462   1.920 -11.369  1.00  0.00     0.000 C 
BRANCH   2   3
ATOM      3  C   UNL     1     -17.196   0.568 -11.357  1.00  0.00     0.000 C 
BRANCH   3   4
ATOM      4  C   UNL     1     -18.025   0.339 -12.639  1.00  0.00     0.000 C 
BRANCH   4   5
ATOM      5  C   UNL     1     -17.556  -0.869 -13.471  1.00  0.00     0.000 C 
BRANCH   5   6
ATOM      6  C   UNL     1     -17.994  -0.850 -14.948  1.00  0.00     0.006 C 
BRANCH   6   7
ATOM      7  C   UNL     1     -16.834  -0.716 -15.949  1.00  0.00     0.053 C 
BRANCH   7   8
ATOM      8  C   UNL     1     -16.671  -1.947 -16.786  1.00  0.00     0.041 C 
ATOM      9  O   UNL     1     -17.641  -2.731 -16.956  1.00  0.00    -0.550 OA
ATOM     10  O   UNL     1     -15.436  -2.247 -17.348  1.00  0.00    -0.550 OA
ENDBRANCH   7   8
ENDBRANCH   6   7
ENDBRANCH   5   6
ENDBRANCH   4   5
ENDBRANCH   3   4
ENDBRANCH   2   3
ENDBRANCH   1   2
BRANCH   1  11
ATOM     11  C   UNL     1     -15.497   2.990 -13.480  1.00  0.00     0.000 C 
BRANCH  11  12
ATOM     12  C   UNL     1     -15.124   2.406 -14.850  1.00  0.00     0.000 C 
BRANCH  12  13
ATOM     13  C   UNL     1     -13.611   2.438 -15.117  1.00  0.00     0.000 C 
BRANCH  13  14
ATOM     14  C   UNL     1     -13.238   3.319 -16.322  1.00  0.00     0.000 C 
BRANCH  14  15
ATOM     15  C   UNL     1     -14.393   3.434 -17.339  1.00  0.00     0.000 C 
BRANCH  15  16
ATOM     16  C   UNL     1     -14.142   2.663 -18.647  1.00  0.00     0.006 C 
BRANCH  16  17
ATOM     17  C   UNL     1     -14.547   1.187 -18.556  1.00  0.00     0.053 C 
BRANCH  17  18
ATOM     18  C   UNL     1     -15.417   0.813 -19.714  1.00  0.00     0.041 C 
ATOM     19  O   UNL     1     -14.959   0.839 -20.887  1.00  0.00    -0.550 OA
ATOM     20  O   UNL     1     -16.722   0.389 -19.494  1.00  0.00    -0.550 OA
ENDBRANCH  17  18
ENDBRANCH  16  17
ENDBRANCH  15  16
ENDBRANCH  14  15
ENDBRANCH  13  14
ENDBRANCH  12  13
ENDBRANCH  11  12
ENDBRANCH   1  11
TORSDOF 15
ENDMDL
MODEL 5
REMARK VINA RESULT:    -6.110      1.696      5.679
REMARK INTER + INTRA:         -13.091
REMARK INTER:                 -11.613
REMARK INTRA:                  -1.478
REMARK UNBOUND:                -1.623
REMARK SMILES O=C([O-])CCCCCCCCCCCCCCC(=O)[O-]
REMARK SMILES IDX 10 1 9 2 8 3 7 4 6 5 5 6 4 7 2 8 1 9 3 10 11 11 12 12 13 13
REMARK SMILES IDX 14 14 15 15 16 16 17 17 18 18 19 19 20 20
REMARK H PARENT
REMARK Flexibility Score: inf
ROOT
ATOM      1  C   UNL     1     -15.126   2.971 -16.120  1.00  0.00     0.000 C 
ENDROOT
BRANCH   1   2
ATOM      2  C   UNL     1     -13.610   2.845 -16.343  1.00  0.00     0.000 C 
BRANCH   2   3
ATOM      3  C   UNL     1     -13.145   3.518 -17.645  1.00  0.00     0.000 C 
BRANCH   3   4
ATOM      4  C   UNL     1     -14.011   3.113 -18.857  1.00  0.00     0.000 C 
BRANCH   4   5
ATOM      5  C   UNL     1     -14.036   1.595 -19.121  1.00  0.00     0.000 C 
BRANCH   5   6
ATOM      6  C   UNL     1     -15.123   1.124 -20.105  1.00  0.00     0.006 C 
BRANCH   6   7
ATOM      7  C   UNL     1     -15.946  -0.076 -19.611  1.00  0.00     0.053 C 
BRANCH   7   8
ATOM      8  C   UNL     1     -16.511   0.156 -18.243  1.00  0.00     0.041 C 
ATOM      9  O   UNL     1     -17.374   1.054 -18.058  1.00  0.00    -0.550 OA
ATOM     10  O   UNL     1     -16.057  -0.595 -17.167  1.00  0.00    -0.550 OA
ENDBRANCH   7   8
ENDBRANCH   6   7
ENDBRANCH   5   6
ENDBRANCH   4   5
ENDBRANCH   3   4
ENDBRANCH   2   3
ENDBRANCH   1   2
BRANCH   1  11
ATOM     11  C   UNL     1     -15.626   2.092 -14.963  1.00  0.00     0.000 C 
BRANCH  11  12
ATOM     12  C   UNL     1     -15.137   2.634 -13.612  1.00  0.00     0.000 C 
BRANCH  12  13
ATOM     13  C   UNL     1     -15.094   1.552 -12.521  1.00  0.00     0.000 C 
BRANCH  13  14
ATOM     14  C   UNL     1     -16.070   1.834 -11.365  1.00  0.00     0.000 C 
BRANCH  14  15
ATOM     15  C   UNL     1     -17.120   0.714 -11.205  1.00  0.00     0.000 C 
BRANCH  15  16
ATOM     16  C   UNL     1     -18.022   0.534 -12.438  1.00  0.00     0.006 C 
BRANCH  16  17
ATOM     17  C   UNL     1     -17.860  -0.839 -13.100  1.00  0.00     0.053 C 
BRANCH  17  18
ATOM     18  C   UNL     1     -18.755  -0.953 -14.293  1.00  0.00     0.041 C 
ATOM     19  O   UNL     1     -18.763  -0.048 -15.168  1.00  0.00    -0.550 OA
ATOM     20  O   UNL     1     -19.547  -2.082 -14.462  1.00  0.00    -0.550 OA
ENDBRANCH  17  18
ENDBRANCH  16  17
ENDBRANCH  15  16
ENDBRANCH  14  15
ENDBRANCH  13  14
ENDBRANCH  12  13
ENDBRANCH  11  12
ENDBRANCH   1  11
TORSDOF 15
ENDMDL
MODEL 6
REMARK VINA RESULT:    -6.085      2.798      6.115
REMARK INTER + INTRA:         -13.044
REMARK INTER:                 -11.262
REMARK INTRA:                  -1.782
REMARK UNBOUND:                -1.623
REMARK SMILES O=C([O-])CCCCCCCCCCCCCCC(=O)[O-]
REMARK SMILES IDX 10 1 9 2 8 3 7 4 6 5 5 6 4 7 2 8 1 9 3 10 11 11 12 12 13 13
REMARK SMILES IDX 14 14 15 15 16 16 17 17 18 18 19 19 20 20
REMARK H PARENT
REMARK Flexibility Score: inf
ROOT
ATOM      1  C   UNL     1     -15.743   2.448 -12.365  1.00  0.00     0.000 C 
ENDROOT
BRANCH   1   2
ATOM      2  C   UNL     1     -14.734   1.963 -13.419  1.00  0.00     0.000 C 
BRANCH   2   3
ATOM      3  C   UNL     1     -14.878   2.700 -14.761  1.00  0.00     0.000 C 
BRANCH   3   4
ATOM      4  C   UNL     1     -13.810   2.263 -15.787  1.00  0.00     0.000 C 
BRANCH   4   5
ATOM      5  C   UNL     1     -13.229   3.429 -16.611  1.00  0.00     0.000 C 
BRANCH   5   6
ATOM      6  C   UNL     1     -13.225   3.208 -18.135  1.00  0.00     0.006 C 
BRANCH   6   7
ATOM      7  C   UNL     1     -14.572   2.742 -18.710  1.00  0.00     0.053 C 
BRANCH   7   8
ATOM      8  C   UNL     1     -14.494   1.356 -19.271  1.00  0.00     0.041 C 
ATOM      9  O   UNL     1     -13.603   0.560 -18.872  1.00  0.00    -0.550 OA
ATOM     10  O   UNL     1     -15.381   0.956 -20.262  1.00  0.00    -0.550 OA
ENDBRANCH   7   8
ENDBRANCH   6   7
ENDBRANCH   5   6
ENDBRANCH   4   5
ENDBRANCH   3   4
ENDBRANCH   2   3
ENDBRANCH   1   2
BRANCH   1  11
ATOM     11  C   UNL     1     -15.835   1.501 -11.159  1.00  0.00     0.000 C 
BRANCH  11  12
ATOM     12  C   UNL     1     -17.292   1.101 -10.886  1.00  0.00     0.000 C 
BRANCH  12  13
ATOM     13  C   UNL     1     -18.106   0.914 -12.176  1.00  0.00     0.000 C 
BRANCH  13  14
ATOM     14  C   UNL     1     -17.902  -0.473 -12.813  1.00  0.00     0.000 C 
BRANCH  14  15
ATOM     15  C   UNL     1     -17.858  -0.405 -14.354  1.00  0.00     0.000 C 
BRANCH  15  16
ATOM     16  C   UNL     1     -16.476  -0.729 -14.946  1.00  0.00     0.006 C 
BRANCH  16  17
ATOM     17  C   UNL     1     -16.408  -0.503 -16.461  1.00  0.00     0.053 C 
BRANCH  17  18
ATOM     18  C   UNL     1     -16.294  -1.809 -17.180  1.00  0.00     0.041 C 
ATOM     19  O   UNL     1     -17.297  -2.563 -17.288  1.00  0.00    -0.550 OA
ATOM     20  O   UNL     1     -15.091  -2.174 -17.772  1.00  0.00    -0.550 OA
ENDBRANCH  17  18
ENDBRANCH  16  17
ENDBRANCH  15  16
ENDBRANCH  14  15
ENDBRANCH  13  14
ENDBRANCH  12  13
ENDBRANCH  11  12
ENDBRANCH   1  11
TORSDOF 15
ENDMDL
MODEL 7
REMARK VINA RESULT:    -6.079      1.886      4.616
REMARK INTER + INTRA:         -13.032
REMARK INTER:                 -10.947
REMARK INTRA:                  -2.086
REMARK UNBOUND:                -1.623
REMARK SMILES O=C([O-])CCCCCCCCCCCCCCC(=O)[O-]
REMARK SMILES IDX 10 1 9 2 8 3 7 4 6 5 5 6 4 7 2 8 1 9 3 10 11 11 12 12 13 13
REMARK SMILES IDX 14 14 15 15 16 16 17 17 18 18 19 19 20 20
REMARK H PARENT
REMARK Flexibility Score: inf
ROOT
ATOM      1  C   UNL     1     -16.905  -0.176 -19.278  1.00  0.00     0.000 C 
ENDROOT
BRANCH   1   2
ATOM      2  C   UNL     1     -17.046  -1.660 -18.900  1.00  0.00     0.000 C 
BRANCH   2   3
ATOM      3  C   UNL     1     -16.636  -1.942 -17.444  1.00  0.00     0.000 C 
BRANCH   3   4
ATOM      4  C   UNL     1     -16.484  -0.648 -16.617  1.00  0.00     0.000 C 
BRANCH   4   5
ATOM      5  C   UNL     1     -16.532  -0.877 -15.094  1.00  0.00     0.000 C 
BRANCH   5   6
ATOM      6  C   UNL     1     -17.637  -0.099 -14.354  1.00  0.00     0.006 C 
BRANCH   6   7
ATOM      7  C   UNL     1     -18.830  -0.962 -13.913  1.00  0.00     0.053 C 
BRANCH   7   8
ATOM      8  C   UNL     1     -19.667  -1.397 -15.075  1.00  0.00     0.041 C 
ATOM      9  O   UNL     1     -19.623  -2.590 -15.477  1.00  0.00    -0.550 OA
ATOM     10  O   UNL     1     -20.470  -0.478 -15.738  1.00  0.00    -0.550 OA
ENDBRANCH   7   8
ENDBRANCH   6   7
ENDBRANCH   5   6
ENDBRANCH   4   5
ENDBRANCH   3   4
ENDBRANCH   2   3
ENDBRANCH   1   2
BRANCH   1  11
ATOM     11  C   UNL     1     -15.588   0.122 -20.011  1.00  0.00     0.000 C 
BRANCH  11  12
ATOM     12  C   UNL     1     -14.998   1.464 -19.555  1.00  0.00     0.000 C 
BRANCH  12  13
ATOM     13  C   UNL     1     -13.706   1.298 -18.741  1.00  0.00     0.000 C 
BRANCH  13  14
ATOM     14  C   UNL     1     -13.686   2.166 -17.471  1.00  0.00     0.000 C 
BRANCH  14  15
ATOM     15  C   UNL     1     -15.067   2.787 -17.169  1.00  0.00     0.000 C 
BRANCH  15  16
ATOM     16  C   UNL     1     -15.478   2.686 -15.690  1.00  0.00     0.006 C 
BRANCH  16  17
ATOM     17  C   UNL     1     -14.322   2.260 -14.777  1.00  0.00     0.053 C 
BRANCH  17  18
ATOM     18  C   UNL     1     -14.765   2.240 -13.349  1.00  0.00     0.041 C 
ATOM     19  O   UNL     1     -15.190   3.292 -12.802  1.00  0.00    -0.550 OA
ATOM     20  O   UNL     1     -14.752   1.049 -12.634  1.00  0.00    -0.550 OA
ENDBRANCH  17  18
ENDBRANCH  16  17
ENDBRANCH  15  16
ENDBRANCH  14  15
ENDBRANCH  13  14
ENDBRANCH  12  13
ENDBRANCH  11  12
ENDBRANCH   1  11
TORSDOF 15
ENDMDL
MODEL 8
REMARK VINA RESULT:    -6.076      3.246      6.997
REMARK INTER + INTRA:         -13.026
REMARK INTER:                 -11.177
REMARK INTRA:                  -1.849
REMARK UNBOUND:                -1.623
REMARK SMILES O=C([O-])CCCCCCCCCCCCCCC(=O)[O-]
REMARK SMILES IDX 10 1 9 2 8 3 7 4 6 5 5 6 4 7 2 8 1 9 3 10 11 11 12 12 13 13
REMARK SMILES IDX 14 14 15 15 16 16 17 17 18 18 19 19 20 20
REMARK H PARENT
REMARK Flexibility Score: inf
ROOT
ATOM      1  C   UNL     1     -18.130   0.334 -12.938  1.00  0.00     0.000 C 
ENDROOT
BRANCH   1   2
ATOM      2  C   UNL     1     -17.338  -0.661 -13.802  1.00  0.00     0.000 C 
BRANCH   2   3
ATOM      3  C   UNL     1     -17.665  -0.537 -15.300  1.00  0.00     0.000 C 
BRANCH   3   4
ATOM      4  C   UNL     1     -16.530  -1.079 -16.194  1.00  0.00     0.000 C 
BRANCH   4   5
ATOM      5  C   UNL     1     -16.989  -2.165 -17.186  1.00  0.00     0.000 C 
BRANCH   5   6
ATOM      6  C   UNL     1     -17.165  -1.686 -18.639  1.00  0.00     0.006 C 
BRANCH   6   7
ATOM      7  C   UNL     1     -16.598  -0.284 -18.915  1.00  0.00     0.053 C 
BRANCH   7   8
ATOM      8  C   UNL     1     -15.276  -0.341 -19.617  1.00  0.00     0.041 C 
ATOM      9  O   UNL     1     -15.157   0.122 -20.782  1.00  0.00    -0.550 OA
ATOM     10  O   UNL     1     -14.186  -0.940 -18.999  1.00  0.00    -0.550 OA
ENDBRANCH   7   8
ENDBRANCH   6   7
ENDBRANCH   5   6
ENDBRANCH   4   5
ENDBRANCH   3   4
ENDBRANCH   2   3
ENDBRANCH   1   2
BRANCH   1  11
ATOM     11  C   UNL     1     -17.535   0.494 -11.530  1.00  0.00     0.000 C 
BRANCH  11  12
ATOM     12  C   UNL     1     -16.970   1.908 -11.332  1.00  0.00     0.000 C 
BRANCH  12  13
ATOM     13  C   UNL     1     -15.539   2.055 -11.870  1.00  0.00     0.000 C 
BRANCH  13  14
ATOM     14  C   UNL     1     -15.469   2.906 -13.151  1.00  0.00     0.000 C 
BRANCH  14  15
ATOM     15  C   UNL     1     -14.583   2.254 -14.234  1.00  0.00     0.000 C 
BRANCH  15  16
ATOM     16  C   UNL     1     -15.144   2.401 -15.659  1.00  0.00     0.006 C 
BRANCH  16  17
ATOM     17  C   UNL     1     -14.208   1.830 -16.731  1.00  0.00     0.053 C 
BRANCH  17  18
ATOM     18  C   UNL     1     -13.741   2.916 -17.647  1.00  0.00     0.041 C 
ATOM     19  O   UNL     1     -14.145   2.957 -18.839  1.00  0.00    -0.550 OA
ATOM     20  O   UNL     1     -12.895   3.910 -17.172  1.00  0.00    -0.550 OA
ENDBRANCH  17  18
ENDBRANCH  16  17
ENDBRANCH  15  16
ENDBRANCH  14  15
ENDBRANCH  13  14
ENDBRANCH  12  13
ENDBRANCH  11  12
ENDBRANCH   1  11
TORSDOF 15
ENDMDL
MODEL 9
REMARK VINA RESULT:    -6.065      1.824      4.231
REMARK INTER + INTRA:         -13.006
REMARK INTER:                 -11.398
REMARK INTRA:                  -1.608
REMARK UNBOUND:                -1.623
REMARK SMILES O=C([O-])CCCCCCCCCCCCCCC(=O)[O-]
REMARK SMILES IDX 10 1 9 2 8 3 7 4 6 5 5 6 4 7 2 8 1 9 3 10 11 11 12 12 13 13
REMARK SMILES IDX 14 14 15 15 16 16 17 17 18 18 19 19 20 20
REMARK H PARENT
REMARK Flexibility Score: inf
ROOT
ATOM      1  C   UNL     1     -14.754   2.253 -13.661  1.00  0.00     0.000 C 
ENDROOT
BRANCH   1   2
ATOM      2  C   UNL     1     -15.765   2.488 -12.527  1.00  0.00     0.000 C 
BRANCH   2   3
ATOM      3  C   UNL     1     -15.606   1.483 -11.374  1.00  0.00     0.000 C 
BRANCH   3   4
ATOM      4  C   UNL     1     -16.922   0.740 -11.058  1.00  0.00     0.000 C 
BRANCH   4   5
ATOM      5  C   UNL     1     -17.915   0.713 -12.236  1.00  0.00     0.000 C 
BRANCH   5   6
ATOM      6  C   UNL     1     -17.947  -0.608 -13.028  1.00  0.00     0.006 C 
BRANCH   6   7
ATOM      7  C   UNL     1     -16.975  -0.655 -14.218  1.00  0.00     0.053 C 
BRANCH   7   8
ATOM      8  C   UNL     1     -17.689  -0.563 -15.530  1.00  0.00     0.041 C 
ATOM      9  O   UNL     1     -17.954   0.562 -16.031  1.00  0.00    -0.550 OA
ATOM     10  O   UNL     1     -18.095  -1.720 -16.184  1.00  0.00    -0.550 OA
ENDBRANCH   7   8
ENDBRANCH   6   7
ENDBRANCH   5   6
ENDBRANCH   4   5
ENDBRANCH   3   4
ENDBRANCH   2   3
ENDBRANCH   1   2
BRANCH   1  11
ATOM     11  C   UNL     1     -15.317   2.631 -15.040  1.00  0.00     0.000 C 
BRANCH  11  12
ATOM     12  C   UNL     1     -14.408   2.115 -16.164  1.00  0.00     0.000 C 
BRANCH  12  13
ATOM     13  C   UNL     1     -13.593   3.235 -16.828  1.00  0.00     0.000 C 
BRANCH  13  14
ATOM     14  C   UNL     1     -13.663   3.192 -18.365  1.00  0.00     0.000 C 
BRANCH  14  15
ATOM     15  C   UNL     1     -13.867   1.758 -18.898  1.00  0.00     0.000 C 
BRANCH  15  16
ATOM     16  C   UNL     1     -14.807   1.680 -20.113  1.00  0.00     0.006 C 
BRANCH  16  17
ATOM     17  C   UNL     1     -15.241   0.247 -20.441  1.00  0.00     0.053 C 
BRANCH  17  18
ATOM     18  C   UNL     1     -16.200  -0.258 -19.410  1.00  0.00     0.041 C 
ATOM     19  O   UNL     1     -15.854  -1.173 -18.617  1.00  0.00    -0.550 OA
ATOM     20  O   UNL     1     -17.460   0.315 -19.294  1.00  0.00    -0.550 OA
ENDBRANCH  17  18
ENDBRANCH  16  17
ENDBRANCH  15  16
ENDBRANCH  14  15
ENDBRANCH  13  14
ENDBRANCH  12  13
ENDBRANCH  11  12
ENDBRANCH   1  11
TORSDOF 15
ENDMDL
