MODEL 1
REMARK VINA RESULT:    -6.119      0.000      0.000
REMARK INTER + INTRA:          -8.150
REMARK INTER:                  -7.729
REMARK INTRA:                  -0.422
REMARK UNBOUND:                -0.422
REMARK SMILES CC(C)=CCCC(C)=CCO
REMARK SMILES IDX 7 1 9 2 8 3 6 4 5 5 4 6 1 7 2 8 3 9 10 10 11 11
REMARK H PARENT 11 12
REMARK Flexibility Score: inf
ROOT
ATOM      1  C   UNL     1      -3.673   3.116  -1.634  1.00  0.00    -0.075 C 
ATOM      2  C   UNL     1      -2.351   3.021  -1.903  1.00  0.00    -0.000 C 
ATOM      3  C   UNL     1      -4.637   3.740  -2.616  1.00  0.00     0.039 C 
ENDROOT
BRANCH   1   4
ATOM      4  C   UNL     1      -4.200   2.572  -0.325  1.00  0.00     0.034 C 
BRANCH   4   5
ATOM      5  C   UNL     1      -5.513   3.261   0.062  1.00  0.00     0.032 C 
BRANCH   5   6
ATOM      6  C   UNL     1      -6.466   2.280   0.698  1.00  0.00    -0.028 C 
ATOM      7  C   UNL     1      -8.420   0.765   0.801  1.00  0.00     0.039 C 
ATOM      8  C   UNL     1      -7.551   1.762   0.080  1.00  0.00    -0.080 C 
ATOM      9  C   UNL     1      -7.957   2.180  -1.312  1.00  0.00     0.039 C 
ENDBRANCH   5   6
ENDBRANCH   4   5
ENDBRANCH   1   4
BRANCH   2  10
ATOM     10  C   UNL     1      -1.713   3.522  -3.172  1.00  0.00     0.183 C 
BRANCH  10  11
ATOM     11  O   UNL     1      -0.448   4.065  -2.909  1.00  0.00    -0.392 OA
ATOM     12  H   UNL     1      -0.004   3.452  -2.267  1.00  0.00     0.210 HD
ENDBRANCH  10  11
ENDBRANCH   2  10
TORSDOF 5
ENDMDL
MODEL 2
REMARK VINA RESULT:    -6.005      2.271      2.344
REMARK INTER + INTRA:          -8.006
REMARK INTER:                  -7.485
REMARK INTRA:                  -0.521
REMARK UNBOUND:                -0.422
REMARK SMILES CC(C)=CCCC(C)=CCO
REMARK SMILES IDX 7 1 9 2 8 3 6 4 5 5 4 6 1 7 2 8 3 9 10 10 11 11
REMARK H PARENT 11 12
REMARK Flexibility Score: inf
ROOT
ATOM      1  C   UNL     1      -3.615   1.783  -1.522  1.00  0.00    -0.075 C 
ATOM      2  C   UNL     1      -2.723   0.769  -1.457  1.00  0.00    -0.000 C 
ATOM      3  C   UNL     1      -4.384   2.079  -2.789  1.00  0.00     0.039 C 
ENDROOT
BRANCH   1   4
ATOM      4  C   UNL     1      -3.856   2.633  -0.295  1.00  0.00     0.034 C 
BRANCH   4   5
ATOM      5  C   UNL     1      -5.282   3.194  -0.293  1.00  0.00     0.032 C 
BRANCH   5   6
ATOM      6  C   UNL     1      -6.209   2.300   0.493  1.00  0.00    -0.028 C 
ATOM      7  C   UNL     1      -8.220   0.913   0.889  1.00  0.00     0.039 C 
ATOM      8  C   UNL     1      -7.386   1.824   0.027  1.00  0.00    -0.080 C 
ATOM      9  C   UNL     1      -7.926   2.209  -1.328  1.00  0.00     0.039 C 
ENDBRANCH   5   6
ENDBRANCH   4   5
ENDBRANCH   1   4
BRANCH   2  10
ATOM     10  C   UNL     1      -2.403  -0.145  -2.611  1.00  0.00     0.183 C 
BRANCH  10  11
ATOM     11  O   UNL     1      -2.531  -1.488  -2.230  1.00  0.00    -0.392 OA
ATOM     12  H   UNL     1      -1.808  -1.985  -2.694  1.00  0.00     0.210 HD
ENDBRANCH  10  11
ENDBRANCH   2  10
TORSDOF 5
ENDMDL
MODEL 3
REMARK VINA RESULT:    -5.880      3.525      5.812
REMARK INTER + INTRA:          -7.849
REMARK INTER:                  -7.328
REMARK INTRA:                  -0.521
REMARK UNBOUND:                -0.422
REMARK SMILES CC(C)=CCCC(C)=CCO
REMARK SMILES IDX 7 1 9 2 8 3 6 4 5 5 4 6 1 7 2 8 3 9 10 10 11 11
REMARK H PARENT 11 12
REMARK Flexibility Score: inf
ROOT
ATOM      1  C   UNL     1      -7.033   2.326  -0.522  1.00  0.00    -0.075 C 
ATOM      2  C   UNL     1      -8.042   1.462  -0.269  1.00  0.00    -0.000 C 
ATOM      3  C   UNL     1      -5.964   2.616   0.507  1.00  0.00     0.039 C 
ENDROOT
BRANCH   1   4
ATOM      4  C   UNL     1      -6.965   3.009  -1.870  1.00  0.00     0.034 C 
BRANCH   4   5
ATOM      5  C   UNL     1      -5.528   3.429  -2.197  1.00  0.00     0.032 C 
BRANCH   5   6
ATOM      6  C   UNL     1      -4.942   2.545  -3.270  1.00  0.00    -0.028 C 
ATOM      7  C   UNL     1      -3.450   0.807  -4.206  1.00  0.00     0.039 C 
ATOM      8  C   UNL     1      -3.939   1.662  -3.065  1.00  0.00    -0.080 C 
ATOM      9  C   UNL     1      -3.251   1.525  -1.730  1.00  0.00     0.039 C 
ENDBRANCH   5   6
ENDBRANCH   4   5
ENDBRANCH   1   4
BRANCH   2  10
ATOM     10  C   UNL     1      -8.210   0.723   1.032  1.00  0.00     0.183 C 
BRANCH  10  11
ATOM     11  O   UNL     1      -9.320  -0.131   0.976  1.00  0.00    -0.392 OA
ATOM     12  H   UNL     1      -9.149  -0.770   0.235  1.00  0.00     0.210 HD
ENDBRANCH  10  11
ENDBRANCH   2  10
TORSDOF 5
ENDMDL
MODEL 4
REMARK VINA RESULT:    -5.868      1.775      2.058
REMARK INTER + INTRA:          -7.834
REMARK INTER:                  -7.275
REMARK INTRA:                  -0.559
REMARK UNBOUND:                -0.422
REMARK SMILES CC(C)=CCCC(C)=CCO
REMARK SMILES IDX 7 1 9 2 8 3 6 4 5 5 4 6 1 7 2 8 3 9 10 10 11 11
REMARK H PARENT 11 12
REMARK Flexibility Score: inf
ROOT
ATOM      1  C   UNL     1      -3.759   2.601  -0.860  1.00  0.00    -0.075 C 
ATOM      2  C   UNL     1      -4.359   3.288  -1.858  1.00  0.00    -0.000 C 
ATOM      3  C   UNL     1      -2.667   1.595  -1.139  1.00  0.00     0.039 C 
ENDROOT
BRANCH   1   4
ATOM      4  C   UNL     1      -4.182   2.855   0.570  1.00  0.00     0.034 C 
BRANCH   4   5
ATOM      5  C   UNL     1      -5.623   3.374   0.627  1.00  0.00     0.032 C 
BRANCH   5   6
ATOM      6  C   UNL     1      -6.570   2.279   1.052  1.00  0.00    -0.028 C 
ATOM      7  C   UNL     1      -8.378   0.612   0.766  1.00  0.00     0.039 C 
ATOM      8  C   UNL     1      -7.502   1.722   0.245  1.00  0.00    -0.080 C 
ATOM      9  C   UNL     1      -7.731   2.204  -1.166  1.00  0.00     0.039 C 
ENDBRANCH   5   6
ENDBRANCH   4   5
ENDBRANCH   1   4
BRANCH   2  10
ATOM     10  C   UNL     1      -4.019   3.122  -3.316  1.00  0.00     0.183 C 
BRANCH  10  11
ATOM     11  O   UNL     1      -4.838   2.149  -3.907  1.00  0.00    -0.392 OA
ATOM     12  H   UNL     1      -5.760   2.318  -3.580  1.00  0.00     0.210 HD
ENDBRANCH  10  11
ENDBRANCH   2  10
TORSDOF 5
ENDMDL
MODEL 5
REMARK VINA RESULT:    -5.867      1.161      1.900
REMARK INTER + INTRA:          -7.832
REMARK INTER:                  -7.518
REMARK INTRA:                  -0.315
REMARK UNBOUND:                -0.422
REMARK SMILES CC(C)=CCCC(C)=CCO
REMARK SMILES IDX 7 1 9 2 8 3 6 4 5 5 4 6 1 7 2 8 3 9 10 10 11 11
REMARK H PARENT 11 12
REMARK Flexibility Score: inf
ROOT
ATOM      1  C   UNL     1      -3.902   3.424  -3.469  1.00  0.00    -0.075 C 
ATOM      2  C   UNL     1      -2.675   2.869  -3.355  1.00  0.00    -0.000 C 
ATOM      3  C   UNL     1      -4.089   4.829  -3.993  1.00  0.00     0.039 C 
ENDROOT
BRANCH   1   4
ATOM      4  C   UNL     1      -5.118   2.615  -3.073  1.00  0.00     0.034 C 
BRANCH   4   5
ATOM      5  C   UNL     1      -6.039   3.429  -2.158  1.00  0.00     0.032 C 
BRANCH   5   6
ATOM      6  C   UNL     1      -6.937   2.519  -1.356  1.00  0.00    -0.028 C 
ATOM      7  C   UNL     1      -7.752   1.356   0.671  1.00  0.00     0.039 C 
ATOM      8  C   UNL     1      -6.776   2.259  -0.038  1.00  0.00    -0.080 C 
ATOM      9  C   UNL     1      -5.617   2.812   0.753  1.00  0.00     0.039 C 
ENDBRANCH   5   6
ENDBRANCH   4   5
ENDBRANCH   1   4
BRANCH   2  10
ATOM     10  C   UNL     1      -1.395   3.575  -3.721  1.00  0.00     0.183 C 
BRANCH  10  11
ATOM     11  O   UNL     1      -0.794   4.129  -2.583  1.00  0.00    -0.392 OA
ATOM     12  H   UNL     1      -1.059   5.086  -2.560  1.00  0.00     0.210 HD
ENDBRANCH  10  11
ENDBRANCH   2  10
TORSDOF 5
ENDMDL
MODEL 6
REMARK VINA RESULT:    -5.821      2.124      2.793
REMARK INTER + INTRA:          -7.774
REMARK INTER:                  -7.126
REMARK INTRA:                  -0.648
REMARK UNBOUND:                -0.422
REMARK SMILES CC(C)=CCCC(C)=CCO
REMARK SMILES IDX 7 1 9 2 8 3 6 4 5 5 4 6 1 7 2 8 3 9 10 10 11 11
REMARK H PARENT 11 12
REMARK Flexibility Score: inf
ROOT
ATOM      1  C   UNL     1      -3.631   2.336  -2.439  1.00  0.00    -0.075 C 
ATOM      2  C   UNL     1      -3.423   1.018  -2.221  1.00  0.00    -0.000 C 
ATOM      3  C   UNL     1      -2.619   3.376  -2.016  1.00  0.00     0.039 C 
ENDROOT
BRANCH   1   4
ATOM      4  C   UNL     1      -4.899   2.779  -3.134  1.00  0.00     0.034 C 
BRANCH   4   5
ATOM      5  C   UNL     1      -5.797   3.570  -2.177  1.00  0.00     0.032 C 
BRANCH   5   6
ATOM      6  C   UNL     1      -6.701   2.644  -1.401  1.00  0.00    -0.028 C 
ATOM      7  C   UNL     1      -7.549   1.460   0.600  1.00  0.00     0.039 C 
ATOM      8  C   UNL     1      -6.570   2.380  -0.081  1.00  0.00    -0.080 C 
ATOM      9  C   UNL     1      -5.439   2.947   0.741  1.00  0.00     0.039 C 
ENDBRANCH   5   6
ENDBRANCH   4   5
ENDBRANCH   1   4
BRANCH   2  10
ATOM     10  C   UNL     1      -2.200   0.460  -1.543  1.00  0.00     0.183 C 
BRANCH  10  11
ATOM     11  O   UNL     1      -2.274  -0.938  -1.461  1.00  0.00    -0.392 OA
ATOM     12  H   UNL     1      -2.347  -1.161  -0.496  1.00  0.00     0.210 HD
ENDBRANCH  10  11
ENDBRANCH   2  10
TORSDOF 5
ENDMDL
MODEL 7
REMARK VINA RESULT:    -5.728      3.470      5.945
REMARK INTER + INTRA:          -7.657
REMARK INTER:                  -7.399
REMARK INTRA:                  -0.258
REMARK UNBOUND:                -0.422
REMARK SMILES CC(C)=CCCC(C)=CCO
REMARK SMILES IDX 7 1 9 2 8 3 6 4 5 5 4 6 1 7 2 8 3 9 10 10 11 11
REMARK H PARENT 11 12
REMARK Flexibility Score: inf
ROOT
ATOM      1  C   UNL     1      -6.335   2.668  -0.572  1.00  0.00    -0.075 C 
ATOM      2  C   UNL     1      -7.410   1.849  -0.540  1.00  0.00    -0.000 C 
ATOM      3  C   UNL     1      -5.532   2.969   0.673  1.00  0.00     0.039 C 
ENDROOT
BRANCH   1   4
ATOM      4  C   UNL     1      -5.918   3.289  -1.887  1.00  0.00     0.034 C 
BRANCH   4   5
ATOM      5  C   UNL     1      -4.605   2.678  -2.386  1.00  0.00     0.032 C 
BRANCH   5   6
ATOM      6  C   UNL     1      -4.665   2.419  -3.872  1.00  0.00    -0.028 C 
ATOM      7  C   UNL     1      -4.227   2.865  -6.266  1.00  0.00     0.039 C 
ATOM      8  C   UNL     1      -4.134   3.237  -4.809  1.00  0.00    -0.080 C 
ATOM      9  C   UNL     1      -3.479   4.547  -4.452  1.00  0.00     0.039 C 
ENDBRANCH   5   6
ENDBRANCH   4   5
ENDBRANCH   1   4
BRANCH   2  10
ATOM     10  C   UNL     1      -7.915   1.173   0.708  1.00  0.00     0.183 C 
BRANCH  10  11
ATOM     11  O   UNL     1      -8.980   0.312   0.407  1.00  0.00    -0.392 OA
ATOM     12  H   UNL     1      -9.283   0.546  -0.509  1.00  0.00     0.210 HD
ENDBRANCH  10  11
ENDBRANCH   2  10
TORSDOF 5
ENDMDL
MODEL 8
REMARK VINA RESULT:    -5.463      2.506      4.786
REMARK INTER + INTRA:          -7.322
REMARK INTER:                  -6.778
REMARK INTRA:                  -0.544
REMARK UNBOUND:                -0.422
REMARK SMILES CC(C)=CCCC(C)=CCO
REMARK SMILES IDX 7 1 9 2 8 3 6 4 5 5 4 6 1 7 2 8 3 9 10 10 11 11
REMARK H PARENT 11 12
REMARK Flexibility Score: inf
ROOT
ATOM      1  C   UNL     1      -6.359   2.617  -0.565  1.00  0.00    -0.075 C 
ATOM      2  C   UNL     1      -5.376   3.289   0.076  1.00  0.00    -0.000 C 
ATOM      3  C   UNL     1      -7.349   1.757   0.186  1.00  0.00     0.039 C 
ENDROOT
BRANCH   1   4
ATOM      4  C   UNL     1      -6.477   2.738  -2.068  1.00  0.00     0.034 C 
BRANCH   4   5
ATOM      5  C   UNL     1      -5.145   3.176  -2.686  1.00  0.00     0.032 C 
BRANCH   5   6
ATOM      6  C   UNL     1      -4.545   2.062  -3.508  1.00  0.00    -0.028 C 
ATOM      7  C   UNL     1      -3.075   0.123  -3.963  1.00  0.00     0.039 C 
ATOM      8  C   UNL     1      -3.582   1.221  -3.065  1.00  0.00    -0.080 C 
ATOM      9  C   UNL     1      -2.957   1.367  -1.700  1.00  0.00     0.039 C 
ENDBRANCH   5   6
ENDBRANCH   4   5
ENDBRANCH   1   4
BRANCH   2  10
ATOM     10  C   UNL     1      -5.162   3.247   1.566  1.00  0.00     0.183 C 
BRANCH  10  11
ATOM     11  O   UNL     1      -3.852   2.848   1.867  1.00  0.00    -0.392 OA
ATOM     12  H   UNL     1      -3.522   3.465   2.571  1.00  0.00     0.210 HD
ENDBRANCH  10  11
ENDBRANCH   2  10
TORSDOF 5
ENDMDL
MODEL 9
REMARK VINA RESULT:    -5.321      2.728      3.052
REMARK INTER + INTRA:          -7.142
REMARK INTER:                  -6.874
REMARK INTRA:                  -0.268
REMARK UNBOUND:                -0.422
REMARK SMILES CC(C)=CCCC(C)=CCO
REMARK SMILES IDX 7 1 9 2 8 3 6 4 5 5 4 6 1 7 2 8 3 9 10 10 11 11
REMARK H PARENT 11 12
REMARK Flexibility Score: inf
ROOT
ATOM      1  C   UNL     1      -4.342   2.862  -4.169  1.00  0.00    -0.075 C 
ATOM      2  C   UNL     1      -4.465   2.119  -5.293  1.00  0.00    -0.000 C 
ATOM      3  C   UNL     1      -3.850   4.289  -4.216  1.00  0.00     0.039 C 
ENDROOT
BRANCH   1   4
ATOM      4  C   UNL     1      -4.719   2.253  -2.837  1.00  0.00     0.034 C 
BRANCH   4   5
ATOM      5  C   UNL     1      -5.460   3.270  -1.963  1.00  0.00     0.032 C 
BRANCH   5   6
ATOM      6  C   UNL     1      -5.918   2.635  -0.673  1.00  0.00    -0.028 C 
ATOM      7  C   UNL     1      -7.503   1.503   0.855  1.00  0.00     0.039 C 
ATOM      8  C   UNL     1      -7.161   2.144  -0.466  1.00  0.00    -0.080 C 
ATOM      9  C   UNL     1      -8.249   2.250  -1.505  1.00  0.00     0.039 C 
ENDBRANCH   5   6
ENDBRANCH   4   5
ENDBRANCH   1   4
BRANCH   2  10
ATOM     10  C   UNL     1      -4.124   2.618  -6.672  1.00  0.00     0.183 C 
BRANCH  10  11
ATOM     11  O   UNL     1      -4.060   1.553  -7.582  1.00  0.00    -0.392 OA
ATOM     12  H   UNL     1      -3.407   0.903  -7.212  1.00  0.00     0.210 HD
ENDBRANCH  10  11
ENDBRANCH   2  10
TORSDOF 5
ENDMDL
