MODEL 1
REMARK VINA RESULT:    57.568      0.000      0.000
REMARK INTER + INTRA:          93.309
REMARK INTER:                  94.588
REMARK INTRA:                  -1.279
REMARK UNBOUND:                -1.279
REMARK SMILES C[C@H]1O[C@@H](OC[C@H]2O[C@@H](Oc3c(-c4ccc(O)c(O)c4)oc4cc(O)cc(O)c4c3=O)[C@H](O)[C@@H](O)[C@@H]2O)[C@@H](O)[C@@H](O)[C@@H]1O
REMARK SMILES IDX 7 1 36 2 34 3 32 4 9 5 8 6 6 7 5 8 4 9 1 10 2 11 42 12 3 13
REMARK SMILES IDX 40 14 38 15 43 16 41 18 39 20 37 22 35 24 10 26 11 27 12 28
REMARK SMILES IDX 30 29 21 30 29 31 31 32 22 33 27 34 23 35 26 36 24 37 13 38
REMARK SMILES IDX 20 39 14 40 18 41 15 42 16 43 19 44 17 46 28 48 25 50 33 52
REMARK H PARENT 43 17 41 19 39 21 37 23 35 25 19 45 17 47 28 49 25 51 33 53
REMARK Flexibility Score: inf
ROOT
ATOM      1  C   UNL     1     -17.493  64.976  -0.740  1.00  0.00     0.180 C 
ATOM      2  C   UNL     1     -17.713  63.490  -0.147  1.00  0.00     0.177 C 
ATOM      3  C   UNL     1     -19.084  63.315   0.395  1.00  0.00     0.180 C 
ATOM      4  C   UNL     1     -20.121  63.888  -0.639  1.00  0.00     0.214 C 
ATOM      5  C   UNL     1     -19.466  64.403  -1.997  1.00  0.00     0.339 C 
ATOM      6  O   UNL     1     -18.457  65.418  -1.664  1.00  0.00    -0.332 OA
ENDROOT
BRANCH   1   7
ATOM      7  C   UNL     1     -16.076  65.553  -1.092  1.00  0.00     0.198 C 
BRANCH   7   8
ATOM      8  O   UNL     1     -15.930  66.983  -1.243  1.00  0.00    -0.347 OA
BRANCH   8   9
ATOM      9  C   UNL     1     -14.643  67.594  -1.201  1.00  0.00     0.281 C 
ATOM     10  C   UNL     1     -11.938  68.951   0.491  1.00  0.00     0.041 C 
ATOM     11  C   UNL     1     -12.438  67.675  -0.254  1.00  0.00     0.150 C 
ATOM     12  C   UNL     1     -11.937  67.744  -1.730  1.00  0.00     0.174 C 
ATOM     13  O   UNL     1     -13.844  67.617   0.002  1.00  0.00    -0.344 OA
ATOM     14  C   UNL     1     -12.794  68.785  -2.620  1.00  0.00     0.179 C 
ATOM     15  C   UNL     1     -14.343  68.830  -2.129  1.00  0.00     0.202 C 
BRANCH  12  16
ATOM     16  O   UNL     1     -12.129  66.473  -2.352  1.00  0.00    -0.388 OA
ATOM     17  H   UNL     1     -12.843  65.984  -1.840  1.00  0.00     0.211 HD
ENDBRANCH  12  16
BRANCH  14  18
ATOM     18  O   UNL     1     -12.110  69.989  -2.357  1.00  0.00    -0.387 OA
ATOM     19  H   UNL     1     -11.403  70.142  -3.097  1.00  0.00     0.211 HD
ENDBRANCH  14  18
BRANCH  15  20
ATOM     20  O   UNL     1     -14.730  70.125  -1.519  1.00  0.00    -0.385 OA
ATOM     21  H   UNL     1     -14.181  70.243  -0.684  1.00  0.00     0.211 HD
ENDBRANCH  15  20
ENDBRANCH   8   9
ENDBRANCH   7   8
ENDBRANCH   1   7
BRANCH   2  22
ATOM     22  O   UNL     1     -16.819  62.915   0.723  1.00  0.00    -0.387 OA
ATOM     23  H   UNL     1     -16.147  63.706   0.852  1.00  0.00     0.211 HD
ENDBRANCH   2  22
BRANCH   3  24
ATOM     24  O   UNL     1     -19.332  61.996   0.809  1.00  0.00    -0.387 OA
ATOM     25  H   UNL     1     -18.442  61.600   1.044  1.00  0.00     0.211 HD
ENDBRANCH   3  24
BRANCH   5  26
ATOM     26  O   UNL     1     -18.793  63.522  -2.954  1.00  0.00    -0.454 OA
BRANCH  26  27
ATOM     27  C   UNL     1     -19.232  62.147  -3.143  1.00  0.00     0.214 A 
ATOM     28  C   UNL     1     -18.349  61.190  -3.431  1.00  0.00     0.180 A 
ATOM     29  C   UNL     1     -20.441  61.649  -3.035  1.00  0.00     0.239 A 
ATOM     30  O   UNL     1     -18.686  60.129  -4.133  1.00  0.00    -0.452 OA
ATOM     31  C   UNL     1     -20.947  61.013  -4.246  1.00  0.00     0.111 A 
ATOM     32  O   UNL     1     -20.565  60.991  -1.879  1.00  0.00    -0.285 OA
ATOM     33  C   UNL     1     -19.954  60.016  -4.609  1.00  0.00     0.146 A 
ATOM     34  C   UNL     1     -22.017  61.267  -5.325  1.00  0.00     0.134 A 
ATOM     35  C   UNL     1     -20.320  59.004  -5.421  1.00  0.00     0.094 A 
ATOM     36  C   UNL     1     -22.349  60.106  -6.086  1.00  0.00     0.093 A 
ATOM     37  C   UNL     1     -21.665  58.946  -5.729  1.00  0.00     0.123 A 
BRANCH  28  38
ATOM     38  C   UNL     1     -17.094  61.342  -2.918  1.00  0.00     0.025 A 
ATOM     39  C   UNL     1     -16.055  61.911  -3.643  1.00  0.00     0.062 A 
ATOM     40  C   UNL     1     -16.857  60.831  -1.658  1.00  0.00     0.016 A 
ATOM     41  C   UNL     1     -14.725  61.635  -3.244  1.00  0.00     0.158 A 
ATOM     42  C   UNL     1     -15.555  60.698  -1.141  1.00  0.00     0.051 A 
ATOM     43  C   UNL     1     -14.497  61.105  -1.967  1.00  0.00     0.157 A 
BRANCH  41  44
ATOM     44  O   UNL     1     -13.642  61.965  -4.054  1.00  0.00    -0.504 OA
ATOM     45  H   UNL     1     -13.746  62.632  -4.852  1.00  0.00     0.293 HD
ENDBRANCH  41  44
BRANCH  43  46
ATOM     46  O   UNL     1     -13.203  61.022  -1.502  1.00  0.00    -0.504 OA
ATOM     47  H   UNL     1     -12.800  61.780  -0.928  1.00  0.00     0.293 HD
ENDBRANCH  43  46
ENDBRANCH  28  38
BRANCH  34  48
ATOM     48  O   UNL     1     -22.592  62.510  -5.862  1.00  0.00    -0.507 OA
ATOM     49  H   UNL     1     -21.959  63.313  -6.152  1.00  0.00     0.293 HD
ENDBRANCH  34  48
BRANCH  37  50
ATOM     50  O   UNL     1     -22.308  57.740  -5.352  1.00  0.00    -0.508 OA
ATOM     51  H   UNL     1     -22.960  57.270  -5.984  1.00  0.00     0.293 HD
ENDBRANCH  37  50
ENDBRANCH  26  27
ENDBRANCH   5  26
BRANCH   4  52
ATOM     52  O   UNL     1     -21.089  64.752  -0.001  1.00  0.00    -0.384 OA
ATOM     53  H   UNL     1     -21.245  64.269   0.869  1.00  0.00     0.211 HD
ENDBRANCH   4  52
TORSDOF 16
ENDMDL
MODEL 2
REMARK VINA RESULT:    59.179      3.228      7.116
REMARK INTER + INTRA:          95.956
REMARK INTER:                  96.898
REMARK INTRA:                  -0.942
REMARK UNBOUND:                -1.279
REMARK SMILES C[C@H]1O[C@@H](OC[C@H]2O[C@@H](Oc3c(-c4ccc(O)c(O)c4)oc4cc(O)cc(O)c4c3=O)[C@H](O)[C@@H](O)[C@@H]2O)[C@@H](O)[C@@H](O)[C@@H]1O
REMARK SMILES IDX 7 1 36 2 34 3 32 4 9 5 8 6 6 7 5 8 4 9 1 10 2 11 42 12 3 13
REMARK SMILES IDX 40 14 38 15 43 16 41 18 39 20 37 22 35 24 10 26 11 27 12 28
REMARK SMILES IDX 30 29 21 30 29 31 31 32 22 33 27 34 23 35 26 36 24 37 13 38
REMARK SMILES IDX 20 39 14 40 18 41 15 42 16 43 19 44 17 46 28 48 25 50 33 52
REMARK H PARENT 43 17 41 19 39 21 37 23 35 25 19 45 17 47 28 49 25 51 33 53
REMARK Flexibility Score: inf
ROOT
ATOM      1  C   UNL     1     -14.571  61.702  -3.420  1.00  0.00     0.180 C 
ATOM      2  C   UNL     1     -14.938  60.207  -2.929  1.00  0.00     0.177 C 
ATOM      3  C   UNL     1     -14.488  59.965  -1.535  1.00  0.00     0.180 C 
ATOM      4  C   UNL     1     -14.906  61.188  -0.640  1.00  0.00     0.214 C 
ATOM      5  C   UNL     1     -15.760  62.292  -1.410  1.00  0.00     0.339 C 
ATOM      6  O   UNL     1     -14.984  62.746  -2.572  1.00  0.00    -0.332 OA
ENDROOT
BRANCH   1   7
ATOM      7  C   UNL     1     -14.638  62.146  -4.924  1.00  0.00     0.198 C 
BRANCH   7   8
ATOM      8  O   UNL     1     -13.432  62.082  -5.718  1.00  0.00    -0.347 OA
BRANCH   8   9
ATOM      9  C   UNL     1     -13.447  62.432  -7.100  1.00  0.00     0.281 C 
ATOM     10  C   UNL     1     -11.875  63.188 -10.096  1.00  0.00     0.041 C 
ATOM     11  C   UNL     1     -12.617  62.056  -9.322  1.00  0.00     0.150 C 
ATOM     12  C   UNL     1     -14.116  62.070  -9.754  1.00  0.00     0.174 C 
ATOM     13  O   UNL     1     -12.288  62.264  -7.945  1.00  0.00    -0.344 OA
ATOM     14  C   UNL     1     -14.939  63.283  -9.074  1.00  0.00     0.179 C 
ATOM     15  C   UNL     1     -14.365  63.612  -7.590  1.00  0.00     0.202 C 
BRANCH  12  16
ATOM     16  O   UNL     1     -14.752  60.879  -9.287  1.00  0.00    -0.388 OA
ATOM     17  H   UNL     1     -15.682  60.857  -9.669  1.00  0.00     0.211 HD
ENDBRANCH  12  16
BRANCH  14  18
ATOM     18  O   UNL     1     -14.690  64.324  -9.991  1.00  0.00    -0.387 OA
ATOM     19  H   UNL     1     -14.708  65.227  -9.487  1.00  0.00     0.211 HD
ENDBRANCH  14  18
BRANCH  15  20
ATOM     20  O   UNL     1     -13.711  64.939  -7.493  1.00  0.00    -0.385 OA
ATOM     21  H   UNL     1     -14.437  65.636  -7.490  1.00  0.00     0.211 HD
ENDBRANCH  15  20
ENDBRANCH   8   9
ENDBRANCH   7   8
ENDBRANCH   1   7
BRANCH   2  22
ATOM     22  O   UNL     1     -14.642  59.101  -3.687  1.00  0.00    -0.387 OA
ATOM     23  H   UNL     1     -15.417  59.141  -4.388  1.00  0.00     0.211 HD
ENDBRANCH   2  22
BRANCH   3  24
ATOM     24  O   UNL     1     -14.899  58.712  -1.051  1.00  0.00    -0.387 OA
ATOM     25  H   UNL     1     -15.827  58.836  -0.693  1.00  0.00     0.211 HD
ENDBRANCH   3  24
BRANCH   5  26
ATOM     26  O   UNL     1     -17.103  62.049  -1.942  1.00  0.00    -0.454 OA
BRANCH  26  27
ATOM     27  C   UNL     1     -18.285  62.512  -1.231  1.00  0.00     0.214 A 
ATOM     28  C   UNL     1     -19.490  62.419  -1.793  1.00  0.00     0.180 A 
ATOM     29  C   UNL     1     -18.371  63.014  -0.022  1.00  0.00     0.239 A 
ATOM     30  O   UNL     1     -20.454  63.266  -1.503  1.00  0.00    -0.452 OA
ATOM     31  C   UNL     1     -18.928  64.360   0.039  1.00  0.00     0.111 A 
ATOM     32  O   UNL     1     -18.850  62.096   0.823  1.00  0.00    -0.285 OA
ATOM     33  C   UNL     1     -20.212  64.284  -0.636  1.00  0.00     0.146 A 
ATOM     34  C   UNL     1     -18.455  65.794   0.348  1.00  0.00     0.134 A 
ATOM     35  C   UNL     1     -21.132  65.239  -0.388  1.00  0.00     0.094 A 
ATOM     36  C   UNL     1     -19.521  66.698   0.638  1.00  0.00     0.093 A 
ATOM     37  C   UNL     1     -20.798  66.142   0.602  1.00  0.00     0.123 A 
BRANCH  28  38
ATOM     38  C   UNL     1     -19.688  61.371  -2.644  1.00  0.00     0.025 A 
ATOM     39  C   UNL     1     -18.776  61.032  -3.635  1.00  0.00     0.062 A 
ATOM     40  C   UNL     1     -20.883  60.689  -2.544  1.00  0.00     0.016 A 
ATOM     41  C   UNL     1     -19.228  60.260  -4.732  1.00  0.00     0.158 A 
ATOM     42  C   UNL     1     -21.303  59.772  -3.527  1.00  0.00     0.051 A 
ATOM     43  C   UNL     1     -20.450  59.581  -4.624  1.00  0.00     0.157 A 
BRANCH  41  44
ATOM     44  O   UNL     1     -18.445  60.088  -5.870  1.00  0.00    -0.504 OA
ATOM     45  H   UNL     1     -17.981  59.174  -6.075  1.00  0.00     0.293 HD
ENDBRANCH  41  44
BRANCH  43  46
ATOM     46  O   UNL     1     -20.797  58.676  -5.603  1.00  0.00    -0.504 OA
ATOM     47  H   UNL     1     -21.789  58.508  -5.836  1.00  0.00     0.293 HD
ENDBRANCH  43  46
ENDBRANCH  28  38
BRANCH  34  48
ATOM     48  O   UNL     1     -17.150  66.453   0.182  1.00  0.00    -0.507 OA
ATOM     49  H   UNL     1     -16.435  66.063  -0.500  1.00  0.00     0.293 HD
ENDBRANCH  34  48
BRANCH  37  50
ATOM     50  O   UNL     1     -21.705  66.190   1.691  1.00  0.00    -0.508 OA
ATOM     51  H   UNL     1     -21.758  65.425   2.368  1.00  0.00     0.293 HD
ENDBRANCH  37  50
ENDBRANCH  26  27
ENDBRANCH   5  26
BRANCH   4  52
ATOM     52  O   UNL     1     -13.807  61.651   0.178  1.00  0.00    -0.384 OA
ATOM     53  H   UNL     1     -14.157  61.469   1.104  1.00  0.00     0.211 HD
ENDBRANCH   4  52
TORSDOF 16
ENDMDL
