MODEL 1
REMARK VINA RESULT:    -4.632      0.000      0.000
REMARK INTER + INTRA:          -6.748
REMARK INTER:                  -6.528
REMARK INTRA:                  -0.220
REMARK UNBOUND:                -0.220
REMARK SMILES CCCCCCCCC(=O)[O-]
REMARK SMILES IDX 6 1 7 2 8 3 9 4 10 5 11 6 5 7 4 8 3 9 2 10 1 11
REMARK H PARENT
REMARK Flexibility Score: inf
ROOT
ATOM      1  C   UNL     1      -0.753  11.963  -8.427  1.00  0.00     0.000 C 
ENDROOT
BRANCH   1   2
ATOM      2  C   UNL     1       0.735  11.665  -8.194  1.00  0.00     0.006 C 
BRANCH   2   3
ATOM      3  C   UNL     1       1.098  10.214  -8.534  1.00  0.00     0.053 C 
BRANCH   3   4
ATOM      4  C   UNL     1       2.572  10.041  -8.739  1.00  0.00     0.041 C 
ATOM      5  O   UNL     1       3.003   9.423  -9.748  1.00  0.00    -0.550 OA
ATOM      6  O   UNL     1       3.468  10.534  -7.799  1.00  0.00    -0.550 OA
ENDBRANCH   3   4
ENDBRANCH   2   3
ENDBRANCH   1   2
BRANCH   1   7
ATOM      7  C   UNL     1      -1.523  10.678  -8.766  1.00  0.00     0.000 C 
BRANCH   7   8
ATOM      8  C   UNL     1      -2.701  10.928  -9.722  1.00  0.00    -0.000 C 
BRANCH   8   9
ATOM      9  C   UNL     1      -3.655   9.723  -9.812  1.00  0.00    -0.000 C 
BRANCH   9  10
ATOM     10  C   UNL     1      -4.545   9.771 -11.063  1.00  0.00    -0.003 C 
ATOM     11  C   UNL     1      -5.482  10.979 -11.076  1.00  0.00     0.004 C 
ENDBRANCH   9  10
ENDBRANCH   8   9
ENDBRANCH   7   8
ENDBRANCH   1   7
TORSDOF 7
ENDMDL
MODEL 2
REMARK VINA RESULT:    -4.512      3.769      6.474
REMARK INTER + INTRA:          -6.579
REMARK INTER:                  -6.427
REMARK INTRA:                  -0.152
REMARK UNBOUND:                -0.220
REMARK SMILES CCCCCCCCC(=O)[O-]
REMARK SMILES IDX 6 1 7 2 8 3 9 4 10 5 11 6 5 7 4 8 3 9 2 10 1 11
REMARK H PARENT
REMARK Flexibility Score: inf
ROOT
ATOM      1  C   UNL     1      -1.544  11.040  -8.888  1.00  0.00     0.000 C 
ENDROOT
BRANCH   1   2
ATOM      2  C   UNL     1      -2.894  10.410  -9.258  1.00  0.00     0.006 C 
BRANCH   2   3
ATOM      3  C   UNL     1      -3.353  10.806 -10.667  1.00  0.00     0.053 C 
BRANCH   3   4
ATOM      4  C   UNL     1      -4.722  10.280 -10.976  1.00  0.00     0.041 C 
ATOM      5  O   UNL     1      -5.676  11.077 -11.177  1.00  0.00    -0.550 OA
ATOM      6  O   UNL     1      -4.951   8.911 -11.006  1.00  0.00    -0.550 OA
ENDBRANCH   3   4
ENDBRANCH   2   3
ENDBRANCH   1   2
BRANCH   1   7
ATOM      7  C   UNL     1      -0.791  10.170  -7.871  1.00  0.00     0.000 C 
BRANCH   7   8
ATOM      8  C   UNL     1       0.706  10.509  -7.795  1.00  0.00    -0.000 C 
BRANCH   8   9
ATOM      9  C   UNL     1       1.552   9.679  -8.777  1.00  0.00    -0.000 C 
BRANCH   9  10
ATOM     10  C   UNL     1       3.032  10.090  -8.772  1.00  0.00    -0.003 C 
ATOM     11  C   UNL     1       3.774   9.635 -10.029  1.00  0.00     0.004 C 
ENDBRANCH   9  10
ENDBRANCH   8   9
ENDBRANCH   7   8
ENDBRANCH   1   7
TORSDOF 7
ENDMDL
MODEL 3
REMARK VINA RESULT:    -4.409      3.852      6.350
REMARK INTER + INTRA:          -6.434
REMARK INTER:                  -6.214
REMARK INTRA:                  -0.220
REMARK UNBOUND:                -0.220
REMARK SMILES CCCCCCCCC(=O)[O-]
REMARK SMILES IDX 6 1 7 2 8 3 9 4 10 5 11 6 5 7 4 8 3 9 2 10 1 11
REMARK H PARENT
REMARK Flexibility Score: inf
ROOT
ATOM      1  C   UNL     1      -1.628  11.615  -9.008  1.00  0.00     0.000 C 
ENDROOT
BRANCH   1   2
ATOM      2  C   UNL     1      -3.118  11.423  -9.329  1.00  0.00     0.006 C 
BRANCH   2   3
ATOM      3  C   UNL     1      -3.336  10.564 -10.581  1.00  0.00     0.053 C 
BRANCH   3   4
ATOM      4  C   UNL     1      -4.789  10.281 -10.816  1.00  0.00     0.041 C 
ATOM      5  O   UNL     1      -5.187   9.097 -10.972  1.00  0.00    -0.550 OA
ATOM      6  O   UNL     1      -5.697  11.329 -10.897  1.00  0.00    -0.550 OA
ENDBRANCH   3   4
ENDBRANCH   2   3
ENDBRANCH   1   2
BRANCH   1   7
ATOM      7  C   UNL     1      -1.149  10.577  -7.982  1.00  0.00     0.000 C 
BRANCH   7   8
ATOM      8  C   UNL     1       0.232   9.996  -8.328  1.00  0.00    -0.000 C 
BRANCH   8   9
ATOM      9  C   UNL     1       1.363  11.028  -8.171  1.00  0.00    -0.000 C 
BRANCH   9  10
ATOM     10  C   UNL     1       2.756  10.381  -8.189  1.00  0.00    -0.003 C 
ATOM     11  C   UNL     1       3.047   9.643  -9.496  1.00  0.00     0.004 C 
ENDBRANCH   9  10
ENDBRANCH   8   9
ENDBRANCH   7   8
ENDBRANCH   1   7
TORSDOF 7
ENDMDL
MODEL 4
REMARK VINA RESULT:    -4.378     13.384     14.923
REMARK INTER + INTRA:          -6.390
REMARK INTER:                  -5.803
REMARK INTRA:                  -0.587
REMARK UNBOUND:                -0.220
REMARK SMILES CCCCCCCCC(=O)[O-]
REMARK SMILES IDX 6 1 7 2 8 3 9 4 10 5 11 6 5 7 4 8 3 9 2 10 1 11
REMARK H PARENT
REMARK Flexibility Score: inf
ROOT
ATOM      1  C   UNL     1       9.544  11.847 -21.988  1.00  0.00     0.000 C 
ENDROOT
BRANCH   1   2
ATOM      2  C   UNL     1      10.757  12.097 -21.079  1.00  0.00     0.006 C 
BRANCH   2   3
ATOM      3  C   UNL     1      10.404  11.967 -19.591  1.00  0.00     0.053 C 
BRANCH   3   4
ATOM      4  C   UNL     1      11.384  11.103 -18.859  1.00  0.00     0.041 C 
ATOM      5  O   UNL     1      11.548   9.902 -19.199  1.00  0.00    -0.550 OA
ATOM      6  O   UNL     1      12.092  11.614 -17.779  1.00  0.00    -0.550 OA
ENDBRANCH   3   4
ENDBRANCH   2   3
ENDBRANCH   1   2
BRANCH   1   7
ATOM      7  C   UNL     1       8.626  10.769 -21.394  1.00  0.00     0.000 C 
BRANCH   7   8
ATOM      8  C   UNL     1       7.135  11.089 -21.587  1.00  0.00    -0.000 C 
BRANCH   8   9
ATOM      9  C   UNL     1       6.775  12.520 -21.146  1.00  0.00    -0.000 C 
BRANCH   9  10
ATOM     10  C   UNL     1       6.779  12.682 -19.618  1.00  0.00    -0.003 C 
ATOM     11  C   UNL     1       6.057  13.949 -19.158  1.00  0.00     0.004 C 
ENDBRANCH   9  10
ENDBRANCH   8   9
ENDBRANCH   7   8
ENDBRANCH   1   7
TORSDOF 7
ENDMDL
MODEL 5
REMARK VINA RESULT:    -4.320      3.471      5.974
REMARK INTER + INTRA:          -6.308
REMARK INTER:                  -5.865
REMARK INTRA:                  -0.443
REMARK UNBOUND:                -0.220
REMARK SMILES CCCCCCCCC(=O)[O-]
REMARK SMILES IDX 6 1 7 2 8 3 9 4 10 5 11 6 5 7 4 8 3 9 2 10 1 11
REMARK H PARENT
REMARK Flexibility Score: inf
ROOT
ATOM      1  C   UNL     1      -1.476  11.648  -8.963  1.00  0.00     0.000 C 
ENDROOT
BRANCH   1   2
ATOM      2  C   UNL     1      -2.959  11.718  -9.357  1.00  0.00     0.006 C 
BRANCH   2   3
ATOM      3  C   UNL     1      -3.601  10.328  -9.450  1.00  0.00     0.053 C 
BRANCH   3   4
ATOM      4  C   UNL     1      -4.188  10.076 -10.806  1.00  0.00     0.041 C 
ATOM      5  O   UNL     1      -3.924   9.011 -11.423  1.00  0.00    -0.550 OA
ATOM      6  O   UNL     1      -4.999  11.033 -11.402  1.00  0.00    -0.550 OA
ENDBRANCH   3   4
ENDBRANCH   2   3
ENDBRANCH   1   2
BRANCH   1   7
ATOM      7  C   UNL     1      -1.123  10.264  -8.398  1.00  0.00     0.000 C 
BRANCH   7   8
ATOM      8  C   UNL     1       0.389   9.989  -8.408  1.00  0.00    -0.000 C 
BRANCH   8   9
ATOM      9  C   UNL     1       1.225  11.265  -8.199  1.00  0.00    -0.000 C 
BRANCH   9  10
ATOM     10  C   UNL     1       1.552  11.517  -6.719  1.00  0.00    -0.003 C 
ATOM     11  C   UNL     1       0.849  12.754  -6.161  1.00  0.00     0.004 C 
ENDBRANCH   9  10
ENDBRANCH   8   9
ENDBRANCH   7   8
ENDBRANCH   1   7
TORSDOF 7
ENDMDL
MODEL 6
REMARK VINA RESULT:    -4.264      1.605      2.498
REMARK INTER + INTRA:          -6.229
REMARK INTER:                  -5.934
REMARK INTRA:                  -0.295
REMARK UNBOUND:                -0.220
REMARK SMILES CCCCCCCCC(=O)[O-]
REMARK SMILES IDX 6 1 7 2 8 3 9 4 10 5 11 6 5 7 4 8 3 9 2 10 1 11
REMARK H PARENT
REMARK Flexibility Score: inf
ROOT
ATOM      1  C   UNL     1      -3.114  11.218  -9.210  1.00  0.00     0.000 C 
ENDROOT
BRANCH   1   2
ATOM      2  C   UNL     1      -1.637  11.557  -8.961  1.00  0.00     0.006 C 
BRANCH   2   3
ATOM      3  C   UNL     1      -0.838  10.344  -8.468  1.00  0.00     0.053 C 
BRANCH   3   4
ATOM      4  C   UNL     1       0.636  10.612  -8.465  1.00  0.00     0.041 C 
ATOM      5  O   UNL     1       1.443   9.724  -8.847  1.00  0.00    -0.550 OA
ATOM      6  O   UNL     1       1.121  11.831  -8.006  1.00  0.00    -0.550 OA
ENDBRANCH   3   4
ENDBRANCH   2   3
ENDBRANCH   1   2
BRANCH   1   7
ATOM      7  C   UNL     1      -3.314  10.638 -10.618  1.00  0.00     0.000 C 
BRANCH   7   8
ATOM      8  C   UNL     1      -4.796  10.542 -11.014  1.00  0.00    -0.000 C 
BRANCH   8   9
ATOM      9  C   UNL     1      -5.451   9.233 -10.540  1.00  0.00    -0.000 C 
BRANCH   9  10
ATOM     10  C   UNL     1      -4.502   8.029 -10.642  1.00  0.00    -0.003 C 
ATOM     11  C   UNL     1      -5.098   6.873 -11.445  1.00  0.00     0.004 C 
ENDBRANCH   9  10
ENDBRANCH   8   9
ENDBRANCH   7   8
ENDBRANCH   1   7
TORSDOF 7
ENDMDL
MODEL 7
REMARK VINA RESULT:    -4.242      3.364      5.729
REMARK INTER + INTRA:          -6.199
REMARK INTER:                  -5.473
REMARK INTRA:                  -0.726
REMARK UNBOUND:                -0.220
REMARK SMILES CCCCCCCCC(=O)[O-]
REMARK SMILES IDX 6 1 7 2 8 3 9 4 10 5 11 6 5 7 4 8 3 9 2 10 1 11
REMARK H PARENT
REMARK Flexibility Score: inf
ROOT
ATOM      1  C   UNL     1       0.365  10.025  -8.384  1.00  0.00     0.000 C 
ENDROOT
BRANCH   1   2
ATOM      2  C   UNL     1      -1.117  10.369  -8.177  1.00  0.00     0.006 C 
BRANCH   2   3
ATOM      3  C   UNL     1      -1.489  11.727  -8.786  1.00  0.00     0.053 C 
BRANCH   3   4
ATOM      4  C   UNL     1      -2.792  11.668  -9.525  1.00  0.00     0.041 C 
ATOM      5  O   UNL     1      -2.950  10.846 -10.466  1.00  0.00    -0.550 OA
ATOM      6  O   UNL     1      -3.818  12.544  -9.197  1.00  0.00    -0.550 OA
ENDBRANCH   3   4
ENDBRANCH   2   3
ENDBRANCH   1   2
BRANCH   1   7
ATOM      7  C   UNL     1       1.238  11.286  -8.303  1.00  0.00     0.000 C 
BRANCH   7   8
ATOM      8  C   UNL     1       2.245  11.236  -7.143  1.00  0.00    -0.000 C 
BRANCH   8   9
ATOM      9  C   UNL     1       1.695  11.876  -5.855  1.00  0.00    -0.000 C 
BRANCH   9  10
ATOM     10  C   UNL     1       0.727  13.034  -6.141  1.00  0.00    -0.003 C 
ATOM     11  C   UNL     1      -0.542  12.965  -5.292  1.00  0.00     0.004 C 
ENDBRANCH   9  10
ENDBRANCH   8   9
ENDBRANCH   7   8
ENDBRANCH   1   7
TORSDOF 7
ENDMDL
MODEL 8
REMARK VINA RESULT:    -4.235      2.121      3.326
REMARK INTER + INTRA:          -6.189
REMARK INTER:                  -5.700
REMARK INTRA:                  -0.488
REMARK UNBOUND:                -0.220
REMARK SMILES CCCCCCCCC(=O)[O-]
REMARK SMILES IDX 6 1 7 2 8 3 9 4 10 5 11 6 5 7 4 8 3 9 2 10 1 11
REMARK H PARENT
REMARK Flexibility Score: inf
ROOT
ATOM      1  C   UNL     1      -2.985  10.664 -10.285  1.00  0.00     0.000 C 
ENDROOT
BRANCH   1   2
ATOM      2  C   UNL     1      -2.605  10.700  -8.797  1.00  0.00     0.006 C 
BRANCH   2   3
ATOM      3  C   UNL     1      -1.099  10.506  -8.578  1.00  0.00     0.053 C 
BRANCH   3   4
ATOM      4  C   UNL     1      -0.385  11.815  -8.424  1.00  0.00     0.041 C 
ATOM      5  O   UNL     1       0.873  11.854  -8.428  1.00  0.00    -0.550 OA
ATOM      6  O   UNL     1      -1.110  12.985  -8.240  1.00  0.00    -0.550 OA
ENDBRANCH   3   4
ENDBRANCH   2   3
ENDBRANCH   1   2
BRANCH   1   7
ATOM      7  C   UNL     1      -3.766   9.385 -10.621  1.00  0.00     0.000 C 
BRANCH   7   8
ATOM      8  C   UNL     1      -5.281   9.625 -10.720  1.00  0.00    -0.000 C 
BRANCH   8   9
ATOM      9  C   UNL     1      -5.629  11.097 -11.007  1.00  0.00    -0.000 C 
BRANCH   9  10
ATOM     10  C   UNL     1      -6.426  11.746  -9.865  1.00  0.00    -0.003 C 
ATOM     11  C   UNL     1      -5.680  12.909  -9.212  1.00  0.00     0.004 C 
ENDBRANCH   9  10
ENDBRANCH   8   9
ENDBRANCH   7   8
ENDBRANCH   1   7
TORSDOF 7
ENDMDL
MODEL 9
REMARK VINA RESULT:    -4.234      2.437      2.830
REMARK INTER + INTRA:          -6.187
REMARK INTER:                  -5.707
REMARK INTRA:                  -0.480
REMARK UNBOUND:                -0.220
REMARK SMILES CCCCCCCCC(=O)[O-]
REMARK SMILES IDX 6 1 7 2 8 3 9 4 10 5 11 6 5 7 4 8 3 9 2 10 1 11
REMARK H PARENT
REMARK Flexibility Score: inf
ROOT
ATOM      1  C   UNL     1       0.083  10.073  -8.383  1.00  0.00     0.000 C 
ENDROOT
BRANCH   1   2
ATOM      2  C   UNL     1       0.926  11.354  -8.303  1.00  0.00     0.006 C 
BRANCH   2   3
ATOM      3  C   UNL     1       1.623  11.507  -6.944  1.00  0.00     0.053 C 
BRANCH   3   4
ATOM      4  C   UNL     1       1.151  12.726  -6.211  1.00  0.00     0.041 C 
ATOM      5  O   UNL     1       0.034  13.239  -6.487  1.00  0.00    -0.550 OA
ATOM      6  O   UNL     1       1.959  13.315  -5.247  1.00  0.00    -0.550 OA
ENDBRANCH   3   4
ENDBRANCH   2   3
ENDBRANCH   1   2
BRANCH   1   7
ATOM      7  C   UNL     1      -1.397  10.371  -8.102  1.00  0.00     0.000 C 
BRANCH   7   8
ATOM      8  C   UNL     1      -1.936  11.540  -8.941  1.00  0.00    -0.000 C 
BRANCH   8   9
ATOM      9  C   UNL     1      -2.859  11.073 -10.081  1.00  0.00    -0.000 C 
BRANCH   9  10
ATOM     10  C   UNL     1      -3.404   9.655  -9.853  1.00  0.00    -0.003 C 
ATOM     11  C   UNL     1      -4.073   9.073 -11.098  1.00  0.00     0.004 C 
ENDBRANCH   9  10
ENDBRANCH   8   9
ENDBRANCH   7   8
ENDBRANCH   1   7
TORSDOF 7
ENDMDL
