MODEL 1
REMARK VINA RESULT:    -4.004      0.000      0.000
REMARK INTER + INTRA:          -4.739
REMARK INTER:                  -4.706
REMARK INTRA:                  -0.033
REMARK UNBOUND:                -0.033
REMARK SMILES O=C([O-])CCC(=O)[O-]
REMARK SMILES IDX 4 1 2 2 1 3 3 4 5 5 6 6 7 7 8 8
REMARK H PARENT
REMARK Flexibility Score: inf
ROOT
ATOM      1  C   UNL     1      14.377  -4.686  21.764  1.00  0.00     0.059 C 
ENDROOT
BRANCH   1   2
ATOM      2  C   UNL     1      15.180  -4.854  23.018  1.00  0.00     0.042 C 
ATOM      3  O   UNL     1      15.150  -3.970  23.912  1.00  0.00    -0.550 OA
ATOM      4  O   UNL     1      15.931  -6.007  23.214  1.00  0.00    -0.550 OA
ENDBRANCH   1   2
BRANCH   1   5
ATOM      5  C   UNL     1      13.195  -3.734  21.974  1.00  0.00     0.059 C 
BRANCH   5   6
ATOM      6  C   UNL     1      12.398  -3.555  20.718  1.00  0.00     0.042 C 
ATOM      7  O   UNL     1      11.143  -3.639  20.747  1.00  0.00    -0.550 OA
ATOM      8  O   UNL     1      13.040  -3.251  19.524  1.00  0.00    -0.550 OA
ENDBRANCH   5   6
ENDBRANCH   1   5
TORSDOF 3
ENDMDL
MODEL 2
REMARK VINA RESULT:    -3.998      0.100      4.307
REMARK INTER + INTRA:          -4.733
REMARK INTER:                  -4.702
REMARK INTRA:                  -0.030
REMARK UNBOUND:                -0.033
REMARK SMILES O=C([O-])CCC(=O)[O-]
REMARK SMILES IDX 4 1 2 2 1 3 3 4 5 5 6 6 7 7 8 8
REMARK H PARENT
REMARK Flexibility Score: inf
ROOT
ATOM      1  C   UNL     1      13.155  -3.709  21.929  1.00  0.00     0.059 C 
ENDROOT
BRANCH   1   2
ATOM      2  C   UNL     1      12.365  -3.512  20.671  1.00  0.00     0.042 C 
ATOM      3  O   UNL     1      11.111  -3.622  20.687  1.00  0.00    -0.550 OA
ATOM      4  O   UNL     1      13.011  -3.167  19.491  1.00  0.00    -0.550 OA
ENDBRANCH   1   2
BRANCH   1   5
ATOM      5  C   UNL     1      14.329  -4.671  21.715  1.00  0.00     0.059 C 
BRANCH   5   6
ATOM      6  C   UNL     1      15.101  -4.892  22.979  1.00  0.00     0.042 C 
ATOM      7  O   UNL     1      15.784  -5.938  23.129  1.00  0.00    -0.550 OA
ATOM      8  O   UNL     1      15.101  -3.922  23.974  1.00  0.00    -0.550 OA
ENDBRANCH   5   6
ENDBRANCH   1   5
TORSDOF 3
ENDMDL
MODEL 3
REMARK VINA RESULT:    -3.946     18.941     19.572
REMARK INTER + INTRA:          -4.671
REMARK INTER:                  -4.548
REMARK INTRA:                  -0.122
REMARK UNBOUND:                -0.033
REMARK SMILES O=C([O-])CCC(=O)[O-]
REMARK SMILES IDX 4 1 2 2 1 3 3 4 5 5 6 6 7 7 8 8
REMARK H PARENT
REMARK Flexibility Score: inf
ROOT
ATOM      1  C   UNL     1      18.796  12.235  12.761  1.00  0.00     0.059 C 
ENDROOT
BRANCH   1   2
ATOM      2  C   UNL     1      20.017  12.789  13.430  1.00  0.00     0.042 C 
ATOM      3  O   UNL     1      19.912  13.723  14.266  1.00  0.00    -0.550 OA
ATOM      4  O   UNL     1      21.267  12.247  13.158  1.00  0.00    -0.550 OA
ENDBRANCH   1   2
BRANCH   1   5
ATOM      5  C   UNL     1      17.658  13.261  12.723  1.00  0.00     0.059 C 
BRANCH   5   6
ATOM      6  C   UNL     1      16.504  12.840  13.581  1.00  0.00     0.042 C 
ATOM      7  O   UNL     1      15.383  12.603  13.061  1.00  0.00    -0.550 OA
ATOM      8  O   UNL     1      16.680  12.667  14.948  1.00  0.00    -0.550 OA
ENDBRANCH   5   6
ENDBRANCH   1   5
TORSDOF 3
ENDMDL
MODEL 4
REMARK VINA RESULT:    -3.936     18.905     19.801
REMARK INTER + INTRA:          -4.659
REMARK INTER:                  -4.539
REMARK INTRA:                  -0.120
REMARK UNBOUND:                -0.033
REMARK SMILES O=C([O-])CCC(=O)[O-]
REMARK SMILES IDX 4 1 2 2 1 3 3 4 5 5 6 6 7 7 8 8
REMARK H PARENT
REMARK Flexibility Score: inf
ROOT
ATOM      1  C   UNL     1      17.603  13.303  12.781  1.00  0.00     0.059 C 
ENDROOT
BRANCH   1   2
ATOM      2  C   UNL     1      16.472  12.808  13.631  1.00  0.00     0.042 C 
ATOM      3  O   UNL     1      15.382  12.471  13.100  1.00  0.00    -0.550 OA
ATOM      4  O   UNL     1      16.637  12.679  15.004  1.00  0.00    -0.550 OA
ENDBRANCH   1   2
BRANCH   1   5
ATOM      5  C   UNL     1      18.709  12.251  12.645  1.00  0.00     0.059 C 
BRANCH   5   6
ATOM      6  C   UNL     1      19.963  12.672  13.349  1.00  0.00     0.042 C 
ATOM      7  O   UNL     1      21.064  12.140  13.054  1.00  0.00    -0.550 OA
ATOM      8  O   UNL     1      19.921  13.684  14.301  1.00  0.00    -0.550 OA
ENDBRANCH   5   6
ENDBRANCH   1   5
TORSDOF 3
ENDMDL
MODEL 5
REMARK VINA RESULT:    -3.932      1.805      2.155
REMARK INTER + INTRA:          -4.654
REMARK INTER:                  -4.538
REMARK INTRA:                  -0.116
REMARK UNBOUND:                -0.033
REMARK SMILES O=C([O-])CCC(=O)[O-]
REMARK SMILES IDX 4 1 2 2 1 3 3 4 5 5 6 6 7 7 8 8
REMARK H PARENT
REMARK Flexibility Score: inf
ROOT
ATOM      1  C   UNL     1      13.867  -3.401  22.472  1.00  0.00     0.059 C 
ENDROOT
BRANCH   1   2
ATOM      2  C   UNL     1      13.061  -3.916  23.625  1.00  0.00     0.042 C 
ATOM      3  O   UNL     1      12.422  -4.995  23.519  1.00  0.00    -0.550 OA
ATOM      4  O   UNL     1      13.049  -3.224  24.830  1.00  0.00    -0.550 OA
ENDBRANCH   1   2
BRANCH   1   5
ATOM      5  C   UNL     1      13.598  -4.201  21.193  1.00  0.00     0.059 C 
BRANCH   5   6
ATOM      6  C   UNL     1      12.639  -3.492  20.288  1.00  0.00     0.042 C 
ATOM      7  O   UNL     1      11.406  -3.499  20.541  1.00  0.00    -0.550 OA
ATOM      8  O   UNL     1      13.111  -2.786  19.188  1.00  0.00    -0.550 OA
ENDBRANCH   5   6
ENDBRANCH   1   5
TORSDOF 3
ENDMDL
MODEL 6
REMARK VINA RESULT:    -3.929      1.827      4.001
REMARK INTER + INTRA:          -4.651
REMARK INTER:                  -4.531
REMARK INTRA:                  -0.120
REMARK UNBOUND:                -0.033
REMARK SMILES O=C([O-])CCC(=O)[O-]
REMARK SMILES IDX 4 1 2 2 1 3 3 4 5 5 6 6 7 7 8 8
REMARK H PARENT
REMARK Flexibility Score: inf
ROOT
ATOM      1  C   UNL     1      13.543  -4.169  21.231  1.00  0.00     0.059 C 
ENDROOT
BRANCH   1   2
ATOM      2  C   UNL     1      12.597  -3.475  20.299  1.00  0.00     0.042 C 
ATOM      3  O   UNL     1      11.359  -3.491  20.525  1.00  0.00    -0.550 OA
ATOM      4  O   UNL     1      13.087  -2.776  19.203  1.00  0.00    -0.550 OA
ENDBRANCH   1   2
BRANCH   1   5
ATOM      5  C   UNL     1      13.785  -3.349  22.504  1.00  0.00     0.059 C 
BRANCH   5   6
ATOM      6  C   UNL     1      13.023  -3.901  23.670  1.00  0.00     0.042 C 
ATOM      7  O   UNL     1      12.415  -4.998  23.567  1.00  0.00    -0.550 OA
ATOM      8  O   UNL     1      13.022  -3.225  24.883  1.00  0.00    -0.550 OA
ENDBRANCH   5   6
ENDBRANCH   1   5
TORSDOF 3
ENDMDL
MODEL 7
REMARK VINA RESULT:    -3.920     19.029     20.190
REMARK INTER + INTRA:          -4.640
REMARK INTER:                  -4.552
REMARK INTRA:                  -0.088
REMARK UNBOUND:                -0.033
REMARK SMILES O=C([O-])CCC(=O)[O-]
REMARK SMILES IDX 4 1 2 2 1 3 3 4 5 5 6 6 7 7 8 8
REMARK H PARENT
REMARK Flexibility Score: inf
ROOT
ATOM      1  C   UNL     1      18.427  12.462  14.076  1.00  0.00     0.059 C 
ENDROOT
BRANCH   1   2
ATOM      2  C   UNL     1      17.251  12.930  13.273  1.00  0.00     0.042 C 
ATOM      3  O   UNL     1      17.429  13.602  12.224  1.00  0.00    -0.550 OA
ATOM      4  O   UNL     1      15.962  12.590  13.663  1.00  0.00    -0.550 OA
ENDBRANCH   1   2
BRANCH   1   5
ATOM      5  C   UNL     1      19.694  12.368  13.220  1.00  0.00     0.059 C 
BRANCH   5   6
ATOM      6  C   UNL     1      20.838  13.110  13.840  1.00  0.00     0.042 C 
ATOM      7  O   UNL     1      20.622  14.119  14.561  1.00  0.00    -0.550 OA
ATOM      8  O   UNL     1      22.140  12.662  13.657  1.00  0.00    -0.550 OA
ENDBRANCH   5   6
ENDBRANCH   1   5
TORSDOF 3
ENDMDL
MODEL 8
REMARK VINA RESULT:    -3.887     19.724     20.367
REMARK INTER + INTRA:          -4.601
REMARK INTER:                  -4.483
REMARK INTRA:                  -0.118
REMARK UNBOUND:                -0.033
REMARK SMILES O=C([O-])CCC(=O)[O-]
REMARK SMILES IDX 4 1 2 2 1 3 3 4 5 5 6 6 7 7 8 8
REMARK H PARENT
REMARK Flexibility Score: inf
ROOT
ATOM      1  C   UNL     1      19.667  13.388  14.262  1.00  0.00     0.059 C 
ENDROOT
BRANCH   1   2
ATOM      2  C   UNL     1      21.104  13.205  13.881  1.00  0.00     0.042 C 
ATOM      3  O   UNL     1      21.447  12.241  13.149  1.00  0.00    -0.550 OA
ATOM      4  O   UNL     1      22.058  14.123  14.302  1.00  0.00    -0.550 OA
ENDBRANCH   1   2
BRANCH   1   5
ATOM      5  C   UNL     1      18.750  12.441  13.480  1.00  0.00     0.059 C 
BRANCH   5   6
ATOM      6  C   UNL     1      18.008  13.159  12.395  1.00  0.00     0.042 C 
ATOM      7  O   UNL     1      18.585  13.439  11.312  1.00  0.00    -0.550 OA
ATOM      8  O   UNL     1      16.667  13.481  12.563  1.00  0.00    -0.550 OA
ENDBRANCH   5   6
ENDBRANCH   1   5
TORSDOF 3
ENDMDL
MODEL 9
REMARK VINA RESULT:    -3.800     18.342     19.571
REMARK INTER + INTRA:          -4.500
REMARK INTER:                  -4.379
REMARK INTRA:                  -0.121
REMARK UNBOUND:                -0.033
REMARK SMILES O=C([O-])CCC(=O)[O-]
REMARK SMILES IDX 4 1 2 2 1 3 3 4 5 5 6 6 7 7 8 8
REMARK H PARENT
REMARK Flexibility Score: inf
ROOT
ATOM      1  C   UNL     1      18.811  11.945  13.235  1.00  0.00     0.059 C 
ENDROOT
BRANCH   1   2
ATOM      2  C   UNL     1      19.061  12.531  11.879  1.00  0.00     0.042 C 
ATOM      3  O   UNL     1      18.680  13.702  11.616  1.00  0.00    -0.550 OA
ATOM      4  O   UNL     1      19.750  11.800  10.920  1.00  0.00    -0.550 OA
ENDBRANCH   1   2
BRANCH   1   5
ATOM      5  C   UNL     1      18.115  12.946  14.164  1.00  0.00     0.059 C 
BRANCH   5   6
ATOM      6  C   UNL     1      16.660  12.628  14.329  1.00  0.00     0.042 C 
ATOM      7  O   UNL     1      16.241  12.121  15.402  1.00  0.00    -0.550 OA
ATOM      8  O   UNL     1      15.761  12.930  13.314  1.00  0.00    -0.550 OA
ENDBRANCH   5   6
ENDBRANCH   1   5
TORSDOF 3
ENDMDL
