MODEL 1
REMARK VINA RESULT:    -7.259      0.000      0.000
REMARK INTER + INTRA:         -10.745
REMARK INTER:                 -10.229
REMARK INTRA:                  -0.515
REMARK UNBOUND:                -0.515
REMARK SMILES C[C@@H](CO)CCC(=O)[C@@H](C)[C@@H]1C(=O)C[C@H]2[C@@H]3CC=C4C[C@H](O)CC[C@@]4(C)[C@H]3CC[C@]21C
REMARK SMILES IDX 6 1 5 2 2 3 1 4 3 5 4 6 7 8 8 9 9 10 10 11 11 12 12 13 30 14
REMARK SMILES IDX 13 15 14 16 15 17 29 18 31 19 16 20 28 21 27 22 17 23 25 24
REMARK SMILES IDX 18 25 19 26 24 27 26 28 20 29 23 30 21 31 22 32
REMARK H PARENT 4 7 22 33
REMARK Flexibility Score: inf
ROOT
ATOM      1  C   UNL     1      -0.617  19.268  46.695  1.00  0.00     0.076 C 
ENDROOT
BRANCH   1   2
ATOM      2  C   UNL     1      -1.510  20.428  47.201  1.00  0.00     0.013 C 
BRANCH   2   3
ATOM      3  C   UNL     1      -2.559  20.056  48.280  1.00  0.00     0.012 C 
ATOM      4  C   UNL     1      -2.722  18.542  48.471  1.00  0.00     0.010 C 
BRANCH   3   5
ATOM      5  C   UNL     1      -2.354  20.801  49.616  1.00  0.00     0.159 C 
BRANCH   5   6
ATOM      6  O   UNL     1      -1.231  20.336  50.316  1.00  0.00    -0.396 OA
ATOM      7  H   UNL     1      -0.583  21.086  50.350  1.00  0.00     0.210 HD
ENDBRANCH   5   6
ENDBRANCH   3   5
ENDBRANCH   2   3
ENDBRANCH   1   2
BRANCH   1   8
ATOM      8  C   UNL     1       0.580  19.010  47.585  1.00  0.00     0.136 C 
ATOM      9  O   UNL     1       1.024  19.921  48.270  1.00  0.00    -0.299 OA
BRANCH   8  10
ATOM     10  C   UNL     1       1.326  17.690  47.523  1.00  0.00     0.064 C 
ATOM     11  C   UNL     1       0.283  16.599  47.216  1.00  0.00     0.017 C 
BRANCH  10  12
ATOM     12  C   UNL     1       2.499  17.711  46.475  1.00  0.00     0.072 C 
ATOM     13  C   UNL     1       2.636  16.414  45.727  1.00  0.00     0.137 C 
ATOM     14  C   UNL     1       3.958  17.922  47.030  1.00  0.00    -0.019 C 
ATOM     15  O   UNL     1       1.724  15.884  45.112  1.00  0.00    -0.299 OA
ATOM     16  C   UNL     1       4.025  15.900  45.653  1.00  0.00     0.080 C 
ATOM     17  C   UNL     1       4.877  17.119  46.043  1.00  0.00     0.007 C 
ATOM     18  C   UNL     1       4.385  19.410  47.136  1.00  0.00     0.008 C 
ATOM     19  C   UNL     1       4.125  17.294  48.444  1.00  0.00     0.012 C 
ATOM     20  C   UNL     1       5.319  17.890  44.748  1.00  0.00     0.001 C 
ATOM     21  C   UNL     1       4.630  20.081  45.792  1.00  0.00     0.005 C 
ATOM     22  C   UNL     1       5.741  19.351  45.013  1.00  0.00     0.003 C 
ATOM     23  C   UNL     1       6.519  17.168  44.108  1.00  0.00     0.031 C 
ATOM     24  C   UNL     1       6.186  20.112  43.689  1.00  0.00    -0.008 C 
ATOM     25  C   UNL     1       6.961  17.847  42.853  1.00  0.00    -0.027 C 
ATOM     26  C   UNL     1       6.871  19.179  42.674  1.00  0.00    -0.065 C 
ATOM     27  C   UNL     1       4.963  20.757  42.956  1.00  0.00     0.014 C 
ATOM     28  C   UNL     1       7.192  21.220  44.100  1.00  0.00     0.016 C 
ATOM     29  C   UNL     1       7.235  19.751  41.319  1.00  0.00     0.063 C 
ATOM     30  C   UNL     1       5.297  21.347  41.570  1.00  0.00     0.033 C 
ATOM     31  C   UNL     1       5.977  20.317  40.655  1.00  0.00     0.118 C 
BRANCH  31  32
ATOM     32  O   UNL     1       6.332  20.919  39.437  1.00  0.00    -0.393 OA
ATOM     33  H   UNL     1       7.302  21.124  39.491  1.00  0.00     0.210 HD
ENDBRANCH  31  32
ENDBRANCH  10  12
ENDBRANCH   8  10
ENDBRANCH   1   8
TORSDOF 8
ENDMDL
MODEL 2
REMARK VINA RESULT:    -7.249      3.177      5.911
REMARK INTER + INTRA:         -10.731
REMARK INTER:                  -9.803
REMARK INTRA:                  -0.928
REMARK UNBOUND:                -0.515
REMARK SMILES C[C@@H](CO)CCC(=O)[C@@H](C)[C@@H]1C(=O)C[C@H]2[C@@H]3CC=C4C[C@H](O)CC[C@@]4(C)[C@H]3CC[C@]21C
REMARK SMILES IDX 6 1 5 2 2 3 1 4 3 5 4 6 7 8 8 9 9 10 10 11 11 12 12 13 30 14
REMARK SMILES IDX 13 15 14 16 15 17 29 18 31 19 16 20 28 21 27 22 17 23 25 24
REMARK SMILES IDX 18 25 19 26 24 27 26 28 20 29 23 30 21 31 22 32
REMARK H PARENT 4 7 22 33
REMARK Flexibility Score: inf
ROOT
ATOM      1  C   UNL     1      -2.093  18.686  49.550  1.00  0.00     0.076 C 
ENDROOT
BRANCH   1   2
ATOM      2  C   UNL     1      -2.235  17.442  48.639  1.00  0.00     0.013 C 
BRANCH   2   3
ATOM      3  C   UNL     1      -1.256  17.363  47.439  1.00  0.00     0.012 C 
ATOM      4  C   UNL     1       0.182  17.020  47.851  1.00  0.00     0.010 C 
BRANCH   3   5
ATOM      5  C   UNL     1      -1.768  16.472  46.288  1.00  0.00     0.159 C 
BRANCH   5   6
ATOM      6  O   UNL     1      -1.735  17.130  45.050  1.00  0.00    -0.396 OA
ATOM      7  H   UNL     1      -2.482  16.765  44.509  1.00  0.00     0.210 HD
ENDBRANCH   5   6
ENDBRANCH   3   5
ENDBRANCH   2   3
ENDBRANCH   1   2
BRANCH   1   8
ATOM      8  C   UNL     1      -2.611  19.954  48.906  1.00  0.00     0.136 C 
ATOM      9  O   UNL     1      -3.590  19.897  48.176  1.00  0.00    -0.299 OA
BRANCH   8  10
ATOM     10  C   UNL     1      -1.845  21.259  49.029  1.00  0.00     0.064 C 
ATOM     11  C   UNL     1      -2.342  21.952  50.311  1.00  0.00     0.017 C 
BRANCH  10  12
ATOM     12  C   UNL     1      -0.286  21.043  49.028  1.00  0.00     0.072 C 
ATOM     13  C   UNL     1       0.361  21.463  50.319  1.00  0.00     0.137 C 
ATOM     14  C   UNL     1       0.553  21.849  47.966  1.00  0.00    -0.019 C 
ATOM     15  O   UNL     1       0.023  21.047  51.415  1.00  0.00    -0.299 OA
ATOM     16  C   UNL     1       1.566  22.310  50.145  1.00  0.00     0.080 C 
ATOM     17  C   UNL     1       1.933  22.108  48.666  1.00  0.00     0.007 C 
ATOM     18  C   UNL     1       0.721  21.118  46.607  1.00  0.00     0.008 C 
ATOM     19  C   UNL     1      -0.090  23.235  47.667  1.00  0.00     0.012 C 
ATOM     20  C   UNL     1       2.987  20.950  48.537  1.00  0.00     0.001 C 
ATOM     21  C   UNL     1       1.652  19.916  46.663  1.00  0.00     0.005 C 
ATOM     22  C   UNL     1       3.061  20.338  47.122  1.00  0.00     0.003 C 
ATOM     23  C   UNL     1       4.386  21.493  48.883  1.00  0.00     0.031 C 
ATOM     24  C   UNL     1       4.135  19.170  47.013  1.00  0.00    -0.008 C 
ATOM     25  C   UNL     1       5.424  20.421  48.803  1.00  0.00    -0.027 C 
ATOM     26  C   UNL     1       5.353  19.401  47.926  1.00  0.00    -0.065 C 
ATOM     27  C   UNL     1       3.526  17.786  47.416  1.00  0.00     0.014 C 
ATOM     28  C   UNL     1       4.623  19.116  45.542  1.00  0.00     0.016 C 
ATOM     29  C   UNL     1       6.394  18.304  48.010  1.00  0.00     0.063 C 
ATOM     30  C   UNL     1       4.559  16.645  47.515  1.00  0.00     0.033 C 
ATOM     31  C   UNL     1       5.723  17.002  48.454  1.00  0.00     0.118 C 
BRANCH  31  32
ATOM     32  O   UNL     1       6.674  15.970  48.451  1.00  0.00    -0.393 OA
ATOM     33  H   UNL     1       7.200  16.062  49.288  1.00  0.00     0.210 HD
ENDBRANCH  31  32
ENDBRANCH  10  12
ENDBRANCH   8  10
ENDBRANCH   1   8
TORSDOF 8
ENDMDL
MODEL 3
REMARK VINA RESULT:    -7.171      1.602      2.261
REMARK INTER + INTRA:         -10.622
REMARK INTER:                 -10.055
REMARK INTRA:                  -0.566
REMARK UNBOUND:                -0.515
REMARK SMILES C[C@@H](CO)CCC(=O)[C@@H](C)[C@@H]1C(=O)C[C@H]2[C@@H]3CC=C4C[C@H](O)CC[C@@]4(C)[C@H]3CC[C@]21C
REMARK SMILES IDX 6 1 5 2 2 3 1 4 3 5 4 6 7 8 8 9 9 10 10 11 11 12 12 13 30 14
REMARK SMILES IDX 13 15 14 16 15 17 29 18 31 19 16 20 28 21 27 22 17 23 25 24
REMARK SMILES IDX 18 25 19 26 24 27 26 28 20 29 23 30 21 31 22 32
REMARK H PARENT 4 7 22 33
REMARK Flexibility Score: inf
ROOT
ATOM      1  C   UNL     1       1.006  18.941  47.655  1.00  0.00     0.076 C 
ENDROOT
BRANCH   1   2
ATOM      2  C   UNL     1      -0.479  18.827  47.230  1.00  0.00     0.013 C 
BRANCH   2   3
ATOM      3  C   UNL     1      -1.456  18.296  48.311  1.00  0.00     0.012 C 
ATOM      4  C   UNL     1      -2.658  19.221  48.549  1.00  0.00     0.010 C 
BRANCH   3   5
ATOM      5  C   UNL     1      -1.876  16.828  48.089  1.00  0.00     0.159 C 
BRANCH   5   6
ATOM      6  O   UNL     1      -0.899  15.923  48.529  1.00  0.00    -0.396 OA
ATOM      7  H   UNL     1      -0.082  16.451  48.721  1.00  0.00     0.210 HD
ENDBRANCH   5   6
ENDBRANCH   3   5
ENDBRANCH   2   3
ENDBRANCH   1   2
BRANCH   1   8
ATOM      8  C   UNL     1       1.848  17.774  47.185  1.00  0.00     0.136 C 
ATOM      9  O   UNL     1       1.298  16.801  46.690  1.00  0.00    -0.299 OA
BRANCH   8  10
ATOM     10  C   UNL     1       3.340  17.729  47.461  1.00  0.00     0.064 C 
ATOM     11  C   UNL     1       3.646  16.341  48.054  1.00  0.00     0.017 C 
BRANCH  10  12
ATOM     12  C   UNL     1       4.198  18.036  46.178  1.00  0.00     0.072 C 
ATOM     13  C   UNL     1       4.690  16.790  45.494  1.00  0.00     0.137 C 
ATOM     14  C   UNL     1       5.535  18.845  46.382  1.00  0.00    -0.019 C 
ATOM     15  O   UNL     1       3.960  15.882  45.130  1.00  0.00    -0.299 OA
ATOM     16  C   UNL     1       6.130  16.821  45.143  1.00  0.00     0.080 C 
ATOM     17  C   UNL     1       6.495  18.309  45.263  1.00  0.00     0.007 C 
ATOM     18  C   UNL     1       5.359  20.385  46.305  1.00  0.00     0.008 C 
ATOM     19  C   UNL     1       6.189  18.525  47.757  1.00  0.00     0.012 C 
ATOM     20  C   UNL     1       6.356  19.001  43.860  1.00  0.00     0.001 C 
ATOM     21  C   UNL     1       5.072  20.906  44.903  1.00  0.00     0.005 C 
ATOM     22  C   UNL     1       6.216  20.536  43.939  1.00  0.00     0.003 C 
ATOM     23  C   UNL     1       7.603  18.691  43.011  1.00  0.00     0.031 C 
ATOM     24  C   UNL     1       6.078  21.216  42.509  1.00  0.00    -0.008 C 
ATOM     25  C   UNL     1       7.507  19.304  41.653  1.00  0.00    -0.027 C 
ATOM     26  C   UNL     1       6.874  20.471  41.422  1.00  0.00    -0.065 C 
ATOM     27  C   UNL     1       4.589  21.257  42.030  1.00  0.00     0.014 C 
ATOM     28  C   UNL     1       6.630  22.662  42.620  1.00  0.00     0.016 C 
ATOM     29  C   UNL     1       6.731  20.942  39.989  1.00  0.00     0.063 C 
ATOM     30  C   UNL     1       4.406  21.730  40.573  1.00  0.00     0.033 C 
ATOM     31  C   UNL     1       5.253  20.906  39.590  1.00  0.00     0.118 C 
BRANCH  31  32
ATOM     32  O   UNL     1       5.116  21.422  38.291  1.00  0.00    -0.393 OA
ATOM     33  H   UNL     1       4.618  22.277  38.373  1.00  0.00     0.210 HD
ENDBRANCH  31  32
ENDBRANCH  10  12
ENDBRANCH   8  10
ENDBRANCH   1   8
TORSDOF 8
ENDMDL
MODEL 4
REMARK VINA RESULT:    -7.004      1.158      1.534
REMARK INTER + INTRA:         -10.386
REMARK INTER:                  -9.318
REMARK INTRA:                  -1.068
REMARK UNBOUND:                -0.515
REMARK SMILES C[C@@H](CO)CCC(=O)[C@@H](C)[C@@H]1C(=O)C[C@H]2[C@@H]3CC=C4C[C@H](O)CC[C@@]4(C)[C@H]3CC[C@]21C
REMARK SMILES IDX 6 1 5 2 2 3 1 4 3 5 4 6 7 8 8 9 9 10 10 11 11 12 12 13 30 14
REMARK SMILES IDX 13 15 14 16 15 17 29 18 31 19 16 20 28 21 27 22 17 23 25 24
REMARK SMILES IDX 18 25 19 26 24 27 26 28 20 29 23 30 21 31 22 32
REMARK H PARENT 4 7 22 33
REMARK Flexibility Score: inf
ROOT
ATOM      1  C   UNL     1       0.414  20.068  46.623  1.00  0.00     0.076 C 
ENDROOT
BRANCH   1   2
ATOM      2  C   UNL     1       0.561  21.281  47.575  1.00  0.00     0.013 C 
BRANCH   2   3
ATOM      3  C   UNL     1       1.021  20.957  49.020  1.00  0.00     0.012 C 
ATOM      4  C   UNL     1       2.416  21.507  49.350  1.00  0.00     0.010 C 
BRANCH   3   5
ATOM      5  C   UNL     1      -0.026  21.323  50.093  1.00  0.00     0.159 C 
BRANCH   5   6
ATOM      6  O   UNL     1      -1.102  20.423  50.115  1.00  0.00    -0.396 OA
ATOM      7  H   UNL     1      -1.878  20.910  50.494  1.00  0.00     0.210 HD
ENDBRANCH   5   6
ENDBRANCH   3   5
ENDBRANCH   2   3
ENDBRANCH   1   2
BRANCH   1   8
ATOM      8  C   UNL     1      -0.025  18.806  47.334  1.00  0.00     0.136 C 
ATOM      9  O   UNL     1      -1.104  18.787  47.908  1.00  0.00    -0.299 OA
BRANCH   8  10
ATOM     10  C   UNL     1       0.917  17.624  47.473  1.00  0.00     0.064 C 
ATOM     11  C   UNL     1       0.065  16.350  47.322  1.00  0.00     0.017 C 
BRANCH  10  12
ATOM     12  C   UNL     1       2.105  17.677  46.443  1.00  0.00     0.072 C 
ATOM     13  C   UNL     1       2.211  16.430  45.609  1.00  0.00     0.137 C 
ATOM     14  C   UNL     1       3.563  17.799  47.030  1.00  0.00    -0.019 C 
ATOM     15  O   UNL     1       1.290  15.976  44.948  1.00  0.00    -0.299 OA
ATOM     16  C   UNL     1       3.583  15.876  45.517  1.00  0.00     0.080 C 
ATOM     17  C   UNL     1       4.468  17.036  46.001  1.00  0.00     0.007 C 
ATOM     18  C   UNL     1       4.037  19.262  47.244  1.00  0.00     0.008 C 
ATOM     19  C   UNL     1       3.688  17.070  48.399  1.00  0.00     0.012 C 
ATOM     20  C   UNL     1       4.955  17.878  44.767  1.00  0.00     0.001 C 
ATOM     21  C   UNL     1       4.324  20.015  45.953  1.00  0.00     0.005 C 
ATOM     22  C   UNL     1       5.421  19.303  45.138  1.00  0.00     0.003 C 
ATOM     23  C   UNL     1       6.139  17.161  44.094  1.00  0.00     0.031 C 
ATOM     24  C   UNL     1       5.910  20.137  43.876  1.00  0.00    -0.008 C 
ATOM     25  C   UNL     1       6.622  17.910  42.895  1.00  0.00    -0.027 C 
ATOM     26  C   UNL     1       6.578  19.254  42.807  1.00  0.00    -0.065 C 
ATOM     27  C   UNL     1       4.721  20.873  43.174  1.00  0.00     0.014 C 
ATOM     28  C   UNL     1       6.946  21.179  44.374  1.00  0.00     0.016 C 
ATOM     29  C   UNL     1       6.981  19.904  41.500  1.00  0.00     0.063 C 
ATOM     30  C   UNL     1       5.093  21.545  41.836  1.00  0.00     0.033 C 
ATOM     31  C   UNL     1       5.752  20.557  40.860  1.00  0.00     0.118 C 
BRANCH  31  32
ATOM     32  O   UNL     1       6.145  21.229  39.692  1.00  0.00    -0.393 OA
ATOM     33  H   UNL     1       7.113  21.046  39.567  1.00  0.00     0.210 HD
ENDBRANCH  31  32
ENDBRANCH  10  12
ENDBRANCH   8  10
ENDBRANCH   1   8
TORSDOF 8
ENDMDL
MODEL 5
REMARK VINA RESULT:    -6.858      1.641      2.252
REMARK INTER + INTRA:         -10.179
REMARK INTER:                  -9.810
REMARK INTRA:                  -0.369
REMARK UNBOUND:                -0.515
REMARK SMILES C[C@@H](CO)CCC(=O)[C@@H](C)[C@@H]1C(=O)C[C@H]2[C@@H]3CC=C4C[C@H](O)CC[C@@]4(C)[C@H]3CC[C@]21C
REMARK SMILES IDX 6 1 5 2 2 3 1 4 3 5 4 6 7 8 8 9 9 10 10 11 11 12 12 13 30 14
REMARK SMILES IDX 13 15 14 16 15 17 29 18 31 19 16 20 28 21 27 22 17 23 25 24
REMARK SMILES IDX 18 25 19 26 24 27 26 28 20 29 23 30 21 31 22 32
REMARK H PARENT 4 7 22 33
REMARK Flexibility Score: inf
ROOT
ATOM      1  C   UNL     1       1.469  19.412  47.431  1.00  0.00     0.076 C 
ENDROOT
BRANCH   1   2
ATOM      2  C   UNL     1       0.156  19.422  48.252  1.00  0.00     0.013 C 
BRANCH   2   3
ATOM      3  C   UNL     1      -1.155  19.266  47.439  1.00  0.00     0.012 C 
ATOM      4  C   UNL     1      -2.191  18.365  48.126  1.00  0.00     0.010 C 
BRANCH   3   5
ATOM      5  C   UNL     1      -1.756  20.613  46.982  1.00  0.00     0.159 C 
BRANCH   5   6
ATOM      6  O   UNL     1      -1.415  20.925  45.658  1.00  0.00    -0.396 OA
ATOM      7  H   UNL     1      -1.345  21.913  45.604  1.00  0.00     0.210 HD
ENDBRANCH   5   6
ENDBRANCH   3   5
ENDBRANCH   2   3
ENDBRANCH   1   2
BRANCH   1   8
ATOM      8  C   UNL     1       2.113  18.044  47.362  1.00  0.00     0.136 C 
ATOM      9  O   UNL     1       1.404  17.051  47.282  1.00  0.00    -0.299 OA
BRANCH   8  10
ATOM     10  C   UNL     1       3.611  17.879  47.545  1.00  0.00     0.064 C 
ATOM     11  C   UNL     1       3.843  16.457  48.089  1.00  0.00     0.017 C 
BRANCH  10  12
ATOM     12  C   UNL     1       4.412  18.151  46.218  1.00  0.00     0.072 C 
ATOM     13  C   UNL     1       4.803  16.888  45.502  1.00  0.00     0.137 C 
ATOM     14  C   UNL     1       5.798  18.890  46.351  1.00  0.00    -0.019 C 
ATOM     15  O   UNL     1       4.009  16.020  45.174  1.00  0.00    -0.299 OA
ATOM     16  C   UNL     1       6.221  16.847  45.073  1.00  0.00     0.080 C 
ATOM     17  C   UNL     1       6.667  18.314  45.179  1.00  0.00     0.007 C 
ATOM     18  C   UNL     1       5.696  20.438  46.291  1.00  0.00     0.008 C 
ATOM     19  C   UNL     1       6.509  18.527  47.687  1.00  0.00     0.012 C 
ATOM     20  C   UNL     1       6.487  19.023  43.789  1.00  0.00     0.001 C 
ATOM     21  C   UNL     1       5.360  20.982  44.910  1.00  0.00     0.005 C 
ATOM     22  C   UNL     1       6.430  20.563  43.883  1.00  0.00     0.003 C 
ATOM     23  C   UNL     1       7.669  18.656  42.872  1.00  0.00     0.031 C 
ATOM     24  C   UNL     1       6.249  21.260  42.465  1.00  0.00    -0.008 C 
ATOM     25  C   UNL     1       7.530  19.284  41.523  1.00  0.00    -0.027 C 
ATOM     26  C   UNL     1       6.945  20.483  41.333  1.00  0.00    -0.065 C 
ATOM     27  C   UNL     1       4.740  21.379  42.069  1.00  0.00     0.014 C 
ATOM     28  C   UNL     1       6.879  22.674  42.553  1.00  0.00     0.016 C 
ATOM     29  C   UNL     1       6.749  20.971  39.913  1.00  0.00     0.063 C 
ATOM     30  C   UNL     1       4.502  21.871  40.627  1.00  0.00     0.033 C 
ATOM     31  C   UNL     1       5.252  21.013  39.595  1.00  0.00     0.118 C 
BRANCH  31  32
ATOM     32  O   UNL     1       5.070  21.545  38.308  1.00  0.00    -0.393 OA
ATOM     33  H   UNL     1       4.433  20.946  37.838  1.00  0.00     0.210 HD
ENDBRANCH  31  32
ENDBRANCH  10  12
ENDBRANCH   8  10
ENDBRANCH   1   8
TORSDOF 8
ENDMDL
MODEL 6
REMARK VINA RESULT:    -6.813      6.274     10.176
REMARK INTER + INTRA:         -10.117
REMARK INTER:                  -9.474
REMARK INTRA:                  -0.643
REMARK UNBOUND:                -0.515
REMARK SMILES C[C@@H](CO)CCC(=O)[C@@H](C)[C@@H]1C(=O)C[C@H]2[C@@H]3CC=C4C[C@H](O)CC[C@@]4(C)[C@H]3CC[C@]21C
REMARK SMILES IDX 6 1 5 2 2 3 1 4 3 5 4 6 7 8 8 9 9 10 10 11 11 12 12 13 30 14
REMARK SMILES IDX 13 15 14 16 15 17 29 18 31 19 16 20 28 21 27 22 17 23 25 24
REMARK SMILES IDX 18 25 19 26 24 27 26 28 20 29 23 30 21 31 22 32
REMARK H PARENT 4 7 22 33
REMARK Flexibility Score: inf
ROOT
ATOM      1  C   UNL     1      -5.271  27.479  47.002  1.00  0.00     0.076 C 
ENDROOT
BRANCH   1   2
ATOM      2  C   UNL     1      -6.591  28.284  47.088  1.00  0.00     0.013 C 
BRANCH   2   3
ATOM      3  C   UNL     1      -7.863  27.561  46.575  1.00  0.00     0.012 C 
ATOM      4  C   UNL     1      -7.559  26.438  45.573  1.00  0.00     0.010 C 
BRANCH   3   5
ATOM      5  C   UNL     1      -8.806  27.101  47.707  1.00  0.00     0.159 C 
BRANCH   5   6
ATOM      6  O   UNL     1      -8.229  26.104  48.507  1.00  0.00    -0.396 OA
ATOM      7  H   UNL     1      -8.158  26.475  49.424  1.00  0.00     0.210 HD
ENDBRANCH   5   6
ENDBRANCH   3   5
ENDBRANCH   2   3
ENDBRANCH   1   2
BRANCH   1   8
ATOM      8  C   UNL     1      -4.710  27.115  48.360  1.00  0.00     0.136 C 
ATOM      9  O   UNL     1      -5.479  26.868  49.278  1.00  0.00    -0.299 OA
BRANCH   8  10
ATOM     10  C   UNL     1      -3.220  27.202  48.635  1.00  0.00     0.064 C 
ATOM     11  C   UNL     1      -3.027  28.270  49.729  1.00  0.00     0.017 C 
BRANCH  10  12
ATOM     12  C   UNL     1      -2.601  25.813  49.038  1.00  0.00     0.072 C 
ATOM     13  C   UNL     1      -2.391  25.675  50.521  1.00  0.00     0.137 C 
ATOM     14  C   UNL     1      -1.169  25.472  48.475  1.00  0.00    -0.019 C 
ATOM     15  O   UNL     1      -3.274  25.836  51.348  1.00  0.00    -0.299 OA
ATOM     16  C   UNL     1      -1.053  25.161  50.899  1.00  0.00     0.080 C 
ATOM     17  C   UNL     1      -0.510  24.579  49.584  1.00  0.00     0.007 C 
ATOM     18  C   UNL     1      -1.186  24.762  47.094  1.00  0.00     0.008 C 
ATOM     19  C   UNL     1      -0.298  26.752  48.322  1.00  0.00     0.012 C 
ATOM     20  C   UNL     1      -0.844  23.045  49.508  1.00  0.00     0.001 C 
ATOM     21  C   UNL     1      -1.682  23.324  47.144  1.00  0.00     0.005 C 
ATOM     22  C   UNL     1      -0.796  22.473  48.075  1.00  0.00     0.003 C 
ATOM     23  C   UNL     1       0.172  22.259  50.357  1.00  0.00     0.031 C 
ATOM     24  C   UNL     1      -1.135  20.920  48.021  1.00  0.00    -0.008 C 
ATOM     25  C   UNL     1      -0.119  20.794  50.342  1.00  0.00    -0.027 C 
ATOM     26  C   UNL     1      -0.653  20.168  49.275  1.00  0.00    -0.065 C 
ATOM     27  C   UNL     1      -2.675  20.669  47.908  1.00  0.00     0.014 C 
ATOM     28  C   UNL     1      -0.416  20.325  46.782  1.00  0.00     0.016 C 
ATOM     29  C   UNL     1      -1.020  18.704  49.408  1.00  0.00     0.063 C 
ATOM     30  C   UNL     1      -3.086  19.189  48.042  1.00  0.00     0.033 C 
ATOM     31  C   UNL     1      -2.542  18.555  49.333  1.00  0.00     0.118 C 
BRANCH  31  32
ATOM     32  O   UNL     1      -2.873  17.191  49.373  1.00  0.00    -0.393 OA
ATOM     33  H   UNL     1      -2.030  16.688  49.227  1.00  0.00     0.210 HD
ENDBRANCH  31  32
ENDBRANCH  10  12
ENDBRANCH   8  10
ENDBRANCH   1   8
TORSDOF 8
ENDMDL
MODEL 7
REMARK VINA RESULT:    -6.696      3.080      8.297
REMARK INTER + INTRA:          -9.952
REMARK INTER:                  -9.116
REMARK INTRA:                  -0.836
REMARK UNBOUND:                -0.515
REMARK SMILES C[C@@H](CO)CCC(=O)[C@@H](C)[C@@H]1C(=O)C[C@H]2[C@@H]3CC=C4C[C@H](O)CC[C@@]4(C)[C@H]3CC[C@]21C
REMARK SMILES IDX 6 1 5 2 2 3 1 4 3 5 4 6 7 8 8 9 9 10 10 11 11 12 12 13 30 14
REMARK SMILES IDX 13 15 14 16 15 17 29 18 31 19 16 20 28 21 27 22 17 23 25 24
REMARK SMILES IDX 18 25 19 26 24 27 26 28 20 29 23 30 21 31 22 32
REMARK H PARENT 4 7 22 33
REMARK Flexibility Score: inf
ROOT
ATOM      1  C   UNL     1       8.788  19.500  42.267  1.00  0.00     0.076 C 
ENDROOT
BRANCH   1   2
ATOM      2  C   UNL     1       8.124  20.010  40.965  1.00  0.00     0.013 C 
BRANCH   2   3
ATOM      3  C   UNL     1       6.574  20.022  40.952  1.00  0.00     0.012 C 
ATOM      4  C   UNL     1       5.954  19.892  42.350  1.00  0.00     0.010 C 
BRANCH   3   5
ATOM      5  C   UNL     1       5.977  21.197  40.149  1.00  0.00     0.159 C 
BRANCH   5   6
ATOM      6  O   UNL     1       5.176  20.762  39.083  1.00  0.00    -0.396 OA
ATOM      7  H   UNL     1       4.299  21.214  39.178  1.00  0.00     0.210 HD
ENDBRANCH   5   6
ENDBRANCH   3   5
ENDBRANCH   2   3
ENDBRANCH   1   2
BRANCH   1   8
ATOM      8  C   UNL     1       9.919  20.386  42.742  1.00  0.00     0.136 C 
ATOM      9  O   UNL     1      10.982  20.376  42.137  1.00  0.00    -0.299 OA
BRANCH   8  10
ATOM     10  C   UNL     1       9.807  21.164  44.041  1.00  0.00     0.064 C 
ATOM     11  C   UNL     1       9.777  22.658  43.668  1.00  0.00     0.017 C 
BRANCH  10  12
ATOM     12  C   UNL     1       8.556  20.733  44.893  1.00  0.00     0.072 C 
ATOM     13  C   UNL     1       7.594  21.864  45.131  1.00  0.00     0.137 C 
ATOM     14  C   UNL     1       8.824  20.221  46.359  1.00  0.00    -0.019 C 
ATOM     15  O   UNL     1       7.104  22.538  44.239  1.00  0.00    -0.299 OA
ATOM     16  C   UNL     1       7.153  21.998  46.540  1.00  0.00     0.080 C 
ATOM     17  C   UNL     1       7.551  20.653  47.168  1.00  0.00     0.007 C 
ATOM     18  C   UNL     1       9.081  18.693  46.457  1.00  0.00     0.008 C 
ATOM     19  C   UNL     1      10.051  20.935  46.995  1.00  0.00     0.012 C 
ATOM     20  C   UNL     1       6.336  19.660  47.103  1.00  0.00     0.001 C 
ATOM     21  C   UNL     1       7.843  17.841  46.217  1.00  0.00     0.005 C 
ATOM     22  C   UNL     1       6.742  18.177  47.241  1.00  0.00     0.003 C 
ATOM     23  C   UNL     1       5.352  19.981  48.244  1.00  0.00     0.031 C 
ATOM     24  C   UNL     1       5.497  17.190  47.175  1.00  0.00    -0.008 C 
ATOM     25  C   UNL     1       4.161  19.081  48.210  1.00  0.00    -0.027 C 
ATOM     26  C   UNL     1       4.224  17.804  47.786  1.00  0.00    -0.065 C 
ATOM     27  C   UNL     1       5.147  16.800  45.701  1.00  0.00     0.014 C 
ATOM     28  C   UNL     1       5.866  15.915  47.979  1.00  0.00     0.016 C 
ATOM     29  C   UNL     1       2.935  17.015  47.678  1.00  0.00     0.063 C 
ATOM     30  C   UNL     1       3.838  15.999  45.552  1.00  0.00     0.033 C 
ATOM     31  C   UNL     1       2.646  16.718  46.204  1.00  0.00     0.118 C 
BRANCH  31  32
ATOM     32  O   UNL     1       1.496  15.918  46.113  1.00  0.00    -0.393 OA
ATOM     33  H   UNL     1       1.573  15.224  46.820  1.00  0.00     0.210 HD
ENDBRANCH  31  32
ENDBRANCH  10  12
ENDBRANCH   8  10
ENDBRANCH   1   8
TORSDOF 8
ENDMDL
MODEL 8
REMARK VINA RESULT:    -6.690      3.929      8.986
REMARK INTER + INTRA:          -9.943
REMARK INTER:                  -8.809
REMARK INTRA:                  -1.133
REMARK UNBOUND:                -0.515
REMARK SMILES C[C@@H](CO)CCC(=O)[C@@H](C)[C@@H]1C(=O)C[C@H]2[C@@H]3CC=C4C[C@H](O)CC[C@@]4(C)[C@H]3CC[C@]21C
REMARK SMILES IDX 6 1 5 2 2 3 1 4 3 5 4 6 7 8 8 9 9 10 10 11 11 12 12 13 30 14
REMARK SMILES IDX 13 15 14 16 15 17 29 18 31 19 16 20 28 21 27 22 17 23 25 24
REMARK SMILES IDX 18 25 19 26 24 27 26 28 20 29 23 30 21 31 22 32
REMARK H PARENT 4 7 22 33
REMARK Flexibility Score: inf
ROOT
ATOM      1  C   UNL     1      -0.113  19.397  46.698  1.00  0.00     0.076 C 
ENDROOT
BRANCH   1   2
ATOM      2  C   UNL     1      -1.280  18.703  47.443  1.00  0.00     0.013 C 
BRANCH   2   3
ATOM      3  C   UNL     1      -1.364  18.966  48.969  1.00  0.00     0.012 C 
ATOM      4  C   UNL     1      -2.382  20.053  49.342  1.00  0.00     0.010 C 
BRANCH   3   5
ATOM      5  C   UNL     1      -1.542  17.679  49.803  1.00  0.00     0.159 C 
BRANCH   5   6
ATOM      6  O   UNL     1      -0.540  16.733  49.542  1.00  0.00    -0.396 OA
ATOM      7  H   UNL     1      -0.189  16.928  48.635  1.00  0.00     0.210 HD
ENDBRANCH   5   6
ENDBRANCH   3   5
ENDBRANCH   2   3
ENDBRANCH   1   2
BRANCH   1   8
ATOM      8  C   UNL     1       1.240  19.096  47.305  1.00  0.00     0.136 C 
ATOM      9  O   UNL     1       1.492  17.956  47.670  1.00  0.00    -0.299 OA
BRANCH   8  10
ATOM     10  C   UNL     1       2.224  20.211  47.608  1.00  0.00     0.064 C 
ATOM     11  C   UNL     1       3.065  20.425  46.335  1.00  0.00     0.017 C 
BRANCH  10  12
ATOM     12  C   UNL     1       1.509  21.530  48.083  1.00  0.00     0.072 C 
ATOM     13  C   UNL     1       1.434  22.575  47.004  1.00  0.00     0.137 C 
ATOM     14  C   UNL     1       2.182  22.329  49.263  1.00  0.00    -0.019 C 
ATOM     15  O   UNL     1       0.949  22.378  45.901  1.00  0.00    -0.299 OA
ATOM     16  C   UNL     1       1.852  23.929  47.441  1.00  0.00     0.080 C 
ATOM     17  C   UNL     1       1.829  23.831  48.975  1.00  0.00     0.007 C 
ATOM     18  C   UNL     1       1.714  21.885  50.675  1.00  0.00     0.008 C 
ATOM     19  C   UNL     1       3.732  22.195  49.229  1.00  0.00     0.012 C 
ATOM     20  C   UNL     1       0.437  24.317  49.515  1.00  0.00     0.001 C 
ATOM     21  C   UNL     1       0.284  22.288  51.007  1.00  0.00     0.005 C 
ATOM     22  C   UNL     1       0.119  23.819  50.941  1.00  0.00     0.003 C 
ATOM     23  C   UNL     1       0.409  25.856  49.543  1.00  0.00     0.031 C 
ATOM     24  C   UNL     1      -1.293  24.323  51.469  1.00  0.00    -0.008 C 
ATOM     25  C   UNL     1      -0.909  26.371  50.023  1.00  0.00    -0.027 C 
ATOM     26  C   UNL     1      -1.658  25.720  50.934  1.00  0.00    -0.065 C 
ATOM     27  C   UNL     1      -2.448  23.359  51.038  1.00  0.00     0.014 C 
ATOM     28  C   UNL     1      -1.220  24.391  53.017  1.00  0.00     0.016 C 
ATOM     29  C   UNL     1      -3.032  26.268  51.261  1.00  0.00     0.063 C 
ATOM     30  C   UNL     1      -3.863  23.887  51.353  1.00  0.00     0.033 C 
ATOM     31  C   UNL     1      -4.099  25.288  50.766  1.00  0.00     0.118 C 
BRANCH  31  32
ATOM     32  O   UNL     1      -5.366  25.758  51.144  1.00  0.00    -0.393 OA
ATOM     33  H   UNL     1      -5.847  25.991  50.307  1.00  0.00     0.210 HD
ENDBRANCH  31  32
ENDBRANCH  10  12
ENDBRANCH   8  10
ENDBRANCH   1   8
TORSDOF 8
ENDMDL
MODEL 9
REMARK VINA RESULT:    -6.471      2.738      7.181
REMARK INTER + INTRA:          -9.634
REMARK INTER:                  -8.036
REMARK INTRA:                  -1.598
REMARK UNBOUND:                -0.515
REMARK SMILES C[C@@H](CO)CCC(=O)[C@@H](C)[C@@H]1C(=O)C[C@H]2[C@@H]3CC=C4C[C@H](O)CC[C@@]4(C)[C@H]3CC[C@]21C
REMARK SMILES IDX 6 1 5 2 2 3 1 4 3 5 4 6 7 8 8 9 9 10 10 11 11 12 12 13 30 14
REMARK SMILES IDX 13 15 14 16 15 17 29 18 31 19 16 20 28 21 27 22 17 23 25 24
REMARK SMILES IDX 18 25 19 26 24 27 26 28 20 29 23 30 21 31 22 32
REMARK H PARENT 4 7 22 33
REMARK Flexibility Score: inf
ROOT
ATOM      1  C   UNL     1       5.848  17.118  48.412  1.00  0.00     0.076 C 
ENDROOT
BRANCH   1   2
ATOM      2  C   UNL     1       5.164  15.876  47.789  1.00  0.00     0.013 C 
BRANCH   2   3
ATOM      3  C   UNL     1       3.804  16.129  47.088  1.00  0.00     0.012 C 
ATOM      4  C   UNL     1       3.119  17.425  47.544  1.00  0.00     0.010 C 
BRANCH   3   5
ATOM      5  C   UNL     1       3.876  16.009  45.551  1.00  0.00     0.159 C 
BRANCH   5   6
ATOM      6  O   UNL     1       5.196  16.004  45.079  1.00  0.00    -0.396 OA
ATOM      7  H   UNL     1       5.225  15.380  44.309  1.00  0.00     0.210 HD
ENDBRANCH   5   6
ENDBRANCH   3   5
ENDBRANCH   2   3
ENDBRANCH   1   2
BRANCH   1   8
ATOM      8  C   UNL     1       7.064  17.577  47.635  1.00  0.00     0.136 C 
ATOM      9  O   UNL     1       7.985  16.794  47.448  1.00  0.00    -0.299 OA
BRANCH   8  10
ATOM     10  C   UNL     1       7.222  19.029  47.223  1.00  0.00     0.064 C 
ATOM     11  C   UNL     1       8.185  19.052  46.021  1.00  0.00     0.017 C 
BRANCH  10  12
ATOM     12  C   UNL     1       5.843  19.715  46.901  1.00  0.00     0.072 C 
ATOM     13  C   UNL     1       5.576  19.825  45.425  1.00  0.00     0.137 C 
ATOM     14  C   UNL     1       5.651  21.205  47.376  1.00  0.00    -0.019 C 
ATOM     15  O   UNL     1       5.599  18.875  44.659  1.00  0.00    -0.299 OA
ATOM     16  C   UNL     1       5.116  21.165  44.989  1.00  0.00     0.080 C 
ATOM     17  C   UNL     1       4.699  21.843  46.304  1.00  0.00     0.007 C 
ATOM     18  C   UNL     1       5.078  21.341  48.813  1.00  0.00     0.008 C 
ATOM     19  C   UNL     1       6.994  21.991  47.341  1.00  0.00     0.012 C 
ATOM     20  C   UNL     1       3.163  21.628  46.546  1.00  0.00     0.001 C 
ATOM     21  C   UNL     1       3.613  20.948  48.934  1.00  0.00     0.005 C 
ATOM     22  C   UNL     1       2.735  21.822  48.017  1.00  0.00     0.003 C 
ATOM     23  C   UNL     1       2.365  22.632  45.693  1.00  0.00     0.031 C 
ATOM     24  C   UNL     1       1.177  21.600  48.239  1.00  0.00    -0.008 C 
ATOM     25  C   UNL     1       0.893  22.449  45.866  1.00  0.00    -0.027 C 
ATOM     26  C   UNL     1       0.339  22.041  47.024  1.00  0.00    -0.065 C 
ATOM     27  C   UNL     1       0.838  20.095  48.497  1.00  0.00     0.014 C 
ATOM     28  C   UNL     1       0.752  22.449  49.466  1.00  0.00     0.016 C 
ATOM     29  C   UNL     1      -1.151  21.772  47.055  1.00  0.00     0.063 C 
ATOM     30  C   UNL     1      -0.672  19.782  48.532  1.00  0.00     0.033 C 
ATOM     31  C   UNL     1      -1.390  20.274  47.265  1.00  0.00     0.118 C 
BRANCH  31  32
ATOM     32  O   UNL     1      -2.770  20.040  47.376  1.00  0.00    -0.393 OA
ATOM     33  H   UNL     1      -3.148  20.114  46.461  1.00  0.00     0.210 HD
ENDBRANCH  31  32
ENDBRANCH  10  12
ENDBRANCH   8  10
ENDBRANCH   1   8
TORSDOF 8
ENDMDL
