MODEL 1
REMARK VINA RESULT:    -4.426      0.000      0.000
REMARK INTER + INTRA:         -15.256
REMARK INTER:                 -11.541
REMARK INTRA:                  -3.714
REMARK UNBOUND:                -3.714
REMARK SMILES CCCCCCCCCCCCCCCCCCCCCCCCCCCCCO
REMARK SMILES IDX 16 1 15 2 14 3 13 4 12 5 11 6 10 7 9 8 8 9 7 10 6 11 5 12
REMARK SMILES IDX 4 13 3 14 2 15 1 16 17 17 18 18 19 19 20 20 21 21 22 22
REMARK SMILES IDX 23 23 24 24 25 25 26 26 27 27 28 28 29 29 30 30
REMARK H PARENT 30 31
REMARK Flexibility Score: inf
ROOT
ATOM      1  C   UNL     1      -2.494  11.799  18.635  1.00  0.00     0.000 C 
ENDROOT
BRANCH   1   2
ATOM      2  C   UNL     1      -3.075  10.762  17.657  1.00  0.00     0.000 C 
BRANCH   2   3
ATOM      3  C   UNL     1      -2.276   9.447  17.538  1.00  0.00     0.000 C 
BRANCH   3   4
ATOM      4  C   UNL     1      -3.052   8.171  17.909  1.00  0.00     0.000 C 
BRANCH   4   5
ATOM      5  C   UNL     1      -4.311   8.459  18.745  1.00  0.00     0.000 C 
BRANCH   5   6
ATOM      6  C   UNL     1      -5.607   8.107  17.995  1.00  0.00     0.000 C 
BRANCH   6   7
ATOM      7  C   UNL     1      -6.839   8.090  18.917  1.00  0.00     0.000 C 
BRANCH   7   8
ATOM      8  C   UNL     1      -8.158   7.995  18.136  1.00  0.00    -0.000 C 
BRANCH   8   9
ATOM      9  C   UNL     1      -7.995   8.363  16.651  1.00  0.00    -0.000 C 
BRANCH   9  10
ATOM     10  C   UNL     1      -8.383   9.821  16.357  1.00  0.00    -0.000 C 
BRANCH  10  11
ATOM     11  C   UNL     1      -8.980  10.531  17.585  1.00  0.00    -0.000 C 
BRANCH  11  12
ATOM     12  C   UNL     1      -8.076  11.655  18.116  1.00  0.00    -0.000 C 
BRANCH  12  13
ATOM     13  C   UNL     1      -6.651  11.591  17.546  1.00  0.00    -0.000 C 
BRANCH  13  14
ATOM     14  C   UNL     1      -6.184  12.974  17.077  1.00  0.00    -0.000 C 
BRANCH  14  15
ATOM     15  C   UNL     1      -5.586  12.903  15.666  1.00  0.00    -0.003 C 
ATOM     16  C   UNL     1      -6.000  14.110  14.831  1.00  0.00     0.004 C 
ENDBRANCH  14  15
ENDBRANCH  13  14
ENDBRANCH  12  13
ENDBRANCH  11  12
ENDBRANCH  10  11
ENDBRANCH   9  10
ENDBRANCH   8   9
ENDBRANCH   7   8
ENDBRANCH   6   7
ENDBRANCH   5   6
ENDBRANCH   4   5
ENDBRANCH   3   4
ENDBRANCH   2   3
ENDBRANCH   1   2
BRANCH   1  17
ATOM     17  C   UNL     1      -1.592  11.223  19.742  1.00  0.00     0.000 C 
BRANCH  17  18
ATOM     18  C   UNL     1      -2.363  10.654  20.952  1.00  0.00     0.000 C 
BRANCH  18  19
ATOM     19  C   UNL     1      -1.822   9.289  21.413  1.00  0.00     0.000 C 
BRANCH  19  20
ATOM     20  C   UNL     1      -0.467   8.942  20.774  1.00  0.00     0.000 C 
BRANCH  20  21
ATOM     21  C   UNL     1       0.625   8.674  21.820  1.00  0.00     0.000 C 
BRANCH  21  22
ATOM     22  C   UNL     1       1.788   7.875  21.213  1.00  0.00     0.000 C 
BRANCH  22  23
ATOM     23  C   UNL     1       3.160   8.508  21.502  1.00  0.00     0.000 C 
BRANCH  23  24
ATOM     24  C   UNL     1       3.479   9.683  20.562  1.00  0.00     0.000 C 
BRANCH  24  25
ATOM     25  C   UNL     1       3.140  11.052  21.178  1.00  0.00     0.000 C 
BRANCH  25  26
ATOM     26  C   UNL     1       1.917  11.761  20.566  1.00  0.00     0.000 C 
BRANCH  26  27
ATOM     27  C   UNL     1       2.083  13.287  20.493  1.00  0.00     0.002 C 
BRANCH  27  28
ATOM     28  C   UNL     1       1.040  13.909  19.555  1.00  0.00     0.028 C 
BRANCH  28  29
ATOM     29  C   UNL     1       1.252  15.419  19.420  1.00  0.00     0.156 C 
BRANCH  29  30
ATOM     30  O   UNL     1       1.397  16.000  20.687  1.00  0.00    -0.396 OA
ATOM     31  H   UNL     1       1.486  15.253  21.334  1.00  0.00     0.210 HD
ENDBRANCH  29  30
ENDBRANCH  28  29
ENDBRANCH  27  28
ENDBRANCH  26  27
ENDBRANCH  25  26
ENDBRANCH  24  25
ENDBRANCH  23  24
ENDBRANCH  22  23
ENDBRANCH  21  22
ENDBRANCH  20  21
ENDBRANCH  19  20
ENDBRANCH  18  19
ENDBRANCH  17  18
ENDBRANCH   1  17
TORSDOF 28
ENDMDL
MODEL 2
REMARK VINA RESULT:    -4.142      2.226      9.105
REMARK INTER + INTRA:         -14.515
REMARK INTER:                 -11.477
REMARK INTRA:                  -3.038
REMARK UNBOUND:                -3.714
REMARK SMILES CCCCCCCCCCCCCCCCCCCCCCCCCCCCCO
REMARK SMILES IDX 16 1 15 2 14 3 13 4 12 5 11 6 10 7 9 8 8 9 7 10 6 11 5 12
REMARK SMILES IDX 4 13 3 14 2 15 1 16 17 17 18 18 19 19 20 20 21 21 22 22
REMARK SMILES IDX 23 23 24 24 25 25 26 26 27 27 28 28 29 29 30 30
REMARK H PARENT 30 31
REMARK Flexibility Score: inf
ROOT
ATOM      1  C   UNL     1      -1.064  10.863  20.196  1.00  0.00     0.000 C 
ENDROOT
BRANCH   1   2
ATOM      2  C   UNL     1      -0.172   9.609  20.175  1.00  0.00     0.000 C 
BRANCH   2   3
ATOM      3  C   UNL     1       0.271   9.091  21.560  1.00  0.00     0.000 C 
BRANCH   3   4
ATOM      4  C   UNL     1       1.450   8.102  21.545  1.00  0.00     0.000 C 
BRANCH   4   5
ATOM      5  C   UNL     1       2.537   8.452  22.575  1.00  0.00     0.000 C 
BRANCH   5   6
ATOM      6  C   UNL     1       3.957   8.303  22.002  1.00  0.00     0.000 C 
BRANCH   6   7
ATOM      7  C   UNL     1       4.532   9.638  21.494  1.00  0.00     0.000 C 
BRANCH   7   8
ATOM      8  C   UNL     1       4.199   9.899  20.017  1.00  0.00    -0.000 C 
BRANCH   8   9
ATOM      9  C   UNL     1       3.326  11.150  19.820  1.00  0.00    -0.000 C 
BRANCH   9  10
ATOM     10  C   UNL     1       2.873  11.772  21.151  1.00  0.00    -0.000 C 
BRANCH  10  11
ATOM     11  C   UNL     1       1.861  12.914  20.953  1.00  0.00    -0.000 C 
BRANCH  11  12
ATOM     12  C   UNL     1       1.649  13.267  19.472  1.00  0.00    -0.000 C 
BRANCH  12  13
ATOM     13  C   UNL     1       1.085  14.682  19.273  1.00  0.00    -0.000 C 
BRANCH  13  14
ATOM     14  C   UNL     1       1.457  15.593  20.449  1.00  0.00    -0.000 C 
BRANCH  14  15
ATOM     15  C   UNL     1       2.639  16.502  20.087  1.00  0.00    -0.003 C 
ATOM     16  C   UNL     1       2.926  17.502  21.203  1.00  0.00     0.004 C 
ENDBRANCH  14  15
ENDBRANCH  13  14
ENDBRANCH  12  13
ENDBRANCH  11  12
ENDBRANCH  10  11
ENDBRANCH   9  10
ENDBRANCH   8   9
ENDBRANCH   7   8
ENDBRANCH   6   7
ENDBRANCH   5   6
ENDBRANCH   4   5
ENDBRANCH   3   4
ENDBRANCH   2   3
ENDBRANCH   1   2
BRANCH   1  17
ATOM     17  C   UNL     1      -2.545  10.609  20.535  1.00  0.00     0.000 C 
BRANCH  17  18
ATOM     18  C   UNL     1      -3.112   9.301  19.945  1.00  0.00     0.000 C 
BRANCH  18  19
ATOM     19  C   UNL     1      -3.416   9.410  18.440  1.00  0.00     0.000 C 
BRANCH  19  20
ATOM     20  C   UNL     1      -4.439   8.365  17.966  1.00  0.00     0.000 C 
BRANCH  20  21
ATOM     21  C   UNL     1      -5.865   8.675  18.447  1.00  0.00     0.000 C 
BRANCH  21  22
ATOM     22  C   UNL     1      -6.903   8.305  17.378  1.00  0.00     0.000 C 
BRANCH  22  23
ATOM     23  C   UNL     1      -8.212   9.100  17.518  1.00  0.00     0.000 C 
BRANCH  23  24
ATOM     24  C   UNL     1      -8.121  10.505  16.898  1.00  0.00     0.000 C 
BRANCH  24  25
ATOM     25  C   UNL     1      -7.974  11.617  17.953  1.00  0.00     0.000 C 
BRANCH  25  26
ATOM     26  C   UNL     1      -6.824  12.610  17.703  1.00  0.00     0.000 C 
BRANCH  26  27
ATOM     27  C   UNL     1      -5.756  12.061  16.744  1.00  0.00     0.002 C 
BRANCH  27  28
ATOM     28  C   UNL     1      -6.059  12.463  15.295  1.00  0.00     0.028 C 
BRANCH  28  29
ATOM     29  C   UNL     1      -6.032  13.985  15.129  1.00  0.00     0.156 C 
BRANCH  29  30
ATOM     30  O   UNL     1      -6.230  14.327  13.785  1.00  0.00    -0.396 OA
ATOM     31  H   UNL     1      -7.203  14.243  13.611  1.00  0.00     0.210 HD
ENDBRANCH  29  30
ENDBRANCH  28  29
ENDBRANCH  27  28
ENDBRANCH  26  27
ENDBRANCH  25  26
ENDBRANCH  24  25
ENDBRANCH  23  24
ENDBRANCH  22  23
ENDBRANCH  21  22
ENDBRANCH  20  21
ENDBRANCH  19  20
ENDBRANCH  18  19
ENDBRANCH  17  18
ENDBRANCH   1  17
TORSDOF 28
ENDMDL
MODEL 3
REMARK VINA RESULT:    -3.976      1.988      8.807
REMARK INTER + INTRA:         -14.082
REMARK INTER:                 -10.348
REMARK INTRA:                  -3.734
REMARK UNBOUND:                -3.714
REMARK SMILES CCCCCCCCCCCCCCCCCCCCCCCCCCCCCO
REMARK SMILES IDX 16 1 15 2 14 3 13 4 12 5 11 6 10 7 9 8 8 9 7 10 6 11 5 12
REMARK SMILES IDX 4 13 3 14 2 15 1 16 17 17 18 18 19 19 20 20 21 21 22 22
REMARK SMILES IDX 23 23 24 24 25 25 26 26 27 27 28 28 29 29 30 30
REMARK H PARENT 30 31
REMARK Flexibility Score: inf
ROOT
ATOM      1  C   UNL     1      -2.517   9.890  17.778  1.00  0.00     0.000 C 
ENDROOT
BRANCH   1   2
ATOM      2  C   UNL     1      -1.698   8.587  17.725  1.00  0.00     0.000 C 
BRANCH   2   3
ATOM      3  C   UNL     1      -1.213   8.057  19.091  1.00  0.00     0.000 C 
BRANCH   3   4
ATOM      4  C   UNL     1      -0.240   8.982  19.846  1.00  0.00     0.000 C 
BRANCH   4   5
ATOM      5  C   UNL     1      -0.858   9.589  21.117  1.00  0.00     0.000 C 
BRANCH   5   6
ATOM      6  C   UNL     1      -0.018   9.298  22.373  1.00  0.00     0.000 C 
BRANCH   6   7
ATOM      7  C   UNL     1       0.989   8.154  22.159  1.00  0.00     0.000 C 
BRANCH   7   8
ATOM      8  C   UNL     1       2.437   8.583  22.438  1.00  0.00    -0.000 C 
BRANCH   8   9
ATOM      9  C   UNL     1       3.340   8.462  21.198  1.00  0.00    -0.000 C 
BRANCH   9  10
ATOM     10  C   UNL     1       4.254   9.683  21.010  1.00  0.00    -0.000 C 
BRANCH  10  11
ATOM     11  C   UNL     1       3.635  10.745  20.084  1.00  0.00    -0.000 C 
BRANCH  11  12
ATOM     12  C   UNL     1       2.787  11.774  20.848  1.00  0.00    -0.000 C 
BRANCH  12  13
ATOM     13  C   UNL     1       1.525  12.192  20.079  1.00  0.00    -0.000 C 
BRANCH  13  14
ATOM     14  C   UNL     1       1.545  13.692  19.763  1.00  0.00    -0.000 C 
BRANCH  14  15
ATOM     15  C   UNL     1       0.160  14.177  19.313  1.00  0.00    -0.003 C 
ATOM     16  C   UNL     1      -0.850  13.034  19.313  1.00  0.00     0.004 C 
ENDBRANCH  14  15
ENDBRANCH  13  14
ENDBRANCH  12  13
ENDBRANCH  11  12
ENDBRANCH  10  11
ENDBRANCH   9  10
ENDBRANCH   8   9
ENDBRANCH   7   8
ENDBRANCH   6   7
ENDBRANCH   5   6
ENDBRANCH   4   5
ENDBRANCH   3   4
ENDBRANCH   2   3
ENDBRANCH   1   2
BRANCH   1  17
ATOM     17  C   UNL     1      -3.721   9.870  18.738  1.00  0.00     0.000 C 
BRANCH  17  18
ATOM     18  C   UNL     1      -4.581   8.591  18.645  1.00  0.00     0.000 C 
BRANCH  18  19
ATOM     19  C   UNL     1      -5.608   8.481  19.786  1.00  0.00     0.000 C 
BRANCH  19  20
ATOM     20  C   UNL     1      -6.945   7.880  19.324  1.00  0.00     0.000 C 
BRANCH  20  21
ATOM     21  C   UNL     1      -8.099   8.891  19.390  1.00  0.00     0.000 C 
BRANCH  21  22
ATOM     22  C   UNL     1      -9.094   8.672  18.240  1.00  0.00     0.000 C 
BRANCH  22  23
ATOM     23  C   UNL     1      -8.464   7.950  17.037  1.00  0.00     0.000 C 
BRANCH  23  24
ATOM     24  C   UNL     1      -8.655   8.719  15.719  1.00  0.00     0.000 C 
BRANCH  24  25
ATOM     25  C   UNL     1      -8.177  10.180  15.802  1.00  0.00     0.000 C 
BRANCH  25  26
ATOM     26  C   UNL     1      -6.785  10.379  16.430  1.00  0.00     0.000 C 
BRANCH  26  27
ATOM     27  C   UNL     1      -6.701  11.629  17.319  1.00  0.00     0.002 C 
BRANCH  27  28
ATOM     28  C   UNL     1      -5.550  12.542  16.877  1.00  0.00     0.028 C 
BRANCH  28  29
ATOM     29  C   UNL     1      -5.992  13.482  15.753  1.00  0.00     0.156 C 
BRANCH  29  30
ATOM     30  O   UNL     1      -4.946  13.668  14.840  1.00  0.00    -0.396 OA
ATOM     31  H   UNL     1      -4.291  14.271  15.278  1.00  0.00     0.210 HD
ENDBRANCH  29  30
ENDBRANCH  28  29
ENDBRANCH  27  28
ENDBRANCH  26  27
ENDBRANCH  25  26
ENDBRANCH  24  25
ENDBRANCH  23  24
ENDBRANCH  22  23
ENDBRANCH  21  22
ENDBRANCH  20  21
ENDBRANCH  19  20
ENDBRANCH  18  19
ENDBRANCH  17  18
ENDBRANCH   1  17
TORSDOF 28
ENDMDL
MODEL 4
REMARK VINA RESULT:    -3.939      2.125      8.760
REMARK INTER + INTRA:         -13.987
REMARK INTER:                 -10.922
REMARK INTRA:                  -3.064
REMARK UNBOUND:                -3.714
REMARK SMILES CCCCCCCCCCCCCCCCCCCCCCCCCCCCCO
REMARK SMILES IDX 16 1 15 2 14 3 13 4 12 5 11 6 10 7 9 8 8 9 7 10 6 11 5 12
REMARK SMILES IDX 4 13 3 14 2 15 1 16 17 17 18 18 19 19 20 20 21 21 22 22
REMARK SMILES IDX 23 23 24 24 25 25 26 26 27 27 28 28 29 29 30 30
REMARK H PARENT 30 31
REMARK Flexibility Score: inf
ROOT
ATOM      1  C   UNL     1      -2.863   8.445  17.639  1.00  0.00     0.000 C 
ENDROOT
BRANCH   1   2
ATOM      2  C   UNL     1      -2.516   9.941  17.526  1.00  0.00     0.000 C 
BRANCH   2   3
ATOM      3  C   UNL     1      -2.993  10.819  18.703  1.00  0.00     0.000 C 
BRANCH   3   4
ATOM      4  C   UNL     1      -1.892  11.249  19.689  1.00  0.00     0.000 C 
BRANCH   4   5
ATOM      5  C   UNL     1      -1.977  10.514  21.038  1.00  0.00     0.000 C 
BRANCH   5   6
ATOM      6  C   UNL     1      -1.298   9.134  20.997  1.00  0.00     0.000 C 
BRANCH   6   7
ATOM      7  C   UNL     1       0.035   9.154  20.227  1.00  0.00     0.000 C 
BRANCH   7   8
ATOM      8  C   UNL     1       1.237   8.814  21.122  1.00  0.00    -0.000 C 
BRANCH   8   9
ATOM      9  C   UNL     1       1.415   9.813  22.278  1.00  0.00    -0.000 C 
BRANCH   9  10
ATOM     10  C   UNL     1       2.685  10.668  22.131  1.00  0.00    -0.000 C 
BRANCH  10  11
ATOM     11  C   UNL     1       3.253  10.635  20.701  1.00  0.00    -0.000 C 
BRANCH  11  12
ATOM     12  C   UNL     1       3.088  11.977  19.968  1.00  0.00    -0.000 C 
BRANCH  12  13
ATOM     13  C   UNL     1       1.721  12.628  20.223  1.00  0.00    -0.000 C 
BRANCH  13  14
ATOM     14  C   UNL     1       1.318  13.536  19.054  1.00  0.00    -0.000 C 
BRANCH  14  15
ATOM     15  C   UNL     1       0.655  14.823  19.561  1.00  0.00    -0.003 C 
ATOM     16  C   UNL     1       1.638  15.669  20.364  1.00  0.00     0.004 C 
ENDBRANCH  14  15
ENDBRANCH  13  14
ENDBRANCH  12  13
ENDBRANCH  11  12
ENDBRANCH  10  11
ENDBRANCH   9  10
ENDBRANCH   8   9
ENDBRANCH   7   8
ENDBRANCH   6   7
ENDBRANCH   5   6
ENDBRANCH   4   5
ENDBRANCH   3   4
ENDBRANCH   2   3
ENDBRANCH   1   2
BRANCH   1  17
ATOM     17  C   UNL     1      -3.737   8.064  18.848  1.00  0.00     0.000 C 
BRANCH  17  18
ATOM     18  C   UNL     1      -5.095   8.795  18.901  1.00  0.00     0.000 C 
BRANCH  18  19
ATOM     19  C   UNL     1      -6.271   7.897  18.477  1.00  0.00     0.000 C 
BRANCH  19  20
ATOM     20  C   UNL     1      -6.650   8.077  16.998  1.00  0.00     0.000 C 
BRANCH  20  21
ATOM     21  C   UNL     1      -8.153   7.876  16.748  1.00  0.00     0.000 C 
BRANCH  21  22
ATOM     22  C   UNL     1      -8.986   8.904  17.526  1.00  0.00     0.000 C 
BRANCH  22  23
ATOM     23  C   UNL     1      -9.117  10.248  16.788  1.00  0.00     0.000 C 
BRANCH  23  24
ATOM     24  C   UNL     1      -9.089  11.453  17.743  1.00  0.00     0.000 C 
BRANCH  24  25
ATOM     25  C   UNL     1      -7.662  11.939  18.053  1.00  0.00     0.000 C 
BRANCH  25  26
ATOM     26  C   UNL     1      -6.606  11.596  16.985  1.00  0.00     0.000 C 
BRANCH  26  27
ATOM     27  C   UNL     1      -5.570  12.713  16.786  1.00  0.00     0.002 C 
BRANCH  27  28
ATOM     28  C   UNL     1      -5.392  13.039  15.298  1.00  0.00     0.028 C 
BRANCH  28  29
ATOM     29  C   UNL     1      -5.930  14.435  14.973  1.00  0.00     0.156 C 
BRANCH  29  30
ATOM     30  O   UNL     1      -6.534  14.436  13.708  1.00  0.00    -0.396 OA
ATOM     31  H   UNL     1      -6.284  15.294  13.275  1.00  0.00     0.210 HD
ENDBRANCH  29  30
ENDBRANCH  28  29
ENDBRANCH  27  28
ENDBRANCH  26  27
ENDBRANCH  25  26
ENDBRANCH  24  25
ENDBRANCH  23  24
ENDBRANCH  22  23
ENDBRANCH  21  22
ENDBRANCH  20  21
ENDBRANCH  19  20
ENDBRANCH  18  19
ENDBRANCH  17  18
ENDBRANCH   1  17
TORSDOF 28
ENDMDL
MODEL 5
REMARK VINA RESULT:    -3.899      1.482      2.381
REMARK INTER + INTRA:         -13.881
REMARK INTER:                 -10.022
REMARK INTRA:                  -3.859
REMARK UNBOUND:                -3.714
REMARK SMILES CCCCCCCCCCCCCCCCCCCCCCCCCCCCCO
REMARK SMILES IDX 16 1 15 2 14 3 13 4 12 5 11 6 10 7 9 8 8 9 7 10 6 11 5 12
REMARK SMILES IDX 4 13 3 14 2 15 1 16 17 17 18 18 19 19 20 20 21 21 22 22
REMARK SMILES IDX 23 23 24 24 25 25 26 26 27 27 28 28 29 29 30 30
REMARK H PARENT 30 31
REMARK Flexibility Score: inf
ROOT
ATOM      1  C   UNL     1      -3.079  11.032  18.229  1.00  0.00     0.000 C 
ENDROOT
BRANCH   1   2
ATOM      2  C   UNL     1      -2.618   9.773  17.473  1.00  0.00     0.000 C 
BRANCH   2   3
ATOM      3  C   UNL     1      -3.087   8.432  18.077  1.00  0.00     0.000 C 
BRANCH   3   4
ATOM      4  C   UNL     1      -4.376   8.505  18.915  1.00  0.00     0.000 C 
BRANCH   4   5
ATOM      5  C   UNL     1      -4.125   8.288  20.417  1.00  0.00     0.000 C 
BRANCH   5   6
ATOM      6  C   UNL     1      -5.432   8.146  21.216  1.00  0.00     0.000 C 
BRANCH   6   7
ATOM      7  C   UNL     1      -6.683   8.327  20.338  1.00  0.00     0.000 C 
BRANCH   7   8
ATOM      8  C   UNL     1      -7.986   8.259  21.148  1.00  0.00    -0.000 C 
BRANCH   8   9
ATOM      9  C   UNL     1      -9.125   9.072  20.507  1.00  0.00    -0.000 C 
BRANCH   9  10
ATOM     10  C   UNL     1      -8.748  10.546  20.287  1.00  0.00    -0.000 C 
BRANCH  10  11
ATOM     11  C   UNL     1      -8.996  11.007  18.840  1.00  0.00    -0.000 C 
BRANCH  11  12
ATOM     12  C   UNL     1      -7.807  11.787  18.256  1.00  0.00    -0.000 C 
BRANCH  12  13
ATOM     13  C   UNL     1      -6.735  10.870  17.648  1.00  0.00    -0.000 C 
BRANCH  13  14
ATOM     14  C   UNL     1      -6.840  10.839  16.119  1.00  0.00    -0.000 C 
BRANCH  14  15
ATOM     15  C   UNL     1      -7.561   9.572  15.643  1.00  0.00    -0.003 C 
ATOM     16  C   UNL     1      -7.465   8.461  16.683  1.00  0.00     0.004 C 
ENDBRANCH  14  15
ENDBRANCH  13  14
ENDBRANCH  12  13
ENDBRANCH  11  12
ENDBRANCH  10  11
ENDBRANCH   9  10
ENDBRANCH   8   9
ENDBRANCH   7   8
ENDBRANCH   6   7
ENDBRANCH   5   6
ENDBRANCH   4   5
ENDBRANCH   3   4
ENDBRANCH   2   3
ENDBRANCH   1   2
BRANCH   1  17
ATOM     17  C   UNL     1      -2.012  11.684  19.130  1.00  0.00     0.000 C 
BRANCH  17  18
ATOM     18  C   UNL     1      -1.836  10.995  20.499  1.00  0.00     0.000 C 
BRANCH  18  19
ATOM     19  C   UNL     1      -0.809   9.849  20.461  1.00  0.00     0.000 C 
BRANCH  19  20
ATOM     20  C   UNL     1      -0.021   9.716  21.774  1.00  0.00     0.000 C 
BRANCH  20  21
ATOM     21  C   UNL     1       1.125   8.697  21.673  1.00  0.00     0.000 C 
BRANCH  21  22
ATOM     22  C   UNL     1       2.270   9.055  22.631  1.00  0.00     0.000 C 
BRANCH  22  23
ATOM     23  C   UNL     1       3.576   8.313  22.303  1.00  0.00     0.000 C 
BRANCH  23  24
ATOM     24  C   UNL     1       4.612   9.215  21.612  1.00  0.00     0.000 C 
BRANCH  24  25
ATOM     25  C   UNL     1       4.208   9.604  20.178  1.00  0.00     0.000 C 
BRANCH  25  26
ATOM     26  C   UNL     1       3.983  11.110  19.946  1.00  0.00     0.000 C 
BRANCH  26  27
ATOM     27  C   UNL     1       2.505  11.468  19.728  1.00  0.00     0.002 C 
BRANCH  27  28
ATOM     28  C   UNL     1       2.138  12.762  20.465  1.00  0.00     0.028 C 
BRANCH  28  29
ATOM     29  C   UNL     1       1.062  13.542  19.706  1.00  0.00     0.156 C 
BRANCH  29  30
ATOM     30  O   UNL     1       1.333  13.526  18.331  1.00  0.00    -0.396 OA
ATOM     31  H   UNL     1       0.750  12.827  17.935  1.00  0.00     0.210 HD
ENDBRANCH  29  30
ENDBRANCH  28  29
ENDBRANCH  27  28
ENDBRANCH  26  27
ENDBRANCH  25  26
ENDBRANCH  24  25
ENDBRANCH  23  24
ENDBRANCH  22  23
ENDBRANCH  21  22
ENDBRANCH  20  21
ENDBRANCH  19  20
ENDBRANCH  18  19
ENDBRANCH  17  18
ENDBRANCH   1  17
TORSDOF 28
ENDMDL
MODEL 6
REMARK VINA RESULT:    -3.855      2.428      4.980
REMARK INTER + INTRA:         -13.766
REMARK INTER:                  -9.883
REMARK INTRA:                  -3.883
REMARK UNBOUND:                -3.714
REMARK SMILES CCCCCCCCCCCCCCCCCCCCCCCCCCCCCO
REMARK SMILES IDX 16 1 15 2 14 3 13 4 12 5 11 6 10 7 9 8 8 9 7 10 6 11 5 12
REMARK SMILES IDX 4 13 3 14 2 15 1 16 17 17 18 18 19 19 20 20 21 21 22 22
REMARK SMILES IDX 23 23 24 24 25 25 26 26 27 27 28 28 29 29 30 30
REMARK H PARENT 30 31
REMARK Flexibility Score: inf
ROOT
ATOM      1  C   UNL     1       0.012   9.643  20.624  1.00  0.00     0.000 C 
ENDROOT
BRANCH   1   2
ATOM      2  C   UNL     1      -0.540   9.776  22.055  1.00  0.00     0.000 C 
BRANCH   2   3
ATOM      3  C   UNL     1      -2.079   9.831  22.165  1.00  0.00     0.000 C 
BRANCH   3   4
ATOM      4  C   UNL     1      -2.745   8.546  22.692  1.00  0.00     0.000 C 
BRANCH   4   5
ATOM      5  C   UNL     1      -4.026   8.179  21.923  1.00  0.00     0.000 C 
BRANCH   5   6
ATOM      6  C   UNL     1      -5.298   8.659  22.641  1.00  0.00     0.000 C 
BRANCH   6   7
ATOM      7  C   UNL     1      -6.584   8.256  21.898  1.00  0.00     0.000 C 
BRANCH   7   8
ATOM      8  C   UNL     1      -7.778   9.153  22.257  1.00  0.00    -0.000 C 
BRANCH   8   9
ATOM      9  C   UNL     1      -8.489   9.717  21.015  1.00  0.00    -0.000 C 
BRANCH   9  10
ATOM     10  C   UNL     1      -8.185   8.910  19.742  1.00  0.00    -0.000 C 
BRANCH  10  11
ATOM     11  C   UNL     1      -8.165   9.790  18.479  1.00  0.00    -0.000 C 
BRANCH  11  12
ATOM     12  C   UNL     1      -6.952   9.506  17.579  1.00  0.00    -0.000 C 
BRANCH  12  13
ATOM     13  C   UNL     1      -6.525  10.730  16.754  1.00  0.00    -0.000 C 
BRANCH  13  14
ATOM     14  C   UNL     1      -6.723  12.026  17.550  1.00  0.00    -0.000 C 
BRANCH  14  15
ATOM     15  C   UNL     1      -5.951  13.186  16.910  1.00  0.00    -0.003 C 
ATOM     16  C   UNL     1      -5.986  13.098  15.388  1.00  0.00     0.004 C 
ENDBRANCH  14  15
ENDBRANCH  13  14
ENDBRANCH  12  13
ENDBRANCH  11  12
ENDBRANCH  10  11
ENDBRANCH   9  10
ENDBRANCH   8   9
ENDBRANCH   7   8
ENDBRANCH   6   7
ENDBRANCH   5   6
ENDBRANCH   4   5
ENDBRANCH   3   4
ENDBRANCH   2   3
ENDBRANCH   1   2
BRANCH   1  17
ATOM     17  C   UNL     1       1.546   9.720  20.503  1.00  0.00     0.000 C 
BRANCH  17  18
ATOM     18  C   UNL     1       2.233  10.471  21.663  1.00  0.00     0.000 C 
BRANCH  18  19
ATOM     19  C   UNL     1       2.312  11.990  21.424  1.00  0.00     0.000 C 
BRANCH  19  20
ATOM     20  C   UNL     1       2.178  12.363  19.939  1.00  0.00     0.000 C 
BRANCH  20  21
ATOM     21  C   UNL     1       1.861  13.852  19.732  1.00  0.00     0.000 C 
BRANCH  21  22
ATOM     22  C   UNL     1       0.345  14.094  19.690  1.00  0.00     0.000 C 
BRANCH  22  23
ATOM     23  C   UNL     1      -0.397  13.075  18.809  1.00  0.00     0.000 C 
BRANCH  23  24
ATOM     24  C   UNL     1      -1.634  12.481  19.504  1.00  0.00     0.000 C 
BRANCH  24  25
ATOM     25  C   UNL     1      -2.840  12.332  18.559  1.00  0.00     0.000 C 
BRANCH  25  26
ATOM     26  C   UNL     1      -2.867  11.032  17.733  1.00  0.00     0.000 C 
BRANCH  26  27
ATOM     27  C   UNL     1      -3.121   9.782  18.590  1.00  0.00     0.002 C 
BRANCH  27  28
ATOM     28  C   UNL     1      -3.015   8.506  17.746  1.00  0.00     0.028 C 
BRANCH  28  29
ATOM     29  C   UNL     1      -1.580   8.284  17.263  1.00  0.00     0.156 C 
BRANCH  29  30
ATOM     30  O   UNL     1      -1.519   8.390  15.867  1.00  0.00    -0.396 OA
ATOM     31  H   UNL     1      -1.628   7.471  15.507  1.00  0.00     0.210 HD
ENDBRANCH  29  30
ENDBRANCH  28  29
ENDBRANCH  27  28
ENDBRANCH  26  27
ENDBRANCH  25  26
ENDBRANCH  24  25
ENDBRANCH  23  24
ENDBRANCH  22  23
ENDBRANCH  21  22
ENDBRANCH  20  21
ENDBRANCH  19  20
ENDBRANCH  18  19
ENDBRANCH  17  18
ENDBRANCH   1  17
TORSDOF 28
ENDMDL
MODEL 7
REMARK VINA RESULT:    -3.844      2.393      8.224
REMARK INTER + INTRA:         -13.739
REMARK INTER:                 -10.025
REMARK INTRA:                  -3.714
REMARK UNBOUND:                -3.714
REMARK SMILES CCCCCCCCCCCCCCCCCCCCCCCCCCCCCO
REMARK SMILES IDX 16 1 15 2 14 3 13 4 12 5 11 6 10 7 9 8 8 9 7 10 6 11 5 12
REMARK SMILES IDX 4 13 3 14 2 15 1 16 17 17 18 18 19 19 20 20 21 21 22 22
REMARK SMILES IDX 23 23 24 24 25 25 26 26 27 27 28 28 29 29 30 30
REMARK H PARENT 30 31
REMARK Flexibility Score: inf
ROOT
ATOM      1  C   UNL     1      -3.231   8.404  21.967  1.00  0.00     0.000 C 
ENDROOT
BRANCH   1   2
ATOM      2  C   UNL     1      -2.676   9.739  22.498  1.00  0.00     0.000 C 
BRANCH   2   3
ATOM      3  C   UNL     1      -1.181   9.992  22.210  1.00  0.00     0.000 C 
BRANCH   3   4
ATOM      4  C   UNL     1      -0.462   8.871  21.439  1.00  0.00     0.000 C 
BRANCH   4   5
ATOM      5  C   UNL     1       0.648   9.398  20.513  1.00  0.00     0.000 C 
BRANCH   5   6
ATOM      6  C   UNL     1       1.961   9.668  21.268  1.00  0.00     0.000 C 
BRANCH   6   7
ATOM      7  C   UNL     1       2.280  11.170  21.380  1.00  0.00     0.000 C 
BRANCH   7   8
ATOM      8  C   UNL     1       2.216  11.889  20.024  1.00  0.00    -0.000 C 
BRANCH   8   9
ATOM      9  C   UNL     1       1.689  13.329  20.143  1.00  0.00    -0.000 C 
BRANCH   9  10
ATOM     10  C   UNL     1       0.394  13.554  19.346  1.00  0.00    -0.000 C 
BRANCH  10  11
ATOM     11  C   UNL     1      -0.684  12.505  19.668  1.00  0.00    -0.000 C 
BRANCH  11  12
ATOM     12  C   UNL     1      -2.005  12.767  18.925  1.00  0.00    -0.000 C 
BRANCH  12  13
ATOM     13  C   UNL     1      -2.422  11.594  18.024  1.00  0.00    -0.000 C 
BRANCH  13  14
ATOM     14  C   UNL     1      -2.862  10.387  18.861  1.00  0.00    -0.000 C 
BRANCH  14  15
ATOM     15  C   UNL     1      -3.023   9.139  17.984  1.00  0.00    -0.003 C 
ATOM     16  C   UNL     1      -1.743   8.310  17.967  1.00  0.00     0.004 C 
ENDBRANCH  14  15
ENDBRANCH  13  14
ENDBRANCH  12  13
ENDBRANCH  11  12
ENDBRANCH  10  11
ENDBRANCH   9  10
ENDBRANCH   8   9
ENDBRANCH   7   8
ENDBRANCH   6   7
ENDBRANCH   5   6
ENDBRANCH   4   5
ENDBRANCH   3   4
ENDBRANCH   2   3
ENDBRANCH   1   2
BRANCH   1  17
ATOM     17  C   UNL     1      -4.754   8.372  21.738  1.00  0.00     0.000 C 
BRANCH  17  18
ATOM     18  C   UNL     1      -5.590   8.625  23.010  1.00  0.00     0.000 C 
BRANCH  18  19
ATOM     19  C   UNL     1      -7.104   8.626  22.736  1.00  0.00     0.000 C 
BRANCH  19  20
ATOM     20  C   UNL     1      -7.455   8.059  21.351  1.00  0.00     0.000 C 
BRANCH  20  21
ATOM     21  C   UNL     1      -8.735   8.678  20.768  1.00  0.00     0.000 C 
BRANCH  21  22
ATOM     22  C   UNL     1      -8.688  10.212  20.833  1.00  0.00     0.000 C 
BRANCH  22  23
ATOM     23  C   UNL     1      -8.773  10.870  19.446  1.00  0.00     0.000 C 
BRANCH  23  24
ATOM     24  C   UNL     1      -8.822   9.841  18.304  1.00  0.00     0.000 C 
BRANCH  24  25
ATOM     25  C   UNL     1      -7.435   9.275  17.947  1.00  0.00     0.000 C 
BRANCH  25  26
ATOM     26  C   UNL     1      -6.345  10.330  17.683  1.00  0.00     0.000 C 
BRANCH  26  27
ATOM     27  C   UNL     1      -6.695  11.276  16.523  1.00  0.00     0.002 C 
BRANCH  27  28
ATOM     28  C   UNL     1      -6.423  12.737  16.903  1.00  0.00     0.028 C 
BRANCH  28  29
ATOM     29  C   UNL     1      -5.783  13.498  15.740  1.00  0.00     0.156 C 
BRANCH  29  30
ATOM     30  O   UNL     1      -4.639  12.824  15.293  1.00  0.00    -0.396 OA
ATOM     31  H   UNL     1      -4.039  13.511  14.901  1.00  0.00     0.210 HD
ENDBRANCH  29  30
ENDBRANCH  28  29
ENDBRANCH  27  28
ENDBRANCH  26  27
ENDBRANCH  25  26
ENDBRANCH  24  25
ENDBRANCH  23  24
ENDBRANCH  22  23
ENDBRANCH  21  22
ENDBRANCH  20  21
ENDBRANCH  19  20
ENDBRANCH  18  19
ENDBRANCH  17  18
ENDBRANCH   1  17
TORSDOF 28
ENDMDL
MODEL 8
REMARK VINA RESULT:    -3.756      2.270      8.295
REMARK INTER + INTRA:         -13.509
REMARK INTER:                  -9.664
REMARK INTRA:                  -3.845
REMARK UNBOUND:                -3.714
REMARK SMILES CCCCCCCCCCCCCCCCCCCCCCCCCCCCCO
REMARK SMILES IDX 16 1 15 2 14 3 13 4 12 5 11 6 10 7 9 8 8 9 7 10 6 11 5 12
REMARK SMILES IDX 4 13 3 14 2 15 1 16 17 17 18 18 19 19 20 20 21 21 22 22
REMARK SMILES IDX 23 23 24 24 25 25 26 26 27 27 28 28 29 29 30 30
REMARK H PARENT 30 31
REMARK Flexibility Score: inf
ROOT
ATOM      1  C   UNL     1      -0.815   8.852  19.795  1.00  0.00     0.000 C 
ENDROOT
BRANCH   1   2
ATOM      2  C   UNL     1      -0.189   9.664  20.944  1.00  0.00     0.000 C 
BRANCH   2   3
ATOM      3  C   UNL     1      -0.127   8.941  22.306  1.00  0.00     0.000 C 
BRANCH   3   4
ATOM      4  C   UNL     1       1.104   8.042  22.517  1.00  0.00     0.000 C 
BRANCH   4   5
ATOM      5  C   UNL     1       2.199   8.270  21.460  1.00  0.00     0.000 C 
BRANCH   5   6
ATOM      6  C   UNL     1       3.492   8.839  22.068  1.00  0.00     0.000 C 
BRANCH   6   7
ATOM      7  C   UNL     1       4.167   9.878  21.157  1.00  0.00     0.000 C 
BRANCH   7   8
ATOM      8  C   UNL     1       3.190  10.500  20.147  1.00  0.00    -0.000 C 
BRANCH   8   9
ATOM      9  C   UNL     1       2.626  11.849  20.625  1.00  0.00    -0.000 C 
BRANCH   9  10
ATOM     10  C   UNL     1       2.074  12.701  19.470  1.00  0.00    -0.000 C 
BRANCH  10  11
ATOM     11  C   UNL     1       1.374  13.980  19.965  1.00  0.00    -0.000 C 
BRANCH  11  12
ATOM     12  C   UNL     1      -0.024  14.163  19.354  1.00  0.00    -0.000 C 
BRANCH  12  13
ATOM     13  C   UNL     1      -0.707  12.828  19.021  1.00  0.00    -0.000 C 
BRANCH  13  14
ATOM     14  C   UNL     1      -2.164  12.822  19.499  1.00  0.00    -0.000 C 
BRANCH  14  15
ATOM     15  C   UNL     1      -2.930  11.629  18.913  1.00  0.00    -0.003 C 
ATOM     16  C   UNL     1      -2.444  11.301  17.505  1.00  0.00     0.004 C 
ENDBRANCH  14  15
ENDBRANCH  13  14
ENDBRANCH  12  13
ENDBRANCH  11  12
ENDBRANCH  10  11
ENDBRANCH   9  10
ENDBRANCH   8   9
ENDBRANCH   7   8
ENDBRANCH   6   7
ENDBRANCH   5   6
ENDBRANCH   4   5
ENDBRANCH   3   4
ENDBRANCH   2   3
ENDBRANCH   1   2
BRANCH   1  17
ATOM     17  C   UNL     1      -2.034   7.995  20.186  1.00  0.00     0.000 C 
BRANCH  17  18
ATOM     18  C   UNL     1      -3.200   8.799  20.798  1.00  0.00     0.000 C 
BRANCH  18  19
ATOM     19  C   UNL     1      -4.523   8.012  20.811  1.00  0.00     0.000 C 
BRANCH  19  20
ATOM     20  C   UNL     1      -5.557   8.574  19.822  1.00  0.00     0.000 C 
BRANCH  20  21
ATOM     21  C   UNL     1      -5.315   8.096  18.382  1.00  0.00     0.000 C 
BRANCH  21  22
ATOM     22  C   UNL     1      -5.651   9.200  17.369  1.00  0.00     0.000 C 
BRANCH  22  23
ATOM     23  C   UNL     1      -7.032   9.011  16.718  1.00  0.00     0.000 C 
BRANCH  23  24
ATOM     24  C   UNL     1      -7.881  10.294  16.748  1.00  0.00     0.000 C 
BRANCH  24  25
ATOM     25  C   UNL     1      -7.494  11.242  17.898  1.00  0.00     0.000 C 
BRANCH  25  26
ATOM     26  C   UNL     1      -7.182  12.690  17.476  1.00  0.00     0.000 C 
BRANCH  26  27
ATOM     27  C   UNL     1      -5.709  12.897  17.090  1.00  0.00     0.002 C 
BRANCH  27  28
ATOM     28  C   UNL     1      -5.536  12.895  15.566  1.00  0.00     0.028 C 
BRANCH  28  29
ATOM     29  C   UNL     1      -5.751  14.295  14.985  1.00  0.00     0.156 C 
BRANCH  29  30
ATOM     30  O   UNL     1      -6.402  14.209  13.747  1.00  0.00    -0.396 OA
ATOM     31  H   UNL     1      -6.976  15.016  13.672  1.00  0.00     0.210 HD
ENDBRANCH  29  30
ENDBRANCH  28  29
ENDBRANCH  27  28
ENDBRANCH  26  27
ENDBRANCH  25  26
ENDBRANCH  24  25
ENDBRANCH  23  24
ENDBRANCH  22  23
ENDBRANCH  21  22
ENDBRANCH  20  21
ENDBRANCH  19  20
ENDBRANCH  18  19
ENDBRANCH  17  18
ENDBRANCH   1  17
TORSDOF 28
ENDMDL
MODEL 9
REMARK VINA RESULT:    -3.544      1.774      8.554
REMARK INTER + INTRA:         -12.955
REMARK INTER:                  -8.854
REMARK INTRA:                  -4.101
REMARK UNBOUND:                -3.714
REMARK SMILES CCCCCCCCCCCCCCCCCCCCCCCCCCCCCO
REMARK SMILES IDX 16 1 15 2 14 3 13 4 12 5 11 6 10 7 9 8 8 9 7 10 6 11 5 12
REMARK SMILES IDX 4 13 3 14 2 15 1 16 17 17 18 18 19 19 20 20 21 21 22 22
REMARK SMILES IDX 23 23 24 24 25 25 26 26 27 27 28 28 29 29 30 30
REMARK H PARENT 30 31
REMARK Flexibility Score: inf
ROOT
ATOM      1  C   UNL     1      -2.684  11.951  18.165  1.00  0.00     0.000 C 
ENDROOT
BRANCH   1   2
ATOM      2  C   UNL     1      -1.600  11.641  19.214  1.00  0.00     0.000 C 
BRANCH   2   3
ATOM      3  C   UNL     1      -2.128  11.231  20.606  1.00  0.00     0.000 C 
BRANCH   3   4
ATOM      4  C   UNL     1      -1.366  10.078  21.283  1.00  0.00     0.000 C 
BRANCH   4   5
ATOM      5  C   UNL     1      -0.253   9.493  20.395  1.00  0.00     0.000 C 
BRANCH   5   6
ATOM      6  C   UNL     1       0.437   8.280  21.043  1.00  0.00     0.000 C 
BRANCH   6   7
ATOM      7  C   UNL     1       0.761   8.508  22.529  1.00  0.00     0.000 C 
BRANCH   7   8
ATOM      8  C   UNL     1       2.253   8.782  22.772  1.00  0.00    -0.000 C 
BRANCH   8   9
ATOM      9  C   UNL     1       3.145   8.240  21.642  1.00  0.00    -0.000 C 
BRANCH   9  10
ATOM     10  C   UNL     1       3.799   9.360  20.816  1.00  0.00    -0.000 C 
BRANCH  10  11
ATOM     11  C   UNL     1       3.341  10.761  21.257  1.00  0.00    -0.000 C 
BRANCH  11  12
ATOM     12  C   UNL     1       2.905  11.640  20.074  1.00  0.00    -0.000 C 
BRANCH  12  13
ATOM     13  C   UNL     1       1.847  12.683  20.467  1.00  0.00    -0.000 C 
BRANCH  13  14
ATOM     14  C   UNL     1       1.432  13.528  19.257  1.00  0.00    -0.000 C 
BRANCH  14  15
ATOM     15  C   UNL     1       0.819  14.862  19.702  1.00  0.00    -0.003 C 
ATOM     16  C   UNL     1       1.903  15.868  20.078  1.00  0.00     0.004 C 
ENDBRANCH  14  15
ENDBRANCH  13  14
ENDBRANCH  12  13
ENDBRANCH  11  12
ENDBRANCH  10  11
ENDBRANCH   9  10
ENDBRANCH   8   9
ENDBRANCH   7   8
ENDBRANCH   6   7
ENDBRANCH   5   6
ENDBRANCH   4   5
ENDBRANCH   3   4
ENDBRANCH   2   3
ENDBRANCH   1   2
BRANCH   1  17
ATOM     17  C   UNL     1      -3.354  10.717  17.530  1.00  0.00     0.000 C 
BRANCH  17  18
ATOM     18  C   UNL     1      -2.447   9.470  17.466  1.00  0.00     0.000 C 
BRANCH  18  19
ATOM     19  C   UNL     1      -3.034   8.269  18.229  1.00  0.00     0.000 C 
BRANCH  19  20
ATOM     20  C   UNL     1      -4.188   8.668  19.164  1.00  0.00     0.000 C 
BRANCH  20  21
ATOM     21  C   UNL     1      -5.474   7.875  18.884  1.00  0.00     0.000 C 
BRANCH  21  22
ATOM     22  C   UNL     1      -6.051   8.227  17.505  1.00  0.00     0.000 C 
BRANCH  22  23
ATOM     23  C   UNL     1      -7.588   8.161  17.469  1.00  0.00     0.000 C 
BRANCH  23  24
ATOM     24  C   UNL     1      -8.236   9.547  17.312  1.00  0.00     0.000 C 
BRANCH  24  25
ATOM     25  C   UNL     1      -8.028  10.448  18.543  1.00  0.00     0.000 C 
BRANCH  25  26
ATOM     26  C   UNL     1      -7.665  11.912  18.229  1.00  0.00     0.000 C 
BRANCH  26  27
ATOM     27  C   UNL     1      -6.686  12.048  17.053  1.00  0.00     0.002 C 
BRANCH  27  28
ATOM     28  C   UNL     1      -6.521  13.516  16.642  1.00  0.00     0.028 C 
BRANCH  28  29
ATOM     29  C   UNL     1      -5.819  13.633  15.286  1.00  0.00     0.156 C 
BRANCH  29  30
ATOM     30  O   UNL     1      -4.692  12.802  15.253  1.00  0.00    -0.396 OA
ATOM     31  H   UNL     1      -4.055  13.214  14.613  1.00  0.00     0.210 HD
ENDBRANCH  29  30
ENDBRANCH  28  29
ENDBRANCH  27  28
ENDBRANCH  26  27
ENDBRANCH  25  26
ENDBRANCH  24  25
ENDBRANCH  23  24
ENDBRANCH  22  23
ENDBRANCH  21  22
ENDBRANCH  20  21
ENDBRANCH  19  20
ENDBRANCH  18  19
ENDBRANCH  17  18
ENDBRANCH   1  17
TORSDOF 28
ENDMDL
