MODEL 1
REMARK VINA RESULT:    -7.392      0.000      0.000
REMARK INTER + INTRA:          -9.217
REMARK INTER:                  -8.904
REMARK INTRA:                  -0.313
REMARK UNBOUND:                -0.313
REMARK SMILES Oc1cc(O)c2cc(O)c(-c3ccc(O)c(O)c3)[o+]c2c1.[Cl-]
REMARK SMILES IDX 10 1 19 2 20 3 21 4 2 5 3 6 4 7 6 8 7 9 8 10 11 11 12 12
REMARK SMILES IDX 13 13 14 14 18 15 16 16 15 17 17 19 9 21 1 23 5 25
REMARK H PARENT 15 18 17 20 9 22 1 24 5 26
REMARK Flexibility Score: inf
ROOT
ATOM      1  C   UNL     1      10.462  15.875  71.801  1.00  0.00     0.402 A 
ATOM      2  O   UNL     1      10.037  15.207  70.732  1.00  0.00    -0.202 OA
ATOM      3  C   UNL     1      10.822  14.422  70.004  1.00  0.00     0.368 A 
ATOM      4  C   UNL     1      10.283  13.757  68.898  1.00  0.00     0.162 A 
ATOM      5  C   UNL     1      11.087  12.922  68.116  1.00  0.00     0.128 A 
ATOM      6  C   UNL     1      12.434  12.751  68.440  1.00  0.00     0.093 A 
ATOM      7  C   UNL     1      12.999  13.405  69.543  1.00  0.00     0.136 A 
ATOM      8  C   UNL     1      12.188  14.256  70.338  1.00  0.00     0.125 A 
ATOM      9  C   UNL     1      12.671  14.961  71.453  1.00  0.00     0.078 A 
ATOM     10  C   UNL     1      11.813  15.785  72.186  1.00  0.00     0.223 A 
ENDROOT
BRANCH   1  11
ATOM     11  C   UNL     1       9.486  16.711  72.538  1.00  0.00     0.087 A 
ATOM     12  C   UNL     1       9.118  17.985  72.076  1.00  0.00     0.022 A 
ATOM     13  C   UNL     1       8.213  18.765  72.799  1.00  0.00     0.051 A 
ATOM     14  C   UNL     1       7.669  18.297  74.001  1.00  0.00     0.157 A 
ATOM     15  C   UNL     1       8.959  16.250  73.753  1.00  0.00     0.068 A 
ATOM     16  C   UNL     1       8.050  17.025  74.486  1.00  0.00     0.158 A 
BRANCH  14  17
ATOM     17  O   UNL     1       6.767  19.124  74.673  1.00  0.00    -0.504 OA
ATOM     18  H   UNL     1       5.926  19.497  74.257  1.00  0.00     0.293 HD
ENDBRANCH  14  17
BRANCH  16  19
ATOM     19  O   UNL     1       7.557  16.496  75.681  1.00  0.00    -0.504 OA
ATOM     20  H   UNL     1       7.708  15.544  75.981  1.00  0.00     0.293 HD
ENDBRANCH  16  19
ENDBRANCH   1  11
BRANCH  10  21
ATOM     21  O   UNL     1      12.303  16.525  73.262  1.00  0.00    -0.500 OA
ATOM     22  H   UNL     1      13.291  16.721  73.367  1.00  0.00     0.294 HD
ENDBRANCH  10  21
BRANCH   5  23
ATOM     23  O   UNL     1      10.556  12.257  67.012  1.00  0.00    -0.507 OA
ATOM     24  H   UNL     1      10.949  12.371  66.086  1.00  0.00     0.293 HD
ENDBRANCH   5  23
BRANCH   7  25
ATOM     25  O   UNL     1      14.353  13.178  69.802  1.00  0.00    -0.507 OA
ATOM     26  H   UNL     1      14.704  12.665  70.597  1.00  0.00     0.293 HD
ENDBRANCH   7  25
TORSDOF 6
ENDMDL
MODEL 2
REMARK VINA RESULT:    -6.500      1.812      2.892
REMARK INTER + INTRA:          -8.143
REMARK INTER:                  -8.114
REMARK INTRA:                  -0.029
REMARK UNBOUND:                -0.313
REMARK SMILES Oc1cc(O)c2cc(O)c(-c3ccc(O)c(O)c3)[o+]c2c1.[Cl-]
REMARK SMILES IDX 10 1 19 2 20 3 21 4 2 5 3 6 4 7 6 8 7 9 8 10 11 11 12 12
REMARK SMILES IDX 13 13 14 14 18 15 16 16 15 17 17 19 9 21 1 23 5 25
REMARK H PARENT 15 18 17 20 9 22 1 24 5 26
REMARK Flexibility Score: inf
ROOT
ATOM      1  C   UNL     1      10.502  16.700  71.055  1.00  0.00     0.402 A 
ATOM      2  O   UNL     1      11.608  16.145  71.545  1.00  0.00    -0.202 OA
ATOM      3  C   UNL     1      12.557  15.614  70.783  1.00  0.00     0.368 A 
ATOM      4  C   UNL     1      13.685  15.055  71.391  1.00  0.00     0.162 A 
ATOM      5  C   UNL     1      14.701  14.493  70.612  1.00  0.00     0.128 A 
ATOM      6  C   UNL     1      14.587  14.488  69.220  1.00  0.00     0.093 A 
ATOM      7  C   UNL     1      13.467  15.040  68.586  1.00  0.00     0.136 A 
ATOM      8  C   UNL     1      12.433  15.611  69.372  1.00  0.00     0.125 A 
ATOM      9  C   UNL     1      11.269  16.175  68.825  1.00  0.00     0.078 A 
ATOM     10  C   UNL     1      10.290  16.714  69.664  1.00  0.00     0.223 A 
ENDROOT
BRANCH   1  11
ATOM     11  C   UNL     1       9.522  17.268  72.009  1.00  0.00     0.087 A 
ATOM     12  C   UNL     1       8.957  18.538  71.809  1.00  0.00     0.022 A 
ATOM     13  C   UNL     1       8.052  19.062  72.734  1.00  0.00     0.051 A 
ATOM     14  C   UNL     1       7.703  18.339  73.880  1.00  0.00     0.157 A 
ATOM     15  C   UNL     1       9.190  16.551  73.168  1.00  0.00     0.068 A 
ATOM     16  C   UNL     1       8.283  17.068  74.102  1.00  0.00     0.158 A 
BRANCH  14  17
ATOM     17  O   UNL     1       6.790  18.918  74.763  1.00  0.00    -0.504 OA
ATOM     18  H   UNL     1       6.063  18.404  75.241  1.00  0.00     0.293 HD
ENDBRANCH  14  17
BRANCH  16  19
ATOM     19  O   UNL     1       7.990  16.292  75.226  1.00  0.00    -0.504 OA
ATOM     20  H   UNL     1       7.055  16.108  75.557  1.00  0.00     0.293 HD
ENDBRANCH  16  19
ENDBRANCH   1  11
BRANCH  10  21
ATOM     21  O   UNL     1       9.111  17.229  69.123  1.00  0.00    -0.500 OA
ATOM     22  H   UNL     1       8.324  17.485  69.708  1.00  0.00     0.294 HD
ENDBRANCH  10  21
BRANCH   5  23
ATOM     23  O   UNL     1      15.828  13.934  71.212  1.00  0.00    -0.507 OA
ATOM     24  H   UNL     1      16.365  14.442  71.904  1.00  0.00     0.293 HD
ENDBRANCH   5  23
BRANCH   7  25
ATOM     25  O   UNL     1      13.432  14.999  67.190  1.00  0.00    -0.507 OA
ATOM     26  H   UNL     1      13.975  14.364  66.624  1.00  0.00     0.293 HD
ENDBRANCH   7  25
TORSDOF 6
ENDMDL
MODEL 3
REMARK VINA RESULT:    -6.459      1.956      1.997
REMARK INTER + INTRA:          -8.093
REMARK INTER:                  -8.539
REMARK INTRA:                   0.446
REMARK UNBOUND:                -0.313
REMARK SMILES Oc1cc(O)c2cc(O)c(-c3ccc(O)c(O)c3)[o+]c2c1.[Cl-]
REMARK SMILES IDX 10 1 19 2 20 3 21 4 2 5 3 6 4 7 6 8 7 9 8 10 11 11 12 12
REMARK SMILES IDX 13 13 14 14 18 15 16 16 15 17 17 19 9 21 1 23 5 25
REMARK H PARENT 15 18 17 20 9 22 1 24 5 26
REMARK Flexibility Score: inf
ROOT
ATOM      1  C   UNL     1      10.238  16.522  71.503  1.00  0.00     0.402 A 
ATOM      2  O   UNL     1      10.430  16.977  70.267  1.00  0.00    -0.202 OA
ATOM      3  C   UNL     1      11.311  16.451  69.424  1.00  0.00     0.368 A 
ATOM      4  C   UNL     1      11.438  16.997  68.144  1.00  0.00     0.162 A 
ATOM      5  C   UNL     1      12.356  16.460  67.236  1.00  0.00     0.128 A 
ATOM      6  C   UNL     1      13.149  15.373  67.610  1.00  0.00     0.093 A 
ATOM      7  C   UNL     1      13.040  14.807  68.886  1.00  0.00     0.136 A 
ATOM      8  C   UNL     1      12.113  15.350  69.813  1.00  0.00     0.125 A 
ATOM      9  C   UNL     1      11.945  14.857  71.117  1.00  0.00     0.078 A 
ATOM     10  C   UNL     1      11.014  15.447  71.976  1.00  0.00     0.223 A 
ENDROOT
BRANCH   1  11
ATOM     11  C   UNL     1       9.218  17.189  72.344  1.00  0.00     0.087 A 
ATOM     12  C   UNL     1       8.670  18.431  71.984  1.00  0.00     0.022 A 
ATOM     13  C   UNL     1       7.726  19.050  72.806  1.00  0.00     0.051 A 
ATOM     14  C   UNL     1       7.321  18.454  74.005  1.00  0.00     0.157 A 
ATOM     15  C   UNL     1       8.830  16.600  73.557  1.00  0.00     0.068 A 
ATOM     16  C   UNL     1       7.883  17.214  74.388  1.00  0.00     0.158 A 
BRANCH  14  17
ATOM     17  O   UNL     1       6.371  19.124  74.777  1.00  0.00    -0.504 OA
ATOM     18  H   UNL     1       6.175  20.113  74.699  1.00  0.00     0.293 HD
ENDBRANCH  14  17
BRANCH  16  19
ATOM     19  O   UNL     1       7.535  16.563  75.573  1.00  0.00    -0.504 OA
ATOM     20  H   UNL     1       6.585  16.432  75.887  1.00  0.00     0.293 HD
ENDBRANCH  16  19
ENDBRANCH   1  11
BRANCH  10  21
ATOM     21  O   UNL     1      10.883  14.990  73.287  1.00  0.00    -0.500 OA
ATOM     22  H   UNL     1      11.548  15.243  74.008  1.00  0.00     0.294 HD
ENDBRANCH  10  21
BRANCH   5  23
ATOM     23  O   UNL     1      12.487  17.000  65.958  1.00  0.00    -0.507 OA
ATOM     24  H   UNL     1      12.679  17.984  65.816  1.00  0.00     0.293 HD
ENDBRANCH   5  23
BRANCH   7  25
ATOM     25  O   UNL     1      13.867  13.719  69.181  1.00  0.00    -0.507 OA
ATOM     26  H   UNL     1      14.451  13.248  68.506  1.00  0.00     0.293 HD
ENDBRANCH   7  25
TORSDOF 6
ENDMDL
MODEL 4
REMARK VINA RESULT:    -6.377     18.047     20.580
REMARK INTER + INTRA:          -7.995
REMARK INTER:                  -8.102
REMARK INTRA:                   0.107
REMARK UNBOUND:                -0.313
REMARK SMILES Oc1cc(O)c2cc(O)c(-c3ccc(O)c(O)c3)[o+]c2c1.[Cl-]
REMARK SMILES IDX 10 1 19 2 20 3 21 4 2 5 3 6 4 7 6 8 7 9 8 10 11 11 12 12
REMARK SMILES IDX 13 13 14 14 18 15 16 16 15 17 17 19 9 21 1 23 5 25
REMARK H PARENT 15 18 17 20 9 22 1 24 5 26
REMARK Flexibility Score: inf
ROOT
ATOM      1  C   UNL     1      21.449   0.366  65.192  1.00  0.00     0.402 A 
ATOM      2  O   UNL     1      20.188  -0.041  65.060  1.00  0.00    -0.202 OA
ATOM      3  C   UNL     1      19.345  -0.143  66.081  1.00  0.00     0.368 A 
ATOM      4  C   UNL     1      18.038  -0.578  65.842  1.00  0.00     0.162 A 
ATOM      5  C   UNL     1      17.128  -0.692  66.898  1.00  0.00     0.128 A 
ATOM      6  C   UNL     1      17.527  -0.370  68.197  1.00  0.00     0.093 A 
ATOM      7  C   UNL     1      18.830   0.068  68.463  1.00  0.00     0.136 A 
ATOM      8  C   UNL     1      19.758   0.182  67.395  1.00  0.00     0.125 A 
ATOM      9  C   UNL     1      21.088   0.600  67.569  1.00  0.00     0.078 A 
ATOM     10  C   UNL     1      21.946   0.684  66.469  1.00  0.00     0.223 A 
ENDROOT
BRANCH   1  11
ATOM     11  C   UNL     1      22.289   0.448  63.976  1.00  0.00     0.087 A 
ATOM     12  C   UNL     1      23.634   0.047  63.987  1.00  0.00     0.022 A 
ATOM     13  C   UNL     1      24.413   0.155  62.833  1.00  0.00     0.051 A 
ATOM     14  C   UNL     1      23.872   0.676  61.652  1.00  0.00     0.157 A 
ATOM     15  C   UNL     1      21.751   0.990  62.799  1.00  0.00     0.068 A 
ATOM     16  C   UNL     1      22.524   1.103  61.636  1.00  0.00     0.158 A 
BRANCH  14  17
ATOM     17  O   UNL     1      24.703   0.753  60.533  1.00  0.00    -0.504 OA
ATOM     18  H   UNL     1      25.443   1.433  60.426  1.00  0.00     0.293 HD
ENDBRANCH  14  17
BRANCH  16  19
ATOM     19  O   UNL     1      21.918   1.641  60.499  1.00  0.00    -0.504 OA
ATOM     20  H   UNL     1      21.171   2.319  60.525  1.00  0.00     0.293 HD
ENDBRANCH  16  19
ENDBRANCH   1  11
BRANCH  10  21
ATOM     21  O   UNL     1      23.280   1.051  66.649  1.00  0.00    -0.500 OA
ATOM     22  H   UNL     1      23.996   0.366  66.862  1.00  0.00     0.294 HD
ENDBRANCH  10  21
BRANCH   5  23
ATOM     23  O   UNL     1      15.824  -1.125  66.666  1.00  0.00    -0.507 OA
ATOM     24  H   UNL     1      15.221  -0.656  66.001  1.00  0.00     0.293 HD
ENDBRANCH   5  23
BRANCH   7  25
ATOM     25  O   UNL     1      19.149   0.373  69.788  1.00  0.00    -0.507 OA
ATOM     26  H   UNL     1      20.069   0.278  70.191  1.00  0.00     0.293 HD
ENDBRANCH   7  25
TORSDOF 6
ENDMDL
MODEL 5
REMARK VINA RESULT:    -6.156      1.863      7.022
REMARK INTER + INTRA:          -7.728
REMARK INTER:                  -7.510
REMARK INTRA:                  -0.218
REMARK UNBOUND:                -0.313
REMARK SMILES Oc1cc(O)c2cc(O)c(-c3ccc(O)c(O)c3)[o+]c2c1.[Cl-]
REMARK SMILES IDX 10 1 19 2 20 3 21 4 2 5 3 6 4 7 6 8 7 9 8 10 11 11 12 12
REMARK SMILES IDX 13 13 14 14 18 15 16 16 15 17 17 19 9 21 1 23 5 25
REMARK H PARENT 15 18 17 20 9 22 1 24 5 26
REMARK Flexibility Score: inf
ROOT
ATOM      1  C   UNL     1      10.568  16.868  71.616  1.00  0.00     0.402 A 
ATOM      2  O   UNL     1      10.081  16.426  72.773  1.00  0.00    -0.202 OA
ATOM      3  C   UNL     1       8.923  16.834  73.280  1.00  0.00     0.368 A 
ATOM      4  C   UNL     1       8.493  16.309  74.503  1.00  0.00     0.162 A 
ATOM      5  C   UNL     1       7.277  16.718  75.057  1.00  0.00     0.128 A 
ATOM      6  C   UNL     1       6.487  17.655  74.387  1.00  0.00     0.093 A 
ATOM      7  C   UNL     1       6.895  18.196  73.161  1.00  0.00     0.136 A 
ATOM      8  C   UNL     1       8.130  17.786  72.595  1.00  0.00     0.125 A 
ATOM      9  C   UNL     1       8.625  18.283  71.378  1.00  0.00     0.078 A 
ATOM     10  C   UNL     1       9.853  17.835  70.885  1.00  0.00     0.223 A 
ENDROOT
BRANCH   1  11
ATOM     11  C   UNL     1      11.867  16.330  71.152  1.00  0.00     0.087 A 
ATOM     12  C   UNL     1      13.009  17.142  71.070  1.00  0.00     0.022 A 
ATOM     13  C   UNL     1      14.217  16.617  70.608  1.00  0.00     0.051 A 
ATOM     14  C   UNL     1      14.308  15.280  70.206  1.00  0.00     0.157 A 
ATOM     15  C   UNL     1      11.950  14.995  70.729  1.00  0.00     0.068 A 
ATOM     16  C   UNL     1      13.159  14.458  70.263  1.00  0.00     0.158 A 
BRANCH  14  17
ATOM     17  O   UNL     1      15.547  14.817  69.757  1.00  0.00    -0.504 OA
ATOM     18  H   UNL     1      16.433  15.107  70.148  1.00  0.00     0.293 HD
ENDBRANCH  14  17
BRANCH  16  19
ATOM     19  O   UNL     1      13.169  13.118  69.871  1.00  0.00    -0.504 OA
ATOM     20  H   UNL     1      13.107  12.342  70.513  1.00  0.00     0.293 HD
ENDBRANCH  16  19
ENDBRANCH   1  11
BRANCH  10  21
ATOM     21  O   UNL     1      10.368  18.366  69.703  1.00  0.00    -0.500 OA
ATOM     22  H   UNL     1      10.196  19.327  69.431  1.00  0.00     0.294 HD
ENDBRANCH  10  21
BRANCH   5  23
ATOM     23  O   UNL     1       6.843  16.199  76.276  1.00  0.00    -0.507 OA
ATOM     24  H   UNL     1       6.411  15.285  76.338  1.00  0.00     0.293 HD
ENDBRANCH   5  23
BRANCH   7  25
ATOM     25  O   UNL     1       6.046  19.125  72.553  1.00  0.00    -0.507 OA
ATOM     26  H   UNL     1       5.182  18.889  72.089  1.00  0.00     0.293 HD
ENDBRANCH   7  25
TORSDOF 6
ENDMDL
MODEL 6
REMARK VINA RESULT:    -5.951      2.668      6.903
REMARK INTER + INTRA:          -7.482
REMARK INTER:                  -7.881
REMARK INTRA:                   0.400
REMARK UNBOUND:                -0.313
REMARK SMILES Oc1cc(O)c2cc(O)c(-c3ccc(O)c(O)c3)[o+]c2c1.[Cl-]
REMARK SMILES IDX 10 1 19 2 20 3 21 4 2 5 3 6 4 7 6 8 7 9 8 10 11 11 12 12
REMARK SMILES IDX 13 13 14 14 18 15 16 16 15 17 17 19 9 21 1 23 5 25
REMARK H PARENT 15 18 17 20 9 22 1 24 5 26
REMARK Flexibility Score: inf
ROOT
ATOM      1  C   UNL     1      11.191  16.009  70.279  1.00  0.00     0.402 A 
ATOM      2  O   UNL     1      10.269  16.931  70.542  1.00  0.00    -0.202 OA
ATOM      3  C   UNL     1       9.624  17.008  71.700  1.00  0.00     0.368 A 
ATOM      4  C   UNL     1       8.672  18.016  71.884  1.00  0.00     0.162 A 
ATOM      5  C   UNL     1       7.982  18.122  73.095  1.00  0.00     0.128 A 
ATOM      6  C   UNL     1       8.244  17.218  74.126  1.00  0.00     0.093 A 
ATOM      7  C   UNL     1       9.193  16.199  73.968  1.00  0.00     0.136 A 
ATOM      8  C   UNL     1       9.894  16.086  72.740  1.00  0.00     0.125 A 
ATOM      9  C   UNL     1      10.852  15.090  72.487  1.00  0.00     0.078 A 
ATOM     10  C   UNL     1      11.500  15.038  71.250  1.00  0.00     0.223 A 
ENDROOT
BRANCH   1  11
ATOM     11  C   UNL     1      11.847  16.033  68.951  1.00  0.00     0.087 A 
ATOM     12  C   UNL     1      12.903  15.162  68.640  1.00  0.00     0.022 A 
ATOM     13  C   UNL     1      13.521  15.219  67.390  1.00  0.00     0.051 A 
ATOM     14  C   UNL     1      13.109  16.152  66.431  1.00  0.00     0.157 A 
ATOM     15  C   UNL     1      11.447  16.983  68.000  1.00  0.00     0.068 A 
ATOM     16  C   UNL     1      12.061  17.049  66.741  1.00  0.00     0.158 A 
BRANCH  14  17
ATOM     17  O   UNL     1      13.766  16.153  65.200  1.00  0.00    -0.504 OA
ATOM     18  H   UNL     1      14.185  15.334  64.782  1.00  0.00     0.293 HD
ENDBRANCH  14  17
BRANCH  16  19
ATOM     19  O   UNL     1      11.601  18.012  65.841  1.00  0.00    -0.504 OA
ATOM     20  H   UNL     1      10.626  18.218  65.684  1.00  0.00     0.293 HD
ENDBRANCH  16  19
ENDBRANCH   1  11
BRANCH  10  21
ATOM     21  O   UNL     1      12.414  14.019  70.980  1.00  0.00    -0.500 OA
ATOM     22  H   UNL     1      12.344  13.447  70.147  1.00  0.00     0.294 HD
ENDBRANCH  10  21
BRANCH   5  23
ATOM     23  O   UNL     1       7.032  19.124  73.284  1.00  0.00    -0.507 OA
ATOM     24  H   UNL     1       6.425  19.131  74.094  1.00  0.00     0.293 HD
ENDBRANCH   5  23
BRANCH   7  25
ATOM     25  O   UNL     1       9.399  15.338  75.049  1.00  0.00    -0.507 OA
ATOM     26  H   UNL     1       9.166  14.356  75.048  1.00  0.00     0.293 HD
ENDBRANCH   7  25
TORSDOF 6
ENDMDL
MODEL 7
REMARK VINA RESULT:    -5.392      2.800      3.171
REMARK INTER + INTRA:          -6.808
REMARK INTER:                  -7.174
REMARK INTRA:                   0.366
REMARK UNBOUND:                -0.313
REMARK SMILES Oc1cc(O)c2cc(O)c(-c3ccc(O)c(O)c3)[o+]c2c1.[Cl-]
REMARK SMILES IDX 10 1 19 2 20 3 21 4 2 5 3 6 4 7 6 8 7 9 8 10 11 11 12 12
REMARK SMILES IDX 13 13 14 14 18 15 16 16 15 17 17 19 9 21 1 23 5 25
REMARK H PARENT 15 18 17 20 9 22 1 24 5 26
REMARK Flexibility Score: inf
ROOT
ATOM      1  C   UNL     1      10.395  16.537  70.793  1.00  0.00     0.402 A 
ATOM      2  O   UNL     1      10.421  17.348  69.739  1.00  0.00    -0.202 OA
ATOM      3  C   UNL     1      11.154  17.114  68.656  1.00  0.00     0.368 A 
ATOM      4  C   UNL     1      11.114  18.025  67.597  1.00  0.00     0.162 A 
ATOM      5  C   UNL     1      11.873  17.802  66.445  1.00  0.00     0.128 A 
ATOM      6  C   UNL     1      12.676  16.663  66.351  1.00  0.00     0.093 A 
ATOM      7  C   UNL     1      12.734  15.734  67.398  1.00  0.00     0.136 A 
ATOM      8  C   UNL     1      11.967  15.958  68.571  1.00  0.00     0.125 A 
ATOM      9  C   UNL     1      11.973  15.089  69.675  1.00  0.00     0.078 A 
ATOM     10  C   UNL     1      11.194  15.379  70.799  1.00  0.00     0.223 A 
ENDROOT
BRANCH   1  11
ATOM     11  C   UNL     1       9.528  16.903  71.937  1.00  0.00     0.087 A 
ATOM     12  C   UNL     1       9.681  16.297  73.195  1.00  0.00     0.022 A 
ATOM     13  C   UNL     1       8.837  16.642  74.252  1.00  0.00     0.051 A 
ATOM     14  C   UNL     1       7.818  17.584  74.074  1.00  0.00     0.157 A 
ATOM     15  C   UNL     1       8.493  17.831  71.751  1.00  0.00     0.068 A 
ATOM     16  C   UNL     1       7.641  18.184  72.806  1.00  0.00     0.158 A 
BRANCH  14  17
ATOM     17  O   UNL     1       7.012  17.887  75.173  1.00  0.00    -0.504 OA
ATOM     18  H   UNL     1       6.878  17.270  75.962  1.00  0.00     0.293 HD
ENDBRANCH  14  17
BRANCH  16  19
ATOM     19  O   UNL     1       6.641  19.125  72.550  1.00  0.00    -0.504 OA
ATOM     20  H   UNL     1       6.362  19.843  73.202  1.00  0.00     0.293 HD
ENDBRANCH  16  19
ENDBRANCH   1  11
BRANCH  10  21
ATOM     21  O   UNL     1      11.239  14.543  71.915  1.00  0.00    -0.500 OA
ATOM     22  H   UNL     1      11.189  14.910  72.857  1.00  0.00     0.294 HD
ENDBRANCH  10  21
BRANCH   5  23
ATOM     23  O   UNL     1      11.838  18.706  65.385  1.00  0.00    -0.507 OA
ATOM     24  H   UNL     1      12.619  19.319  65.186  1.00  0.00     0.293 HD
ENDBRANCH   5  23
BRANCH   7  25
ATOM     25  O   UNL     1      13.558  14.619  67.225  1.00  0.00    -0.507 OA
ATOM     26  H   UNL     1      14.416  14.459  67.732  1.00  0.00     0.293 HD
ENDBRANCH   7  25
TORSDOF 6
ENDMDL
MODEL 8
REMARK VINA RESULT:    -5.256      2.208      6.920
REMARK INTER + INTRA:          -6.643
REMARK INTER:                  -7.044
REMARK INTRA:                   0.400
REMARK UNBOUND:                -0.313
REMARK SMILES Oc1cc(O)c2cc(O)c(-c3ccc(O)c(O)c3)[o+]c2c1.[Cl-]
REMARK SMILES IDX 10 1 19 2 20 3 21 4 2 5 3 6 4 7 6 8 7 9 8 10 11 11 12 12
REMARK SMILES IDX 13 13 14 14 18 15 16 16 15 17 17 19 9 21 1 23 5 25
REMARK H PARENT 15 18 17 20 9 22 1 24 5 26
REMARK Flexibility Score: inf
ROOT
ATOM      1  C   UNL     1      10.271  16.403  71.186  1.00  0.00     0.402 A 
ATOM      2  O   UNL     1       9.142  17.092  71.041  1.00  0.00    -0.202 OA
ATOM      3  C   UNL     1       8.316  17.360  72.046  1.00  0.00     0.368 A 
ATOM      4  C   UNL     1       7.153  18.094  71.795  1.00  0.00     0.162 A 
ATOM      5  C   UNL     1       6.269  18.394  72.835  1.00  0.00     0.128 A 
ATOM      6  C   UNL     1       6.548  17.958  74.132  1.00  0.00     0.093 A 
ATOM      7  C   UNL     1       7.707  17.221  74.411  1.00  0.00     0.136 A 
ATOM      8  C   UNL     1       8.606  16.912  73.358  1.00  0.00     0.125 A 
ATOM      9  C   UNL     1       9.784  16.168  73.541  1.00  0.00     0.078 A 
ATOM     10  C   UNL     1      10.619  15.899  72.453  1.00  0.00     0.223 A 
ENDROOT
BRANCH   1  11
ATOM     11  C   UNL     1      11.112  16.177  69.989  1.00  0.00     0.087 A 
ATOM     12  C   UNL     1      12.222  15.318  70.026  1.00  0.00     0.022 A 
ATOM     13  C   UNL     1      13.015  15.139  68.890  1.00  0.00     0.051 A 
ATOM     14  C   UNL     1      12.726  15.820  67.703  1.00  0.00     0.157 A 
ATOM     15  C   UNL     1      10.835  16.878  68.807  1.00  0.00     0.068 A 
ATOM     16  C   UNL     1      11.624  16.705  67.661  1.00  0.00     0.158 A 
BRANCH  14  17
ATOM     17  O   UNL     1      13.555  15.593  66.603  1.00  0.00    -0.504 OA
ATOM     18  H   UNL     1      13.375  15.953  65.677  1.00  0.00     0.293 HD
ENDBRANCH  14  17
BRANCH  16  19
ATOM     19  O   UNL     1      11.279  17.427  66.516  1.00  0.00    -0.504 OA
ATOM     20  H   UNL     1      10.916  17.007  65.673  1.00  0.00     0.293 HD
ENDBRANCH  16  19
ENDBRANCH   1  11
BRANCH  10  21
ATOM     21  O   UNL     1      11.762  15.118  72.626  1.00  0.00    -0.500 OA
ATOM     22  H   UNL     1      12.063  14.453  71.924  1.00  0.00     0.294 HD
ENDBRANCH  10  21
BRANCH   5  23
ATOM     23  O   UNL     1       5.108  19.125  72.591  1.00  0.00    -0.507 OA
ATOM     24  H   UNL     1       4.191  18.745  72.791  1.00  0.00     0.293 HD
ENDBRANCH   5  23
BRANCH   7  25
ATOM     25  O   UNL     1       7.915  16.825  75.735  1.00  0.00    -0.507 OA
ATOM     26  H   UNL     1       7.318  16.187  76.240  1.00  0.00     0.293 HD
ENDBRANCH   7  25
TORSDOF 6
ENDMDL
