MODEL 1
REMARK VINA RESULT:    -5.302      0.000      0.000
REMARK INTER + INTRA:         -13.991
REMARK INTER:                 -12.120
REMARK INTRA:                  -1.872
REMARK UNBOUND:                -1.872
REMARK SMILES CCCCCCCCCCCCCCCCCCCCCCCC(=O)[O-]
REMARK SMILES IDX 13 1 14 2 15 3 16 4 17 5 18 6 19 7 20 8 21 9 22 10 23 11
REMARK SMILES IDX 24 12 25 13 26 14 12 15 11 16 10 17 9 18 8 19 7 20 6 21 5 22
REMARK SMILES IDX 4 23 3 24 2 25 1 26
REMARK H PARENT
REMARK Flexibility Score: inf
ROOT
ATOM      1  C   UNL     1      18.558   7.535   2.693  1.00  0.00     0.000 C 
ENDROOT
BRANCH   1   2
ATOM      2  C   UNL     1      20.022   7.105   2.491  1.00  0.00     0.000 C 
BRANCH   2   3
ATOM      3  C   UNL     1      20.247   5.582   2.425  1.00  0.00     0.000 C 
BRANCH   3   4
ATOM      4  C   UNL     1      20.380   4.940   3.815  1.00  0.00     0.000 C 
BRANCH   4   5
ATOM      5  C   UNL     1      21.433   5.642   4.688  1.00  0.00     0.000 C 
BRANCH   5   6
ATOM      6  C   UNL     1      21.042   5.665   6.174  1.00  0.00     0.000 C 
BRANCH   6   7
ATOM      7  C   UNL     1      22.285   5.711   7.070  1.00  0.00     0.000 C 
BRANCH   7   8
ATOM      8  C   UNL     1      23.566   5.539   6.240  1.00  0.00     0.000 C 
BRANCH   8   9
ATOM      9  C   UNL     1      24.258   4.184   6.473  1.00  0.00     0.000 C 
BRANCH   9  10
ATOM     10  C   UNL     1      25.764   4.266   6.784  1.00  0.00     0.006 C 
BRANCH  10  11
ATOM     11  C   UNL     1      26.417   2.889   6.956  1.00  0.00     0.053 C 
BRANCH  11  12
ATOM     12  C   UNL     1      26.592   2.569   8.408  1.00  0.00     0.041 C 
ATOM     13  O   UNL     1      26.018   1.567   8.912  1.00  0.00    -0.550 OA
ATOM     14  O   UNL     1      27.411   3.363   9.199  1.00  0.00    -0.550 OA
ENDBRANCH  11  12
ENDBRANCH  10  11
ENDBRANCH   9  10
ENDBRANCH   8   9
ENDBRANCH   7   8
ENDBRANCH   6   7
ENDBRANCH   5   6
ENDBRANCH   4   5
ENDBRANCH   3   4
ENDBRANCH   2   3
ENDBRANCH   1   2
BRANCH   1  15
ATOM     15  C   UNL     1      18.263   8.001   4.127  1.00  0.00     0.000 C 
BRANCH  15  16
ATOM     16  C   UNL     1      17.441   6.951   4.889  1.00  0.00     0.000 C 
BRANCH  16  17
ATOM     17  C   UNL     1      17.617   7.046   6.415  1.00  0.00     0.000 C 
BRANCH  17  18
ATOM     18  C   UNL     1      16.426   7.671   7.170  1.00  0.00    -0.000 C 
BRANCH  18  19
ATOM     19  C   UNL     1      16.801   8.736   8.220  1.00  0.00    -0.000 C 
BRANCH  19  20
ATOM     20  C   UNL     1      18.312   8.970   8.392  1.00  0.00    -0.000 C 
BRANCH  20  21
ATOM     21  C   UNL     1      18.630  10.052   9.440  1.00  0.00    -0.000 C 
BRANCH  21  22
ATOM     22  C   UNL     1      17.402  10.439  10.278  1.00  0.00    -0.000 C 
BRANCH  22  23
ATOM     23  C   UNL     1      17.172  11.958  10.318  1.00  0.00    -0.000 C 
BRANCH  23  24
ATOM     24  C   UNL     1      18.321  12.668  11.049  1.00  0.00    -0.000 C 
BRANCH  24  25
ATOM     25  C   UNL     1      17.841  13.880  11.863  1.00  0.00    -0.003 C 
ATOM     26  C   UNL     1      16.337  14.115  11.743  1.00  0.00     0.004 C 
ENDBRANCH  24  25
ENDBRANCH  23  24
ENDBRANCH  22  23
ENDBRANCH  21  22
ENDBRANCH  20  21
ENDBRANCH  19  20
ENDBRANCH  18  19
ENDBRANCH  17  18
ENDBRANCH  16  17
ENDBRANCH  15  16
ENDBRANCH   1  15
TORSDOF 22
ENDMDL
MODEL 2
REMARK VINA RESULT:    -5.201      8.765     10.129
REMARK INTER + INTRA:         -13.761
REMARK INTER:                 -11.678
REMARK INTRA:                  -2.083
REMARK UNBOUND:                -1.872
REMARK SMILES CCCCCCCCCCCCCCCCCCCCCCCC(=O)[O-]
REMARK SMILES IDX 13 1 14 2 15 3 16 4 17 5 18 6 19 7 20 8 21 9 22 10 23 11
REMARK SMILES IDX 24 12 25 13 26 14 12 15 11 16 10 17 9 18 8 19 7 20 6 21 5 22
REMARK SMILES IDX 4 23 3 24 2 25 1 26
REMARK H PARENT
REMARK Flexibility Score: inf
ROOT
ATOM      1  C   UNL     1      27.333   6.816  13.537  1.00  0.00     0.000 C 
ENDROOT
BRANCH   1   2
ATOM      2  C   UNL     1      26.363   7.460  14.544  1.00  0.00     0.000 C 
BRANCH   2   3
ATOM      3  C   UNL     1      24.996   7.863  13.961  1.00  0.00     0.000 C 
BRANCH   3   4
ATOM      4  C   UNL     1      23.932   8.097  15.045  1.00  0.00     0.000 C 
BRANCH   4   5
ATOM      5  C   UNL     1      23.545   6.803  15.777  1.00  0.00     0.000 C 
BRANCH   5   6
ATOM      6  C   UNL     1      23.053   5.710  14.816  1.00  0.00     0.000 C 
BRANCH   6   7
ATOM      7  C   UNL     1      23.833   4.405  15.018  1.00  0.00     0.000 C 
BRANCH   7   8
ATOM      8  C   UNL     1      24.766   4.134  13.828  1.00  0.00     0.000 C 
BRANCH   8   9
ATOM      9  C   UNL     1      25.374   2.720  13.848  1.00  0.00     0.000 C 
BRANCH   9  10
ATOM     10  C   UNL     1      26.368   2.422  12.711  1.00  0.00     0.006 C 
BRANCH  10  11
ATOM     11  C   UNL     1      27.739   3.072  12.927  1.00  0.00     0.053 C 
BRANCH  11  12
ATOM     12  C   UNL     1      28.782   2.028  13.178  1.00  0.00     0.041 C 
ATOM     13  O   UNL     1      29.466   1.570  12.224  1.00  0.00    -0.550 OA
ATOM     14  O   UNL     1      29.017   1.580  14.471  1.00  0.00    -0.550 OA
ENDBRANCH  11  12
ENDBRANCH  10  11
ENDBRANCH   9  10
ENDBRANCH   8   9
ENDBRANCH   7   8
ENDBRANCH   6   7
ENDBRANCH   5   6
ENDBRANCH   4   5
ENDBRANCH   3   4
ENDBRANCH   2   3
ENDBRANCH   1   2
BRANCH   1  15
ATOM     15  C   UNL     1      28.539   7.710  13.211  1.00  0.00     0.000 C 
BRANCH  15  16
ATOM     16  C   UNL     1      28.420   8.303  11.800  1.00  0.00     0.000 C 
BRANCH  16  17
ATOM     17  C   UNL     1      28.229   9.831  11.808  1.00  0.00     0.000 C 
BRANCH  17  18
ATOM     18  C   UNL     1      26.845  10.311  12.291  1.00  0.00    -0.000 C 
BRANCH  18  19
ATOM     19  C   UNL     1      26.716  11.833  12.500  1.00  0.00    -0.000 C 
BRANCH  19  20
ATOM     20  C   UNL     1      28.034  12.617  12.375  1.00  0.00    -0.000 C 
BRANCH  20  21
ATOM     21  C   UNL     1      27.817  14.140  12.324  1.00  0.00    -0.000 C 
BRANCH  21  22
ATOM     22  C   UNL     1      28.062  14.724  10.925  1.00  0.00    -0.000 C 
BRANCH  22  23
ATOM     23  C   UNL     1      27.129  15.904  10.608  1.00  0.00    -0.000 C 
BRANCH  23  24
ATOM     24  C   UNL     1      25.666  15.443  10.535  1.00  0.00    -0.000 C 
BRANCH  24  25
ATOM     25  C   UNL     1      24.749  16.245  11.472  1.00  0.00    -0.003 C 
ATOM     26  C   UNL     1      23.359  15.627  11.611  1.00  0.00     0.004 C 
ENDBRANCH  24  25
ENDBRANCH  23  24
ENDBRANCH  22  23
ENDBRANCH  21  22
ENDBRANCH  20  21
ENDBRANCH  19  20
ENDBRANCH  18  19
ENDBRANCH  17  18
ENDBRANCH  16  17
ENDBRANCH  15  16
ENDBRANCH   1  15
TORSDOF 22
ENDMDL
MODEL 3
REMARK VINA RESULT:    -5.182      1.264      2.126
REMARK INTER + INTRA:         -13.719
REMARK INTER:                 -12.209
REMARK INTRA:                  -1.509
REMARK UNBOUND:                -1.872
REMARK SMILES CCCCCCCCCCCCCCCCCCCCCCCC(=O)[O-]
REMARK SMILES IDX 13 1 14 2 15 3 16 4 17 5 18 6 19 7 20 8 21 9 22 10 23 11
REMARK SMILES IDX 24 12 25 13 26 14 12 15 11 16 10 17 9 18 8 19 7 20 6 21 5 22
REMARK SMILES IDX 4 23 3 24 2 25 1 26
REMARK H PARENT
REMARK Flexibility Score: inf
ROOT
ATOM      1  C   UNL     1      18.309   8.221   4.643  1.00  0.00     0.000 C 
ENDROOT
BRANCH   1   2
ATOM      2  C   UNL     1      18.591   7.285   3.453  1.00  0.00     0.000 C 
BRANCH   2   3
ATOM      3  C   UNL     1      20.077   7.162   3.065  1.00  0.00     0.000 C 
BRANCH   3   4
ATOM      4  C   UNL     1      20.706   5.840   3.535  1.00  0.00     0.000 C 
BRANCH   4   5
ATOM      5  C   UNL     1      20.486   5.585   5.034  1.00  0.00     0.000 C 
BRANCH   5   6
ATOM      6  C   UNL     1      21.521   4.613   5.622  1.00  0.00     0.000 C 
BRANCH   6   7
ATOM      7  C   UNL     1      22.419   5.316   6.647  1.00  0.00     0.000 C 
BRANCH   7   8
ATOM      8  C   UNL     1      23.664   5.909   5.970  1.00  0.00     0.000 C 
BRANCH   8   9
ATOM      9  C   UNL     1      24.810   4.892   5.820  1.00  0.00     0.000 C 
BRANCH   9  10
ATOM     10  C   UNL     1      25.243   4.200   7.126  1.00  0.00     0.006 C 
BRANCH  10  11
ATOM     11  C   UNL     1      26.308   3.119   6.907  1.00  0.00     0.053 C 
BRANCH  11  12
ATOM     12  C   UNL     1      26.698   2.495   8.210  1.00  0.00     0.041 C 
ATOM     13  O   UNL     1      26.686   3.175   9.270  1.00  0.00    -0.550 OA
ATOM     14  O   UNL     1      27.051   1.153   8.258  1.00  0.00    -0.550 OA
ENDBRANCH  11  12
ENDBRANCH  10  11
ENDBRANCH   9  10
ENDBRANCH   8   9
ENDBRANCH   7   8
ENDBRANCH   6   7
ENDBRANCH   5   6
ENDBRANCH   4   5
ENDBRANCH   3   4
ENDBRANCH   2   3
ENDBRANCH   1   2
BRANCH   1  15
ATOM     15  C   UNL     1      17.011   7.870   5.386  1.00  0.00     0.000 C 
BRANCH  15  16
ATOM     16  C   UNL     1      17.310   7.338   6.795  1.00  0.00     0.000 C 
BRANCH  16  17
ATOM     17  C   UNL     1      17.164   8.416   7.885  1.00  0.00     0.000 C 
BRANCH  17  18
ATOM     18  C   UNL     1      15.710   8.777   8.252  1.00  0.00    -0.000 C 
BRANCH  18  19
ATOM     19  C   UNL     1      15.553   9.980   9.202  1.00  0.00    -0.000 C 
BRANCH  19  20
ATOM     20  C   UNL     1      15.012  11.260   8.541  1.00  0.00    -0.000 C 
BRANCH  20  21
ATOM     21  C   UNL     1      15.043  12.475   9.485  1.00  0.00    -0.000 C 
BRANCH  21  22
ATOM     22  C   UNL     1      16.039  12.297  10.642  1.00  0.00    -0.000 C 
BRANCH  22  23
ATOM     23  C   UNL     1      17.175  13.331  10.605  1.00  0.00    -0.000 C 
BRANCH  23  24
ATOM     24  C   UNL     1      18.517  12.685  10.980  1.00  0.00    -0.000 C 
BRANCH  24  25
ATOM     25  C   UNL     1      18.559  11.183  10.655  1.00  0.00    -0.003 C 
ATOM     26  C   UNL     1      19.214  10.356  11.760  1.00  0.00     0.004 C 
ENDBRANCH  24  25
ENDBRANCH  23  24
ENDBRANCH  22  23
ENDBRANCH  21  22
ENDBRANCH  20  21
ENDBRANCH  19  20
ENDBRANCH  18  19
ENDBRANCH  17  18
ENDBRANCH  16  17
ENDBRANCH  15  16
ENDBRANCH   1  15
TORSDOF 22
ENDMDL
MODEL 4
REMARK VINA RESULT:    -5.124      7.674     12.451
REMARK INTER + INTRA:         -13.585
REMARK INTER:                 -11.454
REMARK INTRA:                  -2.131
REMARK UNBOUND:                -1.872
REMARK SMILES CCCCCCCCCCCCCCCCCCCCCCCC(=O)[O-]
REMARK SMILES IDX 13 1 14 2 15 3 16 4 17 5 18 6 19 7 20 8 21 9 22 10 23 11
REMARK SMILES IDX 24 12 25 13 26 14 12 15 11 16 10 17 9 18 8 19 7 20 6 21 5 22
REMARK SMILES IDX 4 23 3 24 2 25 1 26
REMARK H PARENT
REMARK Flexibility Score: inf
ROOT
ATOM      1  C   UNL     1      24.219   7.317  15.586  1.00  0.00     0.000 C 
ENDROOT
BRANCH   1   2
ATOM      2  C   UNL     1      23.084   8.197  16.143  1.00  0.00     0.000 C 
BRANCH   2   3
ATOM      3  C   UNL     1      23.244   8.602  17.620  1.00  0.00     0.000 C 
BRANCH   3   4
ATOM      4  C   UNL     1      21.899   8.895  18.305  1.00  0.00     0.000 C 
BRANCH   4   5
ATOM      5  C   UNL     1      20.979   9.773  17.442  1.00  0.00     0.000 C 
BRANCH   5   6
ATOM      6  C   UNL     1      21.454  11.232  17.375  1.00  0.00     0.000 C 
BRANCH   6   7
ATOM      7  C   UNL     1      21.108  11.864  16.021  1.00  0.00     0.000 C 
BRANCH   7   8
ATOM      8  C   UNL     1      21.579  10.971  14.863  1.00  0.00     0.000 C 
BRANCH   8   9
ATOM      9  C   UNL     1      21.001  11.394  13.501  1.00  0.00     0.000 C 
BRANCH   9  10
ATOM     10  C   UNL     1      20.261  12.745  13.498  1.00  0.00     0.006 C 
BRANCH  10  11
ATOM     11  C   UNL     1      20.260  13.425  12.125  1.00  0.00     0.053 C 
BRANCH  11  12
ATOM     12  C   UNL     1      19.086  12.972  11.315  1.00  0.00     0.041 C 
ATOM     13  O   UNL     1      17.982  13.572  11.403  1.00  0.00    -0.550 OA
ATOM     14  O   UNL     1      19.219  11.901  10.441  1.00  0.00    -0.550 OA
ENDBRANCH  11  12
ENDBRANCH  10  11
ENDBRANCH   9  10
ENDBRANCH   8   9
ENDBRANCH   7   8
ENDBRANCH   6   7
ENDBRANCH   5   6
ENDBRANCH   4   5
ENDBRANCH   3   4
ENDBRANCH   2   3
ENDBRANCH   1   2
BRANCH   1  15
ATOM     15  C   UNL     1      24.051   6.996  14.094  1.00  0.00     0.000 C 
BRANCH  15  16
ATOM     16  C   UNL     1      23.290   5.676  13.896  1.00  0.00     0.000 C 
BRANCH  16  17
ATOM     17  C   UNL     1      23.440   4.716  15.090  1.00  0.00     0.000 C 
BRANCH  17  18
ATOM     18  C   UNL     1      24.304   3.468  14.816  1.00  0.00    -0.000 C 
BRANCH  18  19
ATOM     19  C   UNL     1      25.107   3.503  13.501  1.00  0.00    -0.000 C 
BRANCH  19  20
ATOM     20  C   UNL     1      26.418   2.697  13.522  1.00  0.00    -0.000 C 
BRANCH  20  21
ATOM     21  C   UNL     1      27.588   3.448  12.861  1.00  0.00    -0.000 C 
BRANCH  21  22
ATOM     22  C   UNL     1      27.311   4.952  12.708  1.00  0.00    -0.000 C 
BRANCH  22  23
ATOM     23  C   UNL     1      27.779   5.764  13.925  1.00  0.00    -0.000 C 
BRANCH  23  24
ATOM     24  C   UNL     1      27.728   7.271  13.633  1.00  0.00    -0.000 C 
BRANCH  24  25
ATOM     25  C   UNL     1      28.451   7.642  12.328  1.00  0.00    -0.003 C 
ATOM     26  C   UNL     1      27.951   8.954  11.727  1.00  0.00     0.004 C 
ENDBRANCH  24  25
ENDBRANCH  23  24
ENDBRANCH  22  23
ENDBRANCH  21  22
ENDBRANCH  20  21
ENDBRANCH  19  20
ENDBRANCH  18  19
ENDBRANCH  17  18
ENDBRANCH  16  17
ENDBRANCH  15  16
ENDBRANCH   1  15
TORSDOF 22
ENDMDL
MODEL 5
REMARK VINA RESULT:    -5.109      7.713     12.283
REMARK INTER + INTRA:         -13.551
REMARK INTER:                 -10.412
REMARK INTRA:                  -3.139
REMARK UNBOUND:                -1.872
REMARK SMILES CCCCCCCCCCCCCCCCCCCCCCCC(=O)[O-]
REMARK SMILES IDX 13 1 14 2 15 3 16 4 17 5 18 6 19 7 20 8 21 9 22 10 23 11
REMARK SMILES IDX 24 12 25 13 26 14 12 15 11 16 10 17 9 18 8 19 7 20 6 21 5 22
REMARK SMILES IDX 4 23 3 24 2 25 1 26
REMARK H PARENT
REMARK Flexibility Score: inf
ROOT
ATOM      1  C   UNL     1      26.214   7.776  14.412  1.00  0.00     0.000 C 
ENDROOT
BRANCH   1   2
ATOM      2  C   UNL     1      26.552   8.473  15.743  1.00  0.00     0.000 C 
BRANCH   2   3
ATOM      3  C   UNL     1      25.404   8.501  16.769  1.00  0.00     0.000 C 
BRANCH   3   4
ATOM      4  C   UNL     1      24.025   8.678  16.113  1.00  0.00     0.000 C 
BRANCH   4   5
ATOM      5  C   UNL     1      22.897   8.031  16.932  1.00  0.00     0.000 C 
BRANCH   5   6
ATOM      6  C   UNL     1      22.653   8.752  18.267  1.00  0.00     0.000 C 
BRANCH   6   7
ATOM      7  C   UNL     1      21.309   9.489  18.258  1.00  0.00     0.000 C 
BRANCH   7   8
ATOM      8  C   UNL     1      21.505  10.984  17.962  1.00  0.00     0.000 C 
BRANCH   8   9
ATOM      9  C   UNL     1      20.627  11.489  16.803  1.00  0.00     0.000 C 
BRANCH   9  10
ATOM     10  C   UNL     1      20.695  10.643  15.518  1.00  0.00     0.006 C 
BRANCH  10  11
ATOM     11  C   UNL     1      21.462  11.334  14.384  1.00  0.00     0.053 C 
BRANCH  11  12
ATOM     12  C   UNL     1      20.637  11.368  13.136  1.00  0.00     0.041 C 
ATOM     13  O   UNL     1      20.455  12.453  12.523  1.00  0.00    -0.550 OA
ATOM     14  O   UNL     1      20.090  10.194  12.635  1.00  0.00    -0.550 OA
ENDBRANCH  11  12
ENDBRANCH  10  11
ENDBRANCH   9  10
ENDBRANCH   8   9
ENDBRANCH   7   8
ENDBRANCH   6   7
ENDBRANCH   5   6
ENDBRANCH   4   5
ENDBRANCH   3   4
ENDBRANCH   2   3
ENDBRANCH   1   2
BRANCH   1  15
ATOM     15  C   UNL     1      27.185   8.144  13.279  1.00  0.00     0.000 C 
BRANCH  15  16
ATOM     16  C   UNL     1      28.155   6.990  12.990  1.00  0.00     0.000 C 
BRANCH  16  17
ATOM     17  C   UNL     1      27.718   5.663  13.637  1.00  0.00     0.000 C 
BRANCH  17  18
ATOM     18  C   UNL     1      27.658   4.459  12.676  1.00  0.00    -0.000 C 
BRANCH  18  19
ATOM     19  C   UNL     1      27.646   3.076  13.358  1.00  0.00    -0.000 C 
BRANCH  19  20
ATOM     20  C   UNL     1      26.354   2.266  13.155  1.00  0.00    -0.000 C 
BRANCH  20  21
ATOM     21  C   UNL     1      25.087   3.135  13.251  1.00  0.00    -0.000 C 
BRANCH  21  22
ATOM     22  C   UNL     1      24.506   3.176  14.673  1.00  0.00    -0.000 C 
BRANCH  22  23
ATOM     23  C   UNL     1      23.892   4.541  15.019  1.00  0.00    -0.000 C 
BRANCH  23  24
ATOM     24  C   UNL     1      23.844   5.450  13.782  1.00  0.00    -0.000 C 
BRANCH  24  25
ATOM     25  C   UNL     1      22.470   6.111  13.590  1.00  0.00    -0.003 C 
ATOM     26  C   UNL     1      22.555   7.460  12.879  1.00  0.00     0.004 C 
ENDBRANCH  24  25
ENDBRANCH  23  24
ENDBRANCH  22  23
ENDBRANCH  21  22
ENDBRANCH  20  21
ENDBRANCH  19  20
ENDBRANCH  18  19
ENDBRANCH  17  18
ENDBRANCH  16  17
ENDBRANCH  15  16
ENDBRANCH   1  15
TORSDOF 22
ENDMDL
MODEL 6
REMARK VINA RESULT:    -5.060      6.855     12.262
REMARK INTER + INTRA:         -13.439
REMARK INTER:                 -11.690
REMARK INTRA:                  -1.749
REMARK UNBOUND:                -1.872
REMARK SMILES CCCCCCCCCCCCCCCCCCCCCCCC(=O)[O-]
REMARK SMILES IDX 13 1 14 2 15 3 16 4 17 5 18 6 19 7 20 8 21 9 22 10 23 11
REMARK SMILES IDX 24 12 25 13 26 14 12 15 11 16 10 17 9 18 8 19 7 20 6 21 5 22
REMARK SMILES IDX 4 23 3 24 2 25 1 26
REMARK H PARENT
REMARK Flexibility Score: inf
ROOT
ATOM      1  C   UNL     1      20.614  10.987  16.656  1.00  0.00     0.000 C 
ENDROOT
BRANCH   1   2
ATOM      2  C   UNL     1      21.833  11.268  15.759  1.00  0.00     0.000 C 
BRANCH   2   3
ATOM      3  C   UNL     1      21.724  10.713  14.326  1.00  0.00     0.000 C 
BRANCH   3   4
ATOM      4  C   UNL     1      20.619  11.398  13.505  1.00  0.00     0.000 C 
BRANCH   4   5
ATOM      5  C   UNL     1      21.014  12.812  13.052  1.00  0.00     0.000 C 
BRANCH   5   6
ATOM      6  C   UNL     1      20.038  13.391  12.017  1.00  0.00     0.000 C 
BRANCH   6   7
ATOM      7  C   UNL     1      18.816  12.483  11.842  1.00  0.00     0.000 C 
BRANCH   7   8
ATOM      8  C   UNL     1      18.816  11.826  10.453  1.00  0.00     0.000 C 
BRANCH   8   9
ATOM      9  C   UNL     1      18.581  10.305  10.505  1.00  0.00     0.000 C 
BRANCH   9  10
ATOM     10  C   UNL     1      17.139   9.858  10.205  1.00  0.00     0.006 C 
BRANCH  10  11
ATOM     11  C   UNL     1      16.195  11.031   9.915  1.00  0.00     0.053 C 
BRANCH  11  12
ATOM     12  C   UNL     1      15.335  10.731   8.727  1.00  0.00     0.041 C 
ATOM     13  O   UNL     1      15.496   9.664   8.078  1.00  0.00    -0.550 OA
ATOM     14  O   UNL     1      14.337  11.621   8.352  1.00  0.00    -0.550 OA
ENDBRANCH  11  12
ENDBRANCH  10  11
ENDBRANCH   9  10
ENDBRANCH   8   9
ENDBRANCH   7   8
ENDBRANCH   6   7
ENDBRANCH   5   6
ENDBRANCH   4   5
ENDBRANCH   3   4
ENDBRANCH   2   3
ENDBRANCH   1   2
BRANCH   1  15
ATOM     15  C   UNL     1      21.002  10.629  18.099  1.00  0.00     0.000 C 
BRANCH  15  16
ATOM     16  C   UNL     1      21.389   9.147  18.214  1.00  0.00     0.000 C 
BRANCH  16  17
ATOM     17  C   UNL     1      22.877   8.942  18.554  1.00  0.00     0.000 C 
BRANCH  17  18
ATOM     18  C   UNL     1      23.764   8.523  17.364  1.00  0.00    -0.000 C 
BRANCH  18  19
ATOM     19  C   UNL     1      23.123   7.513  16.392  1.00  0.00    -0.000 C 
BRANCH  19  20
ATOM     20  C   UNL     1      23.630   7.600  14.942  1.00  0.00    -0.000 C 
BRANCH  20  21
ATOM     21  C   UNL     1      23.460   6.277  14.173  1.00  0.00    -0.000 C 
BRANCH  21  22
ATOM     22  C   UNL     1      24.767   5.474  14.089  1.00  0.00    -0.000 C 
BRANCH  22  23
ATOM     23  C   UNL     1      24.567   3.988  14.426  1.00  0.00    -0.000 C 
BRANCH  23  24
ATOM     24  C   UNL     1      25.153   3.091  13.325  1.00  0.00    -0.000 C 
BRANCH  24  25
ATOM     25  C   UNL     1      26.404   2.330  13.790  1.00  0.00    -0.003 C 
ATOM     26  C   UNL     1      27.691   2.870  13.168  1.00  0.00     0.004 C 
ENDBRANCH  24  25
ENDBRANCH  23  24
ENDBRANCH  22  23
ENDBRANCH  21  22
ENDBRANCH  20  21
ENDBRANCH  19  20
ENDBRANCH  18  19
ENDBRANCH  17  18
ENDBRANCH  16  17
ENDBRANCH  15  16
ENDBRANCH   1  15
TORSDOF 22
ENDMDL
MODEL 7
REMARK VINA RESULT:    -5.031      9.223     11.980
REMARK INTER + INTRA:         -13.374
REMARK INTER:                  -9.610
REMARK INTRA:                  -3.764
REMARK UNBOUND:                -1.872
REMARK SMILES CCCCCCCCCCCCCCCCCCCCCCCC(=O)[O-]
REMARK SMILES IDX 13 1 14 2 15 3 16 4 17 5 18 6 19 7 20 8 21 9 22 10 23 11
REMARK SMILES IDX 24 12 25 13 26 14 12 15 11 16 10 17 9 18 8 19 7 20 6 21 5 22
REMARK SMILES IDX 4 23 3 24 2 25 1 26
REMARK H PARENT
REMARK Flexibility Score: inf
ROOT
ATOM      1  C   UNL     1      27.520   4.396  13.233  1.00  0.00     0.000 C 
ENDROOT
BRANCH   1   2
ATOM      2  C   UNL     1      26.428   3.311  13.268  1.00  0.00     0.000 C 
BRANCH   2   3
ATOM      3  C   UNL     1      24.986   3.846  13.349  1.00  0.00     0.000 C 
BRANCH   3   4
ATOM      4  C   UNL     1      24.351   3.637  14.733  1.00  0.00     0.000 C 
BRANCH   4   5
ATOM      5  C   UNL     1      23.374   4.763  15.108  1.00  0.00     0.000 C 
BRANCH   5   6
ATOM      6  C   UNL     1      23.148   5.752  13.954  1.00  0.00     0.000 C 
BRANCH   6   7
ATOM      7  C   UNL     1      23.420   7.193  14.400  1.00  0.00     0.000 C 
BRANCH   7   8
ATOM      8  C   UNL     1      23.805   7.242  15.887  1.00  0.00     0.000 C 
BRANCH   8   9
ATOM      9  C   UNL     1      23.370   8.547  16.579  1.00  0.00     0.000 C 
BRANCH   9  10
ATOM     10  C   UNL     1      22.675   8.361  17.941  1.00  0.00     0.006 C 
BRANCH  10  11
ATOM     11  C   UNL     1      21.327   9.086  18.030  1.00  0.00     0.053 C 
BRANCH  11  12
ATOM     12  C   UNL     1      21.419  10.446  17.413  1.00  0.00     0.041 C 
ATOM     13  O   UNL     1      20.940  10.659  16.268  1.00  0.00    -0.550 OA
ATOM     14  O   UNL     1      22.014  11.486  18.115  1.00  0.00    -0.550 OA
ENDBRANCH  11  12
ENDBRANCH  10  11
ENDBRANCH   9  10
ENDBRANCH   8   9
ENDBRANCH   7   8
ENDBRANCH   6   7
ENDBRANCH   5   6
ENDBRANCH   4   5
ENDBRANCH   3   4
ENDBRANCH   2   3
ENDBRANCH   1   2
BRANCH   1  15
ATOM     15  C   UNL     1      27.014   5.770  13.697  1.00  0.00     0.000 C 
BRANCH  15  16
ATOM     16  C   UNL     1      28.145   6.586  14.339  1.00  0.00     0.000 C 
BRANCH  16  17
ATOM     17  C   UNL     1      29.030   7.302  13.303  1.00  0.00     0.000 C 
BRANCH  17  18
ATOM     18  C   UNL     1      28.273   7.876  12.087  1.00  0.00    -0.000 C 
BRANCH  18  19
ATOM     19  C   UNL     1      27.686   9.287  12.288  1.00  0.00    -0.000 C 
BRANCH  19  20
ATOM     20  C   UNL     1      26.247   9.317  12.833  1.00  0.00    -0.000 C 
BRANCH  20  21
ATOM     21  C   UNL     1      26.162   9.902  14.254  1.00  0.00    -0.000 C 
BRANCH  21  22
ATOM     22  C   UNL     1      27.466  10.588  14.687  1.00  0.00    -0.000 C 
BRANCH  22  23
ATOM     23  C   UNL     1      28.043   9.991  15.981  1.00  0.00    -0.000 C 
BRANCH  23  24
ATOM     24  C   UNL     1      27.075   8.969  16.593  1.00  0.00    -0.000 C 
BRANCH  24  25
ATOM     25  C   UNL     1      27.727   8.135  17.708  1.00  0.00    -0.003 C 
ATOM     26  C   UNL     1      26.756   7.151  18.356  1.00  0.00     0.004 C 
ENDBRANCH  24  25
ENDBRANCH  23  24
ENDBRANCH  22  23
ENDBRANCH  21  22
ENDBRANCH  20  21
ENDBRANCH  19  20
ENDBRANCH  18  19
ENDBRANCH  17  18
ENDBRANCH  16  17
ENDBRANCH  15  16
ENDBRANCH   1  15
TORSDOF 22
ENDMDL
MODEL 8
REMARK VINA RESULT:    -4.999      6.678     12.133
REMARK INTER + INTRA:         -13.300
REMARK INTER:                 -10.406
REMARK INTRA:                  -2.894
REMARK UNBOUND:                -1.872
REMARK SMILES CCCCCCCCCCCCCCCCCCCCCCCC(=O)[O-]
REMARK SMILES IDX 13 1 14 2 15 3 16 4 17 5 18 6 19 7 20 8 21 9 22 10 23 11
REMARK SMILES IDX 24 12 25 13 26 14 12 15 11 16 10 17 9 18 8 19 7 20 6 21 5 22
REMARK SMILES IDX 4 23 3 24 2 25 1 26
REMARK H PARENT
REMARK Flexibility Score: inf
ROOT
ATOM      1  C   UNL     1      20.965  11.703  15.919  1.00  0.00     0.000 C 
ENDROOT
BRANCH   1   2
ATOM      2  C   UNL     1      21.595  11.035  14.683  1.00  0.00     0.000 C 
BRANCH   2   3
ATOM      3  C   UNL     1      23.120  11.208  14.559  1.00  0.00     0.000 C 
BRANCH   3   4
ATOM      4  C   UNL     1      23.587  12.629  14.915  1.00  0.00     0.000 C 
BRANCH   4   5
ATOM      5  C   UNL     1      24.255  13.342  13.729  1.00  0.00     0.000 C 
BRANCH   5   6
ATOM      6  C   UNL     1      23.245  14.112  12.863  1.00  0.00     0.000 C 
BRANCH   6   7
ATOM      7  C   UNL     1      22.222  14.851  13.733  1.00  0.00     0.000 C 
BRANCH   7   8
ATOM      8  C   UNL     1      20.800  14.672  13.179  1.00  0.00     0.000 C 
BRANCH   8   9
ATOM      9  C   UNL     1      20.678  13.488  12.203  1.00  0.00     0.000 C 
BRANCH   9  10
ATOM     10  C   UNL     1      19.314  12.773  12.213  1.00  0.00     0.006 C 
BRANCH  10  11
ATOM     11  C   UNL     1      18.922  12.210  10.842  1.00  0.00     0.053 C 
BRANCH  11  12
ATOM     12  C   UNL     1      18.794  10.720  10.904  1.00  0.00     0.041 C 
ATOM     13  O   UNL     1      18.289  10.085   9.940  1.00  0.00    -0.550 OA
ATOM     14  O   UNL     1      19.258  10.030  12.016  1.00  0.00    -0.550 OA
ENDBRANCH  11  12
ENDBRANCH  10  11
ENDBRANCH   9  10
ENDBRANCH   8   9
ENDBRANCH   7   8
ENDBRANCH   6   7
ENDBRANCH   5   6
ENDBRANCH   4   5
ENDBRANCH   3   4
ENDBRANCH   2   3
ENDBRANCH   1   2
BRANCH   1  15
ATOM     15  C   UNL     1      20.534  10.692  16.992  1.00  0.00     0.000 C 
BRANCH  15  16
ATOM     16  C   UNL     1      21.413  10.812  18.246  1.00  0.00     0.000 C 
BRANCH  16  17
ATOM     17  C   UNL     1      22.312   9.583  18.466  1.00  0.00     0.000 C 
BRANCH  17  18
ATOM     18  C   UNL     1      22.162   8.469  17.410  1.00  0.00    -0.000 C 
BRANCH  18  19
ATOM     19  C   UNL     1      23.457   8.095  16.663  1.00  0.00    -0.000 C 
BRANCH  19  20
ATOM     20  C   UNL     1      23.261   7.678  15.195  1.00  0.00    -0.000 C 
BRANCH  20  21
ATOM     21  C   UNL     1      23.997   6.373  14.844  1.00  0.00    -0.000 C 
BRANCH  21  22
ATOM     22  C   UNL     1      23.256   5.125  15.347  1.00  0.00    -0.000 C 
BRANCH  22  23
ATOM     23  C   UNL     1      24.021   3.826  15.051  1.00  0.00    -0.000 C 
BRANCH  23  24
ATOM     24  C   UNL     1      24.875   3.970  13.783  1.00  0.00    -0.000 C 
BRANCH  24  25
ATOM     25  C   UNL     1      25.750   2.734  13.518  1.00  0.00    -0.003 C 
ATOM     26  C   UNL     1      25.886   2.412  12.031  1.00  0.00     0.004 C 
ENDBRANCH  24  25
ENDBRANCH  23  24
ENDBRANCH  22  23
ENDBRANCH  21  22
ENDBRANCH  20  21
ENDBRANCH  19  20
ENDBRANCH  18  19
ENDBRANCH  17  18
ENDBRANCH  16  17
ENDBRANCH  15  16
ENDBRANCH   1  15
TORSDOF 22
ENDMDL
MODEL 9
REMARK VINA RESULT:    -4.929      8.192      9.867
REMARK INTER + INTRA:         -13.139
REMARK INTER:                  -9.394
REMARK INTRA:                  -3.745
REMARK UNBOUND:                -1.872
REMARK SMILES CCCCCCCCCCCCCCCCCCCCCCCC(=O)[O-]
REMARK SMILES IDX 13 1 14 2 15 3 16 4 17 5 18 6 19 7 20 8 21 9 22 10 23 11
REMARK SMILES IDX 24 12 25 13 26 14 12 15 11 16 10 17 9 18 8 19 7 20 6 21 5 22
REMARK SMILES IDX 4 23 3 24 2 25 1 26
REMARK H PARENT
REMARK Flexibility Score: inf
ROOT
ATOM      1  C   UNL     1      24.547   8.027  16.136  1.00  0.00     0.000 C 
ENDROOT
BRANCH   1   2
ATOM      2  C   UNL     1      24.665   7.534  14.682  1.00  0.00     0.000 C 
BRANCH   2   3
ATOM      3  C   UNL     1      23.337   7.092  14.038  1.00  0.00     0.000 C 
BRANCH   3   4
ATOM      4  C   UNL     1      23.287   5.582  13.753  1.00  0.00     0.000 C 
BRANCH   4   5
ATOM      5  C   UNL     1      23.498   4.738  15.020  1.00  0.00     0.000 C 
BRANCH   5   6
ATOM      6  C   UNL     1      24.314   3.465  14.748  1.00  0.00     0.000 C 
BRANCH   6   7
ATOM      7  C   UNL     1      25.066   3.566  13.416  1.00  0.00     0.000 C 
BRANCH   7   8
ATOM      8  C   UNL     1      26.360   2.738  13.453  1.00  0.00     0.000 C 
BRANCH   8   9
ATOM      9  C   UNL     1      27.620   3.575  13.168  1.00  0.00     0.000 C 
BRANCH   9  10
ATOM     10  C   UNL     1      27.365   5.075  12.928  1.00  0.00     0.006 C 
BRANCH  10  11
ATOM     11  C   UNL     1      28.066   5.974  13.953  1.00  0.00     0.053 C 
BRANCH  11  12
ATOM     12  C   UNL     1      28.239   7.357  13.407  1.00  0.00     0.041 C 
ATOM     13  O   UNL     1      28.276   7.550  12.162  1.00  0.00    -0.550 OA
ATOM     14  O   UNL     1      28.334   8.437  14.274  1.00  0.00    -0.550 OA
ENDBRANCH  11  12
ENDBRANCH  10  11
ENDBRANCH   9  10
ENDBRANCH   8   9
ENDBRANCH   7   8
ENDBRANCH   6   7
ENDBRANCH   5   6
ENDBRANCH   4   5
ENDBRANCH   3   4
ENDBRANCH   2   3
ENDBRANCH   1   2
BRANCH   1  15
ATOM     15  C   UNL     1      23.093   8.104  16.626  1.00  0.00     0.000 C 
BRANCH  15  16
ATOM     16  C   UNL     1      23.019   8.703  18.038  1.00  0.00     0.000 C 
BRANCH  16  17
ATOM     17  C   UNL     1      23.652  10.104  18.127  1.00  0.00     0.000 C 
BRANCH  17  18
ATOM     18  C   UNL     1      22.645  11.272  18.144  1.00  0.00    -0.000 C 
BRANCH  18  19
ATOM     19  C   UNL     1      21.165  10.860  18.265  1.00  0.00    -0.000 C 
BRANCH  19  20
ATOM     20  C   UNL     1      20.241  11.441  17.180  1.00  0.00    -0.000 C 
BRANCH  20  21
ATOM     21  C   UNL     1      20.634  10.990  15.762  1.00  0.00    -0.000 C 
BRANCH  21  22
ATOM     22  C   UNL     1      20.765  12.168  14.784  1.00  0.00    -0.000 C 
BRANCH  22  23
ATOM     23  C   UNL     1      22.175  12.279  14.181  1.00  0.00    -0.000 C 
BRANCH  23  24
ATOM     24  C   UNL     1      22.983  10.999  14.438  1.00  0.00    -0.000 C 
BRANCH  24  25
ATOM     25  C   UNL     1      24.497  11.260  14.495  1.00  0.00    -0.003 C 
ATOM     26  C   UNL     1      24.860  12.443  15.391  1.00  0.00     0.004 C 
ENDBRANCH  24  25
ENDBRANCH  23  24
ENDBRANCH  22  23
ENDBRANCH  21  22
ENDBRANCH  20  21
ENDBRANCH  19  20
ENDBRANCH  18  19
ENDBRANCH  17  18
ENDBRANCH  16  17
ENDBRANCH  15  16
ENDBRANCH   1  15
TORSDOF 22
ENDMDL
