MODEL 1
REMARK VINA RESULT:    -4.234      0.000      0.000
REMARK INTER + INTRA:          -4.358
REMARK INTER:                  -4.358
REMARK INTRA:                   0.000
REMARK UNBOUND:                 0.000
REMARK SMILES Nc1ncnc2nc[nH]c12
REMARK SMILES IDX 8 1 7 2 6 3 5 4 4 5 3 6 2 7 10 8 9 9 1 11
REMARK H PARENT 9 10 1 12 1 13
REMARK Flexibility Score: inf
ROOT
ATOM      1  C   UNL     1       4.854   9.302  38.831  1.00  0.00     0.199 A 
ATOM      2  N   UNL     1       3.971  10.095  39.499  1.00  0.00    -0.217 NA
ATOM      3  C   UNL     1       4.763  11.070  39.972  1.00  0.00     0.182 A 
ATOM      4  N   UNL     1       4.380  12.133  40.719  1.00  0.00    -0.215 NA
ATOM      5  C   UNL     1       5.338  13.028  41.108  1.00  0.00     0.226 A 
ATOM      6  N   UNL     1       6.649  12.845  40.749  1.00  0.00    -0.217 NA
ATOM      7  C   UNL     1       7.038  11.773  39.995  1.00  0.00     0.152 A 
ATOM      8  C   UNL     1       6.051  10.872  39.606  1.00  0.00     0.127 A 
ATOM      9  N   UNL     1       6.133   9.751  38.878  1.00  0.00    -0.340 N 
ATOM     10  H   UNL     1       6.977   9.315  38.445  1.00  0.00     0.168 HD
ENDROOT
BRANCH   7  11
ATOM     11  N   UNL     1       8.409  11.603  39.633  1.00  0.00    -0.382 N 
ATOM     12  H   UNL     1       9.010  12.418  39.381  1.00  0.00     0.158 HD
ATOM     13  H   UNL     1       8.830  10.648  39.617  1.00  0.00     0.158 HD
ENDBRANCH   7  11
TORSDOF 1
ENDMDL
MODEL 2
REMARK VINA RESULT:    -3.926      1.402      2.897
REMARK INTER + INTRA:          -4.041
REMARK INTER:                  -4.041
REMARK INTRA:                   0.000
REMARK UNBOUND:                 0.000
REMARK SMILES Nc1ncnc2nc[nH]c12
REMARK SMILES IDX 8 1 7 2 6 3 5 4 4 5 3 6 2 7 10 8 9 9 1 11
REMARK H PARENT 9 10 1 12 1 13
REMARK Flexibility Score: inf
ROOT
ATOM      1  C   UNL     1       4.828  11.646  42.856  1.00  0.00     0.199 A 
ATOM      2  N   UNL     1       4.110  10.647  42.273  1.00  0.00    -0.217 NA
ATOM      3  C   UNL     1       4.771  10.456  41.120  1.00  0.00     0.182 A 
ATOM      4  N   UNL     1       4.467   9.558  40.152  1.00  0.00    -0.215 NA
ATOM      5  C   UNL     1       5.263   9.511  39.042  1.00  0.00     0.226 A 
ATOM      6  N   UNL     1       6.338  10.353  38.920  1.00  0.00    -0.217 NA
ATOM      7  C   UNL     1       6.648  11.260  39.895  1.00  0.00     0.152 A 
ATOM      8  C   UNL     1       5.827  11.295  41.020  1.00  0.00     0.127 A 
ATOM      9  N   UNL     1       5.884  12.065  42.114  1.00  0.00    -0.340 N 
ATOM     10  H   UNL     1       6.573  12.812  42.352  1.00  0.00     0.168 HD
ENDROOT
BRANCH   7  11
ATOM     11  N   UNL     1       7.772  12.128  39.746  1.00  0.00    -0.382 N 
ATOM     12  H   UNL     1       8.583  12.085  40.402  1.00  0.00     0.158 HD
ATOM     13  H   UNL     1       7.796  12.823  38.968  1.00  0.00     0.158 HD
ENDBRANCH   7  11
TORSDOF 1
ENDMDL
MODEL 3
REMARK VINA RESULT:    -3.862      1.213      3.069
REMARK INTER + INTRA:          -3.975
REMARK INTER:                  -3.975
REMARK INTRA:                   0.000
REMARK UNBOUND:                 0.000
REMARK SMILES Nc1ncnc2nc[nH]c12
REMARK SMILES IDX 8 1 7 2 6 3 5 4 4 5 3 6 2 7 10 8 9 9 1 11
REMARK H PARENT 9 10 1 12 1 13
REMARK Flexibility Score: inf
ROOT
ATOM      1  C   UNL     1       7.886  11.895  40.185  1.00  0.00     0.199 A 
ATOM      2  N   UNL     1       7.148  11.961  41.328  1.00  0.00    -0.217 NA
ATOM      3  C   UNL     1       6.020  11.324  40.977  1.00  0.00     0.182 A 
ATOM      4  N   UNL     1       4.936  11.107  41.760  1.00  0.00    -0.215 NA
ATOM      5  C   UNL     1       3.875  10.433  41.221  1.00  0.00     0.226 A 
ATOM      6  N   UNL     1       3.915   9.994  39.923  1.00  0.00    -0.217 NA
ATOM      7  C   UNL     1       5.007  10.212  39.130  1.00  0.00     0.152 A 
ATOM      8  C   UNL     1       6.080  10.899  39.693  1.00  0.00     0.127 A 
ATOM      9  N   UNL     1       7.260  11.252  39.168  1.00  0.00    -0.340 N 
ATOM     10  H   UNL     1       7.623  11.079  38.205  1.00  0.00     0.168 HD
ENDROOT
BRANCH   7  11
ATOM     11  N   UNL     1       5.026   9.747  37.780  1.00  0.00    -0.382 N 
ATOM     12  H   UNL     1       5.270   8.758  37.550  1.00  0.00     0.158 HD
ATOM     13  H   UNL     1       4.793  10.399  37.000  1.00  0.00     0.158 HD
ENDBRANCH   7  11
TORSDOF 1
ENDMDL
MODEL 4
REMARK VINA RESULT:    -3.733      1.248      2.514
REMARK INTER + INTRA:          -3.842
REMARK INTER:                  -3.842
REMARK INTRA:                   0.000
REMARK UNBOUND:                 0.000
REMARK SMILES Nc1ncnc2nc[nH]c12
REMARK SMILES IDX 8 1 7 2 6 3 5 4 4 5 3 6 2 7 10 8 9 9 1 11
REMARK H PARENT 9 10 1 12 1 13
REMARK Flexibility Score: inf
ROOT
ATOM      1  C   UNL     1       4.612   9.514  38.822  1.00  0.00     0.199 A 
ATOM      2  N   UNL     1       5.804  10.066  38.463  1.00  0.00    -0.217 NA
ATOM      3  C   UNL     1       6.149  10.745  39.569  1.00  0.00     0.182 A 
ATOM      4  N   UNL     1       7.269  11.486  39.747  1.00  0.00    -0.215 NA
ATOM      5  C   UNL     1       7.447  12.107  40.952  1.00  0.00     0.226 A 
ATOM      6  N   UNL     1       6.512  11.980  41.946  1.00  0.00    -0.217 NA
ATOM      7  C   UNL     1       5.381  11.233  41.769  1.00  0.00     0.152 A 
ATOM      8  C   UNL     1       5.214  10.606  40.537  1.00  0.00     0.127 A 
ATOM      9  N   UNL     1       4.225   9.826  40.085  1.00  0.00    -0.340 N 
ATOM     10  H   UNL     1       3.356   9.522  40.577  1.00  0.00     0.168 HD
ENDROOT
BRANCH   7  11
ATOM     11  N   UNL     1       4.420  11.115  42.819  1.00  0.00    -0.382 N 
ATOM     12  H   UNL     1       4.461  10.331  43.508  1.00  0.00     0.158 HD
ATOM     13  H   UNL     1       3.656  11.821  42.910  1.00  0.00     0.158 HD
ENDBRANCH   7  11
TORSDOF 1
ENDMDL
MODEL 5
REMARK VINA RESULT:    -3.720     13.020     14.296
REMARK INTER + INTRA:          -3.828
REMARK INTER:                  -3.828
REMARK INTRA:                   0.000
REMARK UNBOUND:                 0.000
REMARK SMILES Nc1ncnc2nc[nH]c12
REMARK SMILES IDX 8 1 7 2 6 3 5 4 4 5 3 6 2 7 10 8 9 9 1 11
REMARK H PARENT 9 10 1 12 1 13
REMARK Flexibility Score: inf
ROOT
ATOM      1  C   UNL     1      16.006  -0.395  35.187  1.00  0.00     0.199 A 
ATOM      2  N   UNL     1      16.441   0.892  35.109  1.00  0.00    -0.217 NA
ATOM      3  C   UNL     1      15.736   1.492  36.081  1.00  0.00     0.182 A 
ATOM      4  N   UNL     1      15.791   2.799  36.432  1.00  0.00    -0.215 NA
ATOM      5  C   UNL     1      14.991   3.227  37.455  1.00  0.00     0.226 A 
ATOM      6  N   UNL     1      14.159   2.350  38.102  1.00  0.00    -0.217 NA
ATOM      7  C   UNL     1      14.101   1.031  37.751  1.00  0.00     0.152 A 
ATOM      8  C   UNL     1      14.922   0.610  36.707  1.00  0.00     0.127 A 
ATOM      9  N   UNL     1      15.076  -0.599  36.154  1.00  0.00    -0.340 N 
ATOM     10  H   UNL     1      14.600  -1.495  36.400  1.00  0.00     0.168 HD
ENDROOT
BRANCH   7  11
ATOM     11  N   UNL     1      13.227   0.135  38.438  1.00  0.00    -0.382 N 
ATOM     12  H   UNL     1      13.592  -0.560  39.126  1.00  0.00     0.158 HD
ATOM     13  H   UNL     1      12.199   0.168  38.258  1.00  0.00     0.158 HD
ENDBRANCH   7  11
TORSDOF 1
ENDMDL
MODEL 6
REMARK VINA RESULT:    -3.644     15.201     16.337
REMARK INTER + INTRA:          -3.751
REMARK INTER:                  -3.751
REMARK INTRA:                   0.000
REMARK UNBOUND:                 0.000
REMARK SMILES Nc1ncnc2nc[nH]c12
REMARK SMILES IDX 8 1 7 2 6 3 5 4 4 5 3 6 2 7 10 8 9 9 1 11
REMARK H PARENT 9 10 1 12 1 13
REMARK Flexibility Score: inf
ROOT
ATOM      1  C   UNL     1      16.798   2.514  49.384  1.00  0.00     0.199 A 
ATOM      2  N   UNL     1      16.433   3.759  48.972  1.00  0.00    -0.217 NA
ATOM      3  C   UNL     1      17.098   3.883  47.812  1.00  0.00     0.182 A 
ATOM      4  N   UNL     1      17.084   4.952  46.980  1.00  0.00    -0.215 NA
ATOM      5  C   UNL     1      17.831   4.890  45.837  1.00  0.00     0.226 A 
ATOM      6  N   UNL     1      18.572   3.774  45.548  1.00  0.00    -0.217 NA
ATOM      7  C   UNL     1      18.588   2.693  46.385  1.00  0.00     0.152 A 
ATOM      8  C   UNL     1      17.822   2.771  47.545  1.00  0.00     0.127 A 
ATOM      9  N   UNL     1      17.647   1.884  48.533  1.00  0.00    -0.340 N 
ATOM     10  H   UNL     1      18.061   0.931  48.636  1.00  0.00     0.168 HD
ENDROOT
BRANCH   7  11
ATOM     11  N   UNL     1      19.368   1.541  46.064  1.00  0.00    -0.382 N 
ATOM     12  H   UNL     1      19.170   0.970  45.212  1.00  0.00     0.158 HD
ATOM     13  H   UNL     1      20.155   1.253  46.685  1.00  0.00     0.158 HD
ENDBRANCH   7  11
TORSDOF 1
ENDMDL
MODEL 7
REMARK VINA RESULT:    -3.627     16.657     17.819
REMARK INTER + INTRA:          -3.733
REMARK INTER:                  -3.733
REMARK INTRA:                   0.000
REMARK UNBOUND:                 0.000
REMARK SMILES Nc1ncnc2nc[nH]c12
REMARK SMILES IDX 8 1 7 2 6 3 5 4 4 5 3 6 2 7 10 8 9 9 1 11
REMARK H PARENT 9 10 1 12 1 13
REMARK Flexibility Score: inf
ROOT
ATOM      1  C   UNL     1      19.751  -1.720  43.410  1.00  0.00     0.199 A 
ATOM      2  N   UNL     1      19.609  -1.012  42.256  1.00  0.00    -0.217 NA
ATOM      3  C   UNL     1      19.437   0.240  42.708  1.00  0.00     0.182 A 
ATOM      4  N   UNL     1      19.248   1.352  41.959  1.00  0.00    -0.215 NA
ATOM      5  C   UNL     1      19.092   2.547  42.604  1.00  0.00     0.226 A 
ATOM      6  N   UNL     1      19.128   2.609  43.974  1.00  0.00    -0.217 NA
ATOM      7  C   UNL     1      19.319   1.488  44.733  1.00  0.00     0.152 A 
ATOM      8  C   UNL     1      19.476   0.279  44.060  1.00  0.00     0.127 A 
ATOM      9  N   UNL     1      19.675  -0.959  44.530  1.00  0.00    -0.340 N 
ATOM     10  H   UNL     1      19.754  -1.276  45.522  1.00  0.00     0.168 HD
ENDROOT
BRANCH   7  11
ATOM     11  N   UNL     1      19.352   1.576  46.158  1.00  0.00    -0.382 N 
ATOM     12  H   UNL     1      19.566   2.475  46.642  1.00  0.00     0.158 HD
ATOM     13  H   UNL     1      19.158   0.730  46.737  1.00  0.00     0.158 HD
ENDBRANCH   7  11
TORSDOF 1
ENDMDL
MODEL 8
REMARK VINA RESULT:    -3.551      2.241      2.881
REMARK INTER + INTRA:          -3.655
REMARK INTER:                  -3.655
REMARK INTRA:                   0.000
REMARK UNBOUND:                 0.000
REMARK SMILES Nc1ncnc2nc[nH]c12
REMARK SMILES IDX 8 1 7 2 6 3 5 4 4 5 3 6 2 7 10 8 9 9 1 11
REMARK H PARENT 9 10 1 12 1 13
REMARK Flexibility Score: inf
ROOT
ATOM      1  C   UNL     1       4.327   9.101  42.316  1.00  0.00     0.199 A 
ATOM      2  N   UNL     1       4.469  10.341  42.860  1.00  0.00    -0.217 NA
ATOM      3  C   UNL     1       4.415  11.135  41.779  1.00  0.00     0.182 A 
ATOM      4  N   UNL     1       4.508  12.486  41.762  1.00  0.00    -0.215 NA
ATOM      5  C   UNL     1       4.428  13.124  40.555  1.00  0.00     0.226 A 
ATOM      6  N   UNL     1       4.260  12.407  39.398  1.00  0.00    -0.217 NA
ATOM      7  C   UNL     1       4.166  11.044  39.412  1.00  0.00     0.152 A 
ATOM      8  C   UNL     1       4.248  10.409  40.649  1.00  0.00     0.127 A 
ATOM      9  N   UNL     1       4.190   9.109  40.966  1.00  0.00    -0.340 N 
ATOM     10  H   UNL     1       4.068   8.288  40.334  1.00  0.00     0.168 HD
ENDROOT
BRANCH   7  11
ATOM     11  N   UNL     1       3.992  10.317  38.195  1.00  0.00    -0.382 N 
ATOM     12  H   UNL     1       3.047  10.190  37.769  1.00  0.00     0.158 HD
ATOM     13  H   UNL     1       4.818   9.902  37.712  1.00  0.00     0.158 HD
ENDBRANCH   7  11
TORSDOF 1
ENDMDL
MODEL 9
REMARK VINA RESULT:    -3.509     14.478     16.034
REMARK INTER + INTRA:          -3.612
REMARK INTER:                  -3.612
REMARK INTRA:                   0.000
REMARK UNBOUND:                 0.000
REMARK SMILES Nc1ncnc2nc[nH]c12
REMARK SMILES IDX 8 1 7 2 6 3 5 4 4 5 3 6 2 7 10 8 9 9 1 11
REMARK H PARENT 9 10 1 12 1 13
REMARK Flexibility Score: inf
ROOT
ATOM      1  C   UNL     1      15.206   0.850  37.358  1.00  0.00     0.199 A 
ATOM      2  N   UNL     1      16.486   0.509  37.044  1.00  0.00    -0.217 NA
ATOM      3  C   UNL     1      16.372   0.114  35.766  1.00  0.00     0.182 A 
ATOM      4  N   UNL     1      17.368  -0.333  34.965  1.00  0.00    -0.215 NA
ATOM      5  C   UNL     1      17.055  -0.691  33.683  1.00  0.00     0.226 A 
ATOM      6  N   UNL     1      15.764  -0.598  33.230  1.00  0.00    -0.217 NA
ATOM      7  C   UNL     1      14.757  -0.148  34.036  1.00  0.00     0.152 A 
ATOM      8  C   UNL     1      15.092   0.214  35.338  1.00  0.00     0.127 A 
ATOM      9  N   UNL     1      14.330   0.681  36.336  1.00  0.00    -0.340 N 
ATOM     10  H   UNL     1      13.304   0.873  36.339  1.00  0.00     0.168 HD
ENDROOT
BRANCH   7  11
ATOM     11  N   UNL     1      13.419  -0.060  33.543  1.00  0.00    -0.382 N 
ATOM     12  H   UNL     1      12.828  -0.911  33.421  1.00  0.00     0.158 HD
ATOM     13  H   UNL     1      13.014   0.870  33.296  1.00  0.00     0.158 HD
ENDBRANCH   7  11
TORSDOF 1
ENDMDL
