MODEL 1
REMARK VINA RESULT:    -3.448      0.000      0.000
REMARK INTER + INTRA:          -8.582
REMARK INTER:                  -6.472
REMARK INTRA:                  -2.110
REMARK UNBOUND:                -2.110
REMARK SMILES CCCCCCCCC=CCCCCCCCC(=O)[O-]
REMARK SMILES IDX 10 1 9 2 11 3 12 4 13 5 14 6 15 7 16 8 17 9 18 10 19 11
REMARK SMILES IDX 20 12 8 13 7 14 6 15 5 16 4 17 3 18 2 19 1 20
REMARK H PARENT
REMARK Flexibility Score: inf
ROOT
ATOM      1  C   UNL     1      -4.475   8.022   4.086  1.00  0.00    -0.031 C 
ATOM      2  C   UNL     1      -4.171   6.837   3.523  1.00  0.00    -0.031 C 
ENDROOT
BRANCH   1   3
ATOM      3  C   UNL     1      -3.821   9.332   3.724  1.00  0.00     0.027 C 
BRANCH   3   4
ATOM      4  C   UNL     1      -3.398  10.096   4.986  1.00  0.00     0.004 C 
BRANCH   4   5
ATOM      5  C   UNL     1      -1.873  10.116   5.177  1.00  0.00     0.000 C 
BRANCH   5   6
ATOM      6  C   UNL     1      -1.156   9.058   4.324  1.00  0.00     0.000 C 
BRANCH   6   7
ATOM      7  C   UNL     1       0.230   8.687   4.876  1.00  0.00     0.000 C 
BRANCH   7   8
ATOM      8  C   UNL     1       1.062   9.907   5.332  1.00  0.00     0.006 C 
BRANCH   8   9
ATOM      9  C   UNL     1       1.470   9.849   6.813  1.00  0.00     0.053 C 
BRANCH   9  10
ATOM     10  C   UNL     1       2.790   9.164   7.001  1.00  0.00     0.041 C 
ATOM     11  O   UNL     1       3.807   9.829   7.336  1.00  0.00    -0.550 OA
ATOM     12  O   UNL     1       2.895   7.790   6.824  1.00  0.00    -0.550 OA
ENDBRANCH   9  10
ENDBRANCH   8   9
ENDBRANCH   7   8
ENDBRANCH   6   7
ENDBRANCH   5   6
ENDBRANCH   4   5
ENDBRANCH   3   4
ENDBRANCH   1   3
BRANCH   2  13
ATOM     13  C   UNL     1      -3.191   6.654   2.391  1.00  0.00     0.027 C 
BRANCH  13  14
ATOM     14  C   UNL     1      -2.250   5.477   2.671  1.00  0.00     0.004 C 
BRANCH  14  15
ATOM     15  C   UNL     1      -0.782   5.915   2.579  1.00  0.00     0.000 C 
BRANCH  15  16
ATOM     16  C   UNL     1      -0.155   5.615   1.206  1.00  0.00     0.000 C 
BRANCH  16  17
ATOM     17  C   UNL     1      -0.327   6.728   0.154  1.00  0.00    -0.000 C 
BRANCH  17  18
ATOM     18  C   UNL     1       0.702   7.873   0.238  1.00  0.00    -0.000 C 
BRANCH  18  19
ATOM     19  C   UNL     1       0.217   9.124   0.993  1.00  0.00    -0.003 C 
ATOM     20  C   UNL     1      -1.243   9.466   0.702  1.00  0.00     0.004 C 
ENDBRANCH  18  19
ENDBRANCH  17  18
ENDBRANCH  16  17
ENDBRANCH  15  16
ENDBRANCH  14  15
ENDBRANCH  13  14
ENDBRANCH   2  13
TORSDOF 15
ENDMDL
MODEL 2
REMARK VINA RESULT:    -3.420      1.569      4.325
REMARK INTER + INTRA:          -8.529
REMARK INTER:                  -5.724
REMARK INTRA:                  -2.805
REMARK UNBOUND:                -2.110
REMARK SMILES CCCCCCCCC=CCCCCCCCC(=O)[O-]
REMARK SMILES IDX 10 1 9 2 11 3 12 4 13 5 14 6 15 7 16 8 17 9 18 10 19 11
REMARK SMILES IDX 20 12 8 13 7 14 6 15 5 16 4 17 3 18 2 19 1 20
REMARK H PARENT
REMARK Flexibility Score: inf
ROOT
ATOM      1  C   UNL     1      -1.017   7.651   0.353  1.00  0.00    -0.031 C 
ATOM      2  C   UNL     1      -0.492   8.828   0.743  1.00  0.00    -0.031 C 
ENDROOT
BRANCH   1   3
ATOM      3  C   UNL     1      -2.204   6.988   1.005  1.00  0.00     0.027 C 
BRANCH   3   4
ATOM      4  C   UNL     1      -1.752   5.862   1.944  1.00  0.00     0.004 C 
BRANCH   4   5
ATOM      5  C   UNL     1      -0.222   5.777   2.066  1.00  0.00     0.000 C 
BRANCH   5   6
ATOM      6  C   UNL     1       0.251   5.690   3.525  1.00  0.00     0.000 C 
BRANCH   6   7
ATOM      7  C   UNL     1       1.513   6.527   3.794  1.00  0.00     0.000 C 
BRANCH   7   8
ATOM      8  C   UNL     1       1.649   6.987   5.263  1.00  0.00     0.006 C 
BRANCH   8   9
ATOM      9  C   UNL     1       2.422   8.306   5.420  1.00  0.00     0.053 C 
BRANCH   9  10
ATOM     10  C   UNL     1       2.175   8.941   6.755  1.00  0.00     0.041 C 
ATOM     11  O   UNL     1       2.981   8.754   7.705  1.00  0.00    -0.550 OA
ATOM     12  O   UNL     1       1.065   9.755   6.946  1.00  0.00    -0.550 OA
ENDBRANCH   9  10
ENDBRANCH   8   9
ENDBRANCH   7   8
ENDBRANCH   6   7
ENDBRANCH   5   6
ENDBRANCH   4   5
ENDBRANCH   3   4
ENDBRANCH   1   3
BRANCH   2  13
ATOM     13  C   UNL     1      -1.061   9.698   1.835  1.00  0.00     0.027 C 
BRANCH  13  14
ATOM     14  C   UNL     1      -0.288   9.503   3.144  1.00  0.00     0.004 C 
BRANCH  14  15
ATOM     15  C   UNL     1      -1.228   9.592   4.355  1.00  0.00     0.000 C 
BRANCH  15  16
ATOM     16  C   UNL     1      -2.235   8.428   4.414  1.00  0.00     0.000 C 
BRANCH  16  17
ATOM     17  C   UNL     1      -3.717   8.847   4.356  1.00  0.00    -0.000 C 
BRANCH  17  18
ATOM     18  C   UNL     1      -4.657   7.839   3.665  1.00  0.00    -0.000 C 
BRANCH  18  19
ATOM     19  C   UNL     1      -5.670   8.465   2.689  1.00  0.00    -0.003 C 
ATOM     20  C   UNL     1      -5.015   9.388   1.663  1.00  0.00     0.004 C 
ENDBRANCH  18  19
ENDBRANCH  17  18
ENDBRANCH  16  17
ENDBRANCH  15  16
ENDBRANCH  14  15
ENDBRANCH  13  14
ENDBRANCH   2  13
TORSDOF 15
ENDMDL
MODEL 3
REMARK VINA RESULT:    -3.398     15.600     17.812
REMARK INTER + INTRA:          -8.488
REMARK INTER:                  -5.666
REMARK INTRA:                  -2.822
REMARK UNBOUND:                -2.110
REMARK SMILES CCCCCCCCC=CCCCCCCCC(=O)[O-]
REMARK SMILES IDX 10 1 9 2 11 3 12 4 13 5 14 6 15 7 16 8 17 9 18 10 19 11
REMARK SMILES IDX 20 12 8 13 7 14 6 15 5 16 4 17 3 18 2 19 1 20
REMARK H PARENT
REMARK Flexibility Score: inf
ROOT
ATOM      1  C   UNL     1      -8.629  -6.953  -0.540  1.00  0.00    -0.031 C 
ATOM      2  C   UNL     1      -9.167  -6.201  -1.518  1.00  0.00    -0.031 C 
ENDROOT
BRANCH   1   3
ATOM      3  C   UNL     1      -8.625  -8.461  -0.526  1.00  0.00     0.027 C 
BRANCH   3   4
ATOM      4  C   UNL     1      -8.113  -8.993   0.819  1.00  0.00     0.004 C 
BRANCH   4   5
ATOM      5  C   UNL     1      -7.120  -8.031   1.491  1.00  0.00     0.000 C 
BRANCH   5   6
ATOM      6  C   UNL     1      -7.641  -7.486   2.830  1.00  0.00     0.000 C 
BRANCH   6   7
ATOM      7  C   UNL     1      -9.087  -7.916   3.127  1.00  0.00     0.000 C 
BRANCH   7   8
ATOM      8  C   UNL     1     -10.102  -6.751   3.079  1.00  0.00     0.006 C 
BRANCH   8   9
ATOM      9  C   UNL     1      -9.664  -5.526   3.896  1.00  0.00     0.053 C 
BRANCH   9  10
ATOM     10  C   UNL     1      -9.753  -4.261   3.097  1.00  0.00     0.041 C 
ATOM     11  O   UNL     1      -9.845  -4.311   1.841  1.00  0.00    -0.550 OA
ATOM     12  O   UNL     1      -9.754  -3.029   3.738  1.00  0.00    -0.550 OA
ENDBRANCH   9  10
ENDBRANCH   8   9
ENDBRANCH   7   8
ENDBRANCH   6   7
ENDBRANCH   5   6
ENDBRANCH   4   5
ENDBRANCH   3   4
ENDBRANCH   1   3
BRANCH   2  13
ATOM     13  C   UNL     1      -9.773  -6.751  -2.785  1.00  0.00     0.027 C 
BRANCH  13  14
ATOM     14  C   UNL     1      -8.710  -6.890  -3.880  1.00  0.00     0.004 C 
BRANCH  14  15
ATOM     15  C   UNL     1      -8.622  -8.340  -4.378  1.00  0.00     0.000 C 
BRANCH  15  16
ATOM     16  C   UNL     1      -7.272  -9.002  -4.051  1.00  0.00     0.000 C 
BRANCH  16  17
ATOM     17  C   UNL     1      -6.135  -8.022  -3.700  1.00  0.00    -0.000 C 
BRANCH  17  18
ATOM     18  C   UNL     1      -5.472  -8.251  -2.327  1.00  0.00    -0.000 C 
BRANCH  18  19
ATOM     19  C   UNL     1      -5.091  -6.965  -1.571  1.00  0.00    -0.003 C 
ATOM     20  C   UNL     1      -5.551  -5.696  -2.286  1.00  0.00     0.004 C 
ENDBRANCH  18  19
ENDBRANCH  17  18
ENDBRANCH  16  17
ENDBRANCH  15  16
ENDBRANCH  14  15
ENDBRANCH  13  14
ENDBRANCH   2  13
TORSDOF 15
ENDMDL
MODEL 4
REMARK VINA RESULT:    -3.390     14.898     17.673
REMARK INTER + INTRA:          -8.473
REMARK INTER:                  -6.421
REMARK INTRA:                  -2.053
REMARK UNBOUND:                -2.110
REMARK SMILES CCCCCCCCC=CCCCCCCCC(=O)[O-]
REMARK SMILES IDX 10 1 9 2 11 3 12 4 13 5 14 6 15 7 16 8 17 9 18 10 19 11
REMARK SMILES IDX 20 12 8 13 7 14 6 15 5 16 4 17 3 18 2 19 1 20
REMARK H PARENT
REMARK Flexibility Score: inf
ROOT
ATOM      1  C   UNL     1      -5.452  -7.345  -2.824  1.00  0.00    -0.031 C 
ATOM      2  C   UNL     1      -6.015  -8.519  -3.163  1.00  0.00    -0.031 C 
ENDROOT
BRANCH   1   3
ATOM      3  C   UNL     1      -5.433  -6.121  -3.706  1.00  0.00     0.027 C 
BRANCH   3   4
ATOM      4  C   UNL     1      -5.972  -4.898  -2.952  1.00  0.00     0.004 C 
BRANCH   4   5
ATOM      5  C   UNL     1      -6.716  -3.919  -3.874  1.00  0.00     0.000 C 
BRANCH   5   6
ATOM      6  C   UNL     1      -5.919  -2.631  -4.134  1.00  0.00     0.000 C 
BRANCH   6   7
ATOM      7  C   UNL     1      -6.482  -1.808  -5.304  1.00  0.00     0.000 C 
BRANCH   7   8
ATOM      8  C   UNL     1      -5.412  -1.385  -6.336  1.00  0.00     0.006 C 
BRANCH   8   9
ATOM      9  C   UNL     1      -6.000  -1.004  -7.704  1.00  0.00     0.053 C 
BRANCH   9  10
ATOM     10  C   UNL     1      -6.432   0.431  -7.744  1.00  0.00     0.041 C 
ATOM     11  O   UNL     1      -5.582   1.344  -7.917  1.00  0.00    -0.550 OA
ATOM     12  O   UNL     1      -7.776   0.758  -7.611  1.00  0.00    -0.550 OA
ENDBRANCH   9  10
ENDBRANCH   8   9
ENDBRANCH   7   8
ENDBRANCH   6   7
ENDBRANCH   5   6
ENDBRANCH   4   5
ENDBRANCH   3   4
ENDBRANCH   1   3
BRANCH   2  13
ATOM     13  C   UNL     1      -6.782  -8.764  -4.438  1.00  0.00     0.027 C 
BRANCH  13  14
ATOM     14  C   UNL     1      -8.252  -9.076  -4.137  1.00  0.00     0.004 C 
BRANCH  14  15
ATOM     15  C   UNL     1      -9.175  -8.016  -4.755  1.00  0.00     0.000 C 
BRANCH  15  16
ATOM     16  C   UNL     1      -9.143  -6.679  -3.993  1.00  0.00     0.000 C 
BRANCH  16  17
ATOM     17  C   UNL     1      -9.878  -6.685  -2.637  1.00  0.00    -0.000 C 
BRANCH  17  18
ATOM     18  C   UNL     1      -8.975  -6.493  -1.402  1.00  0.00    -0.000 C 
BRANCH  18  19
ATOM     19  C   UNL     1      -8.589  -7.795  -0.676  1.00  0.00    -0.003 C 
ATOM     20  C   UNL     1      -8.513  -7.630   0.840  1.00  0.00     0.004 C 
ENDBRANCH  18  19
ENDBRANCH  17  18
ENDBRANCH  16  17
ENDBRANCH  15  16
ENDBRANCH  14  15
ENDBRANCH  13  14
ENDBRANCH   2  13
TORSDOF 15
ENDMDL
MODEL 5
REMARK VINA RESULT:    -3.371     14.076     17.015
REMARK INTER + INTRA:          -8.438
REMARK INTER:                  -5.807
REMARK INTRA:                  -2.630
REMARK UNBOUND:                -2.110
REMARK SMILES CCCCCCCCC=CCCCCCCCC(=O)[O-]
REMARK SMILES IDX 10 1 9 2 11 3 12 4 13 5 14 6 15 7 16 8 17 9 18 10 19 11
REMARK SMILES IDX 20 12 8 13 7 14 6 15 5 16 4 17 3 18 2 19 1 20
REMARK H PARENT
REMARK Flexibility Score: inf
ROOT
ATOM      1  C   UNL     1      -5.578  -7.229  -2.872  1.00  0.00    -0.031 C 
ATOM      2  C   UNL     1      -5.959  -8.458  -3.268  1.00  0.00    -0.031 C 
ENDROOT
BRANCH   1   3
ATOM      3  C   UNL     1      -5.923  -5.952  -3.597  1.00  0.00     0.027 C 
BRANCH   3   4
ATOM      4  C   UNL     1      -5.128  -4.770  -3.027  1.00  0.00     0.004 C 
BRANCH   4   5
ATOM      5  C   UNL     1      -6.012  -3.539  -2.765  1.00  0.00     0.000 C 
BRANCH   5   6
ATOM      6  C   UNL     1      -6.836  -3.132  -3.996  1.00  0.00     0.000 C 
BRANCH   6   7
ATOM      7  C   UNL     1      -6.026  -2.308  -5.010  1.00  0.00     0.000 C 
BRANCH   7   8
ATOM      8  C   UNL     1      -4.887  -1.483  -4.368  1.00  0.00     0.006 C 
BRANCH   8   9
ATOM      9  C   UNL     1      -3.588  -1.493  -5.189  1.00  0.00     0.053 C 
BRANCH   9  10
ATOM     10  C   UNL     1      -2.628  -2.535  -4.699  1.00  0.00     0.041 C 
ATOM     11  O   UNL     1      -1.829  -2.270  -3.762  1.00  0.00    -0.550 OA
ATOM     12  O   UNL     1      -2.627  -3.804  -5.265  1.00  0.00    -0.550 OA
ENDBRANCH   9  10
ENDBRANCH   8   9
ENDBRANCH   7   8
ENDBRANCH   6   7
ENDBRANCH   5   6
ENDBRANCH   4   5
ENDBRANCH   3   4
ENDBRANCH   1   3
BRANCH   2  13
ATOM     13  C   UNL     1      -6.854  -8.736  -4.449  1.00  0.00     0.027 C 
BRANCH  13  14
ATOM     14  C   UNL     1      -8.319  -8.836  -4.008  1.00  0.00     0.004 C 
BRANCH  14  15
ATOM     15  C   UNL     1      -9.209  -7.908  -4.847  1.00  0.00     0.000 C 
BRANCH  15  16
ATOM     16  C   UNL     1      -9.554  -6.595  -4.121  1.00  0.00     0.000 C 
BRANCH  16  17
ATOM     17  C   UNL     1      -9.822  -6.738  -2.610  1.00  0.00    -0.000 C 
BRANCH  17  18
ATOM     18  C   UNL     1      -9.095  -5.714  -1.715  1.00  0.00    -0.000 C 
BRANCH  18  19
ATOM     19  C   UNL     1      -8.356  -6.320  -0.508  1.00  0.00    -0.003 C 
ATOM     20  C   UNL     1      -8.465  -7.843  -0.448  1.00  0.00     0.004 C 
ENDBRANCH  18  19
ENDBRANCH  17  18
ENDBRANCH  16  17
ENDBRANCH  15  16
ENDBRANCH  14  15
ENDBRANCH  13  14
ENDBRANCH   2  13
TORSDOF 15
ENDMDL
MODEL 6
REMARK VINA RESULT:    -3.332      3.706      6.265
REMARK INTER + INTRA:          -8.364
REMARK INTER:                  -6.087
REMARK INTRA:                  -2.278
REMARK UNBOUND:                -2.110
REMARK SMILES CCCCCCCCC=CCCCCCCCC(=O)[O-]
REMARK SMILES IDX 10 1 9 2 11 3 12 4 13 5 14 6 15 7 16 8 17 9 18 10 19 11
REMARK SMILES IDX 20 12 8 13 7 14 6 15 5 16 4 17 3 18 2 19 1 20
REMARK H PARENT
REMARK Flexibility Score: inf
ROOT
ATOM      1  C   UNL     1      -4.003   8.739   4.392  1.00  0.00    -0.031 C 
ATOM      2  C   UNL     1      -2.680   8.963   4.292  1.00  0.00    -0.031 C 
ENDROOT
BRANCH   1   3
ATOM      3  C   UNL     1      -5.046   9.365   3.500  1.00  0.00     0.027 C 
BRANCH   3   4
ATOM      4  C   UNL     1      -5.754   8.296   2.656  1.00  0.00     0.004 C 
BRANCH   4   5
ATOM      5  C   UNL     1      -5.251   8.265   1.204  1.00  0.00     0.000 C 
BRANCH   5   6
ATOM      6  C   UNL     1      -4.659   6.902   0.813  1.00  0.00     0.000 C 
BRANCH   6   7
ATOM      7  C   UNL     1      -3.153   6.800   1.106  1.00  0.00     0.000 C 
BRANCH   7   8
ATOM      8  C   UNL     1      -2.813   5.841   2.270  1.00  0.00     0.006 C 
BRANCH   8   9
ATOM      9  C   UNL     1      -4.034   5.080   2.810  1.00  0.00     0.053 C 
BRANCH   9  10
ATOM     10  C   UNL     1      -3.927   3.606   2.560  1.00  0.00     0.041 C 
ATOM     11  O   UNL     1      -4.305   2.785   3.438  1.00  0.00    -0.550 OA
ATOM     12  O   UNL     1      -3.428   3.138   1.351  1.00  0.00    -0.550 OA
ENDBRANCH   9  10
ENDBRANCH   8   9
ENDBRANCH   7   8
ENDBRANCH   6   7
ENDBRANCH   5   6
ENDBRANCH   4   5
ENDBRANCH   3   4
ENDBRANCH   1   3
BRANCH   2  13
ATOM     13  C   UNL     1      -2.035   9.808   3.222  1.00  0.00     0.027 C 
BRANCH  13  14
ATOM     14  C   UNL     1      -0.800   9.105   2.646  1.00  0.00     0.004 C 
BRANCH  14  15
ATOM     15  C   UNL     1       0.099   8.567   3.768  1.00  0.00     0.000 C 
BRANCH  15  16
ATOM     16  C   UNL     1       0.930   9.671   4.447  1.00  0.00     0.000 C 
BRANCH  16  17
ATOM     17  C   UNL     1       0.784   9.747   5.979  1.00  0.00    -0.000 C 
BRANCH  17  18
ATOM     18  C   UNL     1       2.008   9.258   6.780  1.00  0.00    -0.000 C 
BRANCH  18  19
ATOM     19  C   UNL     1       2.284   7.747   6.678  1.00  0.00    -0.003 C 
ATOM     20  C   UNL     1       3.385   7.410   5.673  1.00  0.00     0.004 C 
ENDBRANCH  18  19
ENDBRANCH  17  18
ENDBRANCH  16  17
ENDBRANCH  15  16
ENDBRANCH  14  15
ENDBRANCH  13  14
ENDBRANCH   2  13
TORSDOF 15
ENDMDL
MODEL 7
REMARK VINA RESULT:    -3.320     13.942     16.980
REMARK INTER + INTRA:          -8.342
REMARK INTER:                  -6.127
REMARK INTRA:                  -2.215
REMARK UNBOUND:                -2.110
REMARK SMILES CCCCCCCCC=CCCCCCCCC(=O)[O-]
REMARK SMILES IDX 10 1 9 2 11 3 12 4 13 5 14 6 15 7 16 8 17 9 18 10 19 11
REMARK SMILES IDX 20 12 8 13 7 14 6 15 5 16 4 17 3 18 2 19 1 20
REMARK H PARENT
REMARK Flexibility Score: inf
ROOT
ATOM      1  C   UNL     1      -6.413  -8.572  -3.466  1.00  0.00    -0.031 C 
ATOM      2  C   UNL     1      -7.641  -9.000  -3.813  1.00  0.00    -0.031 C 
ENDROOT
BRANCH   1   3
ATOM      3  C   UNL     1      -5.764  -7.318  -3.997  1.00  0.00     0.027 C 
BRANCH   3   4
ATOM      4  C   UNL     1      -4.810  -6.716  -2.956  1.00  0.00     0.004 C 
BRANCH   4   5
ATOM      5  C   UNL     1      -5.153  -5.256  -2.619  1.00  0.00     0.000 C 
BRANCH   5   6
ATOM      6  C   UNL     1      -4.774  -4.285  -3.747  1.00  0.00     0.000 C 
BRANCH   6   7
ATOM      7  C   UNL     1      -3.253  -4.150  -3.930  1.00  0.00     0.000 C 
BRANCH   7   8
ATOM      8  C   UNL     1      -2.848  -3.127  -5.016  1.00  0.00     0.006 C 
BRANCH   8   9
ATOM      9  C   UNL     1      -1.379  -2.685  -4.922  1.00  0.00     0.053 C 
BRANCH   9  10
ATOM     10  C   UNL     1      -1.250  -1.289  -4.390  1.00  0.00     0.041 C 
ATOM     11  O   UNL     1      -0.114  -0.816  -4.121  1.00  0.00    -0.550 OA
ATOM     12  O   UNL     1      -2.382  -0.504  -4.211  1.00  0.00    -0.550 OA
ENDBRANCH   9  10
ENDBRANCH   8   9
ENDBRANCH   7   8
ENDBRANCH   6   7
ENDBRANCH   5   6
ENDBRANCH   4   5
ENDBRANCH   3   4
ENDBRANCH   1   3
BRANCH   2  13
ATOM     13  C   UNL     1      -8.583  -8.250  -4.720  1.00  0.00     0.027 C 
BRANCH  13  14
ATOM     14  C   UNL     1      -9.514  -7.343  -3.907  1.00  0.00     0.004 C 
BRANCH  14  15
ATOM     15  C   UNL     1      -9.081  -5.874  -4.015  1.00  0.00     0.000 C 
BRANCH  15  16
ATOM     16  C   UNL     1      -8.861  -5.215  -2.642  1.00  0.00     0.000 C 
BRANCH  16  17
ATOM     17  C   UNL     1      -9.739  -5.774  -1.504  1.00  0.00    -0.000 C 
BRANCH  17  18
ATOM     18  C   UNL     1      -8.977  -6.178  -0.226  1.00  0.00    -0.000 C 
BRANCH  18  19
ATOM     19  C   UNL     1      -7.897  -7.256  -0.432  1.00  0.00    -0.003 C 
ATOM     20  C   UNL     1      -8.415  -8.671  -0.182  1.00  0.00     0.004 C 
ENDBRANCH  18  19
ENDBRANCH  17  18
ENDBRANCH  16  17
ENDBRANCH  15  16
ENDBRANCH  14  15
ENDBRANCH  13  14
ENDBRANCH   2  13
TORSDOF 15
ENDMDL
MODEL 8
REMARK VINA RESULT:    -3.265      3.478      6.118
REMARK INTER + INTRA:          -8.239
REMARK INTER:                  -6.149
REMARK INTRA:                  -2.090
REMARK UNBOUND:                -2.110
REMARK SMILES CCCCCCCCC=CCCCCCCCC(=O)[O-]
REMARK SMILES IDX 10 1 9 2 11 3 12 4 13 5 14 6 15 7 16 8 17 9 18 10 19 11
REMARK SMILES IDX 20 12 8 13 7 14 6 15 5 16 4 17 3 18 2 19 1 20
REMARK H PARENT
REMARK Flexibility Score: inf
ROOT
ATOM      1  C   UNL     1      -0.740   8.969   3.867  1.00  0.00    -0.031 C 
ATOM      2  C   UNL     1       0.454   9.375   4.338  1.00  0.00    -0.031 C 
ENDROOT
BRANCH   1   3
ATOM      3  C   UNL     1      -2.024   8.998   4.658  1.00  0.00     0.027 C 
BRANCH   3   4
ATOM      4  C   UNL     1      -2.942  10.125   4.165  1.00  0.00     0.004 C 
BRANCH   4   5
ATOM      5  C   UNL     1      -4.412   9.687   4.070  1.00  0.00     0.000 C 
BRANCH   5   6
ATOM      6  C   UNL     1      -4.931   9.673   2.624  1.00  0.00     0.000 C 
BRANCH   6   7
ATOM      7  C   UNL     1      -4.256   8.596   1.759  1.00  0.00     0.000 C 
BRANCH   7   8
ATOM      8  C   UNL     1      -4.599   7.152   2.188  1.00  0.00     0.006 C 
BRANCH   8   9
ATOM      9  C   UNL     1      -3.361   6.300   2.508  1.00  0.00     0.053 C 
BRANCH   9  10
ATOM     10  C   UNL     1      -3.711   4.853   2.689  1.00  0.00     0.041 C 
ATOM     11  O   UNL     1      -2.885   3.957   2.371  1.00  0.00    -0.550 OA
ATOM     12  O   UNL     1      -4.941   4.496   3.226  1.00  0.00    -0.550 OA
ENDBRANCH   9  10
ENDBRANCH   8   9
ENDBRANCH   7   8
ENDBRANCH   6   7
ENDBRANCH   5   6
ENDBRANCH   4   5
ENDBRANCH   3   4
ENDBRANCH   1   3
BRANCH   2  13
ATOM     13  C   UNL     1       0.672   9.996   5.695  1.00  0.00     0.027 C 
BRANCH  13  14
ATOM     14  C   UNL     1       1.504   9.069   6.589  1.00  0.00     0.004 C 
BRANCH  14  15
ATOM     15  C   UNL     1       2.978   9.070   6.159  1.00  0.00     0.000 C 
BRANCH  15  16
ATOM     16  C   UNL     1       3.468   7.681   5.711  1.00  0.00     0.000 C 
BRANCH  16  17
ATOM     17  C   UNL     1       2.492   6.522   5.997  1.00  0.00    -0.000 C 
BRANCH  17  18
ATOM     18  C   UNL     1       2.342   5.496   4.856  1.00  0.00    -0.000 C 
BRANCH  18  19
ATOM     19  C   UNL     1       1.502   5.980   3.659  1.00  0.00    -0.003 C 
ATOM     20  C   UNL     1       0.198   5.200   3.494  1.00  0.00     0.004 C 
ENDBRANCH  18  19
ENDBRANCH  17  18
ENDBRANCH  16  17
ENDBRANCH  15  16
ENDBRANCH  14  15
ENDBRANCH  13  14
ENDBRANCH   2  13
TORSDOF 15
ENDMDL
MODEL 9
REMARK VINA RESULT:    -2.029     16.274     18.571
REMARK INTER + INTRA:          -5.919
REMARK INTER:                  -3.734
REMARK INTRA:                  -2.185
REMARK UNBOUND:                -2.110
REMARK SMILES CCCCCCCCC=CCCCCCCCC(=O)[O-]
REMARK SMILES IDX 10 1 9 2 11 3 12 4 13 5 14 6 15 7 16 8 17 9 18 10 19 11
REMARK SMILES IDX 20 12 8 13 7 14 6 15 5 16 4 17 3 18 2 19 1 20
REMARK H PARENT
REMARK Flexibility Score: inf
ROOT
ATOM      1  C   UNL     1      -8.868  -5.604   0.159  1.00  0.00    -0.031 C 
ATOM      2  C   UNL     1      -8.188  -6.736   0.418  1.00  0.00    -0.031 C 
ENDROOT
BRANCH   1   3
ATOM      3  C   UNL     1     -10.020  -5.502  -0.809  1.00  0.00     0.027 C 
BRANCH   3   4
ATOM      4  C   UNL     1      -9.702  -4.504  -1.931  1.00  0.00     0.004 C 
BRANCH   4   5
ATOM      5  C   UNL     1      -9.991  -5.078  -3.327  1.00  0.00     0.000 C 
BRANCH   5   6
ATOM      6  C   UNL     1     -10.125  -6.609  -3.320  1.00  0.00     0.000 C 
BRANCH   6   7
ATOM      7  C   UNL     1      -9.131  -7.299  -4.269  1.00  0.00     0.000 C 
BRANCH   7   8
ATOM      8  C   UNL     1      -7.941  -7.965  -3.541  1.00  0.00     0.006 C 
BRANCH   8   9
ATOM      9  C   UNL     1      -6.739  -7.025  -3.350  1.00  0.00     0.053 C 
BRANCH   9  10
ATOM     10  C   UNL     1      -5.443  -7.705  -3.676  1.00  0.00     0.041 C 
ATOM     11  O   UNL     1      -4.587  -7.125  -4.395  1.00  0.00    -0.550 OA
ATOM     12  O   UNL     1      -5.173  -8.970  -3.169  1.00  0.00    -0.550 OA
ENDBRANCH   9  10
ENDBRANCH   8   9
ENDBRANCH   7   8
ENDBRANCH   6   7
ENDBRANCH   5   6
ENDBRANCH   4   5
ENDBRANCH   3   4
ENDBRANCH   1   3
BRANCH   2  13
ATOM     13  C   UNL     1      -8.529  -8.088  -0.157  1.00  0.00     0.027 C 
BRANCH  13  14
ATOM     14  C   UNL     1      -8.674  -9.132   0.957  1.00  0.00     0.004 C 
BRANCH  14  15
ATOM     15  C   UNL     1      -8.125  -8.595   2.286  1.00  0.00     0.000 C 
BRANCH  15  16
ATOM     16  C   UNL     1      -8.771  -9.266   3.512  1.00  0.00     0.000 C 
BRANCH  16  17
ATOM     17  C   UNL     1      -9.599  -8.324   4.409  1.00  0.00    -0.000 C 
BRANCH  17  18
ATOM     18  C   UNL     1     -10.125  -7.052   3.714  1.00  0.00    -0.000 C 
BRANCH  18  19
ATOM     19  C   UNL     1      -9.822  -5.738   4.457  1.00  0.00    -0.003 C 
ATOM     20  C   UNL     1      -9.495  -4.582   3.513  1.00  0.00     0.004 C 
ENDBRANCH  18  19
ENDBRANCH  17  18
ENDBRANCH  16  17
ENDBRANCH  15  16
ENDBRANCH  14  15
ENDBRANCH  13  14
ENDBRANCH   2  13
TORSDOF 15
ENDMDL
