MODEL 1
REMARK VINA RESULT:     5.032      0.000      0.000
REMARK INTER + INTRA:           5.751
REMARK INTER:                   6.797
REMARK INTRA:                  -1.046
REMARK UNBOUND:                -1.046
REMARK SMILES CC[C@H](CC[C@H](C)[C@H]1CC[C@@H]2[C@@H]3CC(=O)C4=CC(=O)CC[C@@]4(C)[C@H]3CC[C@@]21C)C(C)C
REMARK SMILES IDX 4 1 3 2 2 3 1 4 29 5 30 6 31 7 5 8 6 9 7 10 8 11 9 12 27 13
REMARK SMILES IDX 10 14 11 15 26 16 28 17 12 18 25 19 24 20 13 21 22 22 14 23
REMARK SMILES IDX 16 24 21 25 23 26 15 27 17 28 20 29 18 30 19 31
REMARK H PARENT
REMARK Flexibility Score: inf
ROOT
ATOM      1  C   UNL     1     -12.104 -13.884  37.139  1.00  0.00     0.004 C 
ENDROOT
BRANCH   1   2
ATOM      2  C   UNL     1     -10.540 -13.882  37.126  1.00  0.00    -0.009 C 
BRANCH   2   3
ATOM      3  C   UNL     1     -10.009 -15.320  36.848  1.00  0.00     0.000 C 
ATOM      4  C   UNL     1      -9.889 -16.183  38.109  1.00  0.00     0.004 C 
ENDBRANCH   2   3
BRANCH   2   5
ATOM      5  C   UNL     1      -9.912 -12.827  36.147  1.00  0.00    -0.014 C 
ATOM      6  C   UNL     1     -10.576 -11.441  36.224  1.00  0.00     0.007 C 
ATOM      7  C   UNL     1      -9.875 -13.315  34.688  1.00  0.00     0.007 C 
ENDBRANCH   2   5
ENDBRANCH   1   2
BRANCH   1   8
ATOM      8  C   UNL     1     -12.827 -14.943  36.260  1.00  0.00     0.004 C 
BRANCH   8   9
ATOM      9  C   UNL     1     -12.848 -14.663  34.727  1.00  0.00    -0.011 C 
ATOM     10  C   UNL     1     -13.685 -13.402  34.442  1.00  0.00     0.008 C 
BRANCH   9  11
ATOM     11  C   UNL     1     -13.224 -15.955  33.881  1.00  0.00    -0.002 C 
ATOM     12  C   UNL     1     -14.695 -15.978  33.395  1.00  0.00     0.005 C 
ATOM     13  C   UNL     1     -12.418 -16.149  32.541  1.00  0.00    -0.026 C 
ATOM     14  C   UNL     1     -14.696 -15.484  31.949  1.00  0.00     0.005 C 
ATOM     15  C   UNL     1     -13.224 -15.305  31.534  1.00  0.00    -0.001 C 
ATOM     16  C   UNL     1     -12.465 -17.657  32.131  1.00  0.00     0.007 C 
ATOM     17  C   UNL     1     -10.932 -15.696  32.596  1.00  0.00     0.012 C 
ATOM     18  C   UNL     1     -12.909 -15.594  30.030  1.00  0.00     0.004 C 
ATOM     19  C   UNL     1     -12.043 -17.904  30.681  1.00  0.00     0.005 C 
ATOM     20  C   UNL     1     -12.900 -17.102  29.668  1.00  0.00     0.003 C 
ATOM     21  C   UNL     1     -13.901 -14.837  29.124  1.00  0.00     0.085 C 
ATOM     22  C   UNL     1     -12.518 -17.383  28.138  1.00  0.00    -0.000 C 
ATOM     23  C   UNL     1     -13.587 -15.035  27.681  1.00  0.00     0.159 C 
ATOM     24  C   UNL     1     -12.710 -16.143  27.246  1.00  0.00     0.005 C 
ATOM     25  C   UNL     1     -11.037 -17.865  27.974  1.00  0.00     0.020 C 
ATOM     26  C   UNL     1     -13.473 -18.486  27.612  1.00  0.00     0.017 C 
ATOM     27  O   UNL     1     -14.086 -14.241  26.838  1.00  0.00    -0.295 OA
ATOM     28  C   UNL     1     -12.093 -16.045  26.052  1.00  0.00     0.055 C 
ATOM     29  C   UNL     1     -10.628 -18.121  26.515  1.00  0.00     0.081 C 
ATOM     30  C   UNL     1     -11.086 -17.018  25.610  1.00  0.00     0.156 C 
ATOM     31  O   UNL     1     -10.603 -16.927  24.451  1.00  0.00    -0.295 OA
ENDBRANCH   9  11
ENDBRANCH   8   9
ENDBRANCH   1   8
TORSDOF 6
ENDMDL
MODEL 2
REMARK VINA RESULT:     6.507      1.164      2.237
REMARK INTER + INTRA:           7.744
REMARK INTER:                   7.748
REMARK INTRA:                  -0.004
REMARK UNBOUND:                -1.046
REMARK SMILES CC[C@H](CC[C@H](C)[C@H]1CC[C@@H]2[C@@H]3CC(=O)C4=CC(=O)CC[C@@]4(C)[C@H]3CC[C@@]21C)C(C)C
REMARK SMILES IDX 4 1 3 2 2 3 1 4 29 5 30 6 31 7 5 8 6 9 7 10 8 11 9 12 27 13
REMARK SMILES IDX 10 14 11 15 26 16 28 17 12 18 25 19 24 20 13 21 22 22 14 23
REMARK SMILES IDX 16 24 21 25 23 26 15 27 17 28 20 29 18 30 19 31
REMARK H PARENT
REMARK Flexibility Score: inf
ROOT
ATOM      1  C   UNL     1     -12.893 -14.801  37.161  1.00  0.00     0.004 C 
ENDROOT
BRANCH   1   2
ATOM      2  C   UNL     1     -12.840 -13.504  38.034  1.00  0.00    -0.009 C 
BRANCH   2   3
ATOM      3  C   UNL     1     -12.727 -12.249  37.117  1.00  0.00     0.000 C 
ATOM      4  C   UNL     1     -11.282 -11.864  36.782  1.00  0.00     0.004 C 
ENDBRANCH   2   3
BRANCH   2   5
ATOM      5  C   UNL     1     -14.024 -13.375  39.058  1.00  0.00    -0.014 C 
ATOM      6  C   UNL     1     -15.058 -14.509  38.951  1.00  0.00     0.007 C 
ATOM      7  C   UNL     1     -14.728 -12.009  38.986  1.00  0.00     0.007 C 
ENDBRANCH   2   5
ENDBRANCH   1   2
BRANCH   1   8
ATOM      8  C   UNL     1     -12.014 -14.839  35.879  1.00  0.00     0.004 C 
BRANCH   8   9
ATOM      9  C   UNL     1     -12.745 -14.525  34.539  1.00  0.00    -0.011 C 
ATOM     10  C   UNL     1     -13.905 -13.547  34.798  1.00  0.00     0.008 C 
BRANCH   9  11
ATOM     11  C   UNL     1     -13.112 -15.842  33.727  1.00  0.00    -0.002 C 
ATOM     12  C   UNL     1     -14.585 -15.892  33.251  1.00  0.00     0.005 C 
ATOM     13  C   UNL     1     -12.312 -16.061  32.388  1.00  0.00    -0.026 C 
ATOM     14  C   UNL     1     -14.600 -15.435  31.793  1.00  0.00     0.005 C 
ATOM     15  C   UNL     1     -13.132 -15.252  31.365  1.00  0.00    -0.001 C 
ATOM     16  C   UNL     1     -12.345 -17.580  32.017  1.00  0.00     0.007 C 
ATOM     17  C   UNL     1     -10.830 -15.593  32.423  1.00  0.00     0.012 C 
ATOM     18  C   UNL     1     -12.822 -15.576  29.867  1.00  0.00     0.004 C 
ATOM     19  C   UNL     1     -11.928 -17.860  30.571  1.00  0.00     0.005 C 
ATOM     20  C   UNL     1     -12.799 -17.092  29.543  1.00  0.00     0.003 C 
ATOM     21  C   UNL     1     -13.827 -14.852  28.947  1.00  0.00     0.085 C 
ATOM     22  C   UNL     1     -12.422 -17.408  28.018  1.00  0.00    -0.000 C 
ATOM     23  C   UNL     1     -13.519 -15.083  27.509  1.00  0.00     0.159 C 
ATOM     24  C   UNL     1     -12.632 -16.193  27.096  1.00  0.00     0.005 C 
ATOM     25  C   UNL     1     -10.937 -17.878  27.858  1.00  0.00     0.020 C 
ATOM     26  C   UNL     1     -13.368 -18.533  27.526  1.00  0.00     0.017 C 
ATOM     27  O   UNL     1     -14.030 -14.316  26.648  1.00  0.00    -0.295 OA
ATOM     28  C   UNL     1     -12.023 -16.118  25.897  1.00  0.00     0.055 C 
ATOM     29  C   UNL     1     -10.533 -18.167  26.404  1.00  0.00     0.081 C 
ATOM     30  C   UNL     1     -11.008 -17.093  25.474  1.00  0.00     0.156 C 
ATOM     31  O   UNL     1     -10.532 -17.025  24.310  1.00  0.00    -0.295 OA
ENDBRANCH   9  11
ENDBRANCH   8   9
ENDBRANCH   1   8
TORSDOF 6
ENDMDL
