MODEL 1
REMARK VINA RESULT:    -4.459      0.000      0.000
REMARK INTER + INTRA:          -5.221
REMARK INTER:                  -4.981
REMARK INTRA:                  -0.240
REMARK UNBOUND:                -0.240
REMARK SMILES CC=C(C)C=CC=C(C)C
REMARK SMILES IDX 5 1 6 2 3 3 1 4 2 5 4 6 7 7 8 8 9 9 10 10
REMARK H PARENT
REMARK Flexibility Score: inf
ROOT
ATOM      1  C   UNL     1      32.438   9.243  32.629  1.00  0.00     0.003 C 
ATOM      2  C   UNL     1      31.367   8.578  33.081  1.00  0.00     0.000 C 
ENDROOT
BRANCH   1   3
ATOM      3  C   UNL     1      32.366  10.291  31.576  1.00  0.00    -0.055 C 
ATOM      4  C   UNL     1      32.994  12.615  30.849  1.00  0.00     0.036 C 
ATOM      5  C   UNL     1      33.022  11.447  31.790  1.00  0.00    -0.027 C 
ATOM      6  C   UNL     1      31.522  10.075  30.338  1.00  0.00     0.044 C 
ENDBRANCH   1   3
BRANCH   2   7
ATOM      7  C   UNL     1      31.508   7.553  34.137  1.00  0.00    -0.001 C 
ATOM      8  C   UNL     1      31.279   7.785  35.444  1.00  0.00    -0.076 C 
ATOM      9  C   UNL     1      30.851   9.139  35.951  1.00  0.00     0.039 C 
ATOM     10  C   UNL     1      31.459   6.652  36.417  1.00  0.00     0.039 C 
ENDBRANCH   2   7
TORSDOF 2
ENDMDL
MODEL 2
REMARK VINA RESULT:    -4.437      2.324      6.366
REMARK INTER + INTRA:          -5.197
REMARK INTER:                  -4.943
REMARK INTRA:                  -0.254
REMARK UNBOUND:                -0.240
REMARK SMILES CC=C(C)C=CC=C(C)C
REMARK SMILES IDX 5 1 6 2 3 3 1 4 2 5 4 6 7 7 8 8 9 9 10 10
REMARK H PARENT
REMARK Flexibility Score: inf
ROOT
ATOM      1  C   UNL     1      32.732  11.232  31.056  1.00  0.00     0.003 C 
ATOM      2  C   UNL     1      32.053  10.944  29.938  1.00  0.00     0.000 C 
ENDROOT
BRANCH   1   3
ATOM      3  C   UNL     1      32.597  10.457  32.318  1.00  0.00    -0.055 C 
ATOM      4  C   UNL     1      31.872   8.320  33.428  1.00  0.00     0.036 C 
ATOM      5  C   UNL     1      32.118   9.201  32.238  1.00  0.00    -0.027 C 
ATOM      6  C   UNL     1      32.926  11.098  33.648  1.00  0.00     0.044 C 
ENDBRANCH   1   3
BRANCH   2   7
ATOM      7  C   UNL     1      32.241  11.751  28.714  1.00  0.00    -0.001 C 
ATOM      8  C   UNL     1      32.243  11.238  27.469  1.00  0.00    -0.076 C 
ATOM      9  C   UNL     1      32.050   9.764  27.214  1.00  0.00     0.039 C 
ATOM     10  C   UNL     1      32.444  12.171  26.306  1.00  0.00     0.039 C 
ENDBRANCH   2   7
TORSDOF 2
ENDMDL
MODEL 3
REMARK VINA RESULT:    -4.366      1.318      5.266
REMARK INTER + INTRA:          -5.117
REMARK INTER:                  -4.829
REMARK INTRA:                  -0.287
REMARK UNBOUND:                -0.240
REMARK SMILES CC=C(C)C=CC=C(C)C
REMARK SMILES IDX 5 1 6 2 3 3 1 4 2 5 4 6 7 7 8 8 9 9 10 10
REMARK H PARENT
REMARK Flexibility Score: inf
ROOT
ATOM      1  C   UNL     1      30.875   8.032  33.440  1.00  0.00     0.003 C 
ATOM      2  C   UNL     1      32.120   8.512  33.331  1.00  0.00     0.000 C 
ENDROOT
BRANCH   1   3
ATOM      3  C   UNL     1      30.472   7.028  34.460  1.00  0.00    -0.055 C 
ATOM      4  C   UNL     1      30.855   6.055  36.747  1.00  0.00     0.036 C 
ATOM      5  C   UNL     1      31.112   7.040  35.645  1.00  0.00    -0.027 C 
ATOM      6  C   UNL     1      29.421   5.989  34.137  1.00  0.00     0.044 C 
ENDBRANCH   1   3
BRANCH   2   7
ATOM      7  C   UNL     1      32.453   9.516  32.298  1.00  0.00    -0.001 C 
ATOM      8  C   UNL     1      32.803  10.788  32.572  1.00  0.00    -0.076 C 
ATOM      9  C   UNL     1      32.887  11.305  33.986  1.00  0.00     0.039 C 
ATOM     10  C   UNL     1      33.118  11.709  31.425  1.00  0.00     0.039 C 
ENDBRANCH   2   7
TORSDOF 2
ENDMDL
MODEL 4
REMARK VINA RESULT:    -4.342      2.741      4.450
REMARK INTER + INTRA:          -5.090
REMARK INTER:                  -4.895
REMARK INTRA:                  -0.195
REMARK UNBOUND:                -0.240
REMARK SMILES CC=C(C)C=CC=C(C)C
REMARK SMILES IDX 5 1 6 2 3 3 1 4 2 5 4 6 7 7 8 8 9 9 10 10
REMARK H PARENT
REMARK Flexibility Score: inf
ROOT
ATOM      1  C   UNL     1      32.564  11.714  29.145  1.00  0.00     0.003 C 
ATOM      2  C   UNL     1      32.411  10.904  30.199  1.00  0.00     0.000 C 
ENDROOT
BRANCH   1   3
ATOM      3  C   UNL     1      32.275  11.301  27.746  1.00  0.00    -0.055 C 
ATOM      4  C   UNL     1      31.920  12.001  25.357  1.00  0.00     0.036 C 
ATOM      5  C   UNL     1      32.253  12.256  26.797  1.00  0.00    -0.027 C 
ATOM      6  C   UNL     1      31.950   9.858  27.426  1.00  0.00     0.044 C 
ENDBRANCH   1   3
BRANCH   2   7
ATOM      7  C   UNL     1      32.709  11.382  31.566  1.00  0.00    -0.001 C 
ATOM      8  C   UNL     1      32.664  10.601  32.662  1.00  0.00    -0.076 C 
ATOM      9  C   UNL     1      32.297   9.140  32.585  1.00  0.00     0.039 C 
ATOM     10  C   UNL     1      32.993  11.213  33.996  1.00  0.00     0.039 C 
ENDBRANCH   2   7
TORSDOF 2
ENDMDL
MODEL 5
REMARK VINA RESULT:    -4.277      0.444      1.425
REMARK INTER + INTRA:          -5.017
REMARK INTER:                  -4.769
REMARK INTRA:                  -0.249
REMARK UNBOUND:                -0.240
REMARK SMILES CC=C(C)C=CC=C(C)C
REMARK SMILES IDX 5 1 6 2 3 3 1 4 2 5 4 6 7 7 8 8 9 9 10 10
REMARK H PARENT
REMARK Flexibility Score: inf
ROOT
ATOM      1  C   UNL     1      32.419   9.263  32.632  1.00  0.00     0.003 C 
ATOM      2  C   UNL     1      31.398   8.473  32.986  1.00  0.00     0.000 C 
ENDROOT
BRANCH   1   3
ATOM      3  C   UNL     1      32.327  10.286  31.557  1.00  0.00    -0.055 C 
ATOM      4  C   UNL     1      31.449  10.900  29.282  1.00  0.00     0.036 C 
ATOM      5  C   UNL     1      31.588   9.994  30.469  1.00  0.00    -0.027 C 
ATOM      6  C   UNL     1      33.100  11.582  31.666  1.00  0.00     0.044 C 
ENDBRANCH   1   3
BRANCH   2   7
ATOM      7  C   UNL     1      31.555   7.480  34.070  1.00  0.00    -0.001 C 
ATOM      8  C   UNL     1      31.247   7.721  35.359  1.00  0.00    -0.076 C 
ATOM      9  C   UNL     1      30.706   9.053  35.814  1.00  0.00     0.039 C 
ATOM     10  C   UNL     1      31.453   6.621  36.365  1.00  0.00     0.039 C 
ENDBRANCH   2   7
TORSDOF 2
ENDMDL
MODEL 6
REMARK VINA RESULT:    -4.143      0.935      5.278
REMARK INTER + INTRA:          -4.868
REMARK INTER:                  -4.623
REMARK INTRA:                  -0.245
REMARK UNBOUND:                -0.240
REMARK SMILES CC=C(C)C=CC=C(C)C
REMARK SMILES IDX 5 1 6 2 3 3 1 4 2 5 4 6 7 7 8 8 9 9 10 10
REMARK H PARENT
REMARK Flexibility Score: inf
ROOT
ATOM      1  C   UNL     1      31.321   8.596  33.665  1.00  0.00     0.003 C 
ATOM      2  C   UNL     1      32.065   9.554  33.098  1.00  0.00     0.000 C 
ENDROOT
BRANCH   1   3
ATOM      3  C   UNL     1      31.253   8.373  35.133  1.00  0.00    -0.055 C 
ATOM      4  C   UNL     1      31.156   9.391  37.431  1.00  0.00     0.036 C 
ATOM      5  C   UNL     1      31.173   9.455  35.932  1.00  0.00    -0.027 C 
ATOM      6  C   UNL     1      31.343   6.974  35.700  1.00  0.00     0.044 C 
ENDBRANCH   1   3
BRANCH   2   7
ATOM      7  C   UNL     1      32.080   9.726  31.630  1.00  0.00    -0.001 C 
ATOM      8  C   UNL     1      32.135  10.922  31.014  1.00  0.00    -0.076 C 
ATOM      9  C   UNL     1      32.186  12.216  31.788  1.00  0.00     0.039 C 
ATOM     10  C   UNL     1      32.146  10.958  29.510  1.00  0.00     0.039 C 
ENDBRANCH   2   7
TORSDOF 2
ENDMDL
MODEL 7
REMARK VINA RESULT:    -4.070      1.239      5.613
REMARK INTER + INTRA:          -4.786
REMARK INTER:                  -4.538
REMARK INTRA:                  -0.248
REMARK UNBOUND:                -0.240
REMARK SMILES CC=C(C)C=CC=C(C)C
REMARK SMILES IDX 5 1 6 2 3 3 1 4 2 5 4 6 7 7 8 8 9 9 10 10
REMARK H PARENT
REMARK Flexibility Score: inf
ROOT
ATOM      1  C   UNL     1      31.873   8.888  32.223  1.00  0.00     0.003 C 
ATOM      2  C   UNL     1      31.327   9.910  31.550  1.00  0.00     0.000 C 
ENDROOT
BRANCH   1   3
ATOM      3  C   UNL     1      31.639   8.645  33.671  1.00  0.00    -0.055 C 
ATOM      4  C   UNL     1      31.217   6.971  35.499  1.00  0.00     0.036 C 
ATOM      5  C   UNL     1      31.512   7.369  34.083  1.00  0.00    -0.027 C 
ATOM      6  C   UNL     1      31.485   9.806  34.627  1.00  0.00     0.044 C 
ENDBRANCH   1   3
BRANCH   2   7
ATOM      7  C   UNL     1      31.594  10.090  30.107  1.00  0.00    -0.001 C 
ATOM      8  C   UNL     1      32.275  11.132  29.594  1.00  0.00    -0.076 C 
ATOM      9  C   UNL     1      32.832  12.228  30.466  1.00  0.00     0.039 C 
ATOM     10  C   UNL     1      32.478  11.195  28.104  1.00  0.00     0.039 C 
ENDBRANCH   2   7
TORSDOF 2
ENDMDL
MODEL 8
REMARK VINA RESULT:    -4.069      2.369      3.708
REMARK INTER + INTRA:          -4.786
REMARK INTER:                  -4.561
REMARK INTRA:                  -0.225
REMARK UNBOUND:                -0.240
REMARK SMILES CC=C(C)C=CC=C(C)C
REMARK SMILES IDX 5 1 6 2 3 3 1 4 2 5 4 6 7 7 8 8 9 9 10 10
REMARK H PARENT
REMARK Flexibility Score: inf
ROOT
ATOM      1  C   UNL     1      31.373   9.792  29.051  1.00  0.00     0.003 C 
ATOM      2  C   UNL     1      31.179   9.952  30.366  1.00  0.00     0.000 C 
ENDROOT
BRANCH   1   3
ATOM      3  C   UNL     1      31.287  10.906  28.070  1.00  0.00    -0.055 C 
ATOM      4  C   UNL     1      32.407  12.202  26.228  1.00  0.00     0.036 C 
ATOM      5  C   UNL     1      32.324  11.089  27.230  1.00  0.00    -0.027 C 
ATOM      6  C   UNL     1      30.096  11.838  28.072  1.00  0.00     0.044 C 
ENDBRANCH   1   3
BRANCH   2   7
ATOM      7  C   UNL     1      31.287   8.802  31.288  1.00  0.00    -0.001 C 
ATOM      8  C   UNL     1      32.050   8.799  32.398  1.00  0.00    -0.076 C 
ATOM      9  C   UNL     1      32.876   9.994  32.801  1.00  0.00     0.039 C 
ATOM     10  C   UNL     1      32.070   7.562  33.253  1.00  0.00     0.039 C 
ENDBRANCH   2   7
TORSDOF 2
ENDMDL
MODEL 9
REMARK VINA RESULT:    -3.949      3.723      7.547
REMARK INTER + INTRA:          -4.651
REMARK INTER:                  -4.416
REMARK INTRA:                  -0.235
REMARK UNBOUND:                -0.240
REMARK SMILES CC=C(C)C=CC=C(C)C
REMARK SMILES IDX 5 1 6 2 3 3 1 4 2 5 4 6 7 7 8 8 9 9 10 10
REMARK H PARENT
REMARK Flexibility Score: inf
ROOT
ATOM      1  C   UNL     1      32.059  11.837  28.717  1.00  0.00     0.003 C 
ATOM      2  C   UNL     1      32.388  11.206  27.583  1.00  0.00     0.000 C 
ENDROOT
BRANCH   1   3
ATOM      3  C   UNL     1      32.120  11.195  30.057  1.00  0.00    -0.055 C 
ATOM      4  C   UNL     1      33.125  11.189  32.362  1.00  0.00     0.036 C 
ATOM      5  C   UNL     1      32.917  11.754  30.988  1.00  0.00    -0.027 C 
ATOM      6  C   UNL     1      31.358   9.917  30.329  1.00  0.00     0.044 C 
ENDBRANCH   1   3
BRANCH   2   7
ATOM      7  C   UNL     1      32.313  11.906  26.283  1.00  0.00    -0.001 C 
ATOM      8  C   UNL     1      31.615  11.452  25.224  1.00  0.00    -0.076 C 
ATOM      9  C   UNL     1      30.835  10.162  25.278  1.00  0.00     0.039 C 
ATOM     10  C   UNL     1      31.620  12.263  23.958  1.00  0.00     0.039 C 
ENDBRANCH   2   7
TORSDOF 2
ENDMDL
