MODEL 1
REMARK VINA RESULT:    -3.573      0.000      0.000
REMARK INTER + INTRA:          -5.111
REMARK INTER:                  -4.931
REMARK INTRA:                  -0.180
REMARK UNBOUND:                -0.180
REMARK SMILES CCCCCCCCO
REMARK SMILES IDX 5 1 4 2 3 3 2 4 1 5 6 6 7 7 8 8 9 9
REMARK H PARENT 9 10
REMARK Flexibility Score: inf
ROOT
ATOM      1  C   UNL     1     212.567 197.586 213.139  1.00  0.00     0.000 C 
ENDROOT
BRANCH   1   2
ATOM      2  C   UNL     1     212.431 196.696 211.897  1.00  0.00    -0.000 C 
BRANCH   2   3
ATOM      3  C   UNL     1     212.170 197.537 210.641  1.00  0.00    -0.000 C 
BRANCH   3   4
ATOM      4  C   UNL     1     211.436 198.835 210.992  1.00  0.00    -0.003 C 
ATOM      5  C   UNL     1     210.821 199.474 209.749  1.00  0.00     0.004 C 
ENDBRANCH   3   4
ENDBRANCH   2   3
ENDBRANCH   1   2
BRANCH   1   6
ATOM      6  C   UNL     1     213.125 196.791 214.327  1.00  0.00     0.002 C 
BRANCH   6   7
ATOM      7  C   UNL     1     213.233 197.636 215.607  1.00  0.00     0.028 C 
BRANCH   7   8
ATOM      8  C   UNL     1     213.102 196.801 216.883  1.00  0.00     0.156 C 
BRANCH   8   9
ATOM      9  O   UNL     1     211.876 196.125 216.872  1.00  0.00    -0.396 OA
ATOM     10  H   UNL     1     211.785 195.732 215.966  1.00  0.00     0.210 HD
ENDBRANCH   8   9
ENDBRANCH   7   8
ENDBRANCH   6   7
ENDBRANCH   1   6
TORSDOF 7
ENDMDL
MODEL 2
REMARK VINA RESULT:    -3.536      2.720      5.504
REMARK INTER + INTRA:          -5.060
REMARK INTER:                  -4.885
REMARK INTRA:                  -0.175
REMARK UNBOUND:                -0.180
REMARK SMILES CCCCCCCCO
REMARK SMILES IDX 5 1 4 2 3 3 2 4 1 5 6 6 7 7 8 8 9 9
REMARK H PARENT 9 10
REMARK Flexibility Score: inf
ROOT
ATOM      1  C   UNL     1     212.219 198.041 212.719  1.00  0.00     0.000 C 
ENDROOT
BRANCH   1   2
ATOM      2  C   UNL     1     212.953 197.168 213.743  1.00  0.00    -0.000 C 
BRANCH   2   3
ATOM      3  C   UNL     1     213.665 198.029 214.794  1.00  0.00    -0.000 C 
BRANCH   3   4
ATOM      4  C   UNL     1     213.526 197.417 216.192  1.00  0.00    -0.003 C 
ATOM      5  C   UNL     1     212.134 196.826 216.400  1.00  0.00     0.004 C 
ENDBRANCH   3   4
ENDBRANCH   2   3
ENDBRANCH   1   2
BRANCH   1   6
ATOM      6  C   UNL     1     212.186 197.364 211.342  1.00  0.00     0.002 C 
BRANCH   6   7
ATOM      7  C   UNL     1     211.055 197.896 210.447  1.00  0.00     0.028 C 
BRANCH   7   8
ATOM      8  C   UNL     1     211.438 199.180 209.706  1.00  0.00     0.156 C 
BRANCH   8   9
ATOM      9  O   UNL     1     210.879 200.281 210.365  1.00  0.00    -0.396 OA
ATOM     10  H   UNL     1     211.496 200.500 211.110  1.00  0.00     0.210 HD
ENDBRANCH   8   9
ENDBRANCH   7   8
ENDBRANCH   6   7
ENDBRANCH   1   6
TORSDOF 7
ENDMDL
MODEL 3
REMARK VINA RESULT:    -3.452      1.426      2.181
REMARK INTER + INTRA:          -4.943
REMARK INTER:                  -4.772
REMARK INTRA:                  -0.172
REMARK UNBOUND:                -0.180
REMARK SMILES CCCCCCCCO
REMARK SMILES IDX 5 1 4 2 3 3 2 4 1 5 6 6 7 7 8 8 9 9
REMARK H PARENT 9 10
REMARK Flexibility Score: inf
ROOT
ATOM      1  C   UNL     1     211.969 198.045 212.083  1.00  0.00     0.000 C 
ENDROOT
BRANCH   1   2
ATOM      2  C   UNL     1     210.951 198.198 210.947  1.00  0.00    -0.000 C 
BRANCH   2   3
ATOM      3  C   UNL     1     211.443 199.202 209.896  1.00  0.00    -0.000 C 
BRANCH   3   4
ATOM      4  C   UNL     1     212.323 198.513 208.848  1.00  0.00    -0.003 C 
ATOM      5  C   UNL     1     212.656 199.461 207.698  1.00  0.00     0.004 C 
ENDBRANCH   3   4
ENDBRANCH   2   3
ENDBRANCH   1   2
BRANCH   1   6
ATOM      6  C   UNL     1     212.476 196.599 212.176  1.00  0.00     0.002 C 
BRANCH   6   7
ATOM      7  C   UNL     1     213.344 196.355 213.421  1.00  0.00     0.028 C 
BRANCH   7   8
ATOM      8  C   UNL     1     212.684 196.848 214.711  1.00  0.00     0.156 C 
BRANCH   8   9
ATOM      9  O   UNL     1     212.936 195.934 215.742  1.00  0.00    -0.396 OA
ATOM     10  H   UNL     1     212.048 195.643 216.075  1.00  0.00     0.210 HD
ENDBRANCH   8   9
ENDBRANCH   7   8
ENDBRANCH   6   7
ENDBRANCH   1   6
TORSDOF 7
ENDMDL
MODEL 4
REMARK VINA RESULT:    -3.352      2.717      4.423
REMARK INTER + INTRA:          -4.806
REMARK INTER:                  -4.540
REMARK INTRA:                  -0.266
REMARK UNBOUND:                -0.180
REMARK SMILES CCCCCCCCO
REMARK SMILES IDX 5 1 4 2 3 3 2 4 1 5 6 6 7 7 8 8 9 9
REMARK H PARENT 9 10
REMARK Flexibility Score: inf
ROOT
ATOM      1  C   UNL     1     211.789 198.803 209.174  1.00  0.00     0.000 C 
ENDROOT
BRANCH   1   2
ATOM      2  C   UNL     1     211.290 200.223 208.881  1.00  0.00    -0.000 C 
BRANCH   2   3
ATOM      3  C   UNL     1     209.920 200.470 209.525  1.00  0.00    -0.000 C 
BRANCH   3   4
ATOM      4  C   UNL     1     209.257 201.723 208.943  1.00  0.00    -0.003 C 
ATOM      5  C   UNL     1     207.763 201.751 209.252  1.00  0.00     0.004 C 
ENDBRANCH   3   4
ENDBRANCH   2   3
ENDBRANCH   1   2
BRANCH   1   6
ATOM      6  C   UNL     1     211.086 198.216 210.406  1.00  0.00     0.002 C 
BRANCH   6   7
ATOM      7  C   UNL     1     212.047 197.439 211.321  1.00  0.00     0.028 C 
BRANCH   7   8
ATOM      8  C   UNL     1     212.220 198.094 212.694  1.00  0.00     0.156 C 
BRANCH   8   9
ATOM      9  O   UNL     1     211.461 199.269 212.747  1.00  0.00    -0.396 OA
ATOM     10  H   UNL     1     211.262 199.426 213.706  1.00  0.00     0.210 HD
ENDBRANCH   8   9
ENDBRANCH   7   8
ENDBRANCH   6   7
ENDBRANCH   1   6
TORSDOF 7
ENDMDL
MODEL 5
REMARK VINA RESULT:    -3.303     16.018     18.463
REMARK INTER + INTRA:          -4.739
REMARK INTER:                  -4.472
REMARK INTRA:                  -0.267
REMARK UNBOUND:                -0.180
REMARK SMILES CCCCCCCCO
REMARK SMILES IDX 5 1 4 2 3 3 2 4 1 5 6 6 7 7 8 8 9 9
REMARK H PARENT 9 10
REMARK Flexibility Score: inf
ROOT
ATOM      1  C   UNL     1     196.484 206.489 208.064  1.00  0.00     0.000 C 
ENDROOT
BRANCH   1   2
ATOM      2  C   UNL     1     197.692 205.845 208.756  1.00  0.00    -0.000 C 
BRANCH   2   3
ATOM      3  C   UNL     1     198.118 204.559 208.038  1.00  0.00    -0.000 C 
BRANCH   3   4
ATOM      4  C   UNL     1     199.609 204.277 208.254  1.00  0.00    -0.003 C 
ATOM      5  C   UNL     1     200.216 205.257 209.253  1.00  0.00     0.004 C 
ENDBRANCH   3   4
ENDBRANCH   2   3
ENDBRANCH   1   2
BRANCH   1   6
ATOM      6  C   UNL     1     196.115 207.822 208.731  1.00  0.00     0.002 C 
BRANCH   6   7
ATOM      7  C   UNL     1     196.994 208.136 209.953  1.00  0.00     0.028 C 
BRANCH   7   8
ATOM      8  C   UNL     1     196.857 209.585 210.426  1.00  0.00     0.156 C 
BRANCH   8   9
ATOM      9  O   UNL     1     196.376 210.374 209.374  1.00  0.00    -0.396 OA
ATOM     10  H   UNL     1     195.414 210.525 209.560  1.00  0.00     0.210 HD
ENDBRANCH   8   9
ENDBRANCH   7   8
ENDBRANCH   6   7
ENDBRANCH   1   6
TORSDOF 7
ENDMDL
MODEL 6
REMARK VINA RESULT:    -3.277     15.688     16.652
REMARK INTER + INTRA:          -4.703
REMARK INTER:                  -4.427
REMARK INTRA:                  -0.276
REMARK UNBOUND:                -0.180
REMARK SMILES CCCCCCCCO
REMARK SMILES IDX 5 1 4 2 3 3 2 4 1 5 6 6 7 7 8 8 9 9
REMARK H PARENT 9 10
REMARK Flexibility Score: inf
ROOT
ATOM      1  C   UNL     1     198.445 201.136 207.108  1.00  0.00     0.000 C 
ENDROOT
BRANCH   1   2
ATOM      2  C   UNL     1     198.927 202.521 207.555  1.00  0.00    -0.000 C 
BRANCH   2   3
ATOM      3  C   UNL     1     197.776 203.534 207.551  1.00  0.00    -0.000 C 
BRANCH   3   4
ATOM      4  C   UNL     1     198.168 204.815 208.295  1.00  0.00    -0.003 C 
ATOM      5  C   UNL     1     199.674 204.875 208.535  1.00  0.00     0.004 C 
ENDBRANCH   3   4
ENDBRANCH   2   3
ENDBRANCH   1   2
BRANCH   1   6
ATOM      6  C   UNL     1     196.924 201.123 206.901  1.00  0.00     0.002 C 
BRANCH   6   7
ATOM      7  C   UNL     1     196.409 199.772 206.379  1.00  0.00     0.028 C 
BRANCH   7   8
ATOM      8  C   UNL     1     197.540 198.800 206.032  1.00  0.00     0.156 C 
BRANCH   8   9
ATOM      9  O   UNL     1     197.418 197.646 206.816  1.00  0.00    -0.396 OA
ATOM     10  H   UNL     1     196.454 197.558 207.029  1.00  0.00     0.210 HD
ENDBRANCH   8   9
ENDBRANCH   7   8
ENDBRANCH   6   7
ENDBRANCH   1   6
TORSDOF 7
ENDMDL
MODEL 7
REMARK VINA RESULT:    -3.176      3.814      6.413
REMARK INTER + INTRA:          -4.563
REMARK INTER:                  -4.376
REMARK INTRA:                  -0.188
REMARK UNBOUND:                -0.180
REMARK SMILES CCCCCCCCO
REMARK SMILES IDX 5 1 4 2 3 3 2 4 1 5 6 6 7 7 8 8 9 9
REMARK H PARENT 9 10
REMARK Flexibility Score: inf
ROOT
ATOM      1  C   UNL     1     211.510 198.380 209.285  1.00  0.00     0.000 C 
ENDROOT
BRANCH   1   2
ATOM      2  C   UNL     1     210.934 198.079 210.674  1.00  0.00    -0.000 C 
BRANCH   2   3
ATOM      3  C   UNL     1     211.929 197.277 211.523  1.00  0.00    -0.000 C 
BRANCH   3   4
ATOM      4  C   UNL     1     212.287 198.031 212.808  1.00  0.00    -0.003 C 
ATOM      5  C   UNL     1     212.976 197.112 213.813  1.00  0.00     0.004 C 
ENDBRANCH   3   4
ENDBRANCH   2   3
ENDBRANCH   1   2
BRANCH   1   6
ATOM      6  C   UNL     1     211.519 199.890 209.009  1.00  0.00     0.002 C 
BRANCH   6   7
ATOM      7  C   UNL     1     210.179 200.562 209.349  1.00  0.00     0.028 C 
BRANCH   7   8
ATOM      8  C   UNL     1     209.943 201.850 208.556  1.00  0.00     0.156 C 
BRANCH   8   9
ATOM      9  O   UNL     1     211.156 202.530 208.401  1.00  0.00    -0.396 OA
ATOM     10  H   UNL     1     211.429 202.819 209.310  1.00  0.00     0.210 HD
ENDBRANCH   8   9
ENDBRANCH   7   8
ENDBRANCH   6   7
ENDBRANCH   1   6
TORSDOF 7
ENDMDL
MODEL 8
REMARK VINA RESULT:    -3.169      9.482     11.703
REMARK INTER + INTRA:          -4.554
REMARK INTER:                  -4.302
REMARK INTRA:                  -0.252
REMARK UNBOUND:                -0.180
REMARK SMILES CCCCCCCCO
REMARK SMILES IDX 5 1 4 2 3 3 2 4 1 5 6 6 7 7 8 8 9 9
REMARK H PARENT 9 10
REMARK Flexibility Score: inf
ROOT
ATOM      1  C   UNL     1     209.594 206.532 206.960  1.00  0.00     0.000 C 
ENDROOT
BRANCH   1   2
ATOM      2  C   UNL     1     209.030 205.338 207.740  1.00  0.00    -0.000 C 
BRANCH   2   3
ATOM      3  C   UNL     1     210.032 204.178 207.777  1.00  0.00    -0.000 C 
BRANCH   3   4
ATOM      4  C   UNL     1     209.337 202.862 208.140  1.00  0.00    -0.003 C 
ATOM      5  C   UNL     1     207.869 203.091 208.490  1.00  0.00     0.004 C 
ENDBRANCH   3   4
ENDBRANCH   2   3
ENDBRANCH   1   2
BRANCH   1   6
ATOM      6  C   UNL     1     211.075 206.757 207.296  1.00  0.00     0.002 C 
BRANCH   6   7
ATOM      7  C   UNL     1     211.662 207.988 206.587  1.00  0.00     0.028 C 
BRANCH   7   8
ATOM      8  C   UNL     1     210.634 209.105 206.389  1.00  0.00     0.156 C 
BRANCH   8   9
ATOM      9  O   UNL     1     210.682 209.980 207.481  1.00  0.00    -0.396 OA
ATOM     10  H   UNL     1     210.284 209.489 208.246  1.00  0.00     0.210 HD
ENDBRANCH   8   9
ENDBRANCH   7   8
ENDBRANCH   6   7
ENDBRANCH   1   6
TORSDOF 7
ENDMDL
MODEL 9
REMARK VINA RESULT:    -3.160      7.448      8.967
REMARK INTER + INTRA:          -4.540
REMARK INTER:                  -4.227
REMARK INTRA:                  -0.313
REMARK UNBOUND:                -0.180
REMARK SMILES CCCCCCCCO
REMARK SMILES IDX 5 1 4 2 3 3 2 4 1 5 6 6 7 7 8 8 9 9
REMARK H PARENT 9 10
REMARK Flexibility Score: inf
ROOT
ATOM      1  C   UNL     1     209.858 203.425 207.902  1.00  0.00     0.000 C 
ENDROOT
BRANCH   1   2
ATOM      2  C   UNL     1     208.767 203.910 206.939  1.00  0.00    -0.000 C 
BRANCH   2   3
ATOM      3  C   UNL     1     208.556 205.424 207.062  1.00  0.00    -0.000 C 
BRANCH   3   4
ATOM      4  C   UNL     1     209.670 206.069 207.893  1.00  0.00    -0.003 C 
ATOM      5  C   UNL     1     210.406 207.139 207.093  1.00  0.00     0.004 C 
ENDBRANCH   3   4
ENDBRANCH   2   3
ENDBRANCH   1   2
BRANCH   1   6
ATOM      6  C   UNL     1     209.424 202.141 208.622  1.00  0.00     0.002 C 
BRANCH   6   7
ATOM      7  C   UNL     1     207.984 202.218 209.155  1.00  0.00     0.028 C 
BRANCH   7   8
ATOM      8  C   UNL     1     207.387 200.841 209.455  1.00  0.00     0.156 C 
BRANCH   8   9
ATOM      9  O   UNL     1     208.412 199.958 209.815  1.00  0.00    -0.396 OA
ATOM     10  H   UNL     1     208.141 199.558 210.681  1.00  0.00     0.210 HD
ENDBRANCH   8   9
ENDBRANCH   7   8
ENDBRANCH   6   7
ENDBRANCH   1   6
TORSDOF 7
ENDMDL
