MODEL 1
REMARK VINA RESULT:    -3.946      0.000      0.000
REMARK INTER + INTRA:          -9.593
REMARK INTER:                  -7.176
REMARK INTRA:                  -2.417
REMARK UNBOUND:                -2.417
REMARK SMILES CCCCCCCCCCCCCCCC(=O)[O-]
REMARK SMILES IDX 9 1 10 2 11 3 12 4 13 5 14 6 15 7 16 8 17 9 18 10 8 11 7 12
REMARK SMILES IDX 6 13 5 14 4 15 3 16 2 17 1 18
REMARK H PARENT
REMARK Flexibility Score: inf
ROOT
ATOM      1  C   UNL     1      22.586  52.764  38.597  1.00  0.00     0.000 C 
ENDROOT
BRANCH   1   2
ATOM      2  C   UNL     1      21.390  53.583  39.110  1.00  0.00     0.000 C 
BRANCH   2   3
ATOM      3  C   UNL     1      20.175  53.506  38.168  1.00  0.00     0.000 C 
BRANCH   3   4
ATOM      4  C   UNL     1      20.413  52.577  36.963  1.00  0.00     0.000 C 
BRANCH   4   5
ATOM      5  C   UNL     1      19.360  51.467  36.772  1.00  0.00     0.000 C 
BRANCH   5   6
ATOM      6  C   UNL     1      19.657  50.475  35.632  1.00  0.00     0.006 C 
BRANCH   6   7
ATOM      7  C   UNL     1      20.771  49.481  35.984  1.00  0.00     0.053 C 
BRANCH   7   8
ATOM      8  C   UNL     1      21.423  48.968  34.740  1.00  0.00     0.041 C 
ATOM      9  O   UNL     1      20.902  49.188  33.615  1.00  0.00    -0.550 OA
ATOM     10  O   UNL     1      22.581  48.205  34.825  1.00  0.00    -0.550 OA
ENDBRANCH   7   8
ENDBRANCH   6   7
ENDBRANCH   5   6
ENDBRANCH   4   5
ENDBRANCH   3   4
ENDBRANCH   2   3
ENDBRANCH   1   2
BRANCH   1  11
ATOM     11  C   UNL     1      23.015  51.665  39.585  1.00  0.00     0.000 C 
BRANCH  11  12
ATOM     12  C   UNL     1      22.526  50.268  39.166  1.00  0.00    -0.000 C 
BRANCH  12  13
ATOM     13  C   UNL     1      21.113  49.954  39.689  1.00  0.00    -0.000 C 
BRANCH  13  14
ATOM     14  C   UNL     1      20.864  50.521  41.096  1.00  0.00    -0.000 C 
BRANCH  14  15
ATOM     15  C   UNL     1      19.507  51.236  41.214  1.00  0.00    -0.000 C 
BRANCH  15  16
ATOM     16  C   UNL     1      18.441  50.637  40.283  1.00  0.00    -0.000 C 
BRANCH  16  17
ATOM     17  C   UNL     1      17.196  51.528  40.154  1.00  0.00    -0.003 C 
ATOM     18  C   UNL     1      16.540  51.359  38.787  1.00  0.00     0.004 C 
ENDBRANCH  16  17
ENDBRANCH  15  16
ENDBRANCH  14  15
ENDBRANCH  13  14
ENDBRANCH  12  13
ENDBRANCH  11  12
ENDBRANCH   1  11
TORSDOF 14
ENDMDL
MODEL 2
REMARK VINA RESULT:    -3.770      9.685     12.826
REMARK INTER + INTRA:          -9.272
REMARK INTER:                  -6.815
REMARK INTRA:                  -2.456
REMARK UNBOUND:                -2.417
REMARK SMILES CCCCCCCCCCCCCCCC(=O)[O-]
REMARK SMILES IDX 9 1 10 2 11 3 12 4 13 5 14 6 15 7 16 8 17 9 18 10 8 11 7 12
REMARK SMILES IDX 6 13 5 14 4 15 3 16 2 17 1 18
REMARK H PARENT
REMARK Flexibility Score: inf
ROOT
ATOM      1  C   UNL     1      13.544  52.134  28.187  1.00  0.00     0.000 C 
ENDROOT
BRANCH   1   2
ATOM      2  C   UNL     1      13.411  53.535  28.808  1.00  0.00     0.000 C 
BRANCH   2   3
ATOM      3  C   UNL     1      14.748  54.297  28.835  1.00  0.00     0.000 C 
BRANCH   3   4
ATOM      4  C   UNL     1      15.966  53.371  28.670  1.00  0.00     0.000 C 
BRANCH   4   5
ATOM      5  C   UNL     1      16.689  52.996  29.980  1.00  0.00     0.000 C 
BRANCH   5   6
ATOM      6  C   UNL     1      17.530  51.707  29.916  1.00  0.00     0.006 C 
BRANCH   6   7
ATOM      7  C   UNL     1      16.682  50.437  30.061  1.00  0.00     0.053 C 
BRANCH   7   8
ATOM      8  C   UNL     1      15.835  50.515  31.291  1.00  0.00     0.041 C 
ATOM      9  O   UNL     1      16.369  50.498  32.431  1.00  0.00    -0.550 OA
ATOM     10  O   UNL     1      14.450  50.559  31.179  1.00  0.00    -0.550 OA
ENDBRANCH   7   8
ENDBRANCH   6   7
ENDBRANCH   5   6
ENDBRANCH   4   5
ENDBRANCH   3   4
ENDBRANCH   2   3
ENDBRANCH   1   2
BRANCH   1  11
ATOM     11  C   UNL     1      12.879  52.037  26.804  1.00  0.00     0.000 C 
BRANCH  11  12
ATOM     12  C   UNL     1      12.211  53.354  26.374  1.00  0.00    -0.000 C 
BRANCH  12  13
ATOM     13  C   UNL     1      12.788  53.911  25.061  1.00  0.00    -0.000 C 
BRANCH  13  14
ATOM     14  C   UNL     1      14.273  54.290  25.183  1.00  0.00    -0.000 C 
BRANCH  14  15
ATOM     15  C   UNL     1      15.178  53.433  24.281  1.00  0.00    -0.000 C 
BRANCH  15  16
ATOM     16  C   UNL     1      16.184  52.592  25.084  1.00  0.00    -0.000 C 
BRANCH  16  17
ATOM     17  C   UNL     1      15.885  51.087  25.019  1.00  0.00    -0.003 C 
ATOM     18  C   UNL     1      16.278  50.393  26.320  1.00  0.00     0.004 C 
ENDBRANCH  16  17
ENDBRANCH  15  16
ENDBRANCH  14  15
ENDBRANCH  13  14
ENDBRANCH  12  13
ENDBRANCH  11  12
ENDBRANCH   1  11
TORSDOF 14
ENDMDL
MODEL 3
REMARK VINA RESULT:    -3.739      8.855     12.001
REMARK INTER + INTRA:          -9.215
REMARK INTER:                  -7.255
REMARK INTRA:                  -1.960
REMARK UNBOUND:                -2.417
REMARK SMILES CCCCCCCCCCCCCCCC(=O)[O-]
REMARK SMILES IDX 9 1 10 2 11 3 12 4 13 5 14 6 15 7 16 8 17 9 18 10 8 11 7 12
REMARK SMILES IDX 6 13 5 14 4 15 3 16 2 17 1 18
REMARK H PARENT
REMARK Flexibility Score: inf
ROOT
ATOM      1  C   UNL     1      14.646  52.257  25.197  1.00  0.00     0.000 C 
ENDROOT
BRANCH   1   2
ATOM      2  C   UNL     1      13.579  53.217  25.751  1.00  0.00     0.000 C 
BRANCH   2   3
ATOM      3  C   UNL     1      12.888  52.666  27.011  1.00  0.00     0.000 C 
BRANCH   3   4
ATOM      4  C   UNL     1      12.969  53.632  28.206  1.00  0.00     0.000 C 
BRANCH   4   5
ATOM      5  C   UNL     1      14.312  54.375  28.361  1.00  0.00     0.000 C 
BRANCH   5   6
ATOM      6  C   UNL     1      15.358  53.659  29.235  1.00  0.00     0.006 C 
BRANCH   6   7
ATOM      7  C   UNL     1      14.727  52.848  30.373  1.00  0.00     0.053 C 
BRANCH   7   8
ATOM      8  C   UNL     1      15.740  51.930  30.981  1.00  0.00     0.041 C 
ATOM      9  O   UNL     1      15.556  50.685  30.967  1.00  0.00    -0.550 OA
ATOM     10  O   UNL     1      16.866  52.453  31.605  1.00  0.00    -0.550 OA
ENDBRANCH   7   8
ENDBRANCH   6   7
ENDBRANCH   5   6
ENDBRANCH   4   5
ENDBRANCH   3   4
ENDBRANCH   2   3
ENDBRANCH   1   2
BRANCH   1  11
ATOM     11  C   UNL     1      14.939  51.087  26.151  1.00  0.00     0.000 C 
BRANCH  11  12
ATOM     12  C   UNL     1      16.445  50.865  26.371  1.00  0.00    -0.000 C 
BRANCH  12  13
ATOM     13  C   UNL     1      17.269  52.148  26.165  1.00  0.00    -0.000 C 
BRANCH  13  14
ATOM     14  C   UNL     1      18.555  52.166  27.008  1.00  0.00    -0.000 C 
BRANCH  14  15
ATOM     15  C   UNL     1      18.343  51.598  28.422  1.00  0.00    -0.000 C 
BRANCH  15  16
ATOM     16  C   UNL     1      19.583  50.865  28.956  1.00  0.00    -0.000 C 
BRANCH  16  17
ATOM     17  C   UNL     1      19.247  49.494  29.562  1.00  0.00    -0.003 C 
ATOM     18  C   UNL     1      18.788  48.516  28.484  1.00  0.00     0.004 C 
ENDBRANCH  16  17
ENDBRANCH  15  16
ENDBRANCH  14  15
ENDBRANCH  13  14
ENDBRANCH  12  13
ENDBRANCH  11  12
ENDBRANCH   1  11
TORSDOF 14
ENDMDL
MODEL 4
REMARK VINA RESULT:    -3.733      8.591     11.589
REMARK INTER + INTRA:          -9.205
REMARK INTER:                  -6.995
REMARK INTRA:                  -2.210
REMARK UNBOUND:                -2.417
REMARK SMILES CCCCCCCCCCCCCCCC(=O)[O-]
REMARK SMILES IDX 9 1 10 2 11 3 12 4 13 5 14 6 15 7 16 8 17 9 18 10 8 11 7 12
REMARK SMILES IDX 6 13 5 14 4 15 3 16 2 17 1 18
REMARK H PARENT
REMARK Flexibility Score: inf
ROOT
ATOM      1  C   UNL     1      16.440  50.881  26.846  1.00  0.00     0.000 C 
ENDROOT
BRANCH   1   2
ATOM      2  C   UNL     1      17.247  52.190  26.882  1.00  0.00     0.000 C 
BRANCH   2   3
ATOM      3  C   UNL     1      18.709  51.969  27.308  1.00  0.00     0.000 C 
BRANCH   3   4
ATOM      4  C   UNL     1      18.835  51.148  28.605  1.00  0.00     0.000 C 
BRANCH   4   5
ATOM      5  C   UNL     1      18.704  51.958  29.911  1.00  0.00     0.000 C 
BRANCH   5   6
ATOM      6  C   UNL     1      17.954  51.243  31.049  1.00  0.00     0.006 C 
BRANCH   6   7
ATOM      7  C   UNL     1      16.874  50.281  30.538  1.00  0.00     0.053 C 
BRANCH   7   8
ATOM      8  C   UNL     1      15.766  50.165  31.537  1.00  0.00     0.041 C 
ATOM      9  O   UNL     1      14.581  50.422  31.200  1.00  0.00    -0.550 OA
ATOM     10  O   UNL     1      16.049  49.818  32.852  1.00  0.00    -0.550 OA
ENDBRANCH   7   8
ENDBRANCH   6   7
ENDBRANCH   5   6
ENDBRANCH   4   5
ENDBRANCH   3   4
ENDBRANCH   2   3
ENDBRANCH   1   2
BRANCH   1  11
ATOM     11  C   UNL     1      15.066  51.054  26.176  1.00  0.00     0.000 C 
BRANCH  11  12
ATOM     12  C   UNL     1      14.975  52.338  25.335  1.00  0.00    -0.000 C 
BRANCH  12  13
ATOM     13  C   UNL     1      13.840  53.270  25.796  1.00  0.00    -0.000 C 
BRANCH  13  14
ATOM     14  C   UNL     1      12.921  52.610  26.836  1.00  0.00    -0.000 C 
BRANCH  14  15
ATOM     15  C   UNL     1      12.932  53.346  28.188  1.00  0.00    -0.000 C 
BRANCH  15  16
ATOM     16  C   UNL     1      14.244  54.106  28.434  1.00  0.00    -0.000 C 
BRANCH  16  17
ATOM     17  C   UNL     1      15.112  53.456  29.522  1.00  0.00    -0.003 C 
ATOM     18  C   UNL     1      15.902  54.508  30.296  1.00  0.00     0.004 C 
ENDBRANCH  16  17
ENDBRANCH  15  16
ENDBRANCH  14  15
ENDBRANCH  13  14
ENDBRANCH  12  13
ENDBRANCH  11  12
ENDBRANCH   1  11
TORSDOF 14
ENDMDL
MODEL 5
REMARK VINA RESULT:    -3.722      1.319      3.490
REMARK INTER + INTRA:          -9.184
REMARK INTER:                  -6.957
REMARK INTRA:                  -2.227
REMARK UNBOUND:                -2.417
REMARK SMILES CCCCCCCCCCCCCCCC(=O)[O-]
REMARK SMILES IDX 9 1 10 2 11 3 12 4 13 5 14 6 15 7 16 8 17 9 18 10 8 11 7 12
REMARK SMILES IDX 6 13 5 14 4 15 3 16 2 17 1 18
REMARK H PARENT
REMARK Flexibility Score: inf
ROOT
ATOM      1  C   UNL     1      18.468  49.827  39.594  1.00  0.00     0.000 C 
ENDROOT
BRANCH   1   2
ATOM      2  C   UNL     1      17.760  51.155  39.911  1.00  0.00     0.000 C 
BRANCH   2   3
ATOM      3  C   UNL     1      16.548  51.410  38.998  1.00  0.00     0.000 C 
BRANCH   3   4
ATOM      4  C   UNL     1      16.615  50.616  37.681  1.00  0.00     0.000 C 
BRANCH   4   5
ATOM      5  C   UNL     1      16.514  51.463  36.397  1.00  0.00     0.000 C 
BRANCH   5   6
ATOM      6  C   UNL     1      17.585  51.164  35.331  1.00  0.00     0.006 C 
BRANCH   6   7
ATOM      7  C   UNL     1      18.757  50.341  35.881  1.00  0.00     0.053 C 
BRANCH   7   8
ATOM      8  C   UNL     1      19.797  50.147  34.824  1.00  0.00     0.041 C 
ATOM      9  O   UNL     1      19.560  50.479  33.633  1.00  0.00    -0.550 OA
ATOM     10  O   UNL     1      21.014  49.557  35.145  1.00  0.00    -0.550 OA
ENDBRANCH   7   8
ENDBRANCH   6   7
ENDBRANCH   5   6
ENDBRANCH   4   5
ENDBRANCH   3   4
ENDBRANCH   2   3
ENDBRANCH   1   2
BRANCH   1  11
ATOM     11  C   UNL     1      19.680  49.572  40.506  1.00  0.00     0.000 C 
BRANCH  11  12
ATOM     12  C   UNL     1      20.226  50.863  41.139  1.00  0.00    -0.000 C 
BRANCH  12  13
ATOM     13  C   UNL     1      21.763  50.933  41.108  1.00  0.00    -0.000 C 
BRANCH  13  14
ATOM     14  C   UNL     1      22.344  50.565  39.733  1.00  0.00    -0.000 C 
BRANCH  14  15
ATOM     15  C   UNL     1      22.603  51.799  38.851  1.00  0.00    -0.000 C 
BRANCH  15  16
ATOM     16  C   UNL     1      21.572  51.944  37.721  1.00  0.00    -0.000 C 
BRANCH  16  17
ATOM     17  C   UNL     1      20.459  52.948  38.057  1.00  0.00    -0.003 C 
ATOM     18  C   UNL     1      20.083  53.779  36.833  1.00  0.00     0.004 C 
ENDBRANCH  16  17
ENDBRANCH  15  16
ENDBRANCH  14  15
ENDBRANCH  13  14
ENDBRANCH  12  13
ENDBRANCH  11  12
ENDBRANCH   1  11
TORSDOF 14
ENDMDL
MODEL 6
REMARK VINA RESULT:    -3.718     13.433     15.219
REMARK INTER + INTRA:          -9.177
REMARK INTER:                  -7.152
REMARK INTRA:                  -2.026
REMARK UNBOUND:                -2.417
REMARK SMILES CCCCCCCCCCCCCCCC(=O)[O-]
REMARK SMILES IDX 9 1 10 2 11 3 12 4 13 5 14 6 15 7 16 8 17 9 18 10 8 11 7 12
REMARK SMILES IDX 6 13 5 14 4 15 3 16 2 17 1 18
REMARK H PARENT
REMARK Flexibility Score: inf
ROOT
ATOM      1  C   UNL     1      26.676  60.078  26.643  1.00  0.00     0.000 C 
ENDROOT
BRANCH   1   2
ATOM      2  C   UNL     1      27.104  58.799  25.903  1.00  0.00     0.000 C 
BRANCH   2   3
ATOM      3  C   UNL     1      26.148  58.437  24.752  1.00  0.00     0.000 C 
BRANCH   3   4
ATOM      4  C   UNL     1      25.986  56.917  24.567  1.00  0.00     0.000 C 
BRANCH   4   5
ATOM      5  C   UNL     1      24.966  56.245  25.508  1.00  0.00     0.000 C 
BRANCH   5   6
ATOM      6  C   UNL     1      23.620  55.879  24.857  1.00  0.00     0.006 C 
BRANCH   6   7
ATOM      7  C   UNL     1      22.542  55.513  25.885  1.00  0.00     0.053 C 
BRANCH   7   8
ATOM      8  C   UNL     1      21.377  54.862  25.208  1.00  0.00     0.041 C 
ATOM      9  O   UNL     1      20.691  55.505  24.371  1.00  0.00    -0.550 OA
ATOM     10  O   UNL     1      21.020  53.560  25.538  1.00  0.00    -0.550 OA
ENDBRANCH   7   8
ENDBRANCH   6   7
ENDBRANCH   5   6
ENDBRANCH   4   5
ENDBRANCH   3   4
ENDBRANCH   2   3
ENDBRANCH   1   2
BRANCH   1  11
ATOM     11  C   UNL     1      26.843  61.341  25.782  1.00  0.00     0.000 C 
BRANCH  11  12
ATOM     12  C   UNL     1      25.808  62.428  26.119  1.00  0.00    -0.000 C 
BRANCH  12  13
ATOM     13  C   UNL     1      25.183  62.239  27.513  1.00  0.00    -0.000 C 
BRANCH  13  14
ATOM     14  C   UNL     1      23.714  62.690  27.568  1.00  0.00    -0.000 C 
BRANCH  14  15
ATOM     15  C   UNL     1      22.733  61.551  27.241  1.00  0.00    -0.000 C 
BRANCH  15  16
ATOM     16  C   UNL     1      23.209  60.191  27.774  1.00  0.00    -0.000 C 
BRANCH  16  17
ATOM     17  C   UNL     1      23.110  59.073  26.724  1.00  0.00    -0.003 C 
ATOM     18  C   UNL     1      22.804  59.645  25.343  1.00  0.00     0.004 C 
ENDBRANCH  16  17
ENDBRANCH  15  16
ENDBRANCH  14  15
ENDBRANCH  13  14
ENDBRANCH  12  13
ENDBRANCH  11  12
ENDBRANCH   1  11
TORSDOF 14
ENDMDL
MODEL 7
REMARK VINA RESULT:    -3.681      1.136      3.427
REMARK INTER + INTRA:          -9.111
REMARK INTER:                  -6.697
REMARK INTRA:                  -2.414
REMARK UNBOUND:                -2.417
REMARK SMILES CCCCCCCCCCCCCCCC(=O)[O-]
REMARK SMILES IDX 9 1 10 2 11 3 12 4 13 5 14 6 15 7 16 8 17 9 18 10 8 11 7 12
REMARK SMILES IDX 6 13 5 14 4 15 3 16 2 17 1 18
REMARK H PARENT
REMARK Flexibility Score: inf
ROOT
ATOM      1  C   UNL     1      17.385  51.388  39.683  1.00  0.00     0.000 C 
ENDROOT
BRANCH   1   2
ATOM      2  C   UNL     1      17.453  50.442  38.472  1.00  0.00     0.000 C 
BRANCH   2   3
ATOM      3  C   UNL     1      17.147  51.160  37.146  1.00  0.00     0.000 C 
BRANCH   3   4
ATOM      4  C   UNL     1      18.331  51.126  36.162  1.00  0.00     0.000 C 
BRANCH   4   5
ATOM      5  C   UNL     1      19.283  49.923  36.320  1.00  0.00     0.000 C 
BRANCH   5   6
ATOM      6  C   UNL     1      20.350  49.786  35.219  1.00  0.00     0.006 C 
BRANCH   6   7
ATOM      7  C   UNL     1      21.612  49.060  35.700  1.00  0.00     0.053 C 
BRANCH   7   8
ATOM      8  C   UNL     1      21.834  47.816  34.900  1.00  0.00     0.041 C 
ATOM      9  O   UNL     1      22.916  47.647  34.278  1.00  0.00    -0.550 OA
ATOM     10  O   UNL     1      20.827  46.863  34.801  1.00  0.00    -0.550 OA
ENDBRANCH   7   8
ENDBRANCH   6   7
ENDBRANCH   5   6
ENDBRANCH   4   5
ENDBRANCH   3   4
ENDBRANCH   2   3
ENDBRANCH   1   2
BRANCH   1  11
ATOM     11  C   UNL     1      18.355  50.981  40.805  1.00  0.00     0.000 C 
BRANCH  11  12
ATOM     12  C   UNL     1      19.285  49.827  40.393  1.00  0.00    -0.000 C 
BRANCH  12  13
ATOM     13  C   UNL     1      20.772  50.159  40.607  1.00  0.00    -0.000 C 
BRANCH  13  14
ATOM     14  C   UNL     1      21.546  50.278  39.284  1.00  0.00    -0.000 C 
BRANCH  14  15
ATOM     15  C   UNL     1      22.153  51.677  39.078  1.00  0.00    -0.000 C 
BRANCH  15  16
ATOM     16  C   UNL     1      21.911  52.222  37.661  1.00  0.00    -0.000 C 
BRANCH  16  17
ATOM     17  C   UNL     1      20.782  53.263  37.609  1.00  0.00    -0.003 C 
ATOM     18  C   UNL     1      20.237  53.551  39.005  1.00  0.00     0.004 C 
ENDBRANCH  16  17
ENDBRANCH  15  16
ENDBRANCH  14  15
ENDBRANCH  13  14
ENDBRANCH  12  13
ENDBRANCH  11  12
ENDBRANCH   1  11
TORSDOF 14
ENDMDL
MODEL 8
REMARK VINA RESULT:    -3.656      2.169      3.962
REMARK INTER + INTRA:          -9.065
REMARK INTER:                  -6.743
REMARK INTRA:                  -2.322
REMARK UNBOUND:                -2.417
REMARK SMILES CCCCCCCCCCCCCCCC(=O)[O-]
REMARK SMILES IDX 9 1 10 2 11 3 12 4 13 5 14 6 15 7 16 8 17 9 18 10 8 11 7 12
REMARK SMILES IDX 6 13 5 14 4 15 3 16 2 17 1 18
REMARK H PARENT
REMARK Flexibility Score: inf
ROOT
ATOM      1  C   UNL     1      19.282  49.876  39.241  1.00  0.00     0.000 C 
ENDROOT
BRANCH   1   2
ATOM      2  C   UNL     1      17.966  50.671  39.188  1.00  0.00     0.000 C 
BRANCH   2   3
ATOM      3  C   UNL     1      16.931  50.037  38.243  1.00  0.00     0.000 C 
BRANCH   3   4
ATOM      4  C   UNL     1      16.497  50.986  37.111  1.00  0.00     0.000 C 
BRANCH   4   5
ATOM      5  C   UNL     1      16.270  50.315  35.741  1.00  0.00     0.000 C 
BRANCH   5   6
ATOM      6  C   UNL     1      17.548  50.057  34.921  1.00  0.00     0.006 C 
BRANCH   6   7
ATOM      7  C   UNL     1      18.469  51.282  34.855  1.00  0.00     0.053 C 
BRANCH   7   8
ATOM      8  C   UNL     1      18.217  52.055  33.599  1.00  0.00     0.041 C 
ATOM      9  O   UNL     1      17.290  52.905  33.554  1.00  0.00    -0.550 OA
ATOM     10  O   UNL     1      18.976  51.803  32.463  1.00  0.00    -0.550 OA
ENDBRANCH   7   8
ENDBRANCH   6   7
ENDBRANCH   5   6
ENDBRANCH   4   5
ENDBRANCH   3   4
ENDBRANCH   2   3
ENDBRANCH   1   2
BRANCH   1  11
ATOM     11  C   UNL     1      19.898  49.662  37.848  1.00  0.00     0.000 C 
BRANCH  11  12
ATOM     12  C   UNL     1      21.422  49.872  37.836  1.00  0.00    -0.000 C 
BRANCH  12  13
ATOM     13  C   UNL     1      21.998  50.110  39.243  1.00  0.00    -0.000 C 
BRANCH  13  14
ATOM     14  C   UNL     1      22.977  51.295  39.288  1.00  0.00    -0.000 C 
BRANCH  14  15
ATOM     15  C   UNL     1      22.378  52.579  38.688  1.00  0.00    -0.000 C 
BRANCH  15  16
ATOM     16  C   UNL     1      21.235  53.152  39.540  1.00  0.00    -0.000 C 
BRANCH  16  17
ATOM     17  C   UNL     1      20.033  53.602  38.697  1.00  0.00    -0.003 C 
ATOM     18  C   UNL     1      20.313  53.428  37.206  1.00  0.00     0.004 C 
ENDBRANCH  16  17
ENDBRANCH  15  16
ENDBRANCH  14  15
ENDBRANCH  13  14
ENDBRANCH  12  13
ENDBRANCH  11  12
ENDBRANCH   1  11
TORSDOF 14
ENDMDL
MODEL 9
REMARK VINA RESULT:    -3.655      2.087      4.648
REMARK INTER + INTRA:          -9.064
REMARK INTER:                  -6.722
REMARK INTRA:                  -2.342
REMARK UNBOUND:                -2.417
REMARK SMILES CCCCCCCCCCCCCCCC(=O)[O-]
REMARK SMILES IDX 9 1 10 2 11 3 12 4 13 5 14 6 15 7 16 8 17 9 18 10 8 11 7 12
REMARK SMILES IDX 6 13 5 14 4 15 3 16 2 17 1 18
REMARK H PARENT
REMARK Flexibility Score: inf
ROOT
ATOM      1  C   UNL     1      18.753  49.486  39.603  1.00  0.00     0.000 C 
ENDROOT
BRANCH   1   2
ATOM      2  C   UNL     1      17.666  48.703  38.849  1.00  0.00     0.000 C 
BRANCH   2   3
ATOM      3  C   UNL     1      17.903  48.680  37.328  1.00  0.00     0.000 C 
BRANCH   3   4
ATOM      4  C   UNL     1      19.379  48.907  36.952  1.00  0.00     0.000 C 
BRANCH   4   5
ATOM      5  C   UNL     1      19.624  49.973  35.866  1.00  0.00     0.000 C 
BRANCH   5   6
ATOM      6  C   UNL     1      18.368  50.732  35.399  1.00  0.00     0.006 C 
BRANCH   6   7
ATOM      7  C   UNL     1      18.692  52.097  34.780  1.00  0.00     0.053 C 
BRANCH   7   8
ATOM      8  C   UNL     1      18.426  52.077  33.309  1.00  0.00     0.041 C 
ATOM      9  O   UNL     1      19.330  51.728  32.506  1.00  0.00    -0.550 OA
ATOM     10  O   UNL     1      17.192  52.490  32.819  1.00  0.00    -0.550 OA
ENDBRANCH   7   8
ENDBRANCH   6   7
ENDBRANCH   5   6
ENDBRANCH   4   5
ENDBRANCH   3   4
ENDBRANCH   2   3
ENDBRANCH   1   2
BRANCH   1  11
ATOM     11  C   UNL     1      18.239  50.827  40.154  1.00  0.00     0.000 C 
BRANCH  11  12
ATOM     12  C   UNL     1      19.234  51.979  39.932  1.00  0.00    -0.000 C 
BRANCH  12  13
ATOM     13  C   UNL     1      19.202  52.520  38.492  1.00  0.00    -0.000 C 
BRANCH  13  14
ATOM     14  C   UNL     1      20.446  53.354  38.147  1.00  0.00    -0.000 C 
BRANCH  14  15
ATOM     15  C   UNL     1      21.628  52.488  37.676  1.00  0.00    -0.000 C 
BRANCH  15  16
ATOM     16  C   UNL     1      22.858  52.622  38.586  1.00  0.00    -0.000 C 
BRANCH  16  17
ATOM     17  C   UNL     1      22.927  51.522  39.657  1.00  0.00    -0.003 C 
ATOM     18  C   UNL     1      22.457  50.182  39.098  1.00  0.00     0.004 C 
ENDBRANCH  16  17
ENDBRANCH  15  16
ENDBRANCH  14  15
ENDBRANCH  13  14
ENDBRANCH  12  13
ENDBRANCH  11  12
ENDBRANCH   1  11
TORSDOF 14
ENDMDL
