MODEL 1
REMARK VINA RESULT:    -4.992      0.000      0.000
REMARK INTER + INTRA:          -8.402
REMARK INTER:                  -7.618
REMARK INTRA:                  -0.784
REMARK UNBOUND:                -0.784
REMARK SMILES CCCCCCCCCC=CC(=O)[O-]
REMARK SMILES IDX 7 1 8 2 9 3 10 4 11 5 12 6 13 7 14 8 6 9 5 10 4 11 3 12 2 13
REMARK SMILES IDX 1 14
REMARK H PARENT
REMARK Flexibility Score: inf
ROOT
ATOM      1  C   UNL     1      22.718 141.628 351.531  1.00  0.00     0.000 C 
ENDROOT
BRANCH   1   2
ATOM      2  C   UNL     1      24.172 141.260 351.866  1.00  0.00     0.004 C 
BRANCH   2   3
ATOM      3  C   UNL     1      24.319 140.661 353.272  1.00  0.00     0.027 C 
BRANCH   3   4
ATOM      4  C   UNL     1      23.395 139.488 353.484  1.00  0.00    -0.025 C 
ATOM      5  C   UNL     1      23.662 138.194 353.241  1.00  0.00     0.020 C 
BRANCH   5   6
ATOM      6  C   UNL     1      24.921 137.618 352.722  1.00  0.00     0.064 C 
ATOM      7  O   UNL     1      25.687 136.922 353.436  1.00  0.00    -0.545 OA
ATOM      8  O   UNL     1      25.254 137.831 351.391  1.00  0.00    -0.545 OA
ENDBRANCH   5   6
ENDBRANCH   3   4
ENDBRANCH   2   3
ENDBRANCH   1   2
BRANCH   1   9
ATOM      9  C   UNL     1      22.406 143.118 351.765  1.00  0.00     0.000 C 
BRANCH   9  10
ATOM     10  C   UNL     1      21.105 143.411 352.542  1.00  0.00     0.000 C 
BRANCH  10  11
ATOM     11  C   UNL     1      20.836 142.486 353.746  1.00  0.00    -0.000 C 
BRANCH  11  12
ATOM     12  C   UNL     1      19.691 142.972 354.664  1.00  0.00    -0.000 C 
BRANCH  12  13
ATOM     13  C   UNL     1      18.296 142.819 354.035  1.00  0.00    -0.003 C 
ATOM     14  C   UNL     1      17.661 144.159 353.668  1.00  0.00     0.004 C 
ENDBRANCH  12  13
ENDBRANCH  11  12
ENDBRANCH  10  11
ENDBRANCH   9  10
ENDBRANCH   1   9
TORSDOF 9
ENDMDL
MODEL 2
REMARK VINA RESULT:    -4.960      3.965      6.081
REMARK INTER + INTRA:          -8.353
REMARK INTER:                  -8.146
REMARK INTRA:                  -0.207
REMARK UNBOUND:                -0.784
REMARK SMILES CCCCCCCCCC=CC(=O)[O-]
REMARK SMILES IDX 7 1 8 2 9 3 10 4 11 5 12 6 13 7 14 8 6 9 5 10 4 11 3 12 2 13
REMARK SMILES IDX 1 14
REMARK H PARENT
REMARK Flexibility Score: inf
ROOT
ATOM      1  C   UNL     1      25.760 136.381 352.810  1.00  0.00     0.000 C 
ENDROOT
BRANCH   1   2
ATOM      2  C   UNL     1      26.703 135.963 353.949  1.00  0.00     0.004 C 
BRANCH   2   3
ATOM      3  C   UNL     1      27.862 135.082 353.462  1.00  0.00     0.027 C 
BRANCH   3   4
ATOM      4  C   UNL     1      29.195 135.577 353.963  1.00  0.00    -0.025 C 
ATOM      5  C   UNL     1      30.412 135.170 353.561  1.00  0.00     0.020 C 
BRANCH   5   6
ATOM      6  C   UNL     1      30.726 134.157 352.531  1.00  0.00     0.064 C 
ATOM      7  O   UNL     1      30.358 134.278 351.334  1.00  0.00    -0.545 OA
ATOM      8  O   UNL     1      31.477 133.047 352.893  1.00  0.00    -0.545 OA
ENDBRANCH   5   6
ENDBRANCH   3   4
ENDBRANCH   2   3
ENDBRANCH   1   2
BRANCH   1   9
ATOM      9  C   UNL     1      24.679 137.381 353.261  1.00  0.00     0.000 C 
BRANCH   9  10
ATOM     10  C   UNL     1      24.512 138.628 352.366  1.00  0.00     0.000 C 
BRANCH  10  11
ATOM     11  C   UNL     1      24.356 139.963 353.121  1.00  0.00    -0.000 C 
BRANCH  11  12
ATOM     12  C   UNL     1      22.889 140.422 353.284  1.00  0.00    -0.000 C 
BRANCH  12  13
ATOM     13  C   UNL     1      22.698 141.937 353.104  1.00  0.00    -0.003 C 
ATOM     14  C   UNL     1      21.315 142.417 353.539  1.00  0.00     0.004 C 
ENDBRANCH  12  13
ENDBRANCH  11  12
ENDBRANCH  10  11
ENDBRANCH   9  10
ENDBRANCH   1   9
TORSDOF 9
ENDMDL
MODEL 3
REMARK VINA RESULT:    -4.898      3.711      8.755
REMARK INTER + INTRA:          -8.259
REMARK INTER:                  -7.793
REMARK INTRA:                  -0.466
REMARK UNBOUND:                -0.784
REMARK SMILES CCCCCCCCCC=CC(=O)[O-]
REMARK SMILES IDX 7 1 8 2 9 3 10 4 11 5 12 6 13 7 14 8 6 9 5 10 4 11 3 12 2 13
REMARK SMILES IDX 1 14
REMARK H PARENT
REMARK Flexibility Score: inf
ROOT
ATOM      1  C   UNL     1      25.190 136.168 352.790  1.00  0.00     0.000 C 
ENDROOT
BRANCH   1   2
ATOM      2  C   UNL     1      25.126 137.699 352.900  1.00  0.00     0.004 C 
BRANCH   2   3
ATOM      3  C   UNL     1      23.694 138.217 353.099  1.00  0.00     0.027 C 
BRANCH   3   4
ATOM      4  C   UNL     1      23.674 139.628 353.631  1.00  0.00    -0.025 C 
ATOM      5  C   UNL     1      23.785 140.762 352.918  1.00  0.00     0.020 C 
BRANCH   5   6
ATOM      6  C   UNL     1      23.939 140.892 351.453  1.00  0.00     0.064 C 
ATOM      7  O   UNL     1      25.050 141.120 350.910  1.00  0.00    -0.545 OA
ATOM      8  O   UNL     1      22.820 140.728 350.648  1.00  0.00    -0.545 OA
ENDBRANCH   5   6
ENDBRANCH   3   4
ENDBRANCH   2   3
ENDBRANCH   1   2
BRANCH   1   9
ATOM      9  C   UNL     1      26.620 135.614 352.940  1.00  0.00     0.000 C 
BRANCH   9  10
ATOM     10  C   UNL     1      27.332 135.962 354.265  1.00  0.00     0.000 C 
BRANCH  10  11
ATOM     11  C   UNL     1      28.648 135.202 354.522  1.00  0.00    -0.000 C 
BRANCH  11  12
ATOM     12  C   UNL     1      29.801 135.610 353.576  1.00  0.00    -0.000 C 
BRANCH  12  13
ATOM     13  C   UNL     1      30.213 134.496 352.598  1.00  0.00    -0.003 C 
ATOM     14  C   UNL     1      31.176 133.487 353.220  1.00  0.00     0.004 C 
ENDBRANCH  12  13
ENDBRANCH  11  12
ENDBRANCH  10  11
ENDBRANCH   9  10
ENDBRANCH   1   9
TORSDOF 9
ENDMDL
MODEL 4
REMARK VINA RESULT:    -4.896      3.003      4.857
REMARK INTER + INTRA:          -8.255
REMARK INTER:                  -7.938
REMARK INTRA:                  -0.317
REMARK UNBOUND:                -0.784
REMARK SMILES CCCCCCCCCC=CC(=O)[O-]
REMARK SMILES IDX 7 1 8 2 9 3 10 4 11 5 12 6 13 7 14 8 6 9 5 10 4 11 3 12 2 13
REMARK SMILES IDX 1 14
REMARK H PARENT
REMARK Flexibility Score: inf
ROOT
ATOM      1  C   UNL     1      25.080 137.730 352.882  1.00  0.00     0.000 C 
ENDROOT
BRANCH   1   2
ATOM      2  C   UNL     1      25.163 136.207 353.069  1.00  0.00     0.004 C 
BRANCH   2   3
ATOM      3  C   UNL     1      26.607 135.686 353.024  1.00  0.00     0.027 C 
BRANCH   3   4
ATOM      4  C   UNL     1      27.260 135.718 354.382  1.00  0.00    -0.025 C 
ATOM      5  C   UNL     1      28.543 135.436 354.669  1.00  0.00     0.020 C 
BRANCH   5   6
ATOM      6  C   UNL     1      29.610 135.044 353.725  1.00  0.00     0.064 C 
ATOM      7  O   UNL     1      29.857 133.842 353.448  1.00  0.00    -0.545 OA
ATOM      8  O   UNL     1      30.348 136.040 353.101  1.00  0.00    -0.545 OA
ENDBRANCH   5   6
ENDBRANCH   3   4
ENDBRANCH   2   3
ENDBRANCH   1   2
BRANCH   1   9
ATOM      9  C   UNL     1      23.830 138.347 353.538  1.00  0.00     0.000 C 
BRANCH   9  10
ATOM     10  C   UNL     1      23.199 139.535 352.780  1.00  0.00     0.000 C 
BRANCH  10  11
ATOM     11  C   UNL     1      23.500 140.927 353.373  1.00  0.00    -0.000 C 
BRANCH  11  12
ATOM     12  C   UNL     1      22.261 141.846 353.468  1.00  0.00    -0.000 C 
BRANCH  12  13
ATOM     13  C   UNL     1      22.216 142.927 352.375  1.00  0.00    -0.003 C 
ATOM     14  C   UNL     1      20.792 143.351 352.018  1.00  0.00     0.004 C 
ENDBRANCH  12  13
ENDBRANCH  11  12
ENDBRANCH  10  11
ENDBRANCH   9  10
ENDBRANCH   1   9
TORSDOF 9
ENDMDL
MODEL 5
REMARK VINA RESULT:    -4.890      6.593      9.557
REMARK INTER + INTRA:          -8.246
REMARK INTER:                  -7.403
REMARK INTRA:                  -0.844
REMARK UNBOUND:                -0.784
REMARK SMILES CCCCCCCCCC=CC(=O)[O-]
REMARK SMILES IDX 7 1 8 2 9 3 10 4 11 5 12 6 13 7 14 8 6 9 5 10 4 11 3 12 2 13
REMARK SMILES IDX 1 14
REMARK H PARENT
REMARK Flexibility Score: inf
ROOT
ATOM      1  C   UNL     1      26.072 136.425 353.762  1.00  0.00     0.000 C 
ENDROOT
BRANCH   1   2
ATOM      2  C   UNL     1      25.282 136.626 352.460  1.00  0.00     0.004 C 
BRANCH   2   3
ATOM      3  C   UNL     1      25.737 135.676 351.342  1.00  0.00     0.027 C 
BRANCH   3   4
ATOM      4  C   UNL     1      25.848 136.382 350.014  1.00  0.00    -0.025 C 
ATOM      5  C   UNL     1      26.193 135.836 348.835  1.00  0.00     0.020 C 
BRANCH   5   6
ATOM      6  C   UNL     1      26.530 134.422 348.563  1.00  0.00     0.064 C 
ATOM      7  O   UNL     1      25.689 133.605 348.110  1.00  0.00    -0.545 OA
ATOM      8  O   UNL     1      27.830 133.990 348.792  1.00  0.00    -0.545 OA
ENDBRANCH   5   6
ENDBRANCH   3   4
ENDBRANCH   2   3
ENDBRANCH   1   2
BRANCH   1   9
ATOM      9  C   UNL     1      27.183 135.366 353.634  1.00  0.00     0.000 C 
BRANCH   9  10
ATOM     10  C   UNL     1      28.455 135.631 354.468  1.00  0.00     0.000 C 
BRANCH  10  11
ATOM     11  C   UNL     1      29.772 135.656 353.667  1.00  0.00    -0.000 C 
BRANCH  11  12
ATOM     12  C   UNL     1      29.603 135.285 352.175  1.00  0.00    -0.000 C 
BRANCH  12  13
ATOM     13  C   UNL     1      30.552 134.167 351.712  1.00  0.00    -0.003 C 
ATOM     14  C   UNL     1      31.287 133.495 352.871  1.00  0.00     0.004 C 
ENDBRANCH  12  13
ENDBRANCH  11  12
ENDBRANCH  10  11
ENDBRANCH   9  10
ENDBRANCH   1   9
TORSDOF 9
ENDMDL
MODEL 6
REMARK VINA RESULT:    -4.816      6.701      9.364
REMARK INTER + INTRA:          -8.134
REMARK INTER:                  -7.371
REMARK INTRA:                  -0.763
REMARK UNBOUND:                -0.784
REMARK SMILES CCCCCCCCCC=CC(=O)[O-]
REMARK SMILES IDX 7 1 8 2 9 3 10 4 11 5 12 6 13 7 14 8 6 9 5 10 4 11 3 12 2 13
REMARK SMILES IDX 1 14
REMARK H PARENT
REMARK Flexibility Score: inf
ROOT
ATOM      1  C   UNL     1      26.532 135.387 353.520  1.00  0.00     0.000 C 
ENDROOT
BRANCH   1   2
ATOM      2  C   UNL     1      25.705 136.478 352.823  1.00  0.00     0.004 C 
BRANCH   2   3
ATOM      3  C   UNL     1      25.576 136.245 351.311  1.00  0.00     0.027 C 
BRANCH   3   4
ATOM      4  C   UNL     1      24.151 135.968 350.903  1.00  0.00    -0.025 C 
ATOM      5  C   UNL     1      23.730 135.466 349.730  1.00  0.00     0.020 C 
BRANCH   5   6
ATOM      6  C   UNL     1      24.560 135.056 348.577  1.00  0.00     0.064 C 
ATOM      7  O   UNL     1      24.620 135.731 347.517  1.00  0.00    -0.545 OA
ATOM      8  O   UNL     1      25.320 133.899 348.679  1.00  0.00    -0.545 OA
ENDBRANCH   5   6
ENDBRANCH   3   4
ENDBRANCH   2   3
ENDBRANCH   1   2
BRANCH   1   9
ATOM      9  C   UNL     1      27.550 135.955 354.527  1.00  0.00     0.000 C 
BRANCH   9  10
ATOM     10  C   UNL     1      28.872 135.169 354.652  1.00  0.00     0.000 C 
BRANCH  10  11
ATOM     11  C   UNL     1      29.945 135.516 353.601  1.00  0.00    -0.000 C 
BRANCH  11  12
ATOM     12  C   UNL     1      30.542 134.283 352.886  1.00  0.00    -0.000 C 
BRANCH  12  13
ATOM     13  C   UNL     1      30.422 134.346 351.354  1.00  0.00    -0.003 C 
ATOM     14  C   UNL     1      29.099 134.951 350.887  1.00  0.00     0.004 C 
ENDBRANCH  12  13
ENDBRANCH  11  12
ENDBRANCH  10  11
ENDBRANCH   9  10
ENDBRANCH   1   9
TORSDOF 9
ENDMDL
MODEL 7
REMARK VINA RESULT:    -4.807      4.193      7.208
REMARK INTER + INTRA:          -8.120
REMARK INTER:                  -7.598
REMARK INTRA:                  -0.522
REMARK UNBOUND:                -0.784
REMARK SMILES CCCCCCCCCC=CC(=O)[O-]
REMARK SMILES IDX 7 1 8 2 9 3 10 4 11 5 12 6 13 7 14 8 6 9 5 10 4 11 3 12 2 13
REMARK SMILES IDX 1 14
REMARK H PARENT
REMARK Flexibility Score: inf
ROOT
ATOM      1  C   UNL     1      22.146 142.345 351.695  1.00  0.00     0.000 C 
ENDROOT
BRANCH   1   2
ATOM      2  C   UNL     1      20.723 142.912 351.818  1.00  0.00     0.004 C 
BRANCH   2   3
ATOM      3  C   UNL     1      20.467 143.572 353.180  1.00  0.00     0.027 C 
BRANCH   3   4
ATOM      4  C   UNL     1      19.332 142.912 353.921  1.00  0.00    -0.025 C 
ATOM      5  C   UNL     1      18.040 143.283 353.918  1.00  0.00     0.020 C 
BRANCH   5   6
ATOM      6  C   UNL     1      17.431 144.410 353.180  1.00  0.00     0.064 C 
ATOM      7  O   UNL     1      16.793 145.327 353.757  1.00  0.00    -0.545 OA
ATOM      8  O   UNL     1      17.593 144.471 351.802  1.00  0.00    -0.545 OA
ENDBRANCH   5   6
ENDBRANCH   3   4
ENDBRANCH   2   3
ENDBRANCH   1   2
BRANCH   1   9
ATOM      9  C   UNL     1      22.944 142.433 353.009  1.00  0.00     0.000 C 
BRANCH   9  10
ATOM     10  C   UNL     1      23.544 141.103 353.513  1.00  0.00     0.000 C 
BRANCH  10  11
ATOM     11  C   UNL     1      23.156 139.855 352.694  1.00  0.00    -0.000 C 
BRANCH  11  12
ATOM     12  C   UNL     1      23.542 138.519 353.370  1.00  0.00    -0.000 C 
BRANCH  12  13
ATOM     13  C   UNL     1      24.953 138.030 352.997  1.00  0.00    -0.003 C 
ATOM     14  C   UNL     1      25.205 136.580 353.406  1.00  0.00     0.004 C 
ENDBRANCH  12  13
ENDBRANCH  11  12
ENDBRANCH  10  11
ENDBRANCH   9  10
ENDBRANCH   1   9
TORSDOF 9
ENDMDL
MODEL 8
REMARK VINA RESULT:    -4.801      3.811      7.880
REMARK INTER + INTRA:          -8.111
REMARK INTER:                  -7.866
REMARK INTRA:                  -0.246
REMARK UNBOUND:                -0.784
REMARK SMILES CCCCCCCCCC=CC(=O)[O-]
REMARK SMILES IDX 7 1 8 2 9 3 10 4 11 5 12 6 13 7 14 8 6 9 5 10 4 11 3 12 2 13
REMARK SMILES IDX 1 14
REMARK H PARENT
REMARK Flexibility Score: inf
ROOT
ATOM      1  C   UNL     1      24.053 140.111 353.477  1.00  0.00     0.000 C 
ENDROOT
BRANCH   1   2
ATOM      2  C   UNL     1      23.149 140.964 352.574  1.00  0.00     0.004 C 
BRANCH   2   3
ATOM      3  C   UNL     1      22.117 141.774 353.370  1.00  0.00     0.027 C 
BRANCH   3   4
ATOM      4  C   UNL     1      21.694 143.023 352.638  1.00  0.00    -0.025 C 
ATOM      5  C   UNL     1      20.498 143.633 352.702  1.00  0.00     0.020 C 
BRANCH   5   6
ATOM      6  C   UNL     1      19.328 143.232 353.511  1.00  0.00     0.064 C 
ATOM      7  O   UNL     1      18.286 142.750 352.997  1.00  0.00    -0.545 OA
ATOM      8  O   UNL     1      19.392 143.368 354.892  1.00  0.00    -0.545 OA
ENDBRANCH   5   6
ENDBRANCH   3   4
ENDBRANCH   2   3
ENDBRANCH   1   2
BRANCH   1   9
ATOM      9  C   UNL     1      23.779 138.601 353.347  1.00  0.00     0.000 C 
BRANCH   9  10
ATOM     10  C   UNL     1      24.921 137.769 352.725  1.00  0.00     0.000 C 
BRANCH  10  11
ATOM     11  C   UNL     1      25.214 136.427 353.427  1.00  0.00    -0.000 C 
BRANCH  11  12
ATOM     12  C   UNL     1      26.603 135.837 353.092  1.00  0.00    -0.000 C 
BRANCH  12  13
ATOM     13  C   UNL     1      27.511 135.670 354.322  1.00  0.00    -0.003 C 
ATOM     14  C   UNL     1      28.981 135.479 353.953  1.00  0.00     0.004 C 
ENDBRANCH  12  13
ENDBRANCH  11  12
ENDBRANCH  10  11
ENDBRANCH   9  10
ENDBRANCH   1   9
TORSDOF 9
ENDMDL
MODEL 9
REMARK VINA RESULT:    -4.687      1.423      2.021
REMARK INTER + INTRA:          -7.937
REMARK INTER:                  -7.463
REMARK INTRA:                  -0.474
REMARK UNBOUND:                -0.784
REMARK SMILES CCCCCCCCCC=CC(=O)[O-]
REMARK SMILES IDX 7 1 8 2 9 3 10 4 11 5 12 6 13 7 14 8 6 9 5 10 4 11 3 12 2 13
REMARK SMILES IDX 1 14
REMARK H PARENT
REMARK Flexibility Score: inf
ROOT
ATOM      1  C   UNL     1      23.681 140.918 353.660  1.00  0.00     0.000 C 
ENDROOT
BRANCH   1   2
ATOM      2  C   UNL     1      24.206 139.666 352.941  1.00  0.00     0.004 C 
BRANCH   2   3
ATOM      3  C   UNL     1      23.656 138.365 353.544  1.00  0.00     0.027 C 
BRANCH   3   4
ATOM      4  C   UNL     1      24.656 137.240 353.465  1.00  0.00    -0.025 C 
ATOM      5  C   UNL     1      24.892 136.441 352.410  1.00  0.00     0.020 C 
BRANCH   5   6
ATOM      6  C   UNL     1      24.239 136.486 351.084  1.00  0.00     0.064 C 
ATOM      7  O   UNL     1      23.097 136.001 350.878  1.00  0.00    -0.545 OA
ATOM      8  O   UNL     1      24.901 137.111 350.036  1.00  0.00    -0.545 OA
ENDBRANCH   5   6
ENDBRANCH   3   4
ENDBRANCH   2   3
ENDBRANCH   1   2
BRANCH   1   9
ATOM      9  C   UNL     1      22.234 141.273 353.270  1.00  0.00     0.000 C 
BRANCH   9  10
ATOM     10  C   UNL     1      22.008 142.729 352.809  1.00  0.00     0.000 C 
BRANCH  10  11
ATOM     11  C   UNL     1      20.877 143.481 353.539  1.00  0.00    -0.000 C 
BRANCH  11  12
ATOM     12  C   UNL     1      19.915 142.557 354.320  1.00  0.00    -0.000 C 
BRANCH  12  13
ATOM     13  C   UNL     1      18.432 142.802 353.993  1.00  0.00    -0.003 C 
ATOM     14  C   UNL     1      18.182 144.169 353.359  1.00  0.00     0.004 C 
ENDBRANCH  12  13
ENDBRANCH  11  12
ENDBRANCH  10  11
ENDBRANCH   9  10
ENDBRANCH   1   9
TORSDOF 9
ENDMDL
