MODEL 1
REMARK VINA RESULT:    -5.789      0.000      0.000
REMARK INTER + INTRA:          -9.933
REMARK INTER:                  -8.835
REMARK INTRA:                  -1.098
REMARK UNBOUND:                -1.098
REMARK SMILES CCCCCCCCCC=CC(=O)[O-]
REMARK SMILES IDX 7 1 8 2 9 3 10 4 11 5 12 6 13 7 14 8 6 9 5 10 4 11 3 12 2 13
REMARK SMILES IDX 1 14
REMARK H PARENT
REMARK Flexibility Score: inf
ROOT
ATOM      1  C   UNL     1      51.299  51.689   6.412  1.00  0.00     0.000 C 
ENDROOT
BRANCH   1   2
ATOM      2  C   UNL     1      52.655  51.723   7.134  1.00  0.00     0.004 C 
BRANCH   2   3
ATOM      3  C   UNL     1      53.512  50.489   6.812  1.00  0.00     0.027 C 
BRANCH   3   4
ATOM      4  C   UNL     1      53.341  50.030   5.387  1.00  0.00    -0.025 C 
ATOM      5  C   UNL     1      54.080  50.422   4.336  1.00  0.00     0.020 C 
BRANCH   5   6
ATOM      6  C   UNL     1      55.174  51.416   4.349  1.00  0.00     0.064 C 
ATOM      7  O   UNL     1      56.333  51.049   4.021  1.00  0.00    -0.545 OA
ATOM      8  O   UNL     1      54.963  52.747   4.684  1.00  0.00    -0.545 OA
ENDBRANCH   5   6
ENDBRANCH   3   4
ENDBRANCH   2   3
ENDBRANCH   1   2
BRANCH   1   9
ATOM      9  C   UNL     1      51.151  52.884   5.463  1.00  0.00     0.000 C 
BRANCH   9  10
ATOM     10  C   UNL     1      50.000  52.657   4.471  1.00  0.00     0.000 C 
BRANCH  10  11
ATOM     11  C   UNL     1      49.558  51.186   4.401  1.00  0.00    -0.000 C 
BRANCH  11  12
ATOM     12  C   UNL     1      48.964  50.811   3.031  1.00  0.00    -0.000 C 
BRANCH  12  13
ATOM     13  C   UNL     1      49.610  49.551   2.434  1.00  0.00    -0.003 C 
ATOM     14  C   UNL     1      50.523  48.828   3.423  1.00  0.00     0.004 C 
ENDBRANCH  12  13
ENDBRANCH  11  12
ENDBRANCH  10  11
ENDBRANCH   9  10
ENDBRANCH   1   9
TORSDOF 9
ENDMDL
MODEL 2
REMARK VINA RESULT:    -5.723      1.685      2.119
REMARK INTER + INTRA:          -9.831
REMARK INTER:                  -8.670
REMARK INTRA:                  -1.161
REMARK UNBOUND:                -1.098
REMARK SMILES CCCCCCCCCC=CC(=O)[O-]
REMARK SMILES IDX 7 1 8 2 9 3 10 4 11 5 12 6 13 7 14 8 6 9 5 10 4 11 3 12 2 13
REMARK SMILES IDX 1 14
REMARK H PARENT
REMARK Flexibility Score: inf
ROOT
ATOM      1  C   UNL     1      51.296  50.217   5.322  1.00  0.00     0.000 C 
ENDROOT
BRANCH   1   2
ATOM      2  C   UNL     1      52.254  49.758   4.211  1.00  0.00     0.004 C 
BRANCH   2   3
ATOM      3  C   UNL     1      53.719  49.760   4.675  1.00  0.00     0.027 C 
BRANCH   3   4
ATOM      4  C   UNL     1      54.464  50.984   4.210  1.00  0.00    -0.025 C 
ATOM      5  C   UNL     1      54.762  52.060   4.956  1.00  0.00     0.020 C 
BRANCH   5   6
ATOM      6  C   UNL     1      54.379  52.288   6.366  1.00  0.00     0.064 C 
ATOM      7  O   UNL     1      55.043  51.725   7.275  1.00  0.00    -0.545 OA
ATOM      8  O   UNL     1      53.330  53.125   6.723  1.00  0.00    -0.545 OA
ENDBRANCH   5   6
ENDBRANCH   3   4
ENDBRANCH   2   3
ENDBRANCH   1   2
BRANCH   1   9
ATOM      9  C   UNL     1      50.725  51.607   5.016  1.00  0.00     0.000 C 
BRANCH   9  10
ATOM     10  C   UNL     1      49.212  51.534   4.761  1.00  0.00     0.000 C 
BRANCH  10  11
ATOM     11  C   UNL     1      48.855  51.636   3.269  1.00  0.00    -0.000 C 
BRANCH  11  12
ATOM     12  C   UNL     1      48.203  50.351   2.728  1.00  0.00    -0.000 C 
BRANCH  12  13
ATOM     13  C   UNL     1      49.239  49.321   2.253  1.00  0.00    -0.003 C 
ATOM     14  C   UNL     1      49.201  48.025   3.062  1.00  0.00     0.004 C 
ENDBRANCH  12  13
ENDBRANCH  11  12
ENDBRANCH  10  11
ENDBRANCH   9  10
ENDBRANCH   1   9
TORSDOF 9
ENDMDL
MODEL 3
REMARK VINA RESULT:    -5.691      3.101      4.927
REMARK INTER + INTRA:          -9.783
REMARK INTER:                  -8.610
REMARK INTRA:                  -1.173
REMARK UNBOUND:                -1.098
REMARK SMILES CCCCCCCCCC=CC(=O)[O-]
REMARK SMILES IDX 7 1 8 2 9 3 10 4 11 5 12 6 13 7 14 8 6 9 5 10 4 11 3 12 2 13
REMARK SMILES IDX 1 14
REMARK H PARENT
REMARK Flexibility Score: inf
ROOT
ATOM      1  C   UNL     1      52.612  50.558   6.856  1.00  0.00     0.000 C 
ENDROOT
BRANCH   1   2
ATOM      2  C   UNL     1      51.081  50.670   6.896  1.00  0.00     0.004 C 
BRANCH   2   3
ATOM      3  C   UNL     1      50.445  50.391   5.524  1.00  0.00     0.027 C 
BRANCH   3   4
ATOM      4  C   UNL     1      51.383  49.662   4.598  1.00  0.00    -0.025 C 
ATOM      5  C   UNL     1      51.040  49.021   3.468  1.00  0.00     0.020 C 
BRANCH   5   6
ATOM      6  C   UNL     1      49.673  48.857   2.929  1.00  0.00     0.064 C 
ATOM      7  O   UNL     1      49.117  47.731   3.015  1.00  0.00    -0.545 OA
ATOM      8  O   UNL     1      48.969  49.910   2.358  1.00  0.00    -0.545 OA
ENDBRANCH   5   6
ENDBRANCH   3   4
ENDBRANCH   2   3
ENDBRANCH   1   2
BRANCH   1   9
ATOM      9  C   UNL     1      53.271  51.813   7.441  1.00  0.00     0.000 C 
BRANCH   9  10
ATOM     10  C   UNL     1      53.318  52.943   6.401  1.00  0.00     0.000 C 
BRANCH  10  11
ATOM     11  C   UNL     1      53.639  52.434   4.986  1.00  0.00    -0.000 C 
BRANCH  11  12
ATOM     12  C   UNL     1      55.102  52.692   4.583  1.00  0.00    -0.000 C 
BRANCH  12  13
ATOM     13  C   UNL     1      55.839  51.403   4.187  1.00  0.00    -0.003 C 
ATOM     14  C   UNL     1      54.890  50.235   3.920  1.00  0.00     0.004 C 
ENDBRANCH  12  13
ENDBRANCH  11  12
ENDBRANCH  10  11
ENDBRANCH   9  10
ENDBRANCH   1   9
TORSDOF 9
ENDMDL
MODEL 4
REMARK VINA RESULT:    -5.669      3.150      5.400
REMARK INTER + INTRA:          -9.749
REMARK INTER:                  -8.817
REMARK INTRA:                  -0.931
REMARK UNBOUND:                -1.098
REMARK SMILES CCCCCCCCCC=CC(=O)[O-]
REMARK SMILES IDX 7 1 8 2 9 3 10 4 11 5 12 6 13 7 14 8 6 9 5 10 4 11 3 12 2 13
REMARK SMILES IDX 1 14
REMARK H PARENT
REMARK Flexibility Score: inf
ROOT
ATOM      1  C   UNL     1      50.365  52.263   4.973  1.00  0.00     0.000 C 
ENDROOT
BRANCH   1   2
ATOM      2  C   UNL     1      49.382  51.213   5.512  1.00  0.00     0.004 C 
BRANCH   2   3
ATOM      3  C   UNL     1      48.439  50.689   4.418  1.00  0.00     0.027 C 
BRANCH   3   4
ATOM      4  C   UNL     1      49.101  50.642   3.066  1.00  0.00    -0.025 C 
ATOM      5  C   UNL     1      49.494  49.535   2.415  1.00  0.00     0.020 C 
BRANCH   5   6
ATOM      6  C   UNL     1      49.405  48.144   2.909  1.00  0.00     0.064 C 
ATOM      7  O   UNL     1      50.282  47.726   3.710  1.00  0.00    -0.545 OA
ATOM      8  O   UNL     1      48.371  47.292   2.544  1.00  0.00    -0.545 OA
ENDBRANCH   5   6
ENDBRANCH   3   4
ENDBRANCH   2   3
ENDBRANCH   1   2
BRANCH   1   9
ATOM      9  C   UNL     1      51.806  51.922   5.369  1.00  0.00     0.000 C 
BRANCH   9  10
ATOM     10  C   UNL     1      52.149  50.471   4.996  1.00  0.00     0.000 C 
BRANCH  10  11
ATOM     11  C   UNL     1      53.611  50.302   4.550  1.00  0.00    -0.000 C 
BRANCH  11  12
ATOM     12  C   UNL     1      54.383  51.634   4.536  1.00  0.00    -0.000 C 
BRANCH  12  13
ATOM     13  C   UNL     1      55.850  51.459   4.114  1.00  0.00    -0.003 C 
ATOM     14  C   UNL     1      56.133  50.085   3.507  1.00  0.00     0.004 C 
ENDBRANCH  12  13
ENDBRANCH  11  12
ENDBRANCH  10  11
ENDBRANCH   9  10
ENDBRANCH   1   9
TORSDOF 9
ENDMDL
MODEL 5
REMARK VINA RESULT:    -5.611      2.032      2.834
REMARK INTER + INTRA:          -9.660
REMARK INTER:                  -8.189
REMARK INTRA:                  -1.472
REMARK UNBOUND:                -1.098
REMARK SMILES CCCCCCCCCC=CC(=O)[O-]
REMARK SMILES IDX 7 1 8 2 9 3 10 4 11 5 12 6 13 7 14 8 6 9 5 10 4 11 3 12 2 13
REMARK SMILES IDX 1 14
REMARK H PARENT
REMARK Flexibility Score: inf
ROOT
ATOM      1  C   UNL     1      50.857  52.121   6.265  1.00  0.00     0.000 C 
ENDROOT
BRANCH   1   2
ATOM      2  C   UNL     1      51.789  52.315   5.060  1.00  0.00     0.004 C 
BRANCH   2   3
ATOM      3  C   UNL     1      52.860  51.216   4.975  1.00  0.00     0.027 C 
BRANCH   3   4
ATOM      4  C   UNL     1      54.257  51.768   5.095  1.00  0.00    -0.025 C 
ATOM      5  C   UNL     1      54.910  52.023   6.241  1.00  0.00     0.020 C 
BRANCH   5   6
ATOM      6  C   UNL     1      54.380  51.865   7.612  1.00  0.00     0.064 C 
ATOM      7  O   UNL     1      53.873  52.863   8.187  1.00  0.00    -0.545 OA
ATOM      8  O   UNL     1      54.395  50.645   8.276  1.00  0.00    -0.545 OA
ENDBRANCH   5   6
ENDBRANCH   3   4
ENDBRANCH   2   3
ENDBRANCH   1   2
BRANCH   1   9
ATOM      9  C   UNL     1      50.867  50.662   6.739  1.00  0.00     0.000 C 
BRANCH   9  10
ATOM     10  C   UNL     1      49.444  50.081   6.755  1.00  0.00     0.000 C 
BRANCH  10  11
ATOM     11  C   UNL     1      48.996  49.571   5.376  1.00  0.00    -0.000 C 
BRANCH  11  12
ATOM     12  C   UNL     1      50.115  48.823   4.630  1.00  0.00    -0.000 C 
BRANCH  12  13
ATOM     13  C   UNL     1      50.087  49.082   3.115  1.00  0.00    -0.003 C 
ATOM     14  C   UNL     1      49.305  50.342   2.744  1.00  0.00     0.004 C 
ENDBRANCH  12  13
ENDBRANCH  11  12
ENDBRANCH  10  11
ENDBRANCH   9  10
ENDBRANCH   1   9
TORSDOF 9
ENDMDL
MODEL 6
REMARK VINA RESULT:    -5.599      3.283      5.620
REMARK INTER + INTRA:          -9.642
REMARK INTER:                  -8.573
REMARK INTRA:                  -1.069
REMARK UNBOUND:                -1.098
REMARK SMILES CCCCCCCCCC=CC(=O)[O-]
REMARK SMILES IDX 7 1 8 2 9 3 10 4 11 5 12 6 13 7 14 8 6 9 5 10 4 11 3 12 2 13
REMARK SMILES IDX 1 14
REMARK H PARENT
REMARK Flexibility Score: inf
ROOT
ATOM      1  C   UNL     1      51.231  50.132   5.244  1.00  0.00     0.000 C 
ENDROOT
BRANCH   1   2
ATOM      2  C   UNL     1      51.529  49.445   3.903  1.00  0.00     0.004 C 
BRANCH   2   3
ATOM      3  C   UNL     1      50.336  48.616   3.401  1.00  0.00     0.027 C 
BRANCH   3   4
ATOM      4  C   UNL     1      49.481  49.378   2.422  1.00  0.00    -0.025 C 
ATOM      5  C   UNL     1      48.335  50.019   2.704  1.00  0.00     0.020 C 
BRANCH   5   6
ATOM      6  C   UNL     1      47.652  50.066   4.014  1.00  0.00     0.064 C 
ATOM      7  O   UNL     1      47.048  49.040   4.423  1.00  0.00    -0.545 OA
ATOM      8  O   UNL     1      47.678  51.194   4.824  1.00  0.00    -0.545 OA
ENDBRANCH   5   6
ENDBRANCH   3   4
ENDBRANCH   2   3
ENDBRANCH   1   2
BRANCH   1   9
ATOM      9  C   UNL     1      51.065  51.645   5.062  1.00  0.00     0.000 C 
BRANCH   9  10
ATOM     10  C   UNL     1      52.406  52.371   5.254  1.00  0.00     0.000 C 
BRANCH  10  11
ATOM     11  C   UNL     1      53.395  51.573   6.119  1.00  0.00    -0.000 C 
BRANCH  11  12
ATOM     12  C   UNL     1      54.864  51.881   5.776  1.00  0.00    -0.000 C 
BRANCH  12  13
ATOM     13  C   UNL     1      55.178  51.663   4.288  1.00  0.00    -0.003 C 
ATOM     14  C   UNL     1      55.150  50.189   3.885  1.00  0.00     0.004 C 
ENDBRANCH  12  13
ENDBRANCH  11  12
ENDBRANCH  10  11
ENDBRANCH   9  10
ENDBRANCH   1   9
TORSDOF 9
ENDMDL
MODEL 7
REMARK VINA RESULT:    -5.585      1.469      2.063
REMARK INTER + INTRA:          -9.622
REMARK INTER:                  -8.648
REMARK INTRA:                  -0.973
REMARK UNBOUND:                -1.098
REMARK SMILES CCCCCCCCCC=CC(=O)[O-]
REMARK SMILES IDX 7 1 8 2 9 3 10 4 11 5 12 6 13 7 14 8 6 9 5 10 4 11 3 12 2 13
REMARK SMILES IDX 1 14
REMARK H PARENT
REMARK Flexibility Score: inf
ROOT
ATOM      1  C   UNL     1      51.859  51.249   7.040  1.00  0.00     0.000 C 
ENDROOT
BRANCH   1   2
ATOM      2  C   UNL     1      53.207  50.555   7.287  1.00  0.00     0.004 C 
BRANCH   2   3
ATOM      3  C   UNL     1      54.392  51.523   7.140  1.00  0.00     0.027 C 
BRANCH   3   4
ATOM      4  C   UNL     1      54.177  52.526   6.037  1.00  0.00    -0.025 C 
ATOM      5  C   UNL     1      54.551  52.384   4.754  1.00  0.00     0.020 C 
BRANCH   5   6
ATOM      6  C   UNL     1      55.290  51.243   4.174  1.00  0.00     0.064 C 
ATOM      7  O   UNL     1      54.678  50.162   3.970  1.00  0.00    -0.545 OA
ATOM      8  O   UNL     1      56.629  51.331   3.817  1.00  0.00    -0.545 OA
ENDBRANCH   5   6
ENDBRANCH   3   4
ENDBRANCH   2   3
ENDBRANCH   1   2
BRANCH   1   9
ATOM      9  C   UNL     1      50.932  50.366   6.196  1.00  0.00     0.000 C 
BRANCH   9  10
ATOM     10  C   UNL     1      51.194  50.572   4.696  1.00  0.00     0.000 C 
BRANCH  10  11
ATOM     11  C   UNL     1      51.448  49.251   3.951  1.00  0.00    -0.000 C 
BRANCH  11  12
ATOM     12  C   UNL     1      50.147  48.588   3.462  1.00  0.00    -0.000 C 
BRANCH  12  13
ATOM     13  C   UNL     1      49.480  49.372   2.321  1.00  0.00    -0.003 C 
ATOM     14  C   UNL     1      48.158  50.016   2.738  1.00  0.00     0.004 C 
ENDBRANCH  12  13
ENDBRANCH  11  12
ENDBRANCH  10  11
ENDBRANCH   9  10
ENDBRANCH   1   9
TORSDOF 9
ENDMDL
MODEL 8
REMARK VINA RESULT:    -5.579      1.766      2.961
REMARK INTER + INTRA:          -9.612
REMARK INTER:                  -8.682
REMARK INTRA:                  -0.930
REMARK UNBOUND:                -1.098
REMARK SMILES CCCCCCCCCC=CC(=O)[O-]
REMARK SMILES IDX 7 1 8 2 9 3 10 4 11 5 12 6 13 7 14 8 6 9 5 10 4 11 3 12 2 13
REMARK SMILES IDX 1 14
REMARK H PARENT
REMARK Flexibility Score: inf
ROOT
ATOM      1  C   UNL     1      51.368  48.997   3.704  1.00  0.00     0.000 C 
ENDROOT
BRANCH   1   2
ATOM      2  C   UNL     1      51.972  50.104   4.582  1.00  0.00     0.004 C 
BRANCH   2   3
ATOM      3  C   UNL     1      53.440  49.823   4.937  1.00  0.00     0.027 C 
BRANCH   3   4
ATOM      4  C   UNL     1      54.387  50.768   4.244  1.00  0.00    -0.025 C 
ATOM      5  C   UNL     1      54.763  51.979   4.689  1.00  0.00     0.020 C 
BRANCH   5   6
ATOM      6  C   UNL     1      54.291  52.651   5.918  1.00  0.00     0.064 C 
ATOM      7  O   UNL     1      55.101  52.828   6.864  1.00  0.00    -0.545 OA
ATOM      8  O   UNL     1      52.991  53.122   6.053  1.00  0.00    -0.545 OA
ENDBRANCH   5   6
ENDBRANCH   3   4
ENDBRANCH   2   3
ENDBRANCH   1   2
BRANCH   1   9
ATOM      9  C   UNL     1      49.877  48.807   4.007  1.00  0.00     0.000 C 
BRANCH   9  10
ATOM     10  C   UNL     1      49.508  49.433   5.361  1.00  0.00     0.000 C 
BRANCH  10  11
ATOM     11  C   UNL     1      48.500  50.587   5.226  1.00  0.00    -0.000 C 
BRANCH  11  12
ATOM     12  C   UNL     1      48.323  51.051   3.770  1.00  0.00    -0.000 C 
BRANCH  12  13
ATOM     13  C   UNL     1      48.735  52.518   3.566  1.00  0.00    -0.003 C 
ATOM     14  C   UNL     1      49.753  52.997   4.600  1.00  0.00     0.004 C 
ENDBRANCH  12  13
ENDBRANCH  11  12
ENDBRANCH  10  11
ENDBRANCH   9  10
ENDBRANCH   1   9
TORSDOF 9
ENDMDL
MODEL 9
REMARK VINA RESULT:    -5.533      1.541      2.014
REMARK INTER + INTRA:          -9.542
REMARK INTER:                  -8.351
REMARK INTRA:                  -1.191
REMARK UNBOUND:                -1.098
REMARK SMILES CCCCCCCCCC=CC(=O)[O-]
REMARK SMILES IDX 7 1 8 2 9 3 10 4 11 5 12 6 13 7 14 8 6 9 5 10 4 11 3 12 2 13
REMARK SMILES IDX 1 14
REMARK H PARENT
REMARK Flexibility Score: inf
ROOT
ATOM      1  C   UNL     1      50.099  50.916   6.851  1.00  0.00     0.000 C 
ENDROOT
BRANCH   1   2
ATOM      2  C   UNL     1      51.548  50.591   6.458  1.00  0.00     0.004 C 
BRANCH   2   3
ATOM      3  C   UNL     1      51.896  51.110   5.054  1.00  0.00     0.027 C 
BRANCH   3   4
ATOM      4  C   UNL     1      53.081  50.396   4.458  1.00  0.00    -0.025 C 
ATOM      5  C   UNL     1      54.366  50.774   4.560  1.00  0.00     0.020 C 
BRANCH   5   6
ATOM      6  C   UNL     1      54.876  51.988   5.230  1.00  0.00     0.064 C 
ATOM      7  O   UNL     1      54.988  53.050   4.563  1.00  0.00    -0.545 OA
ATOM      8  O   UNL     1      55.208  52.007   6.578  1.00  0.00    -0.545 OA
ENDBRANCH   5   6
ENDBRANCH   3   4
ENDBRANCH   2   3
ENDBRANCH   1   2
BRANCH   1   9
ATOM      9  C   UNL     1      49.145  49.799   6.408  1.00  0.00     0.000 C 
BRANCH   9  10
ATOM     10  C   UNL     1      48.074  50.342   5.450  1.00  0.00     0.000 C 
BRANCH  10  11
ATOM     11  C   UNL     1      47.864  49.440   4.222  1.00  0.00    -0.000 C 
BRANCH  11  12
ATOM     12  C   UNL     1      48.600  49.960   2.974  1.00  0.00    -0.000 C 
BRANCH  12  13
ATOM     13  C   UNL     1      49.919  49.215   2.716  1.00  0.00    -0.003 C 
ATOM     14  C   UNL     1      50.009  47.890   3.472  1.00  0.00     0.004 C 
ENDBRANCH  12  13
ENDBRANCH  11  12
ENDBRANCH  10  11
ENDBRANCH   9  10
ENDBRANCH   1   9
TORSDOF 9
ENDMDL
