MODEL 1
REMARK VINA RESULT:    -4.036      0.000      0.000
REMARK INTER + INTRA:          -8.583
REMARK INTER:                  -7.339
REMARK INTRA:                  -1.245
REMARK UNBOUND:                -1.245
REMARK SMILES CCCCCCCCCCCCCCCC(=O)[O-]
REMARK SMILES IDX 9 1 10 2 11 3 12 4 13 5 14 6 15 7 16 8 17 9 18 10 8 11 7 12
REMARK SMILES IDX 6 13 5 14 4 15 3 16 2 17 1 18
REMARK H PARENT
REMARK Flexibility Score: inf
ROOT
ATOM      1  C   UNL     1     158.519 158.606 151.134  1.00  0.00     0.000 C 
ENDROOT
BRANCH   1   2
ATOM      2  C   UNL     1     159.397 158.342 149.902  1.00  0.00     0.000 C 
BRANCH   2   3
ATOM      3  C   UNL     1     160.711 157.660 150.302  1.00  0.00     0.000 C 
BRANCH   3   4
ATOM      4  C   UNL     1     161.606 158.614 151.103  1.00  0.00     0.000 C 
BRANCH   4   5
ATOM      5  C   UNL     1     163.011 158.697 150.490  1.00  0.00     0.000 C 
BRANCH   5   6
ATOM      6  C   UNL     1     163.997 159.510 151.349  1.00  0.00     0.006 C 
BRANCH   6   7
ATOM      7  C   UNL     1     164.889 158.648 152.262  1.00  0.00     0.053 C 
BRANCH   7   8
ATOM      8  C   UNL     1     166.305 159.135 152.314  1.00  0.00     0.041 C 
ATOM      9  O   UNL     1     166.663 160.125 151.622  1.00  0.00    -0.550 OA
ATOM     10  O   UNL     1     167.239 158.476 153.103  1.00  0.00    -0.550 OA
ENDBRANCH   7   8
ENDBRANCH   6   7
ENDBRANCH   5   6
ENDBRANCH   4   5
ENDBRANCH   3   4
ENDBRANCH   2   3
ENDBRANCH   1   2
BRANCH   1  11
ATOM     11  C   UNL     1     157.027 158.345 150.867  1.00  0.00     0.000 C 
BRANCH  11  12
ATOM     12  C   UNL     1     156.758 156.921 150.352  1.00  0.00    -0.000 C 
BRANCH  12  13
ATOM     13  C   UNL     1     156.632 155.896 151.491  1.00  0.00    -0.000 C 
BRANCH  13  14
ATOM     14  C   UNL     1     156.917 154.458 151.024  1.00  0.00    -0.000 C 
BRANCH  14  15
ATOM     15  C   UNL     1     158.360 154.269 150.519  1.00  0.00    -0.000 C 
BRANCH  15  16
ATOM     16  C   UNL     1     159.170 153.176 151.245  1.00  0.00    -0.000 C 
BRANCH  16  17
ATOM     17  C   UNL     1     160.401 153.684 152.015  1.00  0.00    -0.003 C 
ATOM     18  C   UNL     1     160.182 155.055 152.655  1.00  0.00     0.004 C 
ENDBRANCH  16  17
ENDBRANCH  15  16
ENDBRANCH  14  15
ENDBRANCH  13  14
ENDBRANCH  12  13
ENDBRANCH  11  12
ENDBRANCH   1  11
TORSDOF 14
ENDMDL
MODEL 2
REMARK VINA RESULT:    -3.989      3.627      8.025
REMARK INTER + INTRA:          -8.498
REMARK INTER:                  -7.730
REMARK INTRA:                  -0.768
REMARK UNBOUND:                -1.245
REMARK SMILES CCCCCCCCCCCCCCCC(=O)[O-]
REMARK SMILES IDX 9 1 10 2 11 3 12 4 13 5 14 6 15 7 16 8 17 9 18 10 8 11 7 12
REMARK SMILES IDX 6 13 5 14 4 15 3 16 2 17 1 18
REMARK H PARENT
REMARK Flexibility Score: inf
ROOT
ATOM      1  C   UNL     1     161.909 158.923 151.197  1.00  0.00     0.000 C 
ENDROOT
BRANCH   1   2
ATOM      2  C   UNL     1     161.019 158.684 149.968  1.00  0.00     0.000 C 
BRANCH   2   3
ATOM      3  C   UNL     1     159.772 157.875 150.344  1.00  0.00     0.000 C 
BRANCH   3   4
ATOM      4  C   UNL     1     158.629 158.798 150.788  1.00  0.00     0.000 C 
BRANCH   4   5
ATOM      5  C   UNL     1     157.692 158.081 151.770  1.00  0.00     0.000 C 
BRANCH   5   6
ATOM      6  C   UNL     1     156.700 157.132 151.073  1.00  0.00     0.006 C 
BRANCH   6   7
ATOM      7  C   UNL     1     156.375 155.863 151.883  1.00  0.00     0.053 C 
BRANCH   7   8
ATOM      8  C   UNL     1     157.598 155.208 152.449  1.00  0.00     0.041 C 
ATOM      9  O   UNL     1     157.769 155.151 153.696  1.00  0.00    -0.550 OA
ATOM     10  O   UNL     1     158.566 154.689 151.599  1.00  0.00    -0.550 OA
ENDBRANCH   7   8
ENDBRANCH   6   7
ENDBRANCH   5   6
ENDBRANCH   4   5
ENDBRANCH   3   4
ENDBRANCH   2   3
ENDBRANCH   1   2
BRANCH   1  11
ATOM     11  C   UNL     1     163.259 159.567 150.837  1.00  0.00     0.000 C 
BRANCH  11  12
ATOM     12  C   UNL     1     164.422 159.012 151.676  1.00  0.00    -0.000 C 
BRANCH  12  13
ATOM     13  C   UNL     1     165.345 160.120 152.210  1.00  0.00    -0.000 C 
BRANCH  13  14
ATOM     14  C   UNL     1     166.829 159.715 152.179  1.00  0.00    -0.000 C 
BRANCH  14  15
ATOM     15  C   UNL     1     167.434 159.556 153.587  1.00  0.00    -0.000 C 
BRANCH  15  16
ATOM     16  C   UNL     1     166.429 159.178 154.694  1.00  0.00    -0.000 C 
BRANCH  16  17
ATOM     17  C   UNL     1     166.324 157.671 154.988  1.00  0.00    -0.003 C 
ATOM     18  C   UNL     1     167.671 157.034 155.326  1.00  0.00     0.004 C 
ENDBRANCH  16  17
ENDBRANCH  15  16
ENDBRANCH  14  15
ENDBRANCH  13  14
ENDBRANCH  12  13
ENDBRANCH  11  12
ENDBRANCH   1  11
TORSDOF 14
ENDMDL
MODEL 3
REMARK VINA RESULT:    -3.840     12.075     13.943
REMARK INTER + INTRA:          -8.228
REMARK INTER:                  -5.923
REMARK INTRA:                  -2.305
REMARK UNBOUND:                -1.245
REMARK SMILES CCCCCCCCCCCCCCCC(=O)[O-]
REMARK SMILES IDX 9 1 10 2 11 3 12 4 13 5 14 6 15 7 16 8 17 9 18 10 8 11 7 12
REMARK SMILES IDX 6 13 5 14 4 15 3 16 2 17 1 18
REMARK H PARENT
REMARK Flexibility Score: inf
ROOT
ATOM      1  C   UNL     1     165.435 153.732 164.392  1.00  0.00     0.000 C 
ENDROOT
BRANCH   1   2
ATOM      2  C   UNL     1     165.934 155.148 164.067  1.00  0.00     0.000 C 
BRANCH   2   3
ATOM      3  C   UNL     1     165.142 156.201 164.851  1.00  0.00     0.000 C 
BRANCH   3   4
ATOM      4  C   UNL     1     164.012 155.552 165.661  1.00  0.00     0.000 C 
BRANCH   4   5
ATOM      5  C   UNL     1     162.977 156.598 166.099  1.00  0.00     0.000 C 
BRANCH   5   6
ATOM      6  C   UNL     1     162.711 157.669 165.026  1.00  0.00     0.006 C 
BRANCH   6   7
ATOM      7  C   UNL     1     161.230 157.793 164.621  1.00  0.00     0.053 C 
BRANCH   7   8
ATOM      8  C   UNL     1     160.608 159.075 165.086  1.00  0.00     0.041 C 
ATOM      9  O   UNL     1     159.364 159.246 164.998  1.00  0.00    -0.550 OA
ATOM     10  O   UNL     1     161.407 160.093 165.589  1.00  0.00    -0.550 OA
ENDBRANCH   7   8
ENDBRANCH   6   7
ENDBRANCH   5   6
ENDBRANCH   4   5
ENDBRANCH   3   4
ENDBRANCH   2   3
ENDBRANCH   1   2
BRANCH   1  11
ATOM     11  C   UNL     1     165.095 152.918 163.132  1.00  0.00     0.000 C 
BRANCH  11  12
ATOM     12  C   UNL     1     164.923 153.803 161.885  1.00  0.00    -0.000 C 
BRANCH  12  13
ATOM     13  C   UNL     1     163.722 153.380 161.024  1.00  0.00    -0.000 C 
BRANCH  13  14
ATOM     14  C   UNL     1     162.581 154.413 161.056  1.00  0.00    -0.000 C 
BRANCH  14  15
ATOM     15  C   UNL     1     162.387 155.044 162.447  1.00  0.00    -0.000 C 
BRANCH  15  16
ATOM     16  C   UNL     1     161.253 154.431 163.293  1.00  0.00    -0.000 C 
BRANCH  16  17
ATOM     17  C   UNL     1     161.569 153.055 163.905  1.00  0.00    -0.003 C 
ATOM     18  C   UNL     1     160.828 151.911 163.215  1.00  0.00     0.004 C 
ENDBRANCH  16  17
ENDBRANCH  15  16
ENDBRANCH  14  15
ENDBRANCH  13  14
ENDBRANCH  12  13
ENDBRANCH  11  12
ENDBRANCH   1  11
TORSDOF 14
ENDMDL
MODEL 4
REMARK VINA RESULT:    -3.839     11.633     13.465
REMARK INTER + INTRA:          -8.226
REMARK INTER:                  -5.976
REMARK INTRA:                  -2.250
REMARK UNBOUND:                -1.245
REMARK SMILES CCCCCCCCCCCCCCCC(=O)[O-]
REMARK SMILES IDX 9 1 10 2 11 3 12 4 13 5 14 6 15 7 16 8 17 9 18 10 8 11 7 12
REMARK SMILES IDX 6 13 5 14 4 15 3 16 2 17 1 18
REMARK H PARENT
REMARK Flexibility Score: inf
ROOT
ATOM      1  C   UNL     1     164.299 152.464 164.007  1.00  0.00     0.000 C 
ENDROOT
BRANCH   1   2
ATOM      2  C   UNL     1     164.577 153.952 163.740  1.00  0.00     0.000 C 
BRANCH   2   3
ATOM      3  C   UNL     1     165.133 154.638 164.993  1.00  0.00     0.000 C 
BRANCH   3   4
ATOM      4  C   UNL     1     164.469 156.004 165.215  1.00  0.00     0.000 C 
BRANCH   4   5
ATOM      5  C   UNL     1     163.469 155.947 166.378  1.00  0.00     0.000 C 
BRANCH   5   6
ATOM      6  C   UNL     1     162.008 156.128 165.927  1.00  0.00     0.006 C 
BRANCH   6   7
ATOM      7  C   UNL     1     161.849 156.957 164.639  1.00  0.00     0.053 C 
BRANCH   7   8
ATOM      8  C   UNL     1     161.713 158.425 164.909  1.00  0.00     0.041 C 
ATOM      9  O   UNL     1     160.575 158.936 165.084  1.00  0.00    -0.550 OA
ATOM     10  O   UNL     1     162.840 159.235 164.934  1.00  0.00    -0.550 OA
ENDBRANCH   7   8
ENDBRANCH   6   7
ENDBRANCH   5   6
ENDBRANCH   4   5
ENDBRANCH   3   4
ENDBRANCH   2   3
ENDBRANCH   1   2
BRANCH   1  11
ATOM     11  C   UNL     1     162.838 152.074 163.730  1.00  0.00     0.000 C 
BRANCH  11  12
ATOM     12  C   UNL     1     161.888 153.284 163.750  1.00  0.00    -0.000 C 
BRANCH  12  13
ATOM     13  C   UNL     1     160.706 153.122 162.781  1.00  0.00    -0.000 C 
BRANCH  13  14
ATOM     14  C   UNL     1     161.056 153.558 161.347  1.00  0.00    -0.000 C 
BRANCH  14  15
ATOM     15  C   UNL     1     161.902 154.844 161.304  1.00  0.00    -0.000 C 
BRANCH  15  16
ATOM     16  C   UNL     1     163.182 154.759 160.450  1.00  0.00    -0.000 C 
BRANCH  16  17
ATOM     17  C   UNL     1     163.696 153.333 160.187  1.00  0.00    -0.003 C 
ATOM     18  C   UNL     1     165.036 153.306 159.454  1.00  0.00     0.004 C 
ENDBRANCH  16  17
ENDBRANCH  15  16
ENDBRANCH  14  15
ENDBRANCH  13  14
ENDBRANCH  12  13
ENDBRANCH  11  12
ENDBRANCH   1  11
TORSDOF 14
ENDMDL
MODEL 5
REMARK VINA RESULT:    -3.834     12.777     13.838
REMARK INTER + INTRA:          -8.216
REMARK INTER:                  -7.514
REMARK INTRA:                  -0.702
REMARK UNBOUND:                -1.245
REMARK SMILES CCCCCCCCCCCCCCCC(=O)[O-]
REMARK SMILES IDX 9 1 10 2 11 3 12 4 13 5 14 6 15 7 16 8 17 9 18 10 8 11 7 12
REMARK SMILES IDX 6 13 5 14 4 15 3 16 2 17 1 18
REMARK H PARENT
REMARK Flexibility Score: inf
ROOT
ATOM      1  C   UNL     1     156.339 160.125 163.473  1.00  0.00     0.000 C 
ENDROOT
BRANCH   1   2
ATOM      2  C   UNL     1     157.313 159.177 164.190  1.00  0.00     0.000 C 
BRANCH   2   3
ATOM      3  C   UNL     1     158.751 159.404 163.709  1.00  0.00     0.000 C 
BRANCH   3   4
ATOM      4  C   UNL     1     159.741 159.338 164.880  1.00  0.00     0.000 C 
BRANCH   4   5
ATOM      5  C   UNL     1     160.858 158.323 164.600  1.00  0.00     0.000 C 
BRANCH   5   6
ATOM      6  C   UNL     1     162.219 158.750 165.179  1.00  0.00     0.006 C 
BRANCH   6   7
ATOM      7  C   UNL     1     162.691 157.891 166.366  1.00  0.00     0.053 C 
BRANCH   7   8
ATOM      8  C   UNL     1     163.349 156.615 165.932  1.00  0.00     0.041 C 
ATOM      9  O   UNL     1     163.778 155.798 166.789  1.00  0.00    -0.550 OA
ATOM     10  O   UNL     1     163.517 156.344 164.581  1.00  0.00    -0.550 OA
ENDBRANCH   7   8
ENDBRANCH   6   7
ENDBRANCH   5   6
ENDBRANCH   4   5
ENDBRANCH   3   4
ENDBRANCH   2   3
ENDBRANCH   1   2
BRANCH   1  11
ATOM     11  C   UNL     1     154.936 159.518 163.304  1.00  0.00     0.000 C 
BRANCH  11  12
ATOM     12  C   UNL     1     154.158 159.447 164.630  1.00  0.00    -0.000 C 
BRANCH  12  13
ATOM     13  C   UNL     1     152.663 159.155 164.421  1.00  0.00    -0.000 C 
BRANCH  13  14
ATOM     14  C   UNL     1     152.410 157.732 163.894  1.00  0.00    -0.000 C 
BRANCH  14  15
ATOM     15  C   UNL     1     151.137 157.632 163.032  1.00  0.00    -0.000 C 
BRANCH  15  16
ATOM     16  C   UNL     1     151.121 158.531 161.779  1.00  0.00    -0.000 C 
BRANCH  16  17
ATOM     17  C   UNL     1     152.301 158.323 160.815  1.00  0.00    -0.003 C 
ATOM     18  C   UNL     1     152.456 159.460 159.806  1.00  0.00     0.004 C 
ENDBRANCH  16  17
ENDBRANCH  15  16
ENDBRANCH  14  15
ENDBRANCH  13  14
ENDBRANCH  12  13
ENDBRANCH  11  12
ENDBRANCH   1  11
TORSDOF 14
ENDMDL
MODEL 6
REMARK VINA RESULT:    -3.770     12.529     14.539
REMARK INTER + INTRA:          -8.100
REMARK INTER:                  -5.633
REMARK INTRA:                  -2.467
REMARK UNBOUND:                -1.245
REMARK SMILES CCCCCCCCCCCCCCCC(=O)[O-]
REMARK SMILES IDX 9 1 10 2 11 3 12 4 13 5 14 6 15 7 16 8 17 9 18 10 8 11 7 12
REMARK SMILES IDX 6 13 5 14 4 15 3 16 2 17 1 18
REMARK H PARENT
REMARK Flexibility Score: inf
ROOT
ATOM      1  C   UNL     1     154.088 159.466 163.397  1.00  0.00     0.000 C 
ENDROOT
BRANCH   1   2
ATOM      2  C   UNL     1     152.809 159.375 164.244  1.00  0.00     0.000 C 
BRANCH   2   3
ATOM      3  C   UNL     1     152.548 157.931 164.688  1.00  0.00     0.000 C 
BRANCH   3   4
ATOM      4  C   UNL     1     153.430 156.946 163.910  1.00  0.00     0.000 C 
BRANCH   4   5
ATOM      5  C   UNL     1     152.578 155.879 163.210  1.00  0.00     0.000 C 
BRANCH   5   6
ATOM      6  C   UNL     1     153.059 155.566 161.781  1.00  0.00     0.006 C 
BRANCH   6   7
ATOM      7  C   UNL     1     154.591 155.551 161.625  1.00  0.00     0.053 C 
BRANCH   7   8
ATOM      8  C   UNL     1     155.123 154.195 161.272  1.00  0.00     0.041 C 
ATOM      9  O   UNL     1     154.694 153.589 160.255  1.00  0.00    -0.550 OA
ATOM     10  O   UNL     1     156.071 153.587 162.084  1.00  0.00    -0.550 OA
ENDBRANCH   7   8
ENDBRANCH   6   7
ENDBRANCH   5   6
ENDBRANCH   4   5
ENDBRANCH   3   4
ENDBRANCH   2   3
ENDBRANCH   1   2
BRANCH   1  11
ATOM     11  C   UNL     1     153.848 160.125 162.028  1.00  0.00     0.000 C 
BRANCH  11  12
ATOM     12  C   UNL     1     153.132 159.190 161.039  1.00  0.00    -0.000 C 
BRANCH  12  13
ATOM     13  C   UNL     1     152.252 159.955 160.037  1.00  0.00    -0.000 C 
BRANCH  13  14
ATOM     14  C   UNL     1     150.752 159.675 160.236  1.00  0.00    -0.000 C 
BRANCH  14  15
ATOM     15  C   UNL     1     150.486 158.381 161.028  1.00  0.00    -0.000 C 
BRANCH  15  16
ATOM     16  C   UNL     1     149.726 158.570 162.356  1.00  0.00    -0.000 C 
BRANCH  16  17
ATOM     17  C   UNL     1     149.237 157.269 163.015  1.00  0.00    -0.003 C 
ATOM     18  C   UNL     1     149.059 156.125 162.017  1.00  0.00     0.004 C 
ENDBRANCH  16  17
ENDBRANCH  15  16
ENDBRANCH  14  15
ENDBRANCH  13  14
ENDBRANCH  12  13
ENDBRANCH  11  12
ENDBRANCH   1  11
TORSDOF 14
ENDMDL
MODEL 7
REMARK VINA RESULT:    -3.742      3.865      5.398
REMARK INTER + INTRA:          -8.049
REMARK INTER:                  -5.773
REMARK INTRA:                  -2.277
REMARK UNBOUND:                -1.245
REMARK SMILES CCCCCCCCCCCCCCCC(=O)[O-]
REMARK SMILES IDX 9 1 10 2 11 3 12 4 13 5 14 6 15 7 16 8 17 9 18 10 8 11 7 12
REMARK SMILES IDX 6 13 5 14 4 15 3 16 2 17 1 18
REMARK H PARENT
REMARK Flexibility Score: inf
ROOT
ATOM      1  C   UNL     1     159.882 156.614 150.197  1.00  0.00     0.000 C 
ENDROOT
BRANCH   1   2
ATOM      2  C   UNL     1     159.224 155.227 150.267  1.00  0.00     0.000 C 
BRANCH   2   3
ATOM      3  C   UNL     1     159.874 154.367 151.357  1.00  0.00     0.000 C 
BRANCH   3   4
ATOM      4  C   UNL     1     160.112 155.182 152.634  1.00  0.00     0.000 C 
BRANCH   4   5
ATOM      5  C   UNL     1     158.844 155.237 153.497  1.00  0.00     0.000 C 
BRANCH   5   6
ATOM      6  C   UNL     1     158.830 154.181 154.618  1.00  0.00     0.006 C 
BRANCH   6   7
ATOM      7  C   UNL     1     160.212 153.572 154.920  1.00  0.00     0.053 C 
BRANCH   7   8
ATOM      8  C   UNL     1     160.828 154.125 156.169  1.00  0.00     0.041 C 
ATOM      9  O   UNL     1     161.837 154.876 156.101  1.00  0.00    -0.550 OA
ATOM     10  O   UNL     1     160.308 153.785 157.411  1.00  0.00    -0.550 OA
ENDBRANCH   7   8
ENDBRANCH   6   7
ENDBRANCH   5   6
ENDBRANCH   4   5
ENDBRANCH   3   4
ENDBRANCH   2   3
ENDBRANCH   1   2
BRANCH   1  11
ATOM     11  C   UNL     1     158.867 157.740 149.938  1.00  0.00     0.000 C 
BRANCH  11  12
ATOM     12  C   UNL     1     158.215 158.257 151.232  1.00  0.00    -0.000 C 
BRANCH  12  13
ATOM     13  C   UNL     1     156.874 157.567 151.532  1.00  0.00    -0.000 C 
BRANCH  13  14
ATOM     14  C   UNL     1     156.101 157.201 150.253  1.00  0.00    -0.000 C 
BRANCH  14  15
ATOM     15  C   UNL     1     155.435 155.815 150.334  1.00  0.00    -0.000 C 
BRANCH  15  16
ATOM     16  C   UNL     1     155.750 155.009 151.610  1.00  0.00    -0.000 C 
BRANCH  16  17
ATOM     17  C   UNL     1     155.475 153.499 151.510  1.00  0.00    -0.003 C 
ATOM     18  C   UNL     1     156.619 152.646 152.055  1.00  0.00     0.004 C 
ENDBRANCH  16  17
ENDBRANCH  15  16
ENDBRANCH  14  15
ENDBRANCH  13  14
ENDBRANCH  12  13
ENDBRANCH  11  12
ENDBRANCH   1  11
TORSDOF 14
ENDMDL
MODEL 8
REMARK VINA RESULT:    -3.728     11.526     13.351
REMARK INTER + INTRA:          -8.023
REMARK INTER:                  -5.670
REMARK INTRA:                  -2.353
REMARK UNBOUND:                -1.245
REMARK SMILES CCCCCCCCCCCCCCCC(=O)[O-]
REMARK SMILES IDX 9 1 10 2 11 3 12 4 13 5 14 6 15 7 16 8 17 9 18 10 8 11 7 12
REMARK SMILES IDX 6 13 5 14 4 15 3 16 2 17 1 18
REMARK H PARENT
REMARK Flexibility Score: inf
ROOT
ATOM      1  C   UNL     1     165.096 154.126 162.063  1.00  0.00     0.000 C 
ENDROOT
BRANCH   1   2
ATOM      2  C   UNL     1     165.085 153.085 163.193  1.00  0.00     0.000 C 
BRANCH   2   3
ATOM      3  C   UNL     1     164.662 153.722 164.522  1.00  0.00     0.000 C 
BRANCH   3   4
ATOM      4  C   UNL     1     164.071 155.120 164.300  1.00  0.00     0.000 C 
BRANCH   4   5
ATOM      5  C   UNL     1     163.498 155.689 165.605  1.00  0.00     0.000 C 
BRANCH   5   6
ATOM      6  C   UNL     1     161.963 155.813 165.587  1.00  0.00     0.006 C 
BRANCH   6   7
ATOM      7  C   UNL     1     161.402 156.456 164.306  1.00  0.00     0.053 C 
BRANCH   7   8
ATOM      8  C   UNL     1     160.940 157.866 164.520  1.00  0.00     0.041 C 
ATOM      9  O   UNL     1     159.764 158.201 164.222  1.00  0.00    -0.550 OA
ATOM     10  O   UNL     1     161.820 158.817 165.018  1.00  0.00    -0.550 OA
ENDBRANCH   7   8
ENDBRANCH   6   7
ENDBRANCH   5   6
ENDBRANCH   4   5
ENDBRANCH   3   4
ENDBRANCH   2   3
ENDBRANCH   1   2
BRANCH   1  11
ATOM     11  C   UNL     1     164.231 153.709 160.862  1.00  0.00     0.000 C 
BRANCH  11  12
ATOM     12  C   UNL     1     163.342 154.854 160.347  1.00  0.00    -0.000 C 
BRANCH  12  13
ATOM     13  C   UNL     1     161.911 154.786 160.905  1.00  0.00    -0.000 C 
BRANCH  13  14
ATOM     14  C   UNL     1     161.479 153.348 161.245  1.00  0.00    -0.000 C 
BRANCH  14  15
ATOM     15  C   UNL     1     160.614 153.269 162.516  1.00  0.00    -0.000 C 
BRANCH  15  16
ATOM     16  C   UNL     1     161.311 152.655 163.747  1.00  0.00    -0.000 C 
BRANCH  16  17
ATOM     17  C   UNL     1     161.278 151.119 163.813  1.00  0.00    -0.003 C 
ATOM     18  C   UNL     1     162.630 150.509 164.183  1.00  0.00     0.004 C 
ENDBRANCH  16  17
ENDBRANCH  15  16
ENDBRANCH  14  15
ENDBRANCH  13  14
ENDBRANCH  12  13
ENDBRANCH  11  12
ENDBRANCH   1  11
TORSDOF 14
ENDMDL
