MODEL 1
REMARK VINA RESULT:    -6.150      0.000      0.000
REMARK INTER + INTRA:          -6.330
REMARK INTER:                  -6.330
REMARK INTRA:                   0.000
REMARK UNBOUND:                 0.000
REMARK SMILES O=c1ccc2ccc(O)cc2o1
REMARK SMILES IDX 6 1 7 2 8 3 10 4 11 5 5 6 4 7 3 8 2 9 1 10 12 11 9 12
REMARK H PARENT 9 13
REMARK Flexibility Score: inf
ROOT
ATOM      1  C   UNL     1     -30.909  -2.949 -18.328  1.00  0.00     0.016 A 
ATOM      2  C   UNL     1     -31.258  -2.394 -19.563  1.00  0.00     0.047 A 
ATOM      3  C   UNL     1     -32.583  -2.446 -20.013  1.00  0.00     0.119 A 
ATOM      4  C   UNL     1     -33.567  -3.056 -19.221  1.00  0.00     0.094 A 
ATOM      5  C   UNL     1     -33.227  -3.614 -17.984  1.00  0.00     0.142 A 
ATOM      6  C   UNL     1     -31.889  -3.560 -17.534  1.00  0.00     0.018 A 
ATOM      7  C   UNL     1     -31.580  -4.127 -16.293  1.00  0.00     0.019 A 
ATOM      8  C   UNL     1     -32.592  -4.723 -15.542  1.00  0.00     0.094 A 
ATOM      9  C   UNL     1     -33.895  -4.739 -16.051  1.00  0.00     0.336 A 
ATOM     10  O   UNL     1     -34.822  -5.273 -15.388  1.00  0.00    -0.246 OA
ATOM     11  O   UNL     1     -34.163  -4.193 -17.235  1.00  0.00    -0.423 OA
ENDROOT
BRANCH   3  12
ATOM     12  O   UNL     1     -32.911  -1.887 -21.246  1.00  0.00    -0.508 OA
ATOM     13  H   UNL     1     -32.581  -2.292 -22.114  1.00  0.00     0.293 HD
ENDBRANCH   3  12
TORSDOF 1
ENDMDL
MODEL 2
REMARK VINA RESULT:    -6.052      6.663      8.814
REMARK INTER + INTRA:          -6.229
REMARK INTER:                  -6.229
REMARK INTRA:                   0.000
REMARK UNBOUND:                 0.000
REMARK SMILES O=c1ccc2ccc(O)cc2o1
REMARK SMILES IDX 6 1 7 2 8 3 10 4 11 5 5 6 4 7 3 8 2 9 1 10 12 11 9 12
REMARK H PARENT 9 13
REMARK Flexibility Score: inf
ROOT
ATOM      1  C   UNL     1     -38.545  -9.027 -13.545  1.00  0.00     0.016 A 
ATOM      2  C   UNL     1     -39.944  -8.990 -13.537  1.00  0.00     0.047 A 
ATOM      3  C   UNL     1     -40.619  -7.776 -13.354  1.00  0.00     0.119 A 
ATOM      4  C   UNL     1     -39.890  -6.591 -13.178  1.00  0.00     0.094 A 
ATOM      5  C   UNL     1     -38.492  -6.617 -13.185  1.00  0.00     0.142 A 
ATOM      6  C   UNL     1     -37.814  -7.844 -13.369  1.00  0.00     0.018 A 
ATOM      7  C   UNL     1     -36.416  -7.839 -13.370  1.00  0.00     0.019 A 
ATOM      8  C   UNL     1     -35.735  -6.635 -13.191  1.00  0.00     0.094 A 
ATOM      9  C   UNL     1     -36.473  -5.459 -13.014  1.00  0.00     0.336 A 
ATOM     10  O   UNL     1     -35.876  -4.363 -12.851  1.00  0.00    -0.246 OA
ATOM     11  O   UNL     1     -37.803  -5.491 -13.017  1.00  0.00    -0.423 OA
ENDROOT
BRANCH   3  12
ATOM     12  O   UNL     1     -42.012  -7.761 -13.350  1.00  0.00    -0.508 OA
ATOM     13  H   UNL     1     -42.542  -7.746 -14.213  1.00  0.00     0.293 HD
ENDBRANCH   3  12
TORSDOF 1
ENDMDL
MODEL 3
REMARK VINA RESULT:    -5.836      6.423      8.399
REMARK INTER + INTRA:          -6.006
REMARK INTER:                  -6.006
REMARK INTRA:                   0.000
REMARK UNBOUND:                 0.000
REMARK SMILES O=c1ccc2ccc(O)cc2o1
REMARK SMILES IDX 6 1 7 2 8 3 10 4 11 5 5 6 4 7 3 8 2 9 1 10 12 11 9 12
REMARK H PARENT 9 13
REMARK Flexibility Score: inf
ROOT
ATOM      1  C   UNL     1     -36.760  -8.584 -13.402  1.00  0.00     0.016 A 
ATOM      2  C   UNL     1     -37.899  -9.396 -13.406  1.00  0.00     0.047 A 
ATOM      3  C   UNL     1     -39.176  -8.824 -13.333  1.00  0.00     0.119 A 
ATOM      4  C   UNL     1     -39.314  -7.430 -13.255  1.00  0.00     0.094 A 
ATOM      5  C   UNL     1     -38.181  -6.611 -13.249  1.00  0.00     0.142 A 
ATOM      6  C   UNL     1     -36.894  -7.192 -13.323  1.00  0.00     0.018 A 
ATOM      7  C   UNL     1     -35.781  -6.346 -13.316  1.00  0.00     0.019 A 
ATOM      8  C   UNL     1     -35.968  -4.967 -13.236  1.00  0.00     0.094 A 
ATOM      9  C   UNL     1     -37.271  -4.463 -13.166  1.00  0.00     0.336 A 
ATOM     10  O   UNL     1     -37.461  -3.221 -13.093  1.00  0.00    -0.246 OA
ATOM     11  O   UNL     1     -38.315  -5.289 -13.174  1.00  0.00    -0.423 OA
ENDROOT
BRANCH   3  12
ATOM     12  O   UNL     1     -40.298  -9.650 -13.339  1.00  0.00    -0.508 OA
ATOM     13  H   UNL     1     -41.163  -9.361 -13.780  1.00  0.00     0.293 HD
ENDBRANCH   3  12
TORSDOF 1
ENDMDL
MODEL 4
REMARK VINA RESULT:    -5.614      6.303      7.931
REMARK INTER + INTRA:          -5.779
REMARK INTER:                  -5.779
REMARK INTRA:                   0.000
REMARK UNBOUND:                 0.000
REMARK SMILES O=c1ccc2ccc(O)cc2o1
REMARK SMILES IDX 6 1 7 2 8 3 10 4 11 5 5 6 4 7 3 8 2 9 1 10 12 11 9 12
REMARK H PARENT 9 13
REMARK Flexibility Score: inf
ROOT
ATOM      1  C   UNL     1     -35.936  -6.781 -13.385  1.00  0.00     0.016 A 
ATOM      2  C   UNL     1     -35.868  -5.385 -13.353  1.00  0.00     0.047 A 
ATOM      3  C   UNL     1     -37.040  -4.620 -13.300  1.00  0.00     0.119 A 
ATOM      4  C   UNL     1     -38.289  -5.256 -13.279  1.00  0.00     0.094 A 
ATOM      5  C   UNL     1     -38.368  -6.652 -13.311  1.00  0.00     0.142 A 
ATOM      6  C   UNL     1     -37.183  -7.420 -13.365  1.00  0.00     0.018 A 
ATOM      7  C   UNL     1     -37.294  -8.814 -13.397  1.00  0.00     0.019 A 
ATOM      8  C   UNL     1     -38.558  -9.401 -13.375  1.00  0.00     0.094 A 
ATOM      9  C   UNL     1     -39.688  -8.577 -13.321  1.00  0.00     0.336 A 
ATOM     10  O   UNL     1     -40.838  -9.088 -13.300  1.00  0.00    -0.246 OA
ATOM     11  O   UNL     1     -39.555  -7.253 -13.292  1.00  0.00    -0.423 OA
ENDROOT
BRANCH   3  12
ATOM     12  O   UNL     1     -36.950  -3.230 -13.268  1.00  0.00    -0.508 OA
ATOM     13  H   UNL     1     -37.735  -2.656 -12.981  1.00  0.00     0.293 HD
ENDBRANCH   3  12
TORSDOF 1
ENDMDL
MODEL 5
REMARK VINA RESULT:    -5.522      5.851      8.729
REMARK INTER + INTRA:          -5.684
REMARK INTER:                  -5.684
REMARK INTRA:                   0.000
REMARK UNBOUND:                 0.000
REMARK SMILES O=c1ccc2ccc(O)cc2o1
REMARK SMILES IDX 6 1 7 2 8 3 10 4 11 5 5 6 4 7 3 8 2 9 1 10 12 11 9 12
REMARK H PARENT 9 13
REMARK Flexibility Score: inf
ROOT
ATOM      1  C   UNL     1     -40.025  -6.453 -12.969  1.00  0.00     0.016 A 
ATOM      2  C   UNL     1     -40.489  -7.772 -12.992  1.00  0.00     0.047 A 
ATOM      3  C   UNL     1     -39.633  -8.818 -13.357  1.00  0.00     0.119 A 
ATOM      4  C   UNL     1     -38.301  -8.543 -13.701  1.00  0.00     0.094 A 
ATOM      5  C   UNL     1     -37.828  -7.227 -13.682  1.00  0.00     0.142 A 
ATOM      6  C   UNL     1     -38.696  -6.174 -13.314  1.00  0.00     0.018 A 
ATOM      7  C   UNL     1     -38.193  -4.869 -13.304  1.00  0.00     0.019 A 
ATOM      8  C   UNL     1     -36.863  -4.645 -13.655  1.00  0.00     0.094 A 
ATOM      9  C   UNL     1     -36.062  -5.737 -14.009  1.00  0.00     0.336 A 
ATOM     10  O   UNL     1     -34.858  -5.555 -14.330  1.00  0.00    -0.246 OA
ATOM     11  O   UNL     1     -36.564  -6.969 -14.011  1.00  0.00    -0.423 OA
ENDROOT
BRANCH   3  12
ATOM     12  O   UNL     1     -40.115 -10.125 -13.372  1.00  0.00    -0.508 OA
ATOM     13  H   UNL     1     -40.313 -10.625 -12.513  1.00  0.00     0.293 HD
ENDBRANCH   3  12
TORSDOF 1
ENDMDL
MODEL 6
REMARK VINA RESULT:    -5.514      2.078      3.467
REMARK INTER + INTRA:          -5.675
REMARK INTER:                  -5.675
REMARK INTRA:                   0.000
REMARK UNBOUND:                 0.000
REMARK SMILES O=c1ccc2ccc(O)cc2o1
REMARK SMILES IDX 6 1 7 2 8 3 10 4 11 5 5 6 4 7 3 8 2 9 1 10 12 11 9 12
REMARK H PARENT 9 13
REMARK Flexibility Score: inf
ROOT
ATOM      1  C   UNL     1     -31.595  -3.018 -17.820  1.00  0.00     0.016 A 
ATOM      2  C   UNL     1     -30.544  -3.725 -17.226  1.00  0.00     0.047 A 
ATOM      3  C   UNL     1     -30.759  -5.006 -16.703  1.00  0.00     0.119 A 
ATOM      4  C   UNL     1     -32.034  -5.585 -16.774  1.00  0.00     0.094 A 
ATOM      5  C   UNL     1     -33.092  -4.887 -17.365  1.00  0.00     0.142 A 
ATOM      6  C   UNL     1     -32.871  -3.593 -17.891  1.00  0.00     0.018 A 
ATOM      7  C   UNL     1     -33.948  -2.920 -18.476  1.00  0.00     0.019 A 
ATOM      8  C   UNL     1     -35.198  -3.536 -18.522  1.00  0.00     0.094 A 
ATOM      9  C   UNL     1     -35.342  -4.819 -17.981  1.00  0.00     0.336 A 
ATOM     10  O   UNL     1     -36.462  -5.392 -18.013  1.00  0.00    -0.246 OA
ATOM     11  O   UNL     1     -34.301  -5.439 -17.430  1.00  0.00    -0.423 OA
ENDROOT
BRANCH   3  12
ATOM     12  O   UNL     1     -29.698  -5.693 -16.117  1.00  0.00    -0.508 OA
ATOM     13  H   UNL     1     -29.811  -6.636 -15.762  1.00  0.00     0.293 HD
ENDBRANCH   3  12
TORSDOF 1
ENDMDL
MODEL 7
REMARK VINA RESULT:    -5.509      7.579      8.963
REMARK INTER + INTRA:          -5.670
REMARK INTER:                  -5.670
REMARK INTRA:                   0.000
REMARK UNBOUND:                 0.000
REMARK SMILES O=c1ccc2ccc(O)cc2o1
REMARK SMILES IDX 6 1 7 2 8 3 10 4 11 5 5 6 4 7 3 8 2 9 1 10 12 11 9 12
REMARK H PARENT 9 13
REMARK Flexibility Score: inf
ROOT
ATOM      1  C   UNL     1     -39.731  -8.451 -13.304  1.00  0.00     0.016 A 
ATOM      2  C   UNL     1     -38.713  -9.192 -13.912  1.00  0.00     0.047 A 
ATOM      3  C   UNL     1     -37.451  -8.623 -14.122  1.00  0.00     0.119 A 
ATOM      4  C   UNL     1     -37.205  -7.301 -13.721  1.00  0.00     0.094 A 
ATOM      5  C   UNL     1     -38.217  -6.552 -13.113  1.00  0.00     0.142 A 
ATOM      6  C   UNL     1     -39.490  -7.130 -12.903  1.00  0.00     0.018 A 
ATOM      7  C   UNL     1     -40.481  -6.355 -12.293  1.00  0.00     0.019 A 
ATOM      8  C   UNL     1     -40.190  -5.047 -11.912  1.00  0.00     0.094 A 
ATOM      9  C   UNL     1     -38.908  -4.540 -12.151  1.00  0.00     0.336 A 
ATOM     10  O   UNL     1     -38.626  -3.360 -11.815  1.00  0.00    -0.246 OA
ATOM     11  O   UNL     1     -37.981  -5.298 -12.734  1.00  0.00    -0.423 OA
ENDROOT
BRANCH   3  12
ATOM     12  O   UNL     1     -36.450  -9.378 -14.728  1.00  0.00    -0.508 OA
ATOM     13  H   UNL     1     -36.282 -10.342 -14.463  1.00  0.00     0.293 HD
ENDBRANCH   3  12
TORSDOF 1
ENDMDL
MODEL 8
REMARK VINA RESULT:    -5.504      5.460      7.196
REMARK INTER + INTRA:          -5.665
REMARK INTER:                  -5.665
REMARK INTRA:                   0.000
REMARK UNBOUND:                 0.000
REMARK SMILES O=c1ccc2ccc(O)cc2o1
REMARK SMILES IDX 6 1 7 2 8 3 10 4 11 5 5 6 4 7 3 8 2 9 1 10 12 11 9 12
REMARK H PARENT 9 13
REMARK Flexibility Score: inf
ROOT
ATOM      1  C   UNL     1     -36.743  -8.063 -13.375  1.00  0.00     0.016 A 
ATOM      2  C   UNL     1     -37.682  -8.822 -14.080  1.00  0.00     0.047 A 
ATOM      3  C   UNL     1     -38.458  -8.232 -15.085  1.00  0.00     0.119 A 
ATOM      4  C   UNL     1     -38.294  -6.872 -15.388  1.00  0.00     0.094 A 
ATOM      5  C   UNL     1     -37.357  -6.105 -14.688  1.00  0.00     0.142 A 
ATOM      6  C   UNL     1     -36.576  -6.704 -13.674  1.00  0.00     0.018 A 
ATOM      7  C   UNL     1     -35.648  -5.911 -12.992  1.00  0.00     0.019 A 
ATOM      8  C   UNL     1     -35.520  -4.565 -13.327  1.00  0.00     0.094 A 
ATOM      9  C   UNL     1     -36.327  -4.039 -14.343  1.00  0.00     0.336 A 
ATOM     10  O   UNL     1     -36.227  -2.825 -14.660  1.00  0.00    -0.246 OA
ATOM     11  O   UNL     1     -37.203  -4.815 -14.977  1.00  0.00    -0.423 OA
ENDROOT
BRANCH   3  12
ATOM     12  O   UNL     1     -39.388  -9.005 -15.777  1.00  0.00    -0.508 OA
ATOM     13  H   UNL     1     -40.179  -9.428 -15.304  1.00  0.00     0.293 HD
ENDBRANCH   3  12
TORSDOF 1
ENDMDL
MODEL 9
REMARK VINA RESULT:    -5.364      5.976      7.904
REMARK INTER + INTRA:          -5.521
REMARK INTER:                  -5.521
REMARK INTRA:                   0.000
REMARK UNBOUND:                 0.000
REMARK SMILES O=c1ccc2ccc(O)cc2o1
REMARK SMILES IDX 6 1 7 2 8 3 10 4 11 5 5 6 4 7 3 8 2 9 1 10 12 11 9 12
REMARK H PARENT 9 13
REMARK Flexibility Score: inf
ROOT
ATOM      1  C   UNL     1     -38.147  -4.460 -12.868  1.00  0.00     0.016 A 
ATOM      2  C   UNL     1     -36.820  -4.057 -13.051  1.00  0.00     0.047 A 
ATOM      3  C   UNL     1     -35.833  -4.996 -13.374  1.00  0.00     0.119 A 
ATOM      4  C   UNL     1     -36.175  -6.349 -13.516  1.00  0.00     0.094 A 
ATOM      5  C   UNL     1     -37.498  -6.762 -13.334  1.00  0.00     0.142 A 
ATOM      6  C   UNL     1     -38.492  -5.811 -13.008  1.00  0.00     0.018 A 
ATOM      7  C   UNL     1     -39.806  -6.255 -12.833  1.00  0.00     0.019 A 
ATOM      8  C   UNL     1     -40.098  -7.610 -12.983  1.00  0.00     0.094 A 
ATOM      9  C   UNL     1     -39.063  -8.494 -13.307  1.00  0.00     0.336 A 
ATOM     10  O   UNL     1     -39.306  -9.721 -13.447  1.00  0.00    -0.246 OA
ATOM     11  O   UNL     1     -37.820  -8.047 -13.468  1.00  0.00    -0.423 OA
ENDROOT
BRANCH   3  12
ATOM     12  O   UNL     1     -34.517  -4.574 -13.553  1.00  0.00    -0.508 OA
ATOM     13  H   UNL     1     -33.951  -4.264 -12.771  1.00  0.00     0.293 HD
ENDBRANCH   3  12
TORSDOF 1
ENDMDL
