MODEL 1
REMARK VINA RESULT:    -4.935      0.000      0.000
REMARK INTER + INTRA:         -10.731
REMARK INTER:                  -8.975
REMARK INTRA:                  -1.756
REMARK UNBOUND:                -1.756
REMARK SMILES CCCCCCCCCCCCCC[C@@H](C)C(=O)[O-]
REMARK SMILES IDX 9 1 10 2 11 3 12 4 13 5 14 6 15 7 16 8 17 9 18 10 19 11 8 12
REMARK SMILES IDX 7 13 6 14 5 15 4 16 3 17 2 18 1 19
REMARK H PARENT
REMARK Flexibility Score: inf
ROOT
ATOM      1  C   UNL     1     -22.646  18.672 -21.706  1.00  0.00     0.000 C 
ENDROOT
BRANCH   1   2
ATOM      2  C   UNL     1     -23.248  19.684 -22.695  1.00  0.00     0.000 C 
BRANCH   2   3
ATOM      3  C   UNL     1     -23.235  21.138 -22.177  1.00  0.00     0.000 C 
BRANCH   3   4
ATOM      4  C   UNL     1     -23.528  22.154 -23.295  1.00  0.00     0.000 C 
BRANCH   4   5
ATOM      5  C   UNL     1     -22.954  21.722 -24.653  1.00  0.00     0.001 C 
BRANCH   5   6
ATOM      6  C   UNL     1     -21.727  22.553 -25.069  1.00  0.00     0.009 C 
BRANCH   6   7
ATOM      7  C   UNL     1     -21.886  24.053 -24.740  1.00  0.00     0.032 C 
ATOM      8  C   UNL     1     -20.631  24.637 -24.078  1.00  0.00     0.014 C 
BRANCH   7   9
ATOM      9  C   UNL     1     -22.194  24.819 -25.997  1.00  0.00     0.044 C 
ATOM     10  O   UNL     1     -23.226  25.537 -26.065  1.00  0.00    -0.550 OA
ATOM     11  O   UNL     1     -21.344  24.738 -27.095  1.00  0.00    -0.550 OA
ENDBRANCH   7   9
ENDBRANCH   6   7
ENDBRANCH   5   6
ENDBRANCH   4   5
ENDBRANCH   3   4
ENDBRANCH   2   3
ENDBRANCH   1   2
BRANCH   1  12
ATOM     12  C   UNL     1     -22.631  17.236 -22.257  1.00  0.00     0.000 C 
BRANCH  12  13
ATOM     13  C   UNL     1     -21.500  16.387 -21.655  1.00  0.00    -0.000 C 
BRANCH  13  14
ATOM     14  C   UNL     1     -20.248  16.358 -22.551  1.00  0.00    -0.000 C 
BRANCH  14  15
ATOM     15  C   UNL     1     -20.553  16.715 -24.018  1.00  0.00    -0.000 C 
BRANCH  15  16
ATOM     16  C   UNL     1     -19.805  17.947 -24.559  1.00  0.00    -0.000 C 
BRANCH  16  17
ATOM     17  C   UNL     1     -20.722  18.923 -25.311  1.00  0.00    -0.000 C 
BRANCH  17  18
ATOM     18  C   UNL     1     -21.699  18.169 -26.221  1.00  0.00    -0.003 C 
ATOM     19  C   UNL     1     -21.125  17.999 -27.625  1.00  0.00     0.004 C 
ENDBRANCH  17  18
ENDBRANCH  16  17
ENDBRANCH  15  16
ENDBRANCH  14  15
ENDBRANCH  13  14
ENDBRANCH  12  13
ENDBRANCH   1  12
TORSDOF 14
ENDMDL
MODEL 2
REMARK VINA RESULT:    -4.891      1.498      2.584
REMARK INTER + INTRA:         -10.650
REMARK INTER:                  -8.542
REMARK INTRA:                  -2.107
REMARK UNBOUND:                -1.756
REMARK SMILES CCCCCCCCCCCCCC[C@@H](C)C(=O)[O-]
REMARK SMILES IDX 9 1 10 2 11 3 12 4 13 5 14 6 15 7 16 8 17 9 18 10 19 11 8 12
REMARK SMILES IDX 7 13 6 14 5 15 4 16 3 17 2 18 1 19
REMARK H PARENT
REMARK Flexibility Score: inf
ROOT
ATOM      1  C   UNL     1     -22.892  20.311 -21.113  1.00  0.00     0.000 C 
ENDROOT
BRANCH   1   2
ATOM      2  C   UNL     1     -23.923  21.448 -21.019  1.00  0.00     0.000 C 
BRANCH   2   3
ATOM      3  C   UNL     1     -23.291  22.837 -20.785  1.00  0.00     0.000 C 
BRANCH   3   4
ATOM      4  C   UNL     1     -23.482  23.772 -21.992  1.00  0.00     0.000 C 
BRANCH   4   5
ATOM      5  C   UNL     1     -24.180  23.079 -23.173  1.00  0.00     0.001 C 
BRANCH   5   6
ATOM      6  C   UNL     1     -23.468  23.332 -24.514  1.00  0.00     0.009 C 
BRANCH   6   7
ATOM      7  C   UNL     1     -22.010  22.824 -24.517  1.00  0.00     0.032 C 
ATOM      8  C   UNL     1     -21.854  21.518 -25.309  1.00  0.00     0.014 C 
BRANCH   7   9
ATOM      9  C   UNL     1     -21.106  23.876 -25.099  1.00  0.00     0.044 C 
ATOM     10  O   UNL     1     -21.560  24.717 -25.919  1.00  0.00    -0.550 OA
ATOM     11  O   UNL     1     -19.764  23.926 -24.740  1.00  0.00    -0.550 OA
ENDBRANCH   7   9
ENDBRANCH   6   7
ENDBRANCH   5   6
ENDBRANCH   4   5
ENDBRANCH   3   4
ENDBRANCH   2   3
ENDBRANCH   1   2
BRANCH   1  12
ATOM     12  C   UNL     1     -22.891  19.619 -22.487  1.00  0.00     0.000 C 
BRANCH  12  13
ATOM     13  C   UNL     1     -23.170  18.111 -22.386  1.00  0.00    -0.000 C 
BRANCH  13  14
ATOM     14  C   UNL     1     -23.969  17.580 -23.590  1.00  0.00    -0.000 C 
BRANCH  14  15
ATOM     15  C   UNL     1     -23.381  18.025 -24.943  1.00  0.00    -0.000 C 
BRANCH  15  16
ATOM     16  C   UNL     1     -22.294  17.099 -25.518  1.00  0.00    -0.000 C 
BRANCH  16  17
ATOM     17  C   UNL     1     -21.044  17.859 -25.985  1.00  0.00    -0.000 C 
BRANCH  17  18
ATOM     18  C   UNL     1     -20.207  18.329 -24.789  1.00  0.00    -0.003 C 
ATOM     19  C   UNL     1     -19.925  17.177 -23.829  1.00  0.00     0.004 C 
ENDBRANCH  17  18
ENDBRANCH  16  17
ENDBRANCH  15  16
ENDBRANCH  14  15
ENDBRANCH  13  14
ENDBRANCH  12  13
ENDBRANCH   1  12
TORSDOF 14
ENDMDL
MODEL 3
REMARK VINA RESULT:    -4.869      2.804      6.032
REMARK INTER + INTRA:         -10.609
REMARK INTER:                  -8.523
REMARK INTRA:                  -2.086
REMARK UNBOUND:                -1.756
REMARK SMILES CCCCCCCCCCCCCC[C@@H](C)C(=O)[O-]
REMARK SMILES IDX 9 1 10 2 11 3 12 4 13 5 14 6 15 7 16 8 17 9 18 10 19 11 8 12
REMARK SMILES IDX 7 13 6 14 5 15 4 16 3 17 2 18 1 19
REMARK H PARENT
REMARK Flexibility Score: inf
ROOT
ATOM      1  C   UNL     1     -23.061  20.467 -21.229  1.00  0.00     0.000 C 
ENDROOT
BRANCH   1   2
ATOM      2  C   UNL     1     -22.679  19.049 -21.685  1.00  0.00     0.000 C 
BRANCH   2   3
ATOM      3  C   UNL     1     -23.876  18.076 -21.747  1.00  0.00     0.000 C 
BRANCH   3   4
ATOM      4  C   UNL     1     -24.076  17.493 -23.157  1.00  0.00     0.000 C 
BRANCH   4   5
ATOM      5  C   UNL     1     -22.765  17.414 -23.956  1.00  0.00     0.001 C 
BRANCH   5   6
ATOM      6  C   UNL     1     -22.926  17.906 -25.406  1.00  0.00     0.009 C 
BRANCH   6   7
ATOM      7  C   UNL     1     -21.605  18.438 -26.003  1.00  0.00     0.032 C 
ATOM      8  C   UNL     1     -20.502  18.569 -24.943  1.00  0.00     0.014 C 
BRANCH   7   9
ATOM      9  C   UNL     1     -21.139  17.524 -27.102  1.00  0.00     0.044 C 
ATOM     10  O   UNL     1     -21.101  16.279 -26.918  1.00  0.00    -0.550 OA
ATOM     11  O   UNL     1     -20.744  18.046 -28.329  1.00  0.00    -0.550 OA
ENDBRANCH   7   9
ENDBRANCH   6   7
ENDBRANCH   5   6
ENDBRANCH   4   5
ENDBRANCH   3   4
ENDBRANCH   2   3
ENDBRANCH   1   2
BRANCH   1  12
ATOM     12  C   UNL     1     -23.586  21.342 -22.380  1.00  0.00     0.000 C 
BRANCH  12  13
ATOM     13  C   UNL     1     -22.885  21.042 -23.714  1.00  0.00    -0.000 C 
BRANCH  13  14
ATOM     14  C   UNL     1     -22.817  22.276 -24.632  1.00  0.00    -0.000 C 
BRANCH  14  15
ATOM     15  C   UNL     1     -21.385  22.597 -25.099  1.00  0.00    -0.000 C 
BRANCH  15  16
ATOM     16  C   UNL     1     -20.990  24.083 -25.017  1.00  0.00    -0.000 C 
BRANCH  16  17
ATOM     17  C   UNL     1     -21.888  24.892 -24.070  1.00  0.00    -0.000 C 
BRANCH  17  18
ATOM     18  C   UNL     1     -21.307  24.920 -22.651  1.00  0.00    -0.003 C 
ATOM     19  C   UNL     1     -22.402  24.751 -21.603  1.00  0.00     0.004 C 
ENDBRANCH  17  18
ENDBRANCH  16  17
ENDBRANCH  15  16
ENDBRANCH  14  15
ENDBRANCH  13  14
ENDBRANCH  12  13
ENDBRANCH   1  12
TORSDOF 14
ENDMDL
MODEL 4
REMARK VINA RESULT:    -4.807      1.806      3.781
REMARK INTER + INTRA:         -10.497
REMARK INTER:                  -8.581
REMARK INTRA:                  -1.916
REMARK UNBOUND:                -1.756
REMARK SMILES CCCCCCCCCCCCCC[C@@H](C)C(=O)[O-]
REMARK SMILES IDX 9 1 10 2 11 3 12 4 13 5 14 6 15 7 16 8 17 9 18 10 19 11 8 12
REMARK SMILES IDX 7 13 6 14 5 15 4 16 3 17 2 18 1 19
REMARK H PARENT
REMARK Flexibility Score: inf
ROOT
ATOM      1  C   UNL     1     -20.961  19.325 -25.221  1.00  0.00     0.000 C 
ENDROOT
BRANCH   1   2
ATOM      2  C   UNL     1     -21.579  20.715 -25.440  1.00  0.00     0.000 C 
BRANCH   2   3
ATOM      3  C   UNL     1     -22.625  21.102 -24.372  1.00  0.00     0.000 C 
BRANCH   3   4
ATOM      4  C   UNL     1     -23.328  22.430 -24.704  1.00  0.00     0.000 C 
BRANCH   4   5
ATOM      5  C   UNL     1     -23.122  23.497 -23.616  1.00  0.00     0.001 C 
BRANCH   5   6
ATOM      6  C   UNL     1     -22.007  24.497 -23.972  1.00  0.00     0.009 C 
BRANCH   6   7
ATOM      7  C   UNL     1     -21.646  24.476 -25.473  1.00  0.00     0.032 C 
ATOM      8  C   UNL     1     -22.026  25.786 -26.177  1.00  0.00     0.014 C 
BRANCH   7   9
ATOM      9  C   UNL     1     -20.173  24.224 -25.639  1.00  0.00     0.044 C 
ATOM     10  O   UNL     1     -19.495  23.775 -24.677  1.00  0.00    -0.550 OA
ATOM     11  O   UNL     1     -19.548  24.487 -26.852  1.00  0.00    -0.550 OA
ENDBRANCH   7   9
ENDBRANCH   6   7
ENDBRANCH   5   6
ENDBRANCH   4   5
ENDBRANCH   3   4
ENDBRANCH   2   3
ENDBRANCH   1   2
BRANCH   1  12
ATOM     12  C   UNL     1     -21.489  18.274 -26.212  1.00  0.00     0.000 C 
BRANCH  12  13
ATOM     13  C   UNL     1     -22.587  17.389 -25.602  1.00  0.00    -0.000 C 
BRANCH  13  14
ATOM     14  C   UNL     1     -22.620  17.470 -24.065  1.00  0.00    -0.000 C 
BRANCH  14  15
ATOM     15  C   UNL     1     -24.042  17.658 -23.505  1.00  0.00    -0.000 C 
BRANCH  15  16
ATOM     16  C   UNL     1     -24.111  18.174 -22.057  1.00  0.00    -0.000 C 
BRANCH  16  17
ATOM     17  C   UNL     1     -22.784  18.774 -21.570  1.00  0.00    -0.000 C 
BRANCH  17  18
ATOM     18  C   UNL     1     -22.959  20.243 -21.169  1.00  0.00    -0.003 C 
ATOM     19  C   UNL     1     -24.434  20.636 -21.144  1.00  0.00     0.004 C 
ENDBRANCH  17  18
ENDBRANCH  16  17
ENDBRANCH  15  16
ENDBRANCH  14  15
ENDBRANCH  13  14
ENDBRANCH  12  13
ENDBRANCH   1  12
TORSDOF 14
ENDMDL
MODEL 5
REMARK VINA RESULT:    -4.768      1.647      2.887
REMARK INTER + INTRA:         -10.426
REMARK INTER:                  -8.644
REMARK INTRA:                  -1.782
REMARK UNBOUND:                -1.756
REMARK SMILES CCCCCCCCCCCCCC[C@@H](C)C(=O)[O-]
REMARK SMILES IDX 9 1 10 2 11 3 12 4 13 5 14 6 15 7 16 8 17 9 18 10 19 11 8 12
REMARK SMILES IDX 7 13 6 14 5 15 4 16 3 17 2 18 1 19
REMARK H PARENT
REMARK Flexibility Score: inf
ROOT
ATOM      1  C   UNL     1     -23.908  21.348 -22.147  1.00  0.00     0.000 C 
ENDROOT
BRANCH   1   2
ATOM      2  C   UNL     1     -23.207  22.187 -23.228  1.00  0.00     0.000 C 
BRANCH   2   3
ATOM      3  C   UNL     1     -22.799  21.373 -24.475  1.00  0.00     0.000 C 
BRANCH   3   4
ATOM      4  C   UNL     1     -21.616  22.012 -25.222  1.00  0.00     0.000 C 
BRANCH   4   5
ATOM      5  C   UNL     1     -21.299  23.432 -24.726  1.00  0.00     0.001 C 
BRANCH   5   6
ATOM      6  C   UNL     1     -20.764  24.344 -25.845  1.00  0.00     0.009 C 
BRANCH   6   7
ATOM      7  C   UNL     1     -21.894  24.984 -26.681  1.00  0.00     0.032 C 
ATOM      8  C   UNL     1     -22.995  25.589 -25.799  1.00  0.00     0.014 C 
BRANCH   7   9
ATOM      9  C   UNL     1     -21.323  26.049 -27.575  1.00  0.00     0.044 C 
ATOM     10  O   UNL     1     -21.661  26.107 -28.787  1.00  0.00    -0.550 OA
ATOM     11  O   UNL     1     -20.416  26.976 -27.073  1.00  0.00    -0.550 OA
ENDBRANCH   7   9
ENDBRANCH   6   7
ENDBRANCH   5   6
ENDBRANCH   4   5
ENDBRANCH   3   4
ENDBRANCH   2   3
ENDBRANCH   1   2
BRANCH   1  12
ATOM     12  C   UNL     1     -22.924  20.511 -21.311  1.00  0.00     0.000 C 
BRANCH  12  13
ATOM     13  C   UNL     1     -22.995  19.012 -21.645  1.00  0.00    -0.000 C 
BRANCH  13  14
ATOM     14  C   UNL     1     -24.409  18.571 -22.064  1.00  0.00    -0.000 C 
BRANCH  14  15
ATOM     15  C   UNL     1     -24.399  17.517 -23.187  1.00  0.00    -0.000 C 
BRANCH  15  16
ATOM     16  C   UNL     1     -23.042  17.322 -23.887  1.00  0.00    -0.000 C 
BRANCH  16  17
ATOM     17  C   UNL     1     -23.019  17.880 -25.318  1.00  0.00    -0.000 C 
BRANCH  17  18
ATOM     18  C   UNL     1     -21.618  17.765 -25.930  1.00  0.00    -0.003 C 
ATOM     19  C   UNL     1     -20.565  18.383 -25.015  1.00  0.00     0.004 C 
ENDBRANCH  17  18
ENDBRANCH  16  17
ENDBRANCH  15  16
ENDBRANCH  14  15
ENDBRANCH  13  14
ENDBRANCH  12  13
ENDBRANCH   1  12
TORSDOF 14
ENDMDL
MODEL 6
REMARK VINA RESULT:    -4.755      1.666      4.222
REMARK INTER + INTRA:         -10.403
REMARK INTER:                  -8.286
REMARK INTRA:                  -2.117
REMARK UNBOUND:                -1.756
REMARK SMILES CCCCCCCCCCCCCC[C@@H](C)C(=O)[O-]
REMARK SMILES IDX 9 1 10 2 11 3 12 4 13 5 14 6 15 7 16 8 17 9 18 10 19 11 8 12
REMARK SMILES IDX 7 13 6 14 5 15 4 16 3 17 2 18 1 19
REMARK H PARENT
REMARK Flexibility Score: inf
ROOT
ATOM      1  C   UNL     1     -21.320  17.759 -24.369  1.00  0.00     0.000 C 
ENDROOT
BRANCH   1   2
ATOM      2  C   UNL     1     -20.710  18.948 -25.130  1.00  0.00     0.000 C 
BRANCH   2   3
ATOM      3  C   UNL     1     -21.761  19.940 -25.672  1.00  0.00     0.000 C 
BRANCH   3   4
ATOM      4  C   UNL     1     -21.583  21.351 -25.084  1.00  0.00     0.000 C 
BRANCH   4   5
ATOM      5  C   UNL     1     -22.896  21.935 -24.538  1.00  0.00     0.001 C 
BRANCH   5   6
ATOM      6  C   UNL     1     -22.771  23.422 -24.161  1.00  0.00     0.009 C 
BRANCH   6   7
ATOM      7  C   UNL     1     -22.334  24.302 -25.351  1.00  0.00     0.032 C 
ATOM      8  C   UNL     1     -23.450  25.253 -25.808  1.00  0.00     0.014 C 
BRANCH   7   9
ATOM      9  C   UNL     1     -21.117  25.100 -24.974  1.00  0.00     0.044 C 
ATOM     10  O   UNL     1     -20.277  24.628 -24.164  1.00  0.00    -0.550 OA
ATOM     11  O   UNL     1     -20.911  26.365 -25.514  1.00  0.00    -0.550 OA
ENDBRANCH   7   9
ENDBRANCH   6   7
ENDBRANCH   5   6
ENDBRANCH   4   5
ENDBRANCH   3   4
ENDBRANCH   2   3
ENDBRANCH   1   2
BRANCH   1  12
ATOM     12  C   UNL     1     -22.854  17.708 -24.473  1.00  0.00     0.000 C 
BRANCH  12  13
ATOM     13  C   UNL     1     -23.542  17.858 -23.107  1.00  0.00    -0.000 C 
BRANCH  13  14
ATOM     14  C   UNL     1     -22.565  18.304 -22.004  1.00  0.00    -0.000 C 
BRANCH  14  15
ATOM     15  C   UNL     1     -22.864  19.720 -21.475  1.00  0.00    -0.000 C 
BRANCH  15  16
ATOM     16  C   UNL     1     -24.319  20.189 -21.653  1.00  0.00    -0.000 C 
BRANCH  16  17
ATOM     17  C   UNL     1     -24.591  21.558 -21.013  1.00  0.00    -0.000 C 
BRANCH  17  18
ATOM     18  C   UNL     1     -23.311  22.144 -20.405  1.00  0.00    -0.003 C 
ATOM     19  C   UNL     1     -23.277  23.663 -20.549  1.00  0.00     0.004 C 
ENDBRANCH  17  18
ENDBRANCH  16  17
ENDBRANCH  15  16
ENDBRANCH  14  15
ENDBRANCH  13  14
ENDBRANCH  12  13
ENDBRANCH   1  12
TORSDOF 14
ENDMDL
MODEL 7
REMARK VINA RESULT:    -4.751      2.191      3.845
REMARK INTER + INTRA:         -10.395
REMARK INTER:                  -8.096
REMARK INTRA:                  -2.299
REMARK UNBOUND:                -1.756
REMARK SMILES CCCCCCCCCCCCCC[C@@H](C)C(=O)[O-]
REMARK SMILES IDX 9 1 10 2 11 3 12 4 13 5 14 6 15 7 16 8 17 9 18 10 19 11 8 12
REMARK SMILES IDX 7 13 6 14 5 15 4 16 3 17 2 18 1 19
REMARK H PARENT
REMARK Flexibility Score: inf
ROOT
ATOM      1  C   UNL     1     -23.448  18.200 -23.908  1.00  0.00     0.000 C 
ENDROOT
BRANCH   1   2
ATOM      2  C   UNL     1     -23.822  18.485 -22.443  1.00  0.00     0.000 C 
BRANCH   2   3
ATOM      3  C   UNL     1     -22.708  19.200 -21.649  1.00  0.00     0.000 C 
BRANCH   3   4
ATOM      4  C   UNL     1     -23.161  20.574 -21.125  1.00  0.00     0.000 C 
BRANCH   4   5
ATOM      5  C   UNL     1     -24.581  20.944 -21.585  1.00  0.00     0.001 C 
BRANCH   5   6
ATOM      6  C   UNL     1     -24.637  22.312 -22.289  1.00  0.00     0.009 C 
BRANCH   6   7
ATOM      7  C   UNL     1     -23.236  22.854 -22.646  1.00  0.00     0.032 C 
ATOM      8  C   UNL     1     -22.982  22.851 -24.160  1.00  0.00     0.014 C 
BRANCH   7   9
ATOM      9  C   UNL     1     -23.082  24.252 -22.114  1.00  0.00     0.044 C 
ATOM     10  O   UNL     1     -24.078  25.020 -22.053  1.00  0.00    -0.550 OA
ATOM     11  O   UNL     1     -21.839  24.708 -21.688  1.00  0.00    -0.550 OA
ENDBRANCH   7   9
ENDBRANCH   6   7
ENDBRANCH   5   6
ENDBRANCH   4   5
ENDBRANCH   3   4
ENDBRANCH   2   3
ENDBRANCH   1   2
BRANCH   1  12
ATOM     12  C   UNL     1     -22.699  19.369 -24.570  1.00  0.00     0.000 C 
BRANCH  12  13
ATOM     13  C   UNL     1     -21.304  18.964 -25.073  1.00  0.00    -0.000 C 
BRANCH  13  14
ATOM     14  C   UNL     1     -21.018  17.465 -24.867  1.00  0.00    -0.000 C 
BRANCH  14  15
ATOM     15  C   UNL     1     -19.852  17.206 -23.895  1.00  0.00    -0.000 C 
BRANCH  15  16
ATOM     16  C   UNL     1     -20.260  16.638 -22.524  1.00  0.00    -0.000 C 
BRANCH  16  17
ATOM     17  C   UNL     1     -21.221  15.445 -22.630  1.00  0.00    -0.000 C 
BRANCH  17  18
ATOM     18  C   UNL     1     -21.605  14.923 -21.241  1.00  0.00    -0.003 C 
ATOM     19  C   UNL     1     -23.099  15.093 -20.982  1.00  0.00     0.004 C 
ENDBRANCH  17  18
ENDBRANCH  16  17
ENDBRANCH  15  16
ENDBRANCH  14  15
ENDBRANCH  13  14
ENDBRANCH  12  13
ENDBRANCH   1  12
TORSDOF 14
ENDMDL
MODEL 8
REMARK VINA RESULT:    -4.746      1.114      2.192
REMARK INTER + INTRA:         -10.387
REMARK INTER:                  -8.383
REMARK INTRA:                  -2.003
REMARK UNBOUND:                -1.756
REMARK SMILES CCCCCCCCCCCCCC[C@@H](C)C(=O)[O-]
REMARK SMILES IDX 9 1 10 2 11 3 12 4 13 5 14 6 15 7 16 8 17 9 18 10 19 11 8 12
REMARK SMILES IDX 7 13 6 14 5 15 4 16 3 17 2 18 1 19
REMARK H PARENT
REMARK Flexibility Score: inf
ROOT
ATOM      1  C   UNL     1     -23.590  21.588 -20.885  1.00  0.00     0.000 C 
ENDROOT
BRANCH   1   2
ATOM      2  C   UNL     1     -23.230  22.648 -21.940  1.00  0.00     0.000 C 
BRANCH   2   3
ATOM      3  C   UNL     1     -24.334  22.868 -22.996  1.00  0.00     0.000 C 
BRANCH   3   4
ATOM      4  C   UNL     1     -23.768  22.911 -24.426  1.00  0.00     0.000 C 
BRANCH   4   5
ATOM      5  C   UNL     1     -22.760  21.783 -24.697  1.00  0.00     0.001 C 
BRANCH   5   6
ATOM      6  C   UNL     1     -21.375  22.313 -25.109  1.00  0.00     0.009 C 
BRANCH   6   7
ATOM      7  C   UNL     1     -21.325  23.855 -25.178  1.00  0.00     0.032 C 
ATOM      8  C   UNL     1     -20.272  24.443 -24.229  1.00  0.00     0.014 C 
BRANCH   7   9
ATOM      9  C   UNL     1     -21.033  24.291 -26.587  1.00  0.00     0.044 C 
ATOM     10  O   UNL     1     -21.917  24.877 -27.265  1.00  0.00    -0.550 OA
ATOM     11  O   UNL     1     -19.786  24.049 -27.153  1.00  0.00    -0.550 OA
ENDBRANCH   7   9
ENDBRANCH   6   7
ENDBRANCH   5   6
ENDBRANCH   4   5
ENDBRANCH   3   4
ENDBRANCH   2   3
ENDBRANCH   1   2
BRANCH   1  12
ATOM     12  C   UNL     1     -23.039  20.194 -21.227  1.00  0.00     0.000 C 
BRANCH  12  13
ATOM     13  C   UNL     1     -24.051  19.335 -22.001  1.00  0.00    -0.000 C 
BRANCH  13  14
ATOM     14  C   UNL     1     -23.375  18.434 -23.051  1.00  0.00    -0.000 C 
BRANCH  14  15
ATOM     15  C   UNL     1     -21.978  17.953 -22.616  1.00  0.00    -0.000 C 
BRANCH  15  16
ATOM     16  C   UNL     1     -21.271  17.018 -23.614  1.00  0.00    -0.000 C 
BRANCH  16  17
ATOM     17  C   UNL     1     -20.100  17.694 -24.343  1.00  0.00    -0.000 C 
BRANCH  17  18
ATOM     18  C   UNL     1     -20.602  18.552 -25.511  1.00  0.00    -0.003 C 
ATOM     19  C   UNL     1     -21.631  17.796 -26.347  1.00  0.00     0.004 C 
ENDBRANCH  17  18
ENDBRANCH  16  17
ENDBRANCH  15  16
ENDBRANCH  14  15
ENDBRANCH  13  14
ENDBRANCH  12  13
ENDBRANCH   1  12
TORSDOF 14
ENDMDL
MODEL 9
REMARK VINA RESULT:    -4.692      1.232      2.287
REMARK INTER + INTRA:         -10.287
REMARK INTER:                  -8.239
REMARK INTRA:                  -2.048
REMARK UNBOUND:                -1.756
REMARK SMILES CCCCCCCCCCCCCC[C@@H](C)C(=O)[O-]
REMARK SMILES IDX 9 1 10 2 11 3 12 4 13 5 14 6 15 7 16 8 17 9 18 10 19 11 8 12
REMARK SMILES IDX 7 13 6 14 5 15 4 16 3 17 2 18 1 19
REMARK H PARENT
REMARK Flexibility Score: inf
ROOT
ATOM      1  C   UNL     1     -23.245  19.202 -23.034  1.00  0.00     0.000 C 
ENDROOT
BRANCH   1   2
ATOM      2  C   UNL     1     -22.948  19.698 -21.610  1.00  0.00     0.000 C 
BRANCH   2   3
ATOM      3  C   UNL     1     -23.881  20.837 -21.144  1.00  0.00     0.000 C 
BRANCH   3   4
ATOM      4  C   UNL     1     -23.198  22.213 -21.219  1.00  0.00     0.000 C 
BRANCH   4   5
ATOM      5  C   UNL     1     -23.893  23.166 -22.205  1.00  0.00     0.001 C 
BRANCH   5   6
ATOM      6  C   UNL     1     -23.771  22.698 -23.666  1.00  0.00     0.009 C 
BRANCH   6   7
ATOM      7  C   UNL     1     -22.401  23.045 -24.289  1.00  0.00     0.032 C 
ATOM      8  C   UNL     1     -21.793  21.858 -25.047  1.00  0.00     0.014 C 
BRANCH   7   9
ATOM      9  C   UNL     1     -22.549  24.215 -25.221  1.00  0.00     0.044 C 
ATOM     10  O   UNL     1     -23.684  24.718 -25.432  1.00  0.00    -0.550 OA
ATOM     11  O   UNL     1     -21.435  24.749 -25.860  1.00  0.00    -0.550 OA
ENDBRANCH   7   9
ENDBRANCH   6   7
ENDBRANCH   5   6
ENDBRANCH   4   5
ENDBRANCH   3   4
ENDBRANCH   2   3
ENDBRANCH   1   2
BRANCH   1  12
ATOM     12  C   UNL     1     -23.834  17.781 -23.060  1.00  0.00     0.000 C 
BRANCH  12  13
ATOM     13  C   UNL     1     -23.859  17.129 -21.669  1.00  0.00    -0.000 C 
BRANCH  13  14
ATOM     14  C   UNL     1     -22.968  15.877 -21.592  1.00  0.00    -0.000 C 
BRANCH  14  15
ATOM     15  C   UNL     1     -21.464  16.210 -21.606  1.00  0.00    -0.000 C 
BRANCH  15  16
ATOM     16  C   UNL     1     -20.631  15.425 -22.635  1.00  0.00    -0.000 C 
BRANCH  16  17
ATOM     17  C   UNL     1     -20.635  16.071 -24.029  1.00  0.00    -0.000 C 
BRANCH  17  18
ATOM     18  C   UNL     1     -20.029  17.479 -23.983  1.00  0.00    -0.003 C 
ATOM     19  C   UNL     1     -20.453  18.301 -25.197  1.00  0.00     0.004 C 
ENDBRANCH  17  18
ENDBRANCH  16  17
ENDBRANCH  15  16
ENDBRANCH  14  15
ENDBRANCH  13  14
ENDBRANCH  12  13
ENDBRANCH   1  12
TORSDOF 14
ENDMDL
