MODEL 1
REMARK VINA RESULT:    -4.100      0.000      0.000
REMARK INTER + INTRA:          -9.798
REMARK INTER:                  -7.695
REMARK INTRA:                  -2.103
REMARK UNBOUND:                -2.103
REMARK SMILES CCCCCCCCC=CCCCCCCCC(=O)[O-]
REMARK SMILES IDX 10 1 9 2 11 3 12 4 13 5 14 6 15 7 16 8 17 9 18 10 19 11
REMARK SMILES IDX 20 12 8 13 7 14 6 15 5 16 4 17 3 18 2 19 1 20
REMARK H PARENT
REMARK Flexibility Score: inf
ROOT
ATOM      1  C   UNL     1     125.941 120.046 117.783  1.00  0.00    -0.031 C 
ATOM      2  C   UNL     1     124.725 120.480 117.400  1.00  0.00    -0.031 C 
ENDROOT
BRANCH   1   3
ATOM      3  C   UNL     1     127.195 120.889 117.808  1.00  0.00     0.027 C 
BRANCH   3   4
ATOM      4  C   UNL     1     128.367 120.122 118.431  1.00  0.00     0.004 C 
BRANCH   4   5
ATOM      5  C   UNL     1     129.638 120.985 118.527  1.00  0.00     0.000 C 
BRANCH   5   6
ATOM      6  C   UNL     1     129.853 121.555 119.945  1.00  0.00     0.000 C 
BRANCH   6   7
ATOM      7  C   UNL     1     131.213 122.255 120.130  1.00  0.00     0.000 C 
BRANCH   7   8
ATOM      8  C   UNL     1     132.275 121.423 120.874  1.00  0.00     0.006 C 
BRANCH   8   9
ATOM      9  C   UNL     1     133.002 120.394 119.992  1.00  0.00     0.053 C 
BRANCH   9  10
ATOM     10  C   UNL     1     132.475 119.006 120.202  1.00  0.00     0.041 C 
ATOM     11  O   UNL     1     131.747 118.748 121.196  1.00  0.00    -0.550 OA
ATOM     12  O   UNL     1     132.818 117.992 119.317  1.00  0.00    -0.550 OA
ENDBRANCH   9  10
ENDBRANCH   8   9
ENDBRANCH   7   8
ENDBRANCH   6   7
ENDBRANCH   5   6
ENDBRANCH   4   5
ENDBRANCH   3   4
ENDBRANCH   1   3
BRANCH   2  13
ATOM     13  C   UNL     1     124.430 121.867 116.889  1.00  0.00     0.027 C 
BRANCH  13  14
ATOM     14  C   UNL     1     123.617 122.674 117.912  1.00  0.00     0.004 C 
BRANCH  14  15
ATOM     15  C   UNL     1     122.447 121.875 118.511  1.00  0.00     0.000 C 
BRANCH  15  16
ATOM     16  C   UNL     1     122.439 121.781 120.048  1.00  0.00     0.000 C 
BRANCH  16  17
ATOM     17  C   UNL     1     123.759 122.250 120.684  1.00  0.00    -0.000 C 
BRANCH  17  18
ATOM     18  C   UNL     1     124.646 121.084 121.154  1.00  0.00    -0.000 C 
BRANCH  18  19
ATOM     19  C   UNL     1     126.153 121.393 121.212  1.00  0.00    -0.003 C 
ATOM     20  C   UNL     1     126.956 120.326 121.956  1.00  0.00     0.004 C 
ENDBRANCH  18  19
ENDBRANCH  17  18
ENDBRANCH  16  17
ENDBRANCH  15  16
ENDBRANCH  14  15
ENDBRANCH  13  14
ENDBRANCH   2  13
TORSDOF 15
ENDMDL
MODEL 2
REMARK VINA RESULT:    -4.078      2.586      6.686
REMARK INTER + INTRA:          -9.758
REMARK INTER:                  -7.519
REMARK INTRA:                  -2.239
REMARK UNBOUND:                -2.103
REMARK SMILES CCCCCCCCC=CCCCCCCCC(=O)[O-]
REMARK SMILES IDX 10 1 9 2 11 3 12 4 13 5 14 6 15 7 16 8 17 9 18 10 19 11
REMARK SMILES IDX 20 12 8 13 7 14 6 15 5 16 4 17 3 18 2 19 1 20
REMARK H PARENT
REMARK Flexibility Score: inf
ROOT
ATOM      1  C   UNL     1     126.617 120.740 117.676  1.00  0.00    -0.031 C 
ATOM      2  C   UNL     1     127.674 120.789 118.508  1.00  0.00    -0.031 C 
ENDROOT
BRANCH   1   3
ATOM      3  C   UNL     1     125.489 119.739 117.765  1.00  0.00     0.027 C 
BRANCH   3   4
ATOM      4  C   UNL     1     124.214 120.278 117.106  1.00  0.00     0.004 C 
BRANCH   4   5
ATOM      5  C   UNL     1     124.229 121.812 116.983  1.00  0.00     0.000 C 
BRANCH   5   6
ATOM      6  C   UNL     1     123.024 122.469 117.689  1.00  0.00     0.000 C 
BRANCH   6   7
ATOM      7  C   UNL     1     123.341 122.981 119.106  1.00  0.00     0.000 C 
BRANCH   7   8
ATOM      8  C   UNL     1     123.524 121.881 120.169  1.00  0.00     0.006 C 
BRANCH   8   9
ATOM      9  C   UNL     1     124.885 121.914 120.884  1.00  0.00     0.053 C 
BRANCH   9  10
ATOM     10  C   UNL     1     124.804 121.347 122.268  1.00  0.00     0.041 C 
ATOM     11  O   UNL     1     123.825 121.624 123.010  1.00  0.00    -0.550 OA
ATOM     12  O   UNL     1     125.827 120.540 122.751  1.00  0.00    -0.550 OA
ENDBRANCH   9  10
ENDBRANCH   8   9
ENDBRANCH   7   8
ENDBRANCH   6   7
ENDBRANCH   5   6
ENDBRANCH   4   5
ENDBRANCH   3   4
ENDBRANCH   1   3
BRANCH   2  13
ATOM     13  C   UNL     1     127.927 119.821 119.634  1.00  0.00     0.027 C 
BRANCH  13  14
ATOM     14  C   UNL     1     128.831 120.443 120.709  1.00  0.00     0.004 C 
BRANCH  14  15
ATOM     15  C   UNL     1     128.552 121.940 120.933  1.00  0.00     0.000 C 
BRANCH  15  16
ATOM     16  C   UNL     1     129.801 122.840 120.960  1.00  0.00     0.000 C 
BRANCH  16  17
ATOM     17  C   UNL     1     130.912 122.351 120.015  1.00  0.00    -0.000 C 
BRANCH  17  18
ATOM     18  C   UNL     1     132.213 121.992 120.755  1.00  0.00    -0.000 C 
BRANCH  18  19
ATOM     19  C   UNL     1     132.780 120.596 120.438  1.00  0.00    -0.003 C 
ATOM     20  C   UNL     1     132.285 120.037 119.103  1.00  0.00     0.004 C 
ENDBRANCH  18  19
ENDBRANCH  17  18
ENDBRANCH  16  17
ENDBRANCH  15  16
ENDBRANCH  14  15
ENDBRANCH  13  14
ENDBRANCH   2  13
TORSDOF 15
ENDMDL
MODEL 3
REMARK VINA RESULT:    -3.994      3.251      7.292
REMARK INTER + INTRA:          -9.599
REMARK INTER:                  -7.676
REMARK INTRA:                  -1.923
REMARK UNBOUND:                -2.103
REMARK SMILES CCCCCCCCC=CCCCCCCCC(=O)[O-]
REMARK SMILES IDX 10 1 9 2 11 3 12 4 13 5 14 6 15 7 16 8 17 9 18 10 19 11
REMARK SMILES IDX 20 12 8 13 7 14 6 15 5 16 4 17 3 18 2 19 1 20
REMARK H PARENT
REMARK Flexibility Score: inf
ROOT
ATOM      1  C   UNL     1     126.982 120.751 117.763  1.00  0.00    -0.031 C 
ATOM      2  C   UNL     1     127.912 120.777 118.737  1.00  0.00    -0.031 C 
ENDROOT
BRANCH   1   3
ATOM      3  C   UNL     1     125.494 120.893 117.980  1.00  0.00     0.027 C 
BRANCH   3   4
ATOM      4  C   UNL     1     124.877 121.875 116.978  1.00  0.00     0.004 C 
BRANCH   4   5
ATOM      5  C   UNL     1     123.436 122.259 117.356  1.00  0.00     0.000 C 
BRANCH   5   6
ATOM      6  C   UNL     1     123.339 122.842 118.781  1.00  0.00     0.000 C 
BRANCH   6   7
ATOM      7  C   UNL     1     122.346 122.093 119.690  1.00  0.00     0.000 C 
BRANCH   7   8
ATOM      8  C   UNL     1     122.995 121.210 120.772  1.00  0.00     0.006 C 
BRANCH   8   9
ATOM      9  C   UNL     1     124.050 121.932 121.626  1.00  0.00     0.053 C 
BRANCH   9  10
ATOM     10  C   UNL     1     123.597 122.112 123.043  1.00  0.00     0.041 C 
ATOM     11  O   UNL     1     124.288 121.656 123.992  1.00  0.00    -0.550 OA
ATOM     12  O   UNL     1     122.394 122.752 123.313  1.00  0.00    -0.550 OA
ENDBRANCH   9  10
ENDBRANCH   8   9
ENDBRANCH   7   8
ENDBRANCH   6   7
ENDBRANCH   5   6
ENDBRANCH   4   5
ENDBRANCH   3   4
ENDBRANCH   1   3
BRANCH   2  13
ATOM     13  C   UNL     1     127.611 120.903 120.208  1.00  0.00     0.027 C 
BRANCH  13  14
ATOM     14  C   UNL     1     128.460 119.924 121.033  1.00  0.00     0.004 C 
BRANCH  14  15
ATOM     15  C   UNL     1     129.533 119.208 120.195  1.00  0.00     0.000 C 
BRANCH  15  16
ATOM     16  C   UNL     1     130.955 119.246 120.785  1.00  0.00     0.000 C 
BRANCH  16  17
ATOM     17  C   UNL     1     131.937 120.065 119.931  1.00  0.00    -0.000 C 
BRANCH  17  18
ATOM     18  C   UNL     1     131.413 121.475 119.602  1.00  0.00    -0.000 C 
BRANCH  18  19
ATOM     19  C   UNL     1     131.659 122.533 120.693  1.00  0.00    -0.003 C 
ATOM     20  C   UNL     1     130.409 123.344 121.034  1.00  0.00     0.004 C 
ENDBRANCH  18  19
ENDBRANCH  17  18
ENDBRANCH  16  17
ENDBRANCH  15  16
ENDBRANCH  14  15
ENDBRANCH  13  14
ENDBRANCH   2  13
TORSDOF 15
ENDMDL
MODEL 4
REMARK VINA RESULT:    -3.965      9.421     11.660
REMARK INTER + INTRA:          -9.544
REMARK INTER:                  -7.530
REMARK INTRA:                  -2.014
REMARK UNBOUND:                -2.103
REMARK SMILES CCCCCCCCC=CCCCCCCCC(=O)[O-]
REMARK SMILES IDX 10 1 9 2 11 3 12 4 13 5 14 6 15 7 16 8 17 9 18 10 19 11
REMARK SMILES IDX 20 12 8 13 7 14 6 15 5 16 4 17 3 18 2 19 1 20
REMARK H PARENT
REMARK Flexibility Score: inf
ROOT
ATOM      1  C   UNL     1     122.222 128.283 125.511  1.00  0.00    -0.031 C 
ATOM      2  C   UNL     1     123.375 127.694 125.883  1.00  0.00    -0.031 C 
ENDROOT
BRANCH   1   3
ATOM      3  C   UNL     1     122.096 129.346 124.444  1.00  0.00     0.027 C 
BRANCH   3   4
ATOM      4  C   UNL     1     122.255 130.751 125.038  1.00  0.00     0.004 C 
BRANCH   4   5
ATOM      5  C   UNL     1     123.563 131.424 124.590  1.00  0.00     0.000 C 
BRANCH   5   6
ATOM      6  C   UNL     1     123.936 131.072 123.134  1.00  0.00     0.000 C 
BRANCH   6   7
ATOM      7  C   UNL     1     123.748 132.240 122.147  1.00  0.00     0.000 C 
BRANCH   7   8
ATOM      8  C   UNL     1     123.425 131.822 120.700  1.00  0.00     0.006 C 
BRANCH   8   9
ATOM      9  C   UNL     1     123.627 130.325 120.416  1.00  0.00     0.053 C 
BRANCH   9  10
ATOM     10  C   UNL     1     124.760 130.083 119.465  1.00  0.00     0.041 C 
ATOM     11  O   UNL     1     125.901 130.557 119.705  1.00  0.00    -0.550 OA
ATOM     12  O   UNL     1     124.545 129.363 118.297  1.00  0.00    -0.550 OA
ENDBRANCH   9  10
ENDBRANCH   8   9
ENDBRANCH   7   8
ENDBRANCH   6   7
ENDBRANCH   5   6
ENDBRANCH   4   5
ENDBRANCH   3   4
ENDBRANCH   1   3
BRANCH   2  13
ATOM     13  C   UNL     1     124.733 128.038 125.328  1.00  0.00     0.027 C 
BRANCH  13  14
ATOM     14  C   UNL     1     125.630 126.793 125.249  1.00  0.00     0.004 C 
BRANCH  14  15
ATOM     15  C   UNL     1     124.999 125.556 125.911  1.00  0.00     0.000 C 
BRANCH  15  16
ATOM     16  C   UNL     1     125.803 124.958 127.080  1.00  0.00     0.000 C 
BRANCH  16  17
ATOM     17  C   UNL     1     126.666 126.001 127.810  1.00  0.00    -0.000 C 
BRANCH  17  18
ATOM     18  C   UNL     1     126.116 126.366 129.200  1.00  0.00    -0.000 C 
BRANCH  18  19
ATOM     19  C   UNL     1     124.976 127.401 129.200  1.00  0.00    -0.003 C 
ATOM     20  C   UNL     1     123.599 126.775 129.420  1.00  0.00     0.004 C 
ENDBRANCH  18  19
ENDBRANCH  17  18
ENDBRANCH  16  17
ENDBRANCH  15  16
ENDBRANCH  14  15
ENDBRANCH  13  14
ENDBRANCH   2  13
TORSDOF 15
ENDMDL
MODEL 5
REMARK VINA RESULT:    -3.951      3.620      7.305
REMARK INTER + INTRA:          -9.519
REMARK INTER:                  -7.024
REMARK INTRA:                  -2.495
REMARK UNBOUND:                -2.103
REMARK SMILES CCCCCCCCC=CCCCCCCCC(=O)[O-]
REMARK SMILES IDX 10 1 9 2 11 3 12 4 13 5 14 6 15 7 16 8 17 9 18 10 19 11
REMARK SMILES IDX 20 12 8 13 7 14 6 15 5 16 4 17 3 18 2 19 1 20
REMARK H PARENT
REMARK Flexibility Score: inf
ROOT
ATOM      1  C   UNL     1     129.378 119.964 117.825  1.00  0.00    -0.031 C 
ATOM      2  C   UNL     1     129.369 121.122 118.512  1.00  0.00    -0.031 C 
ENDROOT
BRANCH   1   3
ATOM      3  C   UNL     1     128.855 118.644 118.343  1.00  0.00     0.027 C 
BRANCH   3   4
ATOM      4  C   UNL     1     127.595 118.209 117.585  1.00  0.00     0.004 C 
BRANCH   4   5
ATOM      5  C   UNL     1     126.309 118.550 118.357  1.00  0.00     0.000 C 
BRANCH   5   6
ATOM      6  C   UNL     1     125.418 119.554 117.596  1.00  0.00     0.000 C 
BRANCH   6   7
ATOM      7  C   UNL     1     125.507 120.994 118.138  1.00  0.00     0.000 C 
BRANCH   7   8
ATOM      8  C   UNL     1     125.090 121.160 119.611  1.00  0.00     0.006 C 
BRANCH   8   9
ATOM      9  C   UNL     1     124.010 122.230 119.845  1.00  0.00     0.053 C 
BRANCH   9  10
ATOM     10  C   UNL     1     123.063 122.332 118.688  1.00  0.00     0.041 C 
ATOM     11  O   UNL     1     123.051 123.364 117.968  1.00  0.00    -0.550 OA
ATOM     12  O   UNL     1     122.171 121.300 118.427  1.00  0.00    -0.550 OA
ENDBRANCH   9  10
ENDBRANCH   8   9
ENDBRANCH   7   8
ENDBRANCH   6   7
ENDBRANCH   5   6
ENDBRANCH   4   5
ENDBRANCH   3   4
ENDBRANCH   1   3
BRANCH   2  13
ATOM     13  C   UNL     1     128.881 121.276 119.929  1.00  0.00     0.027 C 
BRANCH  13  14
ATOM     14  C   UNL     1     129.810 122.194 120.739  1.00  0.00     0.004 C 
BRANCH  14  15
ATOM     15  C   UNL     1     131.215 122.316 120.124  1.00  0.00     0.000 C 
BRANCH  15  16
ATOM     16  C   UNL     1     132.278 121.382 120.733  1.00  0.00     0.000 C 
BRANCH  16  17
ATOM     17  C   UNL     1     132.727 120.274 119.766  1.00  0.00    -0.000 C 
BRANCH  17  18
ATOM     18  C   UNL     1     132.480 118.859 120.318  1.00  0.00    -0.000 C 
BRANCH  18  19
ATOM     19  C   UNL     1     131.193 118.698 121.147  1.00  0.00    -0.003 C 
ATOM     20  C   UNL     1     130.863 117.239 121.465  1.00  0.00     0.004 C 
ENDBRANCH  18  19
ENDBRANCH  17  18
ENDBRANCH  16  17
ENDBRANCH  15  16
ENDBRANCH  14  15
ENDBRANCH  13  14
ENDBRANCH   2  13
TORSDOF 15
ENDMDL
MODEL 6
REMARK VINA RESULT:    -3.931      9.474     11.768
REMARK INTER + INTRA:          -9.482
REMARK INTER:                  -6.722
REMARK INTRA:                  -2.760
REMARK UNBOUND:                -2.103
REMARK SMILES CCCCCCCCC=CCCCCCCCC(=O)[O-]
REMARK SMILES IDX 10 1 9 2 11 3 12 4 13 5 14 6 15 7 16 8 17 9 18 10 19 11
REMARK SMILES IDX 20 12 8 13 7 14 6 15 5 16 4 17 3 18 2 19 1 20
REMARK H PARENT
REMARK Flexibility Score: inf
ROOT
ATOM      1  C   UNL     1     124.393 127.277 124.952  1.00  0.00    -0.031 C 
ATOM      2  C   UNL     1     125.391 126.431 125.269  1.00  0.00    -0.031 C 
ENDROOT
BRANCH   1   3
ATOM      3  C   UNL     1     123.157 127.513 125.788  1.00  0.00     0.027 C 
BRANCH   3   4
ATOM      4  C   UNL     1     122.558 128.898 125.516  1.00  0.00     0.004 C 
BRANCH   4   5
ATOM      5  C   UNL     1     122.582 129.256 124.020  1.00  0.00     0.000 C 
BRANCH   5   6
ATOM      6  C   UNL     1     122.995 130.723 123.776  1.00  0.00     0.000 C 
BRANCH   6   7
ATOM      7  C   UNL     1     124.293 130.871 122.958  1.00  0.00     0.000 C 
BRANCH   7   8
ATOM      8  C   UNL     1     124.214 131.875 121.793  1.00  0.00     0.006 C 
BRANCH   8   9
ATOM      9  C   UNL     1     123.394 131.382 120.589  1.00  0.00     0.053 C 
BRANCH   9  10
ATOM     10  C   UNL     1     123.879 130.057 120.086  1.00  0.00     0.041 C 
ATOM     11  O   UNL     1     124.943 129.984 119.417  1.00  0.00    -0.550 OA
ATOM     12  O   UNL     1     123.138 128.907 120.327  1.00  0.00    -0.550 OA
ENDBRANCH   9  10
ENDBRANCH   8   9
ENDBRANCH   7   8
ENDBRANCH   6   7
ENDBRANCH   5   6
ENDBRANCH   4   5
ENDBRANCH   3   4
ENDBRANCH   1   3
BRANCH   2  13
ATOM     13  C   UNL     1     125.411 125.545 126.488  1.00  0.00     0.027 C 
BRANCH  13  14
ATOM     14  C   UNL     1     126.470 126.014 127.497  1.00  0.00     0.004 C 
BRANCH  14  15
ATOM     15  C   UNL     1     125.966 127.147 128.410  1.00  0.00     0.000 C 
BRANCH  15  16
ATOM     16  C   UNL     1     126.623 128.519 128.171  1.00  0.00     0.000 C 
BRANCH  16  17
ATOM     17  C   UNL     1     125.650 129.555 127.584  1.00  0.00    -0.000 C 
BRANCH  17  18
ATOM     18  C   UNL     1     126.182 130.218 126.301  1.00  0.00    -0.000 C 
BRANCH  18  19
ATOM     19  C   UNL     1     127.357 129.486 125.627  1.00  0.00    -0.003 C 
ATOM     20  C   UNL     1     127.474 129.789 124.133  1.00  0.00     0.004 C 
ENDBRANCH  18  19
ENDBRANCH  17  18
ENDBRANCH  16  17
ENDBRANCH  15  16
ENDBRANCH  14  15
ENDBRANCH  13  14
ENDBRANCH   2  13
TORSDOF 15
ENDMDL
MODEL 7
REMARK VINA RESULT:    -3.882      3.518      7.766
REMARK INTER + INTRA:          -9.390
REMARK INTER:                  -7.117
REMARK INTRA:                  -2.273
REMARK UNBOUND:                -2.103
REMARK SMILES CCCCCCCCC=CCCCCCCCC(=O)[O-]
REMARK SMILES IDX 10 1 9 2 11 3 12 4 13 5 14 6 15 7 16 8 17 9 18 10 19 11
REMARK SMILES IDX 20 12 8 13 7 14 6 15 5 16 4 17 3 18 2 19 1 20
REMARK H PARENT
REMARK Flexibility Score: inf
ROOT
ATOM      1  C   UNL     1     128.479 121.340 120.539  1.00  0.00    -0.031 C 
ATOM      2  C   UNL     1     129.454 122.240 120.764  1.00  0.00    -0.031 C 
ENDROOT
BRANCH   1   3
ATOM      3  C   UNL     1     128.529 120.248 119.496  1.00  0.00     0.027 C 
BRANCH   3   4
ATOM      4  C   UNL     1     127.861 120.696 118.190  1.00  0.00     0.004 C 
BRANCH   4   5
ATOM      5  C   UNL     1     126.787 119.701 117.719  1.00  0.00     0.000 C 
BRANCH   5   6
ATOM      6  C   UNL     1     125.665 119.511 118.761  1.00  0.00     0.000 C 
BRANCH   6   7
ATOM      7  C   UNL     1     124.389 120.315 118.450  1.00  0.00     0.000 C 
BRANCH   7   8
ATOM      8  C   UNL     1     124.301 121.688 119.141  1.00  0.00     0.006 C 
BRANCH   8   9
ATOM      9  C   UNL     1     124.416 121.631 120.674  1.00  0.00     0.053 C 
BRANCH   9  10
ATOM     10  C   UNL     1     123.194 122.177 121.348  1.00  0.00     0.041 C 
ATOM     11  O   UNL     1     122.080 122.145 120.763  1.00  0.00    -0.550 OA
ATOM     12  O   UNL     1     123.294 122.753 122.608  1.00  0.00    -0.550 OA
ENDBRANCH   9  10
ENDBRANCH   8   9
ENDBRANCH   7   8
ENDBRANCH   6   7
ENDBRANCH   5   6
ENDBRANCH   4   5
ENDBRANCH   3   4
ENDBRANCH   1   3
BRANCH   2  13
ATOM     13  C   UNL     1     130.735 122.334 119.975  1.00  0.00     0.027 C 
BRANCH  13  14
ATOM     14  C   UNL     1     131.959 122.336 120.903  1.00  0.00     0.004 C 
BRANCH  14  15
ATOM     15  C   UNL     1     132.836 121.082 120.740  1.00  0.00     0.000 C 
BRANCH  15  16
ATOM     16  C   UNL     1     132.069 119.746 120.720  1.00  0.00     0.000 C 
BRANCH  16  17
ATOM     17  C   UNL     1     132.412 118.877 119.500  1.00  0.00    -0.000 C 
BRANCH  17  18
ATOM     18  C   UNL     1     132.761 119.706 118.251  1.00  0.00    -0.000 C 
BRANCH  18  19
ATOM     19  C   UNL     1     131.589 119.950 117.282  1.00  0.00    -0.003 C 
ATOM     20  C   UNL     1     130.790 118.683 116.977  1.00  0.00     0.004 C 
ENDBRANCH  18  19
ENDBRANCH  17  18
ENDBRANCH  16  17
ENDBRANCH  15  16
ENDBRANCH  14  15
ENDBRANCH  13  14
ENDBRANCH   2  13
TORSDOF 15
ENDMDL
MODEL 8
REMARK VINA RESULT:    -3.839     11.718     13.448
REMARK INTER + INTRA:          -9.309
REMARK INTER:                  -7.442
REMARK INTRA:                  -1.866
REMARK UNBOUND:                -2.103
REMARK SMILES CCCCCCCCC=CCCCCCCCC(=O)[O-]
REMARK SMILES IDX 10 1 9 2 11 3 12 4 13 5 14 6 15 7 16 8 17 9 18 10 19 11
REMARK SMILES IDX 20 12 8 13 7 14 6 15 5 16 4 17 3 18 2 19 1 20
REMARK H PARENT
REMARK Flexibility Score: inf
ROOT
ATOM      1  C   UNL     1     126.492 127.485 130.812  1.00  0.00    -0.031 C 
ATOM      2  C   UNL     1     125.655 128.415 130.315  1.00  0.00    -0.031 C 
ENDROOT
BRANCH   1   3
ATOM      3  C   UNL     1     126.122 126.048 131.094  1.00  0.00     0.027 C 
BRANCH   3   4
ATOM      4  C   UNL     1     126.781 125.548 132.385  1.00  0.00     0.004 C 
BRANCH   4   5
ATOM      5  C   UNL     1     128.013 126.385 132.769  1.00  0.00     0.000 C 
BRANCH   5   6
ATOM      6  C   UNL     1     128.401 126.211 134.253  1.00  0.00     0.000 C 
BRANCH   6   7
ATOM      7  C   UNL     1     129.898 126.446 134.532  1.00  0.00     0.000 C 
BRANCH   7   8
ATOM      8  C   UNL     1     130.764 125.173 134.546  1.00  0.00     0.006 C 
BRANCH   8   9
ATOM      9  C   UNL     1     132.268 125.434 134.734  1.00  0.00     0.053 C 
BRANCH   9  10
ATOM     10  C   UNL     1     133.024 124.173 135.022  1.00  0.00     0.041 C 
ATOM     11  O   UNL     1     133.944 123.796 134.250  1.00  0.00    -0.550 OA
ATOM     12  O   UNL     1     132.688 123.398 136.125  1.00  0.00    -0.550 OA
ENDBRANCH   9  10
ENDBRANCH   8   9
ENDBRANCH   7   8
ENDBRANCH   6   7
ENDBRANCH   5   6
ENDBRANCH   4   5
ENDBRANCH   3   4
ENDBRANCH   1   3
BRANCH   2  13
ATOM     13  C   UNL     1     124.198 128.183 130.007  1.00  0.00     0.027 C 
BRANCH  13  14
ATOM     14  C   UNL     1     123.903 128.413 128.517  1.00  0.00     0.004 C 
BRANCH  14  15
ATOM     15  C   UNL     1     123.404 127.146 127.802  1.00  0.00     0.000 C 
BRANCH  15  16
ATOM     16  C   UNL     1     124.341 126.600 126.708  1.00  0.00     0.000 C 
BRANCH  16  17
ATOM     17  C   UNL     1     125.396 125.624 127.255  1.00  0.00    -0.000 C 
BRANCH  17  18
ATOM     18  C   UNL     1     126.785 126.268 127.412  1.00  0.00    -0.000 C 
BRANCH  18  19
ATOM     19  C   UNL     1     127.072 127.440 126.456  1.00  0.00    -0.003 C 
ATOM     20  C   UNL     1     127.500 128.715 127.182  1.00  0.00     0.004 C 
ENDBRANCH  18  19
ENDBRANCH  17  18
ENDBRANCH  16  17
ENDBRANCH  15  16
ENDBRANCH  14  15
ENDBRANCH  13  14
ENDBRANCH   2  13
TORSDOF 15
ENDMDL
MODEL 9
REMARK VINA RESULT:    -3.808      9.811     11.649
REMARK INTER + INTRA:          -9.251
REMARK INTER:                  -6.221
REMARK INTRA:                  -3.030
REMARK UNBOUND:                -2.103
REMARK SMILES CCCCCCCCC=CCCCCCCCC(=O)[O-]
REMARK SMILES IDX 10 1 9 2 11 3 12 4 13 5 14 6 15 7 16 8 17 9 18 10 19 11
REMARK SMILES IDX 20 12 8 13 7 14 6 15 5 16 4 17 3 18 2 19 1 20
REMARK H PARENT
REMARK Flexibility Score: inf
ROOT
ATOM      1  C   UNL     1     123.867 128.796 126.890  1.00  0.00    -0.031 C 
ATOM      2  C   UNL     1     123.435 130.066 126.771  1.00  0.00    -0.031 C 
ENDROOT
BRANCH   1   3
ATOM      3  C   UNL     1     123.307 127.615 126.133  1.00  0.00     0.027 C 
BRANCH   3   4
ATOM      4  C   UNL     1     124.167 127.281 124.909  1.00  0.00     0.004 C 
BRANCH   4   5
ATOM      5  C   UNL     1     125.462 126.545 125.293  1.00  0.00     0.000 C 
BRANCH   5   6
ATOM      6  C   UNL     1     125.228 125.475 126.381  1.00  0.00     0.000 C 
BRANCH   6   7
ATOM      7  C   UNL     1     126.389 125.349 127.386  1.00  0.00     0.000 C 
BRANCH   7   8
ATOM      8  C   UNL     1     126.303 126.294 128.599  1.00  0.00     0.006 C 
BRANCH   8   9
ATOM      9  C   UNL     1     125.497 125.730 129.781  1.00  0.00     0.053 C 
BRANCH   9  10
ATOM     10  C   UNL     1     124.364 126.633 130.168  1.00  0.00     0.041 C 
ATOM     11  O   UNL     1     124.487 127.422 131.140  1.00  0.00    -0.550 OA
ATOM     12  O   UNL     1     123.162 126.576 129.474  1.00  0.00    -0.550 OA
ENDBRANCH   9  10
ENDBRANCH   8   9
ENDBRANCH   7   8
ENDBRANCH   6   7
ENDBRANCH   5   6
ENDBRANCH   4   5
ENDBRANCH   3   4
ENDBRANCH   1   3
BRANCH   2  13
ATOM     13  C   UNL     1     122.287 130.504 125.899  1.00  0.00     0.027 C 
BRANCH  13  14
ATOM     14  C   UNL     1     122.785 131.324 124.699  1.00  0.00     0.004 C 
BRANCH  14  15
ATOM     15  C   UNL     1     123.044 130.463 123.451  1.00  0.00     0.000 C 
BRANCH  15  16
ATOM     16  C   UNL     1     124.490 130.495 122.923  1.00  0.00     0.000 C 
BRANCH  16  17
ATOM     17  C   UNL     1     125.487 131.069 123.943  1.00  0.00    -0.000 C 
BRANCH  17  18
ATOM     18  C   UNL     1     126.553 130.049 124.381  1.00  0.00    -0.000 C 
BRANCH  18  19
ATOM     19  C   UNL     1     127.110 130.256 125.801  1.00  0.00    -0.003 C 
ATOM     20  C   UNL     1     127.806 129.014 126.359  1.00  0.00     0.004 C 
ENDBRANCH  18  19
ENDBRANCH  17  18
ENDBRANCH  16  17
ENDBRANCH  15  16
ENDBRANCH  14  15
ENDBRANCH  13  14
ENDBRANCH   2  13
TORSDOF 15
ENDMDL
