MODEL 1
REMARK VINA RESULT:    18.758      0.000      0.000
REMARK INTER + INTRA:          20.952
REMARK INTER:                  20.952
REMARK INTRA:                   0.000
REMARK UNBOUND:                 0.000
REMARK SMILES Oc1cc(O)c2c(ccc3ccc(O)c(O)c32)c1
REMARK SMILES IDX 9 1 8 2 7 3 18 4 2 5 3 6 4 7 6 8 17 9 10 10 11 11 12 12
REMARK SMILES IDX 13 13 15 14 16 15 1 17 5 19 14 21
REMARK H PARENT 16 16 1 18 5 20 14 22
REMARK Flexibility Score: inf
ROOT
ATOM      1  C   UNL     1      -3.121   5.931 -10.192  1.00  0.00     0.009 A 
ATOM      2  C   UNL     1      -2.606   6.321  -8.963  1.00  0.00     0.009 A 
ATOM      3  C   UNL     1      -1.224   6.352  -8.752  1.00  0.00    -0.010 A 
ATOM      4  C   UNL     1      -0.732   6.677  -7.479  1.00  0.00     0.055 A 
ATOM      5  C   UNL     1       0.633   6.587  -7.205  1.00  0.00     0.119 A 
ATOM      6  C   UNL     1       1.504   6.114  -8.183  1.00  0.00     0.093 A 
ATOM      7  C   UNL     1       1.030   5.763  -9.456  1.00  0.00     0.127 A 
ATOM      8  C   UNL     1      -0.328   6.008  -9.805  1.00  0.00     0.035 A 
ATOM      9  C   UNL     1      -0.859   5.830 -11.125  1.00  0.00     0.039 A 
ATOM     10  C   UNL     1      -2.268   5.693 -11.275  1.00  0.00    -0.014 A 
ATOM     11  C   UNL     1      -2.818   5.363 -12.520  1.00  0.00     0.013 A 
ATOM     12  C   UNL     1      -1.999   5.221 -13.633  1.00  0.00     0.051 A 
ATOM     13  C   UNL     1      -0.635   5.497 -13.548  1.00  0.00     0.158 A 
ATOM     14  C   UNL     1      -0.073   5.894 -12.311  1.00  0.00     0.166 A 
ENDROOT
BRANCH  14  15
ATOM     15  O   UNL     1       1.202   6.463 -12.272  1.00  0.00    -0.504 OA
ATOM     16  H   UNL     1       2.026   6.026 -12.662  1.00  0.00     0.293 HD
ENDBRANCH  14  15
BRANCH   5  17
ATOM     17  O   UNL     1       1.131   6.929  -5.950  1.00  0.00    -0.508 OA
ATOM     18  H   UNL     1       2.118   7.100  -5.799  1.00  0.00     0.293 HD
ENDBRANCH   5  17
BRANCH   7  19
ATOM     19  O   UNL     1       1.891   5.086 -10.318  1.00  0.00    -0.507 OA
ATOM     20  H   UNL     1       1.557   4.624 -11.157  1.00  0.00     0.293 HD
ENDBRANCH   7  19
BRANCH  13  21
ATOM     21  O   UNL     1       0.130   5.375 -14.709  1.00  0.00    -0.504 OA
ATOM     22  H   UNL     1       0.267   6.129 -15.369  1.00  0.00     0.293 HD
ENDBRANCH  13  21
TORSDOF 4
ENDMDL
MODEL 2
REMARK VINA RESULT:    19.624      2.021      5.719
REMARK INTER + INTRA:          21.918
REMARK INTER:                  21.918
REMARK INTRA:                   0.000
REMARK UNBOUND:                 0.000
REMARK SMILES Oc1cc(O)c2c(ccc3ccc(O)c(O)c32)c1
REMARK SMILES IDX 9 1 8 2 7 3 18 4 2 5 3 6 4 7 6 8 17 9 10 10 11 11 12 12
REMARK SMILES IDX 13 13 15 14 16 15 1 17 5 19 14 21
REMARK H PARENT 16 16 1 18 5 20 14 22
REMARK Flexibility Score: inf
ROOT
ATOM      1  C   UNL     1       1.807   5.563  -9.153  1.00  0.00     0.009 A 
ATOM      2  C   UNL     1       1.546   5.277 -10.487  1.00  0.00     0.009 A 
ATOM      3  C   UNL     1       0.262   5.453 -11.010  1.00  0.00    -0.010 A 
ATOM      4  C   UNL     1       0.009   5.085 -12.341  1.00  0.00     0.055 A 
ATOM      5  C   UNL     1      -1.290   5.125 -12.849  1.00  0.00     0.119 A 
ATOM      6  C   UNL     1      -2.348   5.475 -12.014  1.00  0.00     0.093 A 
ATOM      7  C   UNL     1      -2.120   5.826 -10.675  1.00  0.00     0.127 A 
ATOM      8  C   UNL     1      -0.788   5.954 -10.188  1.00  0.00     0.035 A 
ATOM      9  C   UNL     1      -0.457   6.458  -8.887  1.00  0.00     0.039 A 
ATOM     10  C   UNL     1       0.826   6.157  -8.350  1.00  0.00    -0.014 A 
ATOM     11  C   UNL     1       1.136   6.494  -7.027  1.00  0.00     0.013 A 
ATOM     12  C   UNL     1       0.214   7.175  -6.242  1.00  0.00     0.051 A 
ATOM     13  C   UNL     1      -0.991   7.614  -6.788  1.00  0.00     0.158 A 
ATOM     14  C   UNL     1      -1.293   7.338  -8.143  1.00  0.00     0.166 A 
ENDROOT
BRANCH  14  15
ATOM     15  O   UNL     1      -2.331   8.021  -8.781  1.00  0.00    -0.504 OA
ATOM     16  H   UNL     1      -2.191   8.695  -9.520  1.00  0.00     0.293 HD
ENDBRANCH  14  15
BRANCH   5  17
ATOM     17  O   UNL     1      -1.546   4.782 -14.175  1.00  0.00    -0.508 OA
ATOM     18  H   UNL     1      -1.939   3.882 -14.423  1.00  0.00     0.293 HD
ENDBRANCH   5  17
BRANCH   7  19
ATOM     19  O   UNL     1      -3.219   5.945  -9.826  1.00  0.00    -0.507 OA
ATOM     20  H   UNL     1      -3.320   5.371  -8.996  1.00  0.00     0.293 HD
ENDBRANCH   7  19
BRANCH  13  21
ATOM     21  O   UNL     1      -1.861   8.327  -5.960  1.00  0.00    -0.504 OA
ATOM     22  H   UNL     1      -1.848   8.265  -4.951  1.00  0.00     0.293 HD
ENDBRANCH  13  21
TORSDOF 4
ENDMDL
MODEL 3
REMARK VINA RESULT:    19.858      2.104      3.027
REMARK INTER + INTRA:          22.180
REMARK INTER:                  22.180
REMARK INTRA:                   0.000
REMARK UNBOUND:                 0.000
REMARK SMILES Oc1cc(O)c2c(ccc3ccc(O)c(O)c32)c1
REMARK SMILES IDX 9 1 8 2 7 3 18 4 2 5 3 6 4 7 6 8 17 9 10 10 11 11 12 12
REMARK SMILES IDX 13 13 15 14 16 15 1 17 5 19 14 21
REMARK H PARENT 16 16 1 18 5 20 14 22
REMARK Flexibility Score: inf
ROOT
ATOM      1  C   UNL     1       1.125   6.107 -12.177  1.00  0.00     0.009 A 
ATOM      2  C   UNL     1       1.601   6.260 -10.881  1.00  0.00     0.009 A 
ATOM      3  C   UNL     1       0.721   6.233  -9.796  1.00  0.00    -0.010 A 
ATOM      4  C   UNL     1       1.218   6.465  -8.504  1.00  0.00     0.055 A 
ATOM      5  C   UNL     1       0.346   6.576  -7.421  1.00  0.00     0.119 A 
ATOM      6  C   UNL     1      -1.029   6.514  -7.633  1.00  0.00     0.093 A 
ATOM      7  C   UNL     1      -1.548   6.304  -8.918  1.00  0.00     0.127 A 
ATOM      8  C   UNL     1      -0.673   6.021 -10.005  1.00  0.00     0.035 A 
ATOM      9  C   UNL     1      -1.118   5.639 -11.313  1.00  0.00     0.039 A 
ATOM     10  C   UNL     1      -0.219   5.790 -12.405  1.00  0.00    -0.014 A 
ATOM     11  C   UNL     1      -0.658   5.578 -13.718  1.00  0.00     0.013 A 
ATOM     12  C   UNL     1      -1.961   5.164 -13.963  1.00  0.00     0.051 A 
ATOM     13  C   UNL     1      -2.819   4.864 -12.906  1.00  0.00     0.158 A 
ATOM     14  C   UNL     1      -2.369   5.012 -11.572  1.00  0.00     0.166 A 
ENDROOT
BRANCH  14  15
ATOM     15  O   UNL     1      -3.090   4.434 -10.523  1.00  0.00    -0.504 OA
ATOM     16  H   UNL     1      -3.306   3.449 -10.464  1.00  0.00     0.293 HD
ENDBRANCH  14  15
BRANCH   5  17
ATOM     17  O   UNL     1       0.834   6.785  -6.133  1.00  0.00    -0.508 OA
ATOM     18  H   UNL     1       1.129   7.702  -5.820  1.00  0.00     0.293 HD
ENDBRANCH   5  17
BRANCH   7  19
ATOM     19  O   UNL     1      -2.918   6.477  -9.115  1.00  0.00    -0.507 OA
ATOM     20  H   UNL     1      -3.291   6.866  -9.974  1.00  0.00     0.293 HD
ENDBRANCH   7  19
BRANCH  13  21
ATOM     21  O   UNL     1      -4.104   4.415 -13.215  1.00  0.00    -0.504 OA
ATOM     22  H   UNL     1      -4.471   3.522 -12.912  1.00  0.00     0.293 HD
ENDBRANCH  13  21
TORSDOF 4
ENDMDL
MODEL 4
REMARK VINA RESULT:    20.799      0.928      5.010
REMARK INTER + INTRA:          23.231
REMARK INTER:                  23.231
REMARK INTRA:                   0.000
REMARK UNBOUND:                 0.000
REMARK SMILES Oc1cc(O)c2c(ccc3ccc(O)c(O)c32)c1
REMARK SMILES IDX 9 1 8 2 7 3 18 4 2 5 3 6 4 7 6 8 17 9 10 10 11 11 12 12
REMARK SMILES IDX 13 13 15 14 16 15 1 17 5 19 14 21
REMARK H PARENT 16 16 1 18 5 20 14 22
REMARK Flexibility Score: inf
ROOT
ATOM      1  C   UNL     1      -3.013   5.709 -10.526  1.00  0.00     0.009 A 
ATOM      2  C   UNL     1      -2.925   5.371 -11.870  1.00  0.00     0.009 A 
ATOM      3  C   UNL     1      -1.702   5.451 -12.542  1.00  0.00    -0.010 A 
ATOM      4  C   UNL     1      -1.657   5.175 -13.917  1.00  0.00     0.055 A 
ATOM      5  C   UNL     1      -0.479   5.376 -14.639  1.00  0.00     0.119 A 
ATOM      6  C   UNL     1       0.639   5.908 -14.002  1.00  0.00     0.093 A 
ATOM      7  C   UNL     1       0.608   6.211 -12.633  1.00  0.00     0.127 A 
ATOM      8  C   UNL     1      -0.525   5.856 -11.848  1.00  0.00     0.035 A 
ATOM      9  C   UNL     1      -0.581   5.981 -10.421  1.00  0.00     0.039 A 
ATOM     10  C   UNL     1      -1.858   6.006  -9.793  1.00  0.00    -0.014 A 
ATOM     11  C   UNL     1      -1.968   6.281  -8.424  1.00  0.00     0.013 A 
ATOM     12  C   UNL     1      -0.828   6.478  -7.655  1.00  0.00     0.051 A 
ATOM     13  C   UNL     1       0.439   6.312  -8.212  1.00  0.00     0.158 A 
ATOM     14  C   UNL     1       0.567   5.970  -9.579  1.00  0.00     0.166 A 
ENDROOT
BRANCH  14  15
ATOM     15  O   UNL     1       1.789   5.504 -10.072  1.00  0.00    -0.504 OA
ATOM     16  H   UNL     1       2.563   6.105 -10.319  1.00  0.00     0.293 HD
ENDBRANCH  14  15
BRANCH   5  17
ATOM     17  O   UNL     1      -0.421   5.084 -16.000  1.00  0.00    -0.508 OA
ATOM     18  H   UNL     1      -1.229   4.735 -16.502  1.00  0.00     0.293 HD
ENDBRANCH   5  17
BRANCH   7  19
ATOM     19  O   UNL     1       1.663   6.947 -12.095  1.00  0.00    -0.507 OA
ATOM     20  H   UNL     1       1.922   7.857 -12.458  1.00  0.00     0.293 HD
ENDBRANCH   7  19
BRANCH  13  21
ATOM     21  O   UNL     1       1.546   6.485  -7.379  1.00  0.00    -0.504 OA
ATOM     22  H   UNL     1       2.500   6.336  -7.680  1.00  0.00     0.293 HD
ENDBRANCH  13  21
TORSDOF 4
ENDMDL
