MODEL 1
REMARK VINA RESULT:    -3.528      0.000      0.000
REMARK INTER + INTRA:          -6.371
REMARK INTER:                  -5.385
REMARK INTRA:                  -0.986
REMARK UNBOUND:                -0.986
REMARK SMILES CCCCCCCCCCC(=O)[O-]
REMARK SMILES IDX 7 1 8 2 9 3 10 4 11 5 12 6 13 7 6 8 5 9 4 10 3 11 2 12 1 13
REMARK H PARENT
REMARK Flexibility Score: inf
ROOT
ATOM      1  C   UNL     1     154.185 132.552 167.053  1.00  0.00     0.000 C 
ENDROOT
BRANCH   1   2
ATOM      2  C   UNL     1     154.827 132.387 165.664  1.00  0.00     0.000 C 
BRANCH   2   3
ATOM      3  C   UNL     1     153.960 132.867 164.483  1.00  0.00     0.006 C 
BRANCH   3   4
ATOM      4  C   UNL     1     152.805 131.923 164.113  1.00  0.00     0.053 C 
BRANCH   4   5
ATOM      5  C   UNL     1     151.475 132.607 164.189  1.00  0.00     0.041 C 
ATOM      6  O   UNL     1     151.359 133.701 164.802  1.00  0.00    -0.550 OA
ATOM      7  O   UNL     1     150.370 132.055 163.553  1.00  0.00    -0.550 OA
ENDBRANCH   4   5
ENDBRANCH   3   4
ENDBRANCH   2   3
ENDBRANCH   1   2
BRANCH   1   8
ATOM      8  C   UNL     1     155.219 132.673 168.182  1.00  0.00     0.000 C 
BRANCH   8   9
ATOM      9  C   UNL     1     156.647 132.571 167.632  1.00  0.00    -0.000 C 
BRANCH   9  10
ATOM     10  C   UNL     1     157.444 133.846 167.930  1.00  0.00    -0.000 C 
BRANCH  10  11
ATOM     11  C   UNL     1     156.509 135.019 168.246  1.00  0.00    -0.000 C 
BRANCH  11  12
ATOM     12  C   UNL     1     156.464 136.016 167.082  1.00  0.00    -0.003 C 
ATOM     13  C   UNL     1     155.038 136.209 166.575  1.00  0.00     0.004 C 
ENDBRANCH  11  12
ENDBRANCH  10  11
ENDBRANCH   9  10
ENDBRANCH   8   9
ENDBRANCH   1   8
TORSDOF 9
ENDMDL
MODEL 2
REMARK VINA RESULT:    -3.520      3.624      6.058
REMARK INTER + INTRA:          -6.358
REMARK INTER:                  -5.875
REMARK INTRA:                  -0.483
REMARK UNBOUND:                -0.986
REMARK SMILES CCCCCCCCCCC(=O)[O-]
REMARK SMILES IDX 7 1 8 2 9 3 10 4 11 5 12 6 13 7 6 8 5 9 4 10 3 11 2 12 1 13
REMARK H PARENT
REMARK Flexibility Score: inf
ROOT
ATOM      1  C   UNL     1     149.073 133.034 164.868  1.00  0.00     0.000 C 
ENDROOT
BRANCH   1   2
ATOM      2  C   UNL     1     148.318 132.496 163.639  1.00  0.00     0.000 C 
BRANCH   2   3
ATOM      3  C   UNL     1     147.552 133.559 162.826  1.00  0.00     0.006 C 
BRANCH   3   4
ATOM      4  C   UNL     1     147.550 133.324 161.308  1.00  0.00     0.053 C 
BRANCH   4   5
ATOM      5  C   UNL     1     146.181 133.001 160.792  1.00  0.00     0.041 C 
ATOM      6  O   UNL     1     145.826 133.393 159.649  1.00  0.00    -0.550 OA
ATOM      7  O   UNL     1     145.309 132.240 161.559  1.00  0.00    -0.550 OA
ENDBRANCH   4   5
ENDBRANCH   3   4
ENDBRANCH   2   3
ENDBRANCH   1   2
BRANCH   1   8
ATOM      8  C   UNL     1     150.517 132.521 164.957  1.00  0.00     0.000 C 
BRANCH   8   9
ATOM      9  C   UNL     1     151.122 132.336 163.560  1.00  0.00    -0.000 C 
BRANCH   9  10
ATOM     10  C   UNL     1     152.581 131.875 163.648  1.00  0.00    -0.000 C 
BRANCH  10  11
ATOM     11  C   UNL     1     153.101 131.964 165.088  1.00  0.00    -0.000 C 
BRANCH  11  12
ATOM     12  C   UNL     1     154.367 132.826 165.164  1.00  0.00    -0.003 C 
ATOM     13  C   UNL     1     155.398 132.209 166.104  1.00  0.00     0.004 C 
ENDBRANCH  11  12
ENDBRANCH  10  11
ENDBRANCH   9  10
ENDBRANCH   8   9
ENDBRANCH   1   8
TORSDOF 9
ENDMDL
MODEL 3
REMARK VINA RESULT:    -3.460      1.160      2.246
REMARK INTER + INTRA:          -6.266
REMARK INTER:                  -5.455
REMARK INTRA:                  -0.810
REMARK UNBOUND:                -0.986
REMARK SMILES CCCCCCCCCCC(=O)[O-]
REMARK SMILES IDX 7 1 8 2 9 3 10 4 11 5 12 6 13 7 6 8 5 9 4 10 3 11 2 12 1 13
REMARK H PARENT
REMARK Flexibility Score: inf
ROOT
ATOM      1  C   UNL     1     153.588 133.124 166.622  1.00  0.00     0.000 C 
ENDROOT
BRANCH   1   2
ATOM      2  C   UNL     1     153.456 131.926 165.664  1.00  0.00     0.000 C 
BRANCH   2   3
ATOM      3  C   UNL     1     153.131 132.291 164.202  1.00  0.00     0.006 C 
BRANCH   3   4
ATOM      4  C   UNL     1     151.727 131.875 163.737  1.00  0.00     0.053 C 
BRANCH   4   5
ATOM      5  C   UNL     1     150.814 133.053 163.585  1.00  0.00     0.041 C 
ATOM      6  O   UNL     1     151.011 134.098 164.260  1.00  0.00    -0.550 OA
ATOM      7  O   UNL     1     149.766 133.010 162.674  1.00  0.00    -0.550 OA
ENDBRANCH   4   5
ENDBRANCH   3   4
ENDBRANCH   2   3
ENDBRANCH   1   2
BRANCH   1   8
ATOM      8  C   UNL     1     154.129 134.385 165.933  1.00  0.00     0.000 C 
BRANCH   8   9
ATOM      9  C   UNL     1     155.140 135.110 166.829  1.00  0.00    -0.000 C 
BRANCH   9  10
ATOM     10  C   UNL     1     155.541 134.238 168.024  1.00  0.00    -0.000 C 
BRANCH  10  11
ATOM     11  C   UNL     1     157.030 134.404 168.352  1.00  0.00    -0.000 C 
BRANCH  11  12
ATOM     12  C   UNL     1     157.748 133.049 168.348  1.00  0.00    -0.003 C 
ATOM     13  C   UNL     1     157.406 132.247 167.096  1.00  0.00     0.004 C 
ENDBRANCH  11  12
ENDBRANCH  10  11
ENDBRANCH   9  10
ENDBRANCH   8   9
ENDBRANCH   1   8
TORSDOF 9
ENDMDL
MODEL 4
REMARK VINA RESULT:    -3.423      2.303      3.466
REMARK INTER + INTRA:          -6.209
REMARK INTER:                  -5.974
REMARK INTRA:                  -0.236
REMARK UNBOUND:                -0.986
REMARK SMILES CCCCCCCCCCC(=O)[O-]
REMARK SMILES IDX 7 1 8 2 9 3 10 4 11 5 12 6 13 7 6 8 5 9 4 10 3 11 2 12 1 13
REMARK H PARENT
REMARK Flexibility Score: inf
ROOT
ATOM      1  C   UNL     1     152.501 132.809 165.058  1.00  0.00     0.000 C 
ENDROOT
BRANCH   1   2
ATOM      2  C   UNL     1     151.806 131.988 163.957  1.00  0.00     0.000 C 
BRANCH   2   3
ATOM      3  C   UNL     1     150.267 132.091 163.938  1.00  0.00     0.006 C 
BRANCH   3   4
ATOM      4  C   UNL     1     149.707 133.102 162.926  1.00  0.00     0.053 C 
BRANCH   4   5
ATOM      5  C   UNL     1     148.247 132.891 162.671  1.00  0.00     0.041 C 
ATOM      6  O   UNL     1     147.542 132.265 163.506  1.00  0.00    -0.550 OA
ATOM      7  O   UNL     1     147.656 133.413 161.527  1.00  0.00    -0.550 OA
ENDBRANCH   4   5
ENDBRANCH   3   4
ENDBRANCH   2   3
ENDBRANCH   1   2
BRANCH   1   8
ATOM      8  C   UNL     1     153.228 131.935 166.090  1.00  0.00     0.000 C 
BRANCH   8   9
ATOM      9  C   UNL     1     154.732 131.875 165.798  1.00  0.00    -0.000 C 
BRANCH   9  10
ATOM     10  C   UNL     1     155.548 132.319 167.017  1.00  0.00    -0.000 C 
BRANCH  10  11
ATOM     11  C   UNL     1     157.053 132.232 166.733  1.00  0.00    -0.000 C 
BRANCH  11  12
ATOM     12  C   UNL     1     157.863 132.884 167.859  1.00  0.00    -0.003 C 
ATOM     13  C   UNL     1     157.002 133.112 169.098  1.00  0.00     0.004 C 
ENDBRANCH  11  12
ENDBRANCH  10  11
ENDBRANCH   9  10
ENDBRANCH   8   9
ENDBRANCH   1   8
TORSDOF 9
ENDMDL
MODEL 5
REMARK VINA RESULT:    -3.402      1.821      2.850
REMARK INTER + INTRA:          -6.178
REMARK INTER:                  -4.924
REMARK INTRA:                  -1.253
REMARK UNBOUND:                -0.986
REMARK SMILES CCCCCCCCCCC(=O)[O-]
REMARK SMILES IDX 7 1 8 2 9 3 10 4 11 5 12 6 13 7 6 8 5 9 4 10 3 11 2 12 1 13
REMARK H PARENT
REMARK Flexibility Score: inf
ROOT
ATOM      1  C   UNL     1     157.999 133.220 168.033  1.00  0.00     0.000 C 
ENDROOT
BRANCH   1   2
ATOM      2  C   UNL     1     157.700 131.994 167.151  1.00  0.00     0.000 C 
BRANCH   2   3
ATOM      3  C   UNL     1     156.523 132.167 166.169  1.00  0.00     0.006 C 
BRANCH   3   4
ATOM      4  C   UNL     1     155.137 132.191 166.831  1.00  0.00     0.053 C 
BRANCH   4   5
ATOM      5  C   UNL     1     154.048 132.475 165.842  1.00  0.00     0.041 C 
ATOM      6  O   UNL     1     154.266 133.232 164.860  1.00  0.00    -0.550 OA
ATOM      7  O   UNL     1     152.803 131.876 165.987  1.00  0.00    -0.550 OA
ENDBRANCH   4   5
ENDBRANCH   3   4
ENDBRANCH   2   3
ENDBRANCH   1   2
BRANCH   1   8
ATOM      8  C   UNL     1     157.712 132.972 169.521  1.00  0.00     0.000 C 
BRANCH   8   9
ATOM      9  C   UNL     1     156.515 133.804 169.996  1.00  0.00    -0.000 C 
BRANCH   9  10
ATOM     10  C   UNL     1     156.482 135.170 169.302  1.00  0.00    -0.000 C 
BRANCH  10  11
ATOM     11  C   UNL     1     155.108 135.437 168.677  1.00  0.00    -0.000 C 
BRANCH  11  12
ATOM     12  C   UNL     1     155.245 135.880 167.215  1.00  0.00    -0.003 C 
ATOM     13  C   UNL     1     156.597 136.540 166.963  1.00  0.00     0.004 C 
ENDBRANCH  11  12
ENDBRANCH  10  11
ENDBRANCH   9  10
ENDBRANCH   8   9
ENDBRANCH   1   8
TORSDOF 9
ENDMDL
MODEL 6
REMARK VINA RESULT:    -3.344      2.314      4.169
REMARK INTER + INTRA:          -6.089
REMARK INTER:                  -5.785
REMARK INTRA:                  -0.304
REMARK UNBOUND:                -0.986
REMARK SMILES CCCCCCCCCCC(=O)[O-]
REMARK SMILES IDX 7 1 8 2 9 3 10 4 11 5 12 6 13 7 6 8 5 9 4 10 3 11 2 12 1 13
REMARK H PARENT
REMARK Flexibility Score: inf
ROOT
ATOM      1  C   UNL     1     151.843 132.992 164.406  1.00  0.00     0.000 C 
ENDROOT
BRANCH   1   2
ATOM      2  C   UNL     1     150.687 132.254 163.707  1.00  0.00     0.000 C 
BRANCH   2   3
ATOM      3  C   UNL     1     149.281 132.584 164.248  1.00  0.00     0.006 C 
BRANCH   3   4
ATOM      4  C   UNL     1     148.136 132.303 163.263  1.00  0.00     0.053 C 
BRANCH   4   5
ATOM      5  C   UNL     1     147.851 133.481 162.382  1.00  0.00     0.041 C 
ATOM      6  O   UNL     1     147.699 133.323 161.142  1.00  0.00    -0.550 OA
ATOM      7  O   UNL     1     147.721 134.749 162.935  1.00  0.00    -0.550 OA
ENDBRANCH   4   5
ENDBRANCH   3   4
ENDBRANCH   2   3
ENDBRANCH   1   2
BRANCH   1   8
ATOM      8  C   UNL     1     153.206 132.319 164.182  1.00  0.00     0.000 C 
BRANCH   8   9
ATOM      9  C   UNL     1     154.319 133.075 164.917  1.00  0.00    -0.000 C 
BRANCH   9  10
ATOM     10  C   UNL     1     155.064 132.151 165.887  1.00  0.00    -0.000 C 
BRANCH  10  11
ATOM     11  C   UNL     1     154.960 132.665 167.328  1.00  0.00    -0.000 C 
BRANCH  11  12
ATOM     12  C   UNL     1     156.321 132.610 168.032  1.00  0.00    -0.003 C 
ATOM     13  C   UNL     1     157.435 132.254 167.051  1.00  0.00     0.004 C 
ENDBRANCH  11  12
ENDBRANCH  10  11
ENDBRANCH   9  10
ENDBRANCH   8   9
ENDBRANCH   1   8
TORSDOF 9
ENDMDL
MODEL 7
REMARK VINA RESULT:    -3.324      4.106      5.817
REMARK INTER + INTRA:          -6.059
REMARK INTER:                  -5.048
REMARK INTRA:                  -1.011
REMARK UNBOUND:                -0.986
REMARK SMILES CCCCCCCCCCC(=O)[O-]
REMARK SMILES IDX 7 1 8 2 9 3 10 4 11 5 12 6 13 7 6 8 5 9 4 10 3 11 2 12 1 13
REMARK H PARENT
REMARK Flexibility Score: inf
ROOT
ATOM      1  C   UNL     1     156.942 134.158 168.823  1.00  0.00     0.000 C 
ENDROOT
BRANCH   1   2
ATOM      2  C   UNL     1     156.493 135.613 168.595  1.00  0.00     0.000 C 
BRANCH   2   3
ATOM      3  C   UNL     1     156.706 136.145 167.163  1.00  0.00     0.006 C 
BRANCH   3   4
ATOM      4  C   UNL     1     156.203 137.578 166.933  1.00  0.00     0.053 C 
BRANCH   4   5
ATOM      5  C   UNL     1     157.103 138.596 167.563  1.00  0.00     0.041 C 
ATOM      6  O   UNL     1     158.086 139.055 166.923  1.00  0.00    -0.550 OA
ATOM      7  O   UNL     1     156.838 139.064 168.843  1.00  0.00    -0.550 OA
ENDBRANCH   4   5
ENDBRANCH   3   4
ENDBRANCH   2   3
ENDBRANCH   1   2
BRANCH   1   8
ATOM      8  C   UNL     1     157.732 133.582 167.640  1.00  0.00     0.000 C 
BRANCH   8   9
ATOM      9  C   UNL     1     157.069 132.308 167.104  1.00  0.00    -0.000 C 
BRANCH   9  10
ATOM     10  C   UNL     1     155.543 132.387 167.229  1.00  0.00    -0.000 C 
BRANCH  10  11
ATOM     11  C   UNL     1     154.864 132.079 165.888  1.00  0.00    -0.000 C 
BRANCH  11  12
ATOM     12  C   UNL     1     154.476 133.372 165.159  1.00  0.00    -0.003 C 
ATOM     13  C   UNL     1     153.654 134.288 166.061  1.00  0.00     0.004 C 
ENDBRANCH  11  12
ENDBRANCH  10  11
ENDBRANCH   9  10
ENDBRANCH   8   9
ENDBRANCH   1   8
TORSDOF 9
ENDMDL
MODEL 8
REMARK VINA RESULT:    -3.234      2.841      5.514
REMARK INTER + INTRA:          -5.921
REMARK INTER:                  -4.983
REMARK INTRA:                  -0.939
REMARK UNBOUND:                -0.986
REMARK SMILES CCCCCCCCCCC(=O)[O-]
REMARK SMILES IDX 7 1 8 2 9 3 10 4 11 5 12 6 13 7 6 8 5 9 4 10 3 11 2 12 1 13
REMARK H PARENT
REMARK Flexibility Score: inf
ROOT
ATOM      1  C   UNL     1     153.666 132.608 164.295  1.00  0.00     0.000 C 
ENDROOT
BRANCH   1   2
ATOM      2  C   UNL     1     154.016 131.875 165.602  1.00  0.00     0.000 C 
BRANCH   2   3
ATOM      3  C   UNL     1     155.402 132.214 166.190  1.00  0.00     0.006 C 
BRANCH   3   4
ATOM      4  C   UNL     1     155.383 132.640 167.665  1.00  0.00     0.053 C 
BRANCH   4   5
ATOM      5  C   UNL     1     156.085 133.946 167.880  1.00  0.00     0.041 C 
ATOM      6  O   UNL     1     155.420 135.003 168.043  1.00  0.00    -0.550 OA
ATOM      7  O   UNL     1     157.472 133.991 167.936  1.00  0.00    -0.550 OA
ENDBRANCH   4   5
ENDBRANCH   3   4
ENDBRANCH   2   3
ENDBRANCH   1   2
BRANCH   1   8
ATOM      8  C   UNL     1     152.598 131.879 163.466  1.00  0.00     0.000 C 
BRANCH   8   9
ATOM      9  C   UNL     1     151.238 131.909 164.173  1.00  0.00    -0.000 C 
BRANCH   9  10
ATOM     10  C   UNL     1     150.790 133.350 164.445  1.00  0.00    -0.000 C 
BRANCH  10  11
ATOM     11  C   UNL     1     150.318 133.516 165.895  1.00  0.00    -0.000 C 
BRANCH  11  12
ATOM     12  C   UNL     1     151.256 134.445 166.675  1.00  0.00    -0.003 C 
ATOM     13  C   UNL     1     151.746 133.783 167.959  1.00  0.00     0.004 C 
ENDBRANCH  11  12
ENDBRANCH  10  11
ENDBRANCH   9  10
ENDBRANCH   8   9
ENDBRANCH   1   8
TORSDOF 9
ENDMDL
