MODEL 1
REMARK VINA RESULT:    -3.509      0.000      0.000
REMARK INTER + INTRA:          -4.435
REMARK INTER:                  -4.227
REMARK INTRA:                  -0.208
REMARK UNBOUND:                -0.208
REMARK SMILES C=CCc1ccc(O)c(OC)c1
REMARK SMILES IDX 9 1 7 2 6 3 5 4 4 5 12 6 10 7 11 8 8 9 3 11 2 12 1 13
REMARK H PARENT 8 10
REMARK Flexibility Score: inf
ROOT
ATOM      1  C   UNL     1     147.631 143.877 144.128  1.00  0.00     0.160 A 
ATOM      2  C   UNL     1     146.457 144.597 143.864  1.00  0.00     0.157 A 
ATOM      3  C   UNL     1     145.207 144.042 144.168  1.00  0.00     0.050 A 
ATOM      4  C   UNL     1     145.121 142.768 144.732  1.00  0.00     0.008 A 
ATOM      5  C   UNL     1     146.285 142.030 144.993  1.00  0.00    -0.040 A 
ATOM      6  C   UNL     1     147.538 142.592 144.697  1.00  0.00     0.054 A 
ENDROOT
BRANCH   1   7
ATOM      7  O   UNL     1     148.864 144.469 143.815  1.00  0.00    -0.493 OA
ATOM      8  C   UNL     1     149.867 144.796 144.770  1.00  0.00     0.278 C 
ENDBRANCH   1   7
BRANCH   2   9
ATOM      9  O   UNL     1     146.541 145.870 143.300  1.00  0.00    -0.504 OA
ATOM     10  H   UNL     1     146.280 146.040 142.336  1.00  0.00     0.293 HD
ENDBRANCH   2   9
BRANCH   5  11
ATOM     11  C   UNL     1     146.198 140.668 145.628  1.00  0.00     0.062 C 
BRANCH  11  12
ATOM     12  C   UNL     1     147.411 139.846 145.297  1.00  0.00    -0.030 C 
ATOM     13  C   UNL     1     147.319 138.548 144.994  1.00  0.00     0.004 C 
ENDBRANCH  11  12
ENDBRANCH   5  11
TORSDOF 4
ENDMDL
MODEL 2
REMARK VINA RESULT:    -3.473     12.273     14.119
REMARK INTER + INTRA:          -4.391
REMARK INTER:                  -4.171
REMARK INTRA:                  -0.220
REMARK UNBOUND:                -0.208
REMARK SMILES C=CCc1ccc(O)c(OC)c1
REMARK SMILES IDX 9 1 7 2 6 3 5 4 4 5 12 6 10 7 11 8 8 9 3 11 2 12 1 13
REMARK H PARENT 8 10
REMARK Flexibility Score: inf
ROOT
ATOM      1  C   UNL     1     133.823 137.799 144.125  1.00  0.00     0.160 A 
ATOM      2  C   UNL     1     134.937 137.008 143.810  1.00  0.00     0.157 A 
ATOM      3  C   UNL     1     136.231 137.486 144.053  1.00  0.00     0.050 A 
ATOM      4  C   UNL     1     136.421 138.753 144.608  1.00  0.00     0.008 A 
ATOM      5  C   UNL     1     135.318 139.561 144.920  1.00  0.00    -0.040 A 
ATOM      6  C   UNL     1     134.020 139.077 144.685  1.00  0.00     0.054 A 
ENDROOT
BRANCH   1   7
ATOM      7  O   UNL     1     132.542 137.283 143.872  1.00  0.00    -0.493 OA
ATOM      8  C   UNL     1     131.713 136.668 144.851  1.00  0.00     0.278 C 
ENDBRANCH   1   7
BRANCH   2   9
ATOM      9  O   UNL     1     134.749 135.742 143.256  1.00  0.00    -0.504 OA
ATOM     10  H   UNL     1     134.298 135.619 142.357  1.00  0.00     0.293 HD
ENDBRANCH   2   9
BRANCH   5  11
ATOM     11  C   UNL     1     135.519 140.915 145.545  1.00  0.00     0.062 C 
BRANCH  11  12
ATOM     12  C   UNL     1     134.250 141.720 145.493  1.00  0.00    -0.030 C 
ATOM     13  C   UNL     1     134.185 142.887 144.845  1.00  0.00     0.004 C 
ENDBRANCH  11  12
ENDBRANCH   5  11
TORSDOF 4
ENDMDL
MODEL 3
REMARK VINA RESULT:    -3.473      7.895     10.044
REMARK INTER + INTRA:          -4.391
REMARK INTER:                  -4.186
REMARK INTRA:                  -0.205
REMARK UNBOUND:                -0.208
REMARK SMILES C=CCc1ccc(O)c(OC)c1
REMARK SMILES IDX 9 1 7 2 6 3 5 4 4 5 12 6 10 7 11 8 8 9 3 11 2 12 1 13
REMARK H PARENT 8 10
REMARK Flexibility Score: inf
ROOT
ATOM      1  C   UNL     1     143.878 133.797 144.150  1.00  0.00     0.160 A 
ATOM      2  C   UNL     1     144.623 134.947 143.852  1.00  0.00     0.157 A 
ATOM      3  C   UNL     1     144.080 136.217 144.085  1.00  0.00     0.050 A 
ATOM      4  C   UNL     1     142.794 136.347 144.612  1.00  0.00     0.008 A 
ATOM      5  C   UNL     1     142.031 135.208 144.906  1.00  0.00    -0.040 A 
ATOM      6  C   UNL     1     142.580 133.934 144.682  1.00  0.00     0.054 A 
ENDROOT
BRANCH   1   7
ATOM      7  O   UNL     1     144.458 132.542 143.908  1.00  0.00    -0.493 OA
ATOM      8  C   UNL     1     145.011 131.702 144.915  1.00  0.00     0.278 C 
ENDBRANCH   1   7
BRANCH   2   9
ATOM      9  O   UNL     1     145.907 134.818 143.325  1.00  0.00    -0.504 OA
ATOM     10  H   UNL     1     146.671 135.405 143.641  1.00  0.00     0.293 HD
ENDBRANCH   2   9
BRANCH   5  11
ATOM     11  C   UNL     1     140.656 135.344 145.502  1.00  0.00     0.062 C 
BRANCH  11  12
ATOM     12  C   UNL     1     139.785 134.184 145.106  1.00  0.00    -0.030 C 
ATOM     13  C   UNL     1     138.459 134.307 144.995  1.00  0.00     0.004 C 
ENDBRANCH  11  12
ENDBRANCH   5  11
TORSDOF 4
ENDMDL
MODEL 4
REMARK VINA RESULT:    -3.462      7.899     10.091
REMARK INTER + INTRA:          -4.378
REMARK INTER:                  -4.173
REMARK INTRA:                  -0.205
REMARK UNBOUND:                -0.208
REMARK SMILES C=CCc1ccc(O)c(OC)c1
REMARK SMILES IDX 9 1 7 2 6 3 5 4 4 5 12 6 10 7 11 8 8 9 3 11 2 12 1 13
REMARK H PARENT 8 10
REMARK Flexibility Score: inf
ROOT
ATOM      1  C   UNL     1     137.646 147.936 144.200  1.00  0.00     0.160 A 
ATOM      2  C   UNL     1     136.894 146.810 143.834  1.00  0.00     0.157 A 
ATOM      3  C   UNL     1     137.423 145.525 144.004  1.00  0.00     0.050 A 
ATOM      4  C   UNL     1     138.703 145.354 144.535  1.00  0.00     0.008 A 
ATOM      5  C   UNL     1     139.472 146.469 144.897  1.00  0.00    -0.040 A 
ATOM      6  C   UNL     1     138.937 147.758 144.736  1.00  0.00     0.054 A 
ENDROOT
BRANCH   1   7
ATOM      7  O   UNL     1     137.080 149.207 144.020  1.00  0.00    -0.493 OA
ATOM      8  C   UNL     1     136.534 150.002 145.067  1.00  0.00     0.278 C 
ENDBRANCH   1   7
BRANCH   2   9
ATOM      9  O   UNL     1     135.616 146.979 143.303  1.00  0.00    -0.504 OA
ATOM     10  H   UNL     1     135.028 147.758 143.575  1.00  0.00     0.293 HD
ENDBRANCH   2   9
BRANCH   5  11
ATOM     11  C   UNL     1     140.840 146.287 145.498  1.00  0.00     0.062 C 
BRANCH  11  12
ATOM     12  C   UNL     1     141.735 147.443 145.147  1.00  0.00    -0.030 C 
ATOM     13  C   UNL     1     143.060 147.299 145.044  1.00  0.00     0.004 C 
ENDBRANCH  11  12
ENDBRANCH   5  11
TORSDOF 4
ENDMDL
MODEL 5
REMARK VINA RESULT:    -3.413      8.053     10.296
REMARK INTER + INTRA:          -4.319
REMARK INTER:                  -4.093
REMARK INTRA:                  -0.225
REMARK UNBOUND:                -0.208
REMARK SMILES C=CCc1ccc(O)c(OC)c1
REMARK SMILES IDX 9 1 7 2 6 3 5 4 4 5 12 6 10 7 11 8 8 9 3 11 2 12 1 13
REMARK H PARENT 8 10
REMARK Flexibility Score: inf
ROOT
ATOM      1  C   UNL     1     137.015 145.743 144.210  1.00  0.00     0.160 A 
ATOM      2  C   UNL     1     136.656 147.051 143.854  1.00  0.00     0.157 A 
ATOM      3  C   UNL     1     137.569 148.100 144.013  1.00  0.00     0.050 A 
ATOM      4  C   UNL     1     138.842 147.854 144.530  1.00  0.00     0.008 A 
ATOM      5  C   UNL     1     139.215 146.554 144.902  1.00  0.00    -0.040 A 
ATOM      6  C   UNL     1     138.302 145.500 144.732  1.00  0.00     0.054 A 
ENDROOT
BRANCH   1   7
ATOM      7  O   UNL     1     136.075 144.717 144.031  1.00  0.00    -0.493 OA
ATOM      8  C   UNL     1     135.515 143.943 145.086  1.00  0.00     0.278 C 
ENDBRANCH   1   7
BRANCH   2   9
ATOM      9  O   UNL     1     135.384 147.298 143.337  1.00  0.00    -0.504 OA
ATOM     10  H   UNL     1     134.872 146.589 142.826  1.00  0.00     0.293 HD
ENDBRANCH   2   9
BRANCH   5  11
ATOM     11  C   UNL     1     140.596 146.280 145.432  1.00  0.00     0.062 C 
BRANCH  11  12
ATOM     12  C   UNL     1     141.505 147.451 145.185  1.00  0.00    -0.030 C 
ATOM     13  C   UNL     1     142.824 147.297 145.037  1.00  0.00     0.004 C 
ENDBRANCH  11  12
ENDBRANCH   5  11
TORSDOF 4
ENDMDL
MODEL 6
REMARK VINA RESULT:    -3.365     11.731     13.209
REMARK INTER + INTRA:          -4.261
REMARK INTER:                  -3.983
REMARK INTRA:                  -0.277
REMARK UNBOUND:                -0.208
REMARK SMILES C=CCc1ccc(O)c(OC)c1
REMARK SMILES IDX 9 1 7 2 6 3 5 4 4 5 12 6 10 7 11 8 8 9 3 11 2 12 1 13
REMARK H PARENT 8 10
REMARK Flexibility Score: inf
ROOT
ATOM      1  C   UNL     1     135.641 139.949 145.189  1.00  0.00     0.160 A 
ATOM      2  C   UNL     1     136.542 139.111 144.518  1.00  0.00     0.157 A 
ATOM      3  C   UNL     1     136.070 138.032 143.760  1.00  0.00     0.050 A 
ATOM      4  C   UNL     1     134.699 137.781 143.670  1.00  0.00     0.008 A 
ATOM      5  C   UNL     1     133.784 138.603 144.343  1.00  0.00    -0.040 A 
ATOM      6  C   UNL     1     134.258 139.691 145.095  1.00  0.00     0.054 A 
ENDROOT
BRANCH   1   7
ATOM      7  O   UNL     1     136.152 141.023 145.934  1.00  0.00    -0.493 OA
ATOM      8  C   UNL     1     135.556 142.314 146.000  1.00  0.00     0.278 C 
ENDBRANCH   1   7
BRANCH   2   9
ATOM      9  O   UNL     1     137.911 139.360 144.608  1.00  0.00    -0.504 OA
ATOM     10  H   UNL     1     138.595 138.672 144.315  1.00  0.00     0.293 HD
ENDBRANCH   2   9
BRANCH   5  11
ATOM     11  C   UNL     1     132.305 138.354 144.225  1.00  0.00     0.062 C 
BRANCH  11  12
ATOM     12  C   UNL     1     131.957 136.971 144.701  1.00  0.00    -0.030 C 
ATOM     13  C   UNL     1     131.977 136.650 145.998  1.00  0.00     0.004 C 
ENDBRANCH  11  12
ENDBRANCH   5  11
TORSDOF 4
ENDMDL
MODEL 7
REMARK VINA RESULT:    -3.310      9.482     11.439
REMARK INTER + INTRA:          -4.195
REMARK INTER:                  -3.942
REMARK INTRA:                  -0.253
REMARK UNBOUND:                -0.208
REMARK SMILES C=CCc1ccc(O)c(OC)c1
REMARK SMILES IDX 9 1 7 2 6 3 5 4 4 5 12 6 10 7 11 8 8 9 3 11 2 12 1 13
REMARK H PARENT 8 10
REMARK Flexibility Score: inf
ROOT
ATOM      1  C   UNL     1     136.004 148.422 144.111  1.00  0.00     0.160 A 
ATOM      2  C   UNL     1     136.953 149.442 144.267  1.00  0.00     0.157 A 
ATOM      3  C   UNL     1     138.321 149.143 144.237  1.00  0.00     0.050 A 
ATOM      4  C   UNL     1     138.750 147.826 144.056  1.00  0.00     0.008 A 
ATOM      5  C   UNL     1     137.814 146.792 143.909  1.00  0.00    -0.040 A 
ATOM      6  C   UNL     1     136.442 147.095 143.929  1.00  0.00     0.054 A 
ENDROOT
BRANCH   1   7
ATOM      7  O   UNL     1     134.643 148.762 144.141  1.00  0.00    -0.493 OA
ATOM      8  C   UNL     1     133.689 148.193 145.030  1.00  0.00     0.278 C 
ENDBRANCH   1   7
BRANCH   2   9
ATOM      9  O   UNL     1     136.526 150.758 144.448  1.00  0.00    -0.504 OA
ATOM     10  H   UNL     1     136.770 151.284 145.279  1.00  0.00     0.293 HD
ENDBRANCH   2   9
BRANCH   5  11
ATOM     11  C   UNL     1     138.273 145.376 143.685  1.00  0.00     0.062 C 
BRANCH  11  12
ATOM     12  C   UNL     1     138.894 144.812 144.932  1.00  0.00    -0.030 C 
ATOM     13  C   UNL     1     138.180 144.110 145.816  1.00  0.00     0.004 C 
ENDBRANCH  11  12
ENDBRANCH   5  11
TORSDOF 4
ENDMDL
MODEL 8
REMARK VINA RESULT:    -3.309      6.602      9.013
REMARK INTER + INTRA:          -4.193
REMARK INTER:                  -3.926
REMARK INTRA:                  -0.267
REMARK UNBOUND:                -0.208
REMARK SMILES C=CCc1ccc(O)c(OC)c1
REMARK SMILES IDX 9 1 7 2 6 3 5 4 4 5 12 6 10 7 11 8 8 9 3 11 2 12 1 13
REMARK H PARENT 8 10
REMARK Flexibility Score: inf
ROOT
ATOM      1  C   UNL     1     144.848 135.512 144.247  1.00  0.00     0.160 A 
ATOM      2  C   UNL     1     143.654 135.452 143.514  1.00  0.00     0.157 A 
ATOM      3  C   UNL     1     142.871 134.291 143.537  1.00  0.00     0.050 A 
ATOM      4  C   UNL     1     143.275 133.184 144.286  1.00  0.00     0.008 A 
ATOM      5  C   UNL     1     144.472 133.223 145.016  1.00  0.00    -0.040 A 
ATOM      6  C   UNL     1     145.251 134.392 145.001  1.00  0.00     0.054 A 
ENDROOT
BRANCH   1   7
ATOM      7  O   UNL     1     145.602 136.695 144.203  1.00  0.00    -0.493 OA
ATOM      8  C   UNL     1     145.732 137.608 145.287  1.00  0.00     0.278 C 
ENDBRANCH   1   7
BRANCH   2   9
ATOM      9  O   UNL     1     143.249 136.557 142.765  1.00  0.00    -0.504 OA
ATOM     10  H   UNL     1     142.273 136.817 142.690  1.00  0.00     0.293 HD
ENDBRANCH   2   9
BRANCH   5  11
ATOM     11  C   UNL     1     144.895 132.043 145.848  1.00  0.00     0.062 C 
BRANCH  11  12
ATOM     12  C   UNL     1     145.420 130.936 144.977  1.00  0.00    -0.030 C 
ATOM     13  C   UNL     1     146.640 130.987 144.435  1.00  0.00     0.004 C 
ENDBRANCH  11  12
ENDBRANCH   5  11
TORSDOF 4
ENDMDL
