MODEL 1
REMARK VINA RESULT:    -3.143      0.000      0.000
REMARK INTER + INTRA:          -3.143
REMARK INTER:                  -3.143
REMARK INTRA:                   0.000
REMARK UNBOUND:                 0.000
REMARK SMILES CC1(C)C(=O)[C@]2(C)CC[C@H]1C2
REMARK SMILES IDX 1 1 2 2 10 3 9 4 8 5 6 6 11 7 4 8 5 9 7 10 3 11
REMARK H PARENT
REMARK Flexibility Score: inf
ROOT
ATOM      1  C   UNL     1     161.623 174.549 170.812  1.00  0.00     0.020 C 
ATOM      2  C   UNL     1     162.858 173.638 170.644  1.00  0.00     0.027 C 
ATOM      3  C   UNL     1     162.724 172.233 171.333  1.00  0.00     0.003 C 
ATOM      4  C   UNL     1     161.371 171.563 170.977  1.00  0.00     0.005 C 
ATOM      5  C   UNL     1     161.525 171.246 169.473  1.00  0.00     0.015 C 
ATOM      6  C   UNL     1     162.975 171.680 169.183  1.00  0.00     0.027 C 
ATOM      7  C   UNL     1     163.658 171.359 170.497  1.00  0.00     0.019 C 
ATOM      8  C   UNL     1     163.016 173.184 169.222  1.00  0.00     0.144 C 
ATOM      9  O   UNL     1     163.090 173.917 168.248  1.00  0.00    -0.298 OA
ATOM     10  C   UNL     1     163.619 171.038 167.953  1.00  0.00     0.020 C 
ATOM     11  C   UNL     1     164.114 174.394 171.132  1.00  0.00     0.020 C 
ENDROOT
TORSDOF 0
ENDMDL
MODEL 2
REMARK VINA RESULT:    -3.122     13.960     15.448
REMARK INTER + INTRA:          -3.122
REMARK INTER:                  -3.122
REMARK INTRA:                   0.000
REMARK UNBOUND:                 0.000
REMARK SMILES CC1(C)C(=O)[C@]2(C)CC[C@H]1C2
REMARK SMILES IDX 1 1 2 2 10 3 9 4 8 5 6 6 11 7 4 8 5 9 7 10 3 11
REMARK H PARENT
REMARK Flexibility Score: inf
ROOT
ATOM      1  C   UNL     1     169.700 156.730 170.917  1.00  0.00     0.020 C 
ATOM      2  C   UNL     1     168.435 157.591 170.714  1.00  0.00     0.027 C 
ATOM      3  C   UNL     1     168.508 159.014 171.377  1.00  0.00     0.003 C 
ATOM      4  C   UNL     1     169.839 159.727 171.024  1.00  0.00     0.005 C 
ATOM      5  C   UNL     1     169.694 160.007 169.512  1.00  0.00     0.015 C 
ATOM      6  C   UNL     1     168.265 159.514 169.213  1.00  0.00     0.027 C 
ATOM      7  C   UNL     1     167.554 159.836 170.512  1.00  0.00     0.019 C 
ATOM      8  C   UNL     1     168.279 158.011 169.282  1.00  0.00     0.144 C 
ATOM      9  O   UNL     1     168.245 157.256 168.322  1.00  0.00    -0.298 OA
ATOM     10  C   UNL     1     167.614 160.107 167.962  1.00  0.00     0.020 C 
ATOM     11  C   UNL     1     167.201 156.800 171.202  1.00  0.00     0.020 C 
ENDROOT
TORSDOF 0
ENDMDL
MODEL 3
REMARK VINA RESULT:    -3.116      1.442      2.253
REMARK INTER + INTRA:          -3.116
REMARK INTER:                  -3.116
REMARK INTRA:                   0.000
REMARK UNBOUND:                 0.000
REMARK SMILES CC1(C)C(=O)[C@]2(C)CC[C@H]1C2
REMARK SMILES IDX 1 1 2 2 10 3 9 4 8 5 6 6 11 7 4 8 5 9 7 10 3 11
REMARK H PARENT
REMARK Flexibility Score: inf
ROOT
ATOM      1  C   UNL     1     159.882 173.333 170.166  1.00  0.00     0.020 C 
ATOM      2  C   UNL     1     161.216 174.109 170.231  1.00  0.00     0.027 C 
ATOM      3  C   UNL     1     162.413 173.288 170.831  1.00  0.00     0.003 C 
ATOM      4  C   UNL     1     162.512 171.885 170.177  1.00  0.00     0.005 C 
ATOM      5  C   UNL     1     162.945 172.205 168.729  1.00  0.00     0.015 C 
ATOM      6  C   UNL     1     163.137 173.733 168.764  1.00  0.00     0.027 C 
ATOM      7  C   UNL     1     163.630 173.947 170.181  1.00  0.00     0.019 C 
ATOM      8  C   UNL     1     161.772 174.361 168.860  1.00  0.00     0.144 C 
ATOM      9  O   UNL     1     161.182 174.919 167.946  1.00  0.00    -0.298 OA
ATOM     10  C   UNL     1     164.047 174.306 167.676  1.00  0.00     0.020 C 
ATOM     11  C   UNL     1     160.993 175.432 170.995  1.00  0.00     0.020 C 
ENDROOT
TORSDOF 0
ENDMDL
MODEL 4
REMARK VINA RESULT:    -3.089     15.068     16.518
REMARK INTER + INTRA:          -3.089
REMARK INTER:                  -3.089
REMARK INTRA:                   0.000
REMARK UNBOUND:                 0.000
REMARK SMILES CC1(C)C(=O)[C@]2(C)CC[C@H]1C2
REMARK SMILES IDX 1 1 2 2 10 3 9 4 8 5 6 6 11 7 4 8 5 9 7 10 3 11
REMARK H PARENT
REMARK Flexibility Score: inf
ROOT
ATOM      1  C   UNL     1     171.108 158.027 170.645  1.00  0.00     0.020 C 
ATOM      2  C   UNL     1     169.809 157.201 170.532  1.00  0.00     0.027 C 
ATOM      3  C   UNL     1     168.514 157.967 170.983  1.00  0.00     0.003 C 
ATOM      4  C   UNL     1     168.444 159.375 170.337  1.00  0.00     0.005 C 
ATOM      5  C   UNL     1     168.212 159.061 168.842  1.00  0.00     0.015 C 
ATOM      6  C   UNL     1     168.076 157.527 168.837  1.00  0.00     0.027 C 
ATOM      7  C   UNL     1     167.416 157.274 170.177  1.00  0.00     0.019 C 
ATOM      8  C   UNL     1     169.440 156.949 169.099  1.00  0.00     0.144 C 
ATOM      9  O   UNL     1     170.163 156.427 168.262  1.00  0.00    -0.298 OA
ATOM     10  C   UNL     1     167.334 156.936 167.636  1.00  0.00     0.020 C 
ATOM     11  C   UNL     1     169.984 155.875 171.305  1.00  0.00     0.020 C 
ENDROOT
TORSDOF 0
ENDMDL
MODEL 5
REMARK VINA RESULT:    -2.920      1.663      3.288
REMARK INTER + INTRA:          -2.920
REMARK INTER:                  -2.920
REMARK INTRA:                   0.000
REMARK UNBOUND:                 0.000
REMARK SMILES CC1(C)C(=O)[C@]2(C)CC[C@H]1C2
REMARK SMILES IDX 1 1 2 2 10 3 9 4 8 5 6 6 11 7 4 8 5 9 7 10 3 11
REMARK H PARENT
REMARK Flexibility Score: inf
ROOT
ATOM      1  C   UNL     1     163.348 173.009 171.013  1.00  0.00     0.020 C 
ATOM      2  C   UNL     1     162.157 172.819 170.049  1.00  0.00     0.027 C 
ATOM      3  C   UNL     1     160.750 173.074 170.701  1.00  0.00     0.003 C 
ATOM      4  C   UNL     1     160.736 174.406 171.494  1.00  0.00     0.005 C 
ATOM      5  C   UNL     1     160.850 175.474 170.384  1.00  0.00     0.015 C 
ATOM      6  C   UNL     1     160.813 174.627 169.097  1.00  0.00     0.027 C 
ATOM      7  C   UNL     1     159.896 173.491 169.505  1.00  0.00     0.019 C 
ATOM      8  C   UNL     1     162.122 173.891 168.999  1.00  0.00     0.144 C 
ATOM      9  O   UNL     1     163.038 174.170 168.240  1.00  0.00    -0.298 OA
ATOM     10  C   UNL     1     160.384 175.373 167.832  1.00  0.00     0.020 C 
ATOM     11  C   UNL     1     162.242 171.415 169.411  1.00  0.00     0.020 C 
ENDROOT
TORSDOF 0
ENDMDL
MODEL 6
REMARK VINA RESULT:    -2.909     14.378     15.825
REMARK INTER + INTRA:          -2.909
REMARK INTER:                  -2.909
REMARK INTRA:                   0.000
REMARK UNBOUND:                 0.000
REMARK SMILES CC1(C)C(=O)[C@]2(C)CC[C@H]1C2
REMARK SMILES IDX 1 1 2 2 10 3 9 4 8 5 6 6 11 7 4 8 5 9 7 10 3 11
REMARK H PARENT
REMARK Flexibility Score: inf
ROOT
ATOM      1  C   UNL     1     168.884 157.821 172.508  1.00  0.00     0.020 C 
ATOM      2  C   UNL     1     168.231 158.521 171.297  1.00  0.00     0.027 C 
ATOM      3  C   UNL     1     169.254 159.182 170.304  1.00  0.00     0.003 C 
ATOM      4  C   UNL     1     170.398 158.198 169.944  1.00  0.00     0.005 C 
ATOM      5  C   UNL     1     169.679 157.119 169.105  1.00  0.00     0.015 C 
ATOM      6  C   UNL     1     168.244 157.671 169.004  1.00  0.00     0.027 C 
ATOM      7  C   UNL     1     168.492 159.165 168.979  1.00  0.00     0.019 C 
ATOM      8  C   UNL     1     167.606 157.529 170.359  1.00  0.00     0.144 C 
ATOM      9  O   UNL     1     166.771 156.692 170.667  1.00  0.00    -0.298 OA
ATOM     10  C   UNL     1     167.417 157.139 167.832  1.00  0.00     0.020 C 
ATOM     11  C   UNL     1     167.190 159.543 171.804  1.00  0.00     0.020 C 
ENDROOT
TORSDOF 0
ENDMDL
MODEL 7
REMARK VINA RESULT:    -2.907      1.544      2.196
REMARK INTER + INTRA:          -2.907
REMARK INTER:                  -2.907
REMARK INTRA:                   0.000
REMARK UNBOUND:                 0.000
REMARK SMILES CC1(C)C(=O)[C@]2(C)CC[C@H]1C2
REMARK SMILES IDX 1 1 2 2 10 3 9 4 8 5 6 6 11 7 4 8 5 9 7 10 3 11
REMARK H PARENT
REMARK Flexibility Score: inf
ROOT
ATOM      1  C   UNL     1     162.448 173.625 172.486  1.00  0.00     0.020 C 
ATOM      2  C   UNL     1     163.059 172.848 171.300  1.00  0.00     0.027 C 
ATOM      3  C   UNL     1     162.001 172.172 170.355  1.00  0.00     0.003 C 
ATOM      4  C   UNL     1     160.880 173.172 169.966  1.00  0.00     0.005 C 
ATOM      5  C   UNL     1     161.617 174.187 169.065  1.00  0.00     0.015 C 
ATOM      6  C   UNL     1     163.033 173.588 168.969  1.00  0.00     0.027 C 
ATOM      7  C   UNL     1     162.740 172.102 169.020  1.00  0.00     0.019 C 
ATOM      8  C   UNL     1     163.697 173.774 170.306  1.00  0.00     0.144 C 
ATOM      9  O   UNL     1     164.563 174.599 170.561  1.00  0.00    -0.298 OA
ATOM     10  C   UNL     1     163.856 174.037 167.760  1.00  0.00     0.020 C 
ATOM     11  C   UNL     1     164.077 171.820 171.840  1.00  0.00     0.020 C 
ENDROOT
TORSDOF 0
ENDMDL
MODEL 8
REMARK VINA RESULT:    -2.901      9.909     11.447
REMARK INTER + INTRA:          -2.901
REMARK INTER:                  -2.901
REMARK INTRA:                   0.000
REMARK UNBOUND:                 0.000
REMARK SMILES CC1(C)C(=O)[C@]2(C)CC[C@H]1C2
REMARK SMILES IDX 1 1 2 2 10 3 9 4 8 5 6 6 11 7 4 8 5 9 7 10 3 11
REMARK H PARENT
REMARK Flexibility Score: inf
ROOT
ATOM      1  C   UNL     1     160.564 163.662 170.000  1.00  0.00     0.020 C 
ATOM      2  C   UNL     1     159.258 162.909 169.667  1.00  0.00     0.027 C 
ATOM      3  C   UNL     1     159.351 161.349 169.830  1.00  0.00     0.003 C 
ATOM      4  C   UNL     1     159.989 160.967 171.192  1.00  0.00     0.005 C 
ATOM      5  C   UNL     1     158.917 161.404 172.214  1.00  0.00     0.015 C 
ATOM      6  C   UNL     1     157.765 161.884 171.310  1.00  0.00     0.027 C 
ATOM      7  C   UNL     1     157.903 160.955 170.120  1.00  0.00     0.019 C 
ATOM      8  C   UNL     1     158.189 163.185 170.684  1.00  0.00     0.144 C 
ATOM      9  O   UNL     1     157.785 164.293 171.004  1.00  0.00    -0.298 OA
ATOM     10  C   UNL     1     156.379 161.891 171.959  1.00  0.00     0.020 C 
ATOM     11  C   UNL     1     158.795 163.305 168.248  1.00  0.00     0.020 C 
ENDROOT
TORSDOF 0
ENDMDL
MODEL 9
REMARK VINA RESULT:    -2.894      9.641     10.971
REMARK INTER + INTRA:          -2.894
REMARK INTER:                  -2.894
REMARK INTRA:                   0.000
REMARK UNBOUND:                 0.000
REMARK SMILES CC1(C)C(=O)[C@]2(C)CC[C@H]1C2
REMARK SMILES IDX 1 1 2 2 10 3 9 4 8 5 6 6 11 7 4 8 5 9 7 10 3 11
REMARK H PARENT
REMARK Flexibility Score: inf
ROOT
ATOM      1  C   UNL     1     170.654 167.522 170.048  1.00  0.00     0.020 C 
ATOM      2  C   UNL     1     171.930 168.309 169.679  1.00  0.00     0.027 C 
ATOM      3  C   UNL     1     171.800 169.866 169.840  1.00  0.00     0.003 C 
ATOM      4  C   UNL     1     171.187 170.236 171.216  1.00  0.00     0.005 C 
ATOM      5  C   UNL     1     172.296 169.832 172.212  1.00  0.00     0.015 C 
ATOM      6  C   UNL     1     173.437 169.379 171.280  1.00  0.00     0.027 C 
ATOM      7  C   UNL     1     173.244 170.299 170.091  1.00  0.00     0.019 C 
ATOM      8  C   UNL     1     173.032 168.065 170.669  1.00  0.00     0.144 C 
ATOM      9  O   UNL     1     173.473 166.970 170.983  1.00  0.00    -0.298 OA
ATOM     10  C   UNL     1     174.838 169.412 171.894  1.00  0.00     0.020 C 
ATOM     11  C   UNL     1     172.368 167.919 168.250  1.00  0.00     0.020 C 
ENDROOT
TORSDOF 0
ENDMDL
