MODEL 1
REMARK VINA RESULT:    -2.840      0.000      0.000
REMARK INTER + INTRA:          -5.865
REMARK INTER:                  -5.163
REMARK INTRA:                  -0.702
REMARK UNBOUND:                -0.702
REMARK SMILES CCCCCCCCCCCCCC[C@H](C)C(=O)[O-]
REMARK SMILES IDX 9 1 10 2 11 3 12 4 13 5 14 6 15 7 16 8 17 9 18 10 19 11 8 12
REMARK SMILES IDX 7 13 6 14 5 15 4 16 3 17 2 18 1 19
REMARK H PARENT
REMARK Flexibility Score: inf
ROOT
ATOM      1  C   UNL     1     -13.455 -11.766 -10.440  1.00  0.00     0.000 C 
ENDROOT
BRANCH   1   2
ATOM      2  C   UNL     1     -14.813 -12.470 -10.294  1.00  0.00     0.000 C 
BRANCH   2   3
ATOM      3  C   UNL     1     -15.916 -11.803 -11.129  1.00  0.00     0.000 C 
BRANCH   3   4
ATOM      4  C   UNL     1     -17.224 -12.598 -11.044  1.00  0.00     0.000 C 
BRANCH   4   5
ATOM      5  C   UNL     1     -17.611 -12.873  -9.583  1.00  0.00     0.001 C 
BRANCH   5   6
ATOM      6  C   UNL     1     -19.098 -12.564  -9.303  1.00  0.00     0.009 C 
BRANCH   6   7
ATOM      7  C   UNL     1     -19.394 -12.233  -7.822  1.00  0.00     0.032 C 
ATOM      8  C   UNL     1     -20.708 -12.851  -7.334  1.00  0.00     0.014 C 
BRANCH   7   9
ATOM      9  C   UNL     1     -19.440 -10.741  -7.635  1.00  0.00     0.044 C 
ATOM     10  O   UNL     1     -18.520 -10.016  -8.100  1.00  0.00    -0.550 OA
ATOM     11  O   UNL     1     -20.492 -10.152  -6.942  1.00  0.00    -0.550 OA
ENDBRANCH   7   9
ENDBRANCH   6   7
ENDBRANCH   5   6
ENDBRANCH   4   5
ENDBRANCH   3   4
ENDBRANCH   2   3
ENDBRANCH   1   2
BRANCH   1  12
ATOM     12  C   UNL     1     -13.281 -11.093 -11.813  1.00  0.00     0.000 C 
BRANCH  12  13
ATOM     13  C   UNL     1     -11.862 -10.545 -12.027  1.00  0.00    -0.000 C 
BRANCH  13  14
ATOM     14  C   UNL     1     -11.828  -9.009 -12.123  1.00  0.00    -0.000 C 
BRANCH  14  15
ATOM     15  C   UNL     1     -12.854  -8.343 -11.181  1.00  0.00    -0.000 C 
BRANCH  15  16
ATOM     16  C   UNL     1     -13.945  -7.544 -11.921  1.00  0.00    -0.000 C 
BRANCH  16  17
ATOM     17  C   UNL     1     -14.200  -6.133 -11.364  1.00  0.00    -0.000 C 
BRANCH  17  18
ATOM     18  C   UNL     1     -15.564  -5.567 -11.783  1.00  0.00    -0.003 C 
ATOM     19  C   UNL     1     -15.643  -4.068 -11.505  1.00  0.00     0.004 C 
ENDBRANCH  17  18
ENDBRANCH  16  17
ENDBRANCH  15  16
ENDBRANCH  14  15
ENDBRANCH  13  14
ENDBRANCH  12  13
ENDBRANCH   1  12
TORSDOF 14
ENDMDL
MODEL 2
REMARK VINA RESULT:    -2.380      1.803      2.338
REMARK INTER + INTRA:          -5.030
REMARK INTER:                  -4.271
REMARK INTRA:                  -0.759
REMARK UNBOUND:                -0.702
REMARK SMILES CCCCCCCCCCCCCC[C@H](C)C(=O)[O-]
REMARK SMILES IDX 9 1 10 2 11 3 12 4 13 5 14 6 15 7 16 8 17 9 18 10 19 11 8 12
REMARK SMILES IDX 7 13 6 14 5 15 4 16 3 17 2 18 1 19
REMARK H PARENT
REMARK Flexibility Score: inf
ROOT
ATOM      1  C   UNL     1     -13.778 -10.832 -10.246  1.00  0.00     0.000 C 
ENDROOT
BRANCH   1   2
ATOM      2  C   UNL     1     -13.920 -12.361 -10.233  1.00  0.00     0.000 C 
BRANCH   2   3
ATOM      3  C   UNL     1     -14.083 -12.951 -11.642  1.00  0.00     0.000 C 
BRANCH   3   4
ATOM      4  C   UNL     1     -15.534 -12.832 -12.123  1.00  0.00     0.000 C 
BRANCH   4   5
ATOM      5  C   UNL     1     -16.517 -12.958 -10.949  1.00  0.00     0.001 C 
BRANCH   5   6
ATOM      6  C   UNL     1     -17.900 -12.355 -11.278  1.00  0.00     0.009 C 
BRANCH   6   7
ATOM      7  C   UNL     1     -18.775 -12.094 -10.031  1.00  0.00     0.032 C 
ATOM      8  C   UNL     1     -18.412 -13.011  -8.857  1.00  0.00     0.014 C 
BRANCH   7   9
ATOM      9  C   UNL     1     -20.227 -12.278 -10.381  1.00  0.00     0.044 C 
ATOM     10  O   UNL     1     -21.016 -12.805  -9.553  1.00  0.00    -0.550 OA
ATOM     11  O   UNL     1     -20.706 -11.874 -11.623  1.00  0.00    -0.550 OA
ENDBRANCH   7   9
ENDBRANCH   6   7
ENDBRANCH   5   6
ENDBRANCH   4   5
ENDBRANCH   3   4
ENDBRANCH   2   3
ENDBRANCH   1   2
BRANCH   1  12
ATOM     12  C   UNL     1     -12.334 -10.374 -10.518  1.00  0.00     0.000 C 
BRANCH  12  13
ATOM     13  C   UNL     1     -12.228  -8.859 -10.753  1.00  0.00    -0.000 C 
BRANCH  13  14
ATOM     14  C   UNL     1     -12.797  -8.430 -12.118  1.00  0.00    -0.000 C 
BRANCH  14  15
ATOM     15  C   UNL     1     -14.235  -7.880 -12.003  1.00  0.00    -0.000 C 
BRANCH  15  16
ATOM     16  C   UNL     1     -14.299  -6.401 -11.573  1.00  0.00    -0.000 C 
BRANCH  16  17
ATOM     17  C   UNL     1     -15.618  -5.688 -11.913  1.00  0.00    -0.000 C 
BRANCH  17  18
ATOM     18  C   UNL     1     -15.599  -4.197 -11.545  1.00  0.00    -0.003 C 
ATOM     19  C   UNL     1     -14.169  -3.668 -11.478  1.00  0.00     0.004 C 
ENDBRANCH  17  18
ENDBRANCH  16  17
ENDBRANCH  15  16
ENDBRANCH  14  15
ENDBRANCH  13  14
ENDBRANCH  12  13
ENDBRANCH   1  12
TORSDOF 14
ENDMDL
MODEL 3
REMARK VINA RESULT:    -2.356      1.305      2.345
REMARK INTER + INTRA:          -4.986
REMARK INTER:                  -4.061
REMARK INTRA:                  -0.925
REMARK UNBOUND:                -0.702
REMARK SMILES CCCCCCCCCCCCCC[C@H](C)C(=O)[O-]
REMARK SMILES IDX 9 1 10 2 11 3 12 4 13 5 14 6 15 7 16 8 17 9 18 10 19 11 8 12
REMARK SMILES IDX 7 13 6 14 5 15 4 16 3 17 2 18 1 19
REMARK H PARENT
REMARK Flexibility Score: inf
ROOT
ATOM      1  C   UNL     1     -12.977 -10.117  -9.795  1.00  0.00     0.000 C 
ENDROOT
BRANCH   1   2
ATOM      2  C   UNL     1     -12.674 -11.605 -10.030  1.00  0.00     0.000 C 
BRANCH   2   3
ATOM      3  C   UNL     1     -13.434 -12.179 -11.235  1.00  0.00     0.000 C 
BRANCH   3   4
ATOM      4  C   UNL     1     -14.854 -12.600 -10.840  1.00  0.00     0.000 C 
BRANCH   4   5
ATOM      5  C   UNL     1     -15.848 -11.446 -11.040  1.00  0.00     0.001 C 
BRANCH   5   6
ATOM      6  C   UNL     1     -16.642 -11.128  -9.754  1.00  0.00     0.009 C 
BRANCH   6   7
ATOM      7  C   UNL     1     -17.863 -12.050  -9.536  1.00  0.00     0.032 C 
ATOM      8  C   UNL     1     -18.806 -12.071 -10.744  1.00  0.00     0.014 C 
BRANCH   7   9
ATOM      9  C   UNL     1     -18.622 -11.609  -8.314  1.00  0.00     0.044 C 
ATOM     10  O   UNL     1     -18.811 -10.383  -8.095  1.00  0.00    -0.550 OA
ATOM     11  O   UNL     1     -19.113 -12.550  -7.415  1.00  0.00    -0.550 OA
ENDBRANCH   7   9
ENDBRANCH   6   7
ENDBRANCH   5   6
ENDBRANCH   4   5
ENDBRANCH   3   4
ENDBRANCH   2   3
ENDBRANCH   1   2
BRANCH   1  12
ATOM     12  C   UNL     1     -12.208  -9.197 -10.759  1.00  0.00     0.000 C 
BRANCH  12  13
ATOM     13  C   UNL     1     -13.031  -8.824 -12.002  1.00  0.00    -0.000 C 
BRANCH  13  14
ATOM     14  C   UNL     1     -14.307  -8.036 -11.654  1.00  0.00    -0.000 C 
BRANCH  14  15
ATOM     15  C   UNL     1     -14.232  -6.568 -12.124  1.00  0.00    -0.000 C 
BRANCH  15  16
ATOM     16  C   UNL     1     -14.074  -5.557 -10.971  1.00  0.00    -0.000 C 
BRANCH  16  17
ATOM     17  C   UNL     1     -14.350  -4.094 -11.355  1.00  0.00    -0.000 C 
BRANCH  17  18
ATOM     18  C   UNL     1     -15.675  -3.918 -12.111  1.00  0.00    -0.003 C 
ATOM     19  C   UNL     1     -16.798  -4.703 -11.439  1.00  0.00     0.004 C 
ENDBRANCH  17  18
ENDBRANCH  16  17
ENDBRANCH  15  16
ENDBRANCH  14  15
ENDBRANCH  13  14
ENDBRANCH  12  13
ENDBRANCH   1  12
TORSDOF 14
ENDMDL
MODEL 4
REMARK VINA RESULT:    -2.179      2.451      6.811
REMARK INTER + INTRA:          -4.665
REMARK INTER:                  -3.859
REMARK INTRA:                  -0.806
REMARK UNBOUND:                -0.702
REMARK SMILES CCCCCCCCCCCCCC[C@H](C)C(=O)[O-]
REMARK SMILES IDX 9 1 10 2 11 3 12 4 13 5 14 6 15 7 16 8 17 9 18 10 19 11 8 12
REMARK SMILES IDX 7 13 6 14 5 15 4 16 3 17 2 18 1 19
REMARK H PARENT
REMARK Flexibility Score: inf
ROOT
ATOM      1  C   UNL     1     -12.555  -9.799  -9.846  1.00  0.00     0.000 C 
ENDROOT
BRANCH   1   2
ATOM      2  C   UNL     1     -11.590  -9.588 -11.023  1.00  0.00     0.000 C 
BRANCH   2   3
ATOM      3  C   UNL     1     -12.189  -8.699 -12.124  1.00  0.00     0.000 C 
BRANCH   3   4
ATOM      4  C   UNL     1     -13.535  -8.112 -11.684  1.00  0.00     0.000 C 
BRANCH   4   5
ATOM      5  C   UNL     1     -13.667  -6.644 -12.120  1.00  0.00     0.001 C 
BRANCH   5   6
ATOM      6  C   UNL     1     -14.703  -5.874 -11.273  1.00  0.00     0.009 C 
BRANCH   6   7
ATOM      7  C   UNL     1     -15.463  -4.784 -12.064  1.00  0.00     0.032 C 
ATOM      8  C   UNL     1     -15.175  -3.372 -11.542  1.00  0.00     0.014 C 
BRANCH   7   9
ATOM      9  C   UNL     1     -16.942  -5.051 -12.003  1.00  0.00     0.044 C 
ATOM     10  O   UNL     1     -17.380  -6.226 -12.124  1.00  0.00    -0.550 OA
ATOM     11  O   UNL     1     -17.837  -4.002 -11.820  1.00  0.00    -0.550 OA
ENDBRANCH   7   9
ENDBRANCH   6   7
ENDBRANCH   5   6
ENDBRANCH   4   5
ENDBRANCH   3   4
ENDBRANCH   2   3
ENDBRANCH   1   2
BRANCH   1  12
ATOM     12  C   UNL     1     -13.336 -11.120  -9.951  1.00  0.00     0.000 C 
BRANCH  12  13
ATOM     13  C   UNL     1     -13.345 -11.690 -11.378  1.00  0.00    -0.000 C 
BRANCH  13  14
ATOM     14  C   UNL     1     -14.745 -11.666 -12.017  1.00  0.00    -0.000 C 
BRANCH  14  15
ATOM     15  C   UNL     1     -15.764 -10.885 -11.161  1.00  0.00    -0.000 C 
BRANCH  15  16
ATOM     16  C   UNL     1     -16.601 -11.780 -10.226  1.00  0.00    -0.000 C 
BRANCH  16  17
ATOM     17  C   UNL     1     -17.219 -13.016 -10.899  1.00  0.00    -0.000 C 
BRANCH  17  18
ATOM     18  C   UNL     1     -18.753 -13.025 -10.831  1.00  0.00    -0.003 C 
ATOM     19  C   UNL     1     -19.238 -12.900  -9.389  1.00  0.00     0.004 C 
ENDBRANCH  17  18
ENDBRANCH  16  17
ENDBRANCH  15  16
ENDBRANCH  14  15
ENDBRANCH  13  14
ENDBRANCH  12  13
ENDBRANCH   1  12
TORSDOF 14
ENDMDL
MODEL 5
REMARK VINA RESULT:    -1.688      2.253      3.266
REMARK INTER + INTRA:          -3.771
REMARK INTER:                  -2.534
REMARK INTRA:                  -1.237
REMARK UNBOUND:                -0.702
REMARK SMILES CCCCCCCCCCCCCC[C@H](C)C(=O)[O-]
REMARK SMILES IDX 9 1 10 2 11 3 12 4 13 5 14 6 15 7 16 8 17 9 18 10 19 11 8 12
REMARK SMILES IDX 7 13 6 14 5 15 4 16 3 17 2 18 1 19
REMARK H PARENT
REMARK Flexibility Score: inf
ROOT
ATOM      1  C   UNL     1     -12.546  -9.435  -9.599  1.00  0.00     0.000 C 
ENDROOT
BRANCH   1   2
ATOM      2  C   UNL     1     -12.854 -10.908  -9.287  1.00  0.00     0.000 C 
BRANCH   2   3
ATOM      3  C   UNL     1     -12.479 -11.847 -10.443  1.00  0.00     0.000 C 
BRANCH   3   4
ATOM      4  C   UNL     1     -13.715 -12.219 -11.270  1.00  0.00     0.000 C 
BRANCH   4   5
ATOM      5  C   UNL     1     -14.955 -12.371 -10.374  1.00  0.00     0.001 C 
BRANCH   5   6
ATOM      6  C   UNL     1     -16.198 -12.824 -11.169  1.00  0.00     0.009 C 
BRANCH   6   7
ATOM      7  C   UNL     1     -17.258 -11.713 -11.349  1.00  0.00     0.032 C 
ATOM      8  C   UNL     1     -17.013 -10.513 -10.427  1.00  0.00     0.014 C 
BRANCH   7   9
ATOM      9  C   UNL     1     -18.630 -12.272 -11.092  1.00  0.00     0.044 C 
ATOM     10  O   UNL     1     -19.563 -12.066 -11.913  1.00  0.00    -0.550 OA
ATOM     11  O   UNL     1     -18.881 -13.015  -9.943  1.00  0.00    -0.550 OA
ENDBRANCH   7   9
ENDBRANCH   6   7
ENDBRANCH   5   6
ENDBRANCH   4   5
ENDBRANCH   3   4
ENDBRANCH   2   3
ENDBRANCH   1   2
BRANCH   1  12
ATOM     12  C   UNL     1     -11.563  -9.272 -10.772  1.00  0.00     0.000 C 
BRANCH  12  13
ATOM     13  C   UNL     1     -12.105  -8.346 -11.872  1.00  0.00    -0.000 C 
BRANCH  13  14
ATOM     14  C   UNL     1     -13.522  -7.829 -11.567  1.00  0.00    -0.000 C 
BRANCH  14  15
ATOM     15  C   UNL     1     -13.757  -6.409 -12.125  1.00  0.00    -0.000 C 
BRANCH  15  16
ATOM     16  C   UNL     1     -14.712  -5.556 -11.266  1.00  0.00    -0.000 C 
BRANCH  16  17
ATOM     17  C   UNL     1     -16.207  -5.795 -11.534  1.00  0.00    -0.000 C 
BRANCH  17  18
ATOM     18  C   UNL     1     -17.041  -4.511 -11.427  1.00  0.00    -0.003 C 
ATOM     19  C   UNL     1     -18.389  -4.674 -12.125  1.00  0.00     0.004 C 
ENDBRANCH  17  18
ENDBRANCH  16  17
ENDBRANCH  15  16
ENDBRANCH  14  15
ENDBRANCH  13  14
ENDBRANCH  12  13
ENDBRANCH   1  12
TORSDOF 14
ENDMDL
MODEL 6
REMARK VINA RESULT:    -0.318      6.260     10.375
REMARK INTER + INTRA:          -1.281
REMARK INTER:                  -0.827
REMARK INTRA:                  -0.454
REMARK UNBOUND:                -0.702
REMARK SMILES CCCCCCCCCCCCCC[C@H](C)C(=O)[O-]
REMARK SMILES IDX 9 1 10 2 11 3 12 4 13 5 14 6 15 7 16 8 17 9 18 10 19 11 8 12
REMARK SMILES IDX 7 13 6 14 5 15 4 16 3 17 2 18 1 19
REMARK H PARENT
REMARK Flexibility Score: inf
ROOT
ATOM      1  C   UNL     1     -11.933  -9.927 -10.866  1.00  0.00     0.000 C 
ENDROOT
BRANCH   1   2
ATOM      2  C   UNL     1     -10.857  -9.608 -11.916  1.00  0.00     0.000 C 
BRANCH   2   3
ATOM      3  C   UNL     1      -9.817 -10.730 -12.054  1.00  0.00     0.000 C 
BRANCH   3   4
ATOM      4  C   UNL     1      -8.397 -10.156 -12.125  1.00  0.00     0.000 C 
BRANCH   4   5
ATOM      5  C   UNL     1      -7.344 -11.264 -11.973  1.00  0.00     0.001 C 
BRANCH   5   6
ATOM      6  C   UNL     1      -6.119 -10.798 -11.155  1.00  0.00     0.009 C 
BRANCH   6   7
ATOM      7  C   UNL     1      -4.786 -10.888 -11.932  1.00  0.00     0.032 C 
ATOM      8  C   UNL     1      -4.286 -12.329 -12.076  1.00  0.00     0.014 C 
BRANCH   7   9
ATOM      9  C   UNL     1      -3.738 -10.059 -11.240  1.00  0.00     0.044 C 
ATOM     10  O   UNL     1      -2.744  -9.628 -11.883  1.00  0.00    -0.550 OA
ATOM     11  O   UNL     1      -3.854  -9.770  -9.884  1.00  0.00    -0.550 OA
ENDBRANCH   7   9
ENDBRANCH   6   7
ENDBRANCH   5   6
ENDBRANCH   4   5
ENDBRANCH   3   4
ENDBRANCH   2   3
ENDBRANCH   1   2
BRANCH   1  12
ATOM     12  C   UNL     1     -13.295  -9.295 -11.204  1.00  0.00     0.000 C 
BRANCH  12  13
ATOM     13  C   UNL     1     -14.319 -10.328 -11.700  1.00  0.00    -0.000 C 
BRANCH  13  14
ATOM     14  C   UNL     1     -15.730 -10.082 -11.137  1.00  0.00    -0.000 C 
BRANCH  14  15
ATOM     15  C   UNL     1     -16.680 -11.268 -11.408  1.00  0.00    -0.000 C 
BRANCH  15  16
ATOM     16  C   UNL     1     -16.725 -12.300 -10.263  1.00  0.00    -0.000 C 
BRANCH  16  17
ATOM     17  C   UNL     1     -18.065 -12.373  -9.514  1.00  0.00    -0.000 C 
BRANCH  17  18
ATOM     18  C   UNL     1     -18.349 -11.114  -8.681  1.00  0.00    -0.003 C 
ATOM     19  C   UNL     1     -19.801 -11.085  -8.211  1.00  0.00     0.004 C 
ENDBRANCH  17  18
ENDBRANCH  16  17
ENDBRANCH  15  16
ENDBRANCH  14  15
ENDBRANCH  13  14
ENDBRANCH  12  13
ENDBRANCH   1  12
TORSDOF 14
ENDMDL
MODEL 7
REMARK VINA RESULT:    -0.156      6.421      8.946
REMARK INTER + INTRA:          -0.986
REMARK INTER:                  -0.495
REMARK INTRA:                  -0.491
REMARK UNBOUND:                -0.702
REMARK SMILES CCCCCCCCCCCCCC[C@H](C)C(=O)[O-]
REMARK SMILES IDX 9 1 10 2 11 3 12 4 13 5 14 6 15 7 16 8 17 9 18 10 19 11 8 12
REMARK SMILES IDX 7 13 6 14 5 15 4 16 3 17 2 18 1 19
REMARK H PARENT
REMARK Flexibility Score: inf
ROOT
ATOM      1  C   UNL     1      -6.663 -12.269 -12.124  1.00  0.00     0.000 C 
ENDROOT
BRANCH   1   2
ATOM      2  C   UNL     1      -8.061 -12.741 -11.693  1.00  0.00     0.000 C 
BRANCH   2   3
ATOM      3  C   UNL     1      -9.170 -11.770 -12.125  1.00  0.00     0.000 C 
BRANCH   3   4
ATOM      4  C   UNL     1     -10.553 -12.415 -11.974  1.00  0.00     0.000 C 
BRANCH   4   5
ATOM      5  C   UNL     1     -11.670 -11.370 -12.119  1.00  0.00     0.001 C 
BRANCH   5   6
ATOM      6  C   UNL     1     -13.049 -11.926 -11.700  1.00  0.00     0.009 C 
BRANCH   6   7
ATOM      7  C   UNL     1     -14.229 -10.998 -12.071  1.00  0.00     0.032 C 
ATOM      8  C   UNL     1     -13.879  -9.514 -11.922  1.00  0.00     0.014 C 
BRANCH   7   9
ATOM      9  C   UNL     1     -15.419 -11.323 -11.211  1.00  0.00     0.044 C 
ATOM     10  O   UNL     1     -15.328 -11.268  -9.956  1.00  0.00    -0.550 OA
ATOM     11  O   UNL     1     -16.626 -11.694 -11.795  1.00  0.00    -0.550 OA
ENDBRANCH   7   9
ENDBRANCH   6   7
ENDBRANCH   5   6
ENDBRANCH   4   5
ENDBRANCH   3   4
ENDBRANCH   2   3
ENDBRANCH   1   2
BRANCH   1  12
ATOM     12  C   UNL     1      -5.652 -12.279 -10.964  1.00  0.00     0.000 C 
BRANCH  12  13
ATOM     13  C   UNL     1      -4.403 -11.435 -11.263  1.00  0.00    -0.000 C 
BRANCH  13  14
ATOM     14  C   UNL     1      -4.707  -9.928 -11.331  1.00  0.00    -0.000 C 
BRANCH  14  15
ATOM     15  C   UNL     1      -3.450  -9.093 -11.654  1.00  0.00    -0.000 C 
BRANCH  15  16
ATOM     16  C   UNL     1      -2.227  -9.455 -10.788  1.00  0.00    -0.000 C 
BRANCH  16  17
ATOM     17  C   UNL     1      -2.418  -9.235  -9.278  1.00  0.00    -0.000 C 
BRANCH  17  18
ATOM     18  C   UNL     1      -1.097  -9.285  -8.499  1.00  0.00    -0.003 C 
ATOM     19  C   UNL     1      -1.208  -8.520  -7.183  1.00  0.00     0.004 C 
ENDBRANCH  17  18
ENDBRANCH  16  17
ENDBRANCH  15  16
ENDBRANCH  14  15
ENDBRANCH  13  14
ENDBRANCH  12  13
ENDBRANCH   1  12
TORSDOF 14
ENDMDL
