MODEL 1
REMARK VINA RESULT:    -3.676      0.000      0.000
REMARK INTER + INTRA:          -4.373
REMARK INTER:                  -4.320
REMARK INTRA:                  -0.053
REMARK UNBOUND:                -0.053
REMARK SMILES O=C([O-])CCC(=O)[O-]
REMARK SMILES IDX 4 1 2 2 1 3 3 4 5 5 6 6 7 7 8 8
REMARK H PARENT
REMARK Flexibility Score: inf
ROOT
ATOM      1  C   UNL     1      13.584  46.002  -0.585  1.00  0.00     0.059 C 
ENDROOT
BRANCH   1   2
ATOM      2  C   UNL     1      14.733  46.684  -1.257  1.00  0.00     0.042 C 
ATOM      3  O   UNL     1      15.900  46.224  -1.140  1.00  0.00    -0.550 OA
ATOM      4  O   UNL     1      14.525  47.856  -1.974  1.00  0.00    -0.550 OA
ENDBRANCH   1   2
BRANCH   1   5
ATOM      5  C   UNL     1      14.085  44.875   0.319  1.00  0.00     0.059 C 
BRANCH   5   6
ATOM      6  C   UNL     1      13.082  43.767   0.378  1.00  0.00     0.042 C 
ATOM      7  O   UNL     1      13.132  42.916   1.304  1.00  0.00    -0.550 OA
ATOM      8  O   UNL     1      12.063  43.701  -0.564  1.00  0.00    -0.550 OA
ENDBRANCH   5   6
ENDBRANCH   1   5
TORSDOF 3
ENDMDL
MODEL 2
REMARK VINA RESULT:    -3.666      0.132      1.152
REMARK INTER + INTRA:          -4.362
REMARK INTER:                  -4.311
REMARK INTRA:                  -0.051
REMARK UNBOUND:                -0.053
REMARK SMILES O=C([O-])CCC(=O)[O-]
REMARK SMILES IDX 4 1 2 2 1 3 3 4 5 5 6 6 7 7 8 8
REMARK H PARENT
REMARK Flexibility Score: inf
ROOT
ATOM      1  C   UNL     1      13.525  46.079  -0.596  1.00  0.00     0.059 C 
ENDROOT
BRANCH   1   2
ATOM      2  C   UNL     1      14.686  46.770  -1.236  1.00  0.00     0.042 C 
ATOM      3  O   UNL     1      14.503  47.800  -1.937  1.00  0.00    -0.550 OA
ATOM      4  O   UNL     1      15.968  46.252  -1.098  1.00  0.00    -0.550 OA
ENDBRANCH   1   2
BRANCH   1   5
ATOM      5  C   UNL     1      14.007  44.915   0.271  1.00  0.00     0.059 C 
BRANCH   5   6
ATOM      6  C   UNL     1      13.008  43.801   0.253  1.00  0.00     0.042 C 
ATOM      7  O   UNL     1      13.071  42.880   1.109  1.00  0.00    -0.550 OA
ATOM      8  O   UNL     1      11.979  43.805  -0.680  1.00  0.00    -0.550 OA
ENDBRANCH   5   6
ENDBRANCH   1   5
TORSDOF 3
ENDMDL
MODEL 3
REMARK VINA RESULT:    -3.660      0.071      4.182
REMARK INTER + INTRA:          -4.354
REMARK INTER:                  -4.305
REMARK INTRA:                  -0.050
REMARK UNBOUND:                -0.053
REMARK SMILES O=C([O-])CCC(=O)[O-]
REMARK SMILES IDX 4 1 2 2 1 3 3 4 5 5 6 6 7 7 8 8
REMARK H PARENT
REMARK Flexibility Score: inf
ROOT
ATOM      1  C   UNL     1      14.086  44.864   0.293  1.00  0.00     0.059 C 
ENDROOT
BRANCH   1   2
ATOM      2  C   UNL     1      13.076  43.764   0.372  1.00  0.00     0.042 C 
ATOM      3  O   UNL     1      13.170  42.879   1.264  1.00  0.00    -0.550 OA
ATOM      4  O   UNL     1      12.056  43.687  -0.568  1.00  0.00    -0.550 OA
ENDBRANCH   1   2
BRANCH   1   5
ATOM      5  C   UNL     1      13.572  46.000  -0.590  1.00  0.00     0.059 C 
BRANCH   5   6
ATOM      6  C   UNL     1      14.708  46.672  -1.294  1.00  0.00     0.042 C 
ATOM      7  O   UNL     1      14.511  47.722  -1.959  1.00  0.00    -0.550 OA
ATOM      8  O   UNL     1      15.996  46.163  -1.177  1.00  0.00    -0.550 OA
ENDBRANCH   5   6
ENDBRANCH   1   5
TORSDOF 3
ENDMDL
MODEL 4
REMARK VINA RESULT:    -3.572      1.670      3.680
REMARK INTER + INTRA:          -4.251
REMARK INTER:                  -4.189
REMARK INTRA:                  -0.061
REMARK UNBOUND:                -0.053
REMARK SMILES O=C([O-])CCC(=O)[O-]
REMARK SMILES IDX 4 1 2 2 1 3 3 4 5 5 6 6 7 7 8 8
REMARK H PARENT
REMARK Flexibility Score: inf
ROOT
ATOM      1  C   UNL     1      13.151  45.234  -0.137  1.00  0.00     0.059 C 
ENDROOT
BRANCH   1   2
ATOM      2  C   UNL     1      12.107  44.367  -0.766  1.00  0.00     0.042 C 
ATOM      3  O   UNL     1      11.139  44.886  -1.383  1.00  0.00    -0.550 OA
ATOM      4  O   UNL     1      12.177  42.986  -0.633  1.00  0.00    -0.550 OA
ENDBRANCH   1   2
BRANCH   1   5
ATOM      5  C   UNL     1      14.149  44.384   0.649  1.00  0.00     0.059 C 
BRANCH   5   6
ATOM      6  C   UNL     1      15.549  44.838   0.380  1.00  0.00     0.042 C 
ATOM      7  O   UNL     1      16.508  44.364   1.042  1.00  0.00    -0.550 OA
ATOM      8  O   UNL     1      15.800  45.752  -0.637  1.00  0.00    -0.550 OA
ENDBRANCH   5   6
ENDBRANCH   1   5
TORSDOF 3
ENDMDL
MODEL 5
REMARK VINA RESULT:    -2.958      1.261      4.206
REMARK INTER + INTRA:          -3.529
REMARK INTER:                  -3.463
REMARK INTRA:                  -0.067
REMARK UNBOUND:                -0.053
REMARK SMILES O=C([O-])CCC(=O)[O-]
REMARK SMILES IDX 4 1 2 2 1 3 3 4 5 5 6 6 7 7 8 8
REMARK H PARENT
REMARK Flexibility Score: inf
ROOT
ATOM      1  C   UNL     1      13.782  45.974  -0.746  1.00  0.00     0.059 C 
ENDROOT
BRANCH   1   2
ATOM      2  C   UNL     1      13.810  44.744   0.104  1.00  0.00     0.042 C 
ATOM      3  O   UNL     1      12.739  44.145   0.389  1.00  0.00    -0.550 OA
ATOM      4  O   UNL     1      15.014  44.284   0.624  1.00  0.00    -0.550 OA
ENDBRANCH   1   2
BRANCH   1   5
ATOM      5  C   UNL     1      15.007  46.845  -0.468  1.00  0.00     0.059 C 
BRANCH   5   6
ATOM      6  C   UNL     1      15.732  47.150  -1.740  1.00  0.00     0.042 C 
ATOM      7  O   UNL     1      16.929  46.791  -1.890  1.00  0.00    -0.550 OA
ATOM      8  O   UNL     1      15.070  47.791  -2.781  1.00  0.00    -0.550 OA
ENDBRANCH   5   6
ENDBRANCH   1   5
TORSDOF 3
ENDMDL
MODEL 6
REMARK VINA RESULT:    -2.955     10.270     12.395
REMARK INTER + INTRA:          -3.526
REMARK INTER:                  -3.402
REMARK INTRA:                  -0.124
REMARK UNBOUND:                -0.053
REMARK SMILES O=C([O-])CCC(=O)[O-]
REMARK SMILES IDX 4 1 2 2 1 3 3 4 5 5 6 6 7 7 8 8
REMARK H PARENT
REMARK Flexibility Score: inf
ROOT
ATOM      1  C   UNL     1      15.707  38.766   9.762  1.00  0.00     0.059 C 
ENDROOT
BRANCH   1   2
ATOM      2  C   UNL     1      14.911  37.927  10.709  1.00  0.00     0.042 C 
ATOM      3  O   UNL     1      13.715  38.225  10.968  1.00  0.00    -0.550 OA
ATOM      4  O   UNL     1      15.502  36.842  11.344  1.00  0.00    -0.550 OA
ENDBRANCH   1   2
BRANCH   1   5
ATOM      5  C   UNL     1      14.780  39.544   8.827  1.00  0.00     0.059 C 
BRANCH   5   6
ATOM      6  C   UNL     1      14.506  38.755   7.586  1.00  0.00     0.042 C 
ATOM      7  O   UNL     1      15.341  38.742   6.645  1.00  0.00    -0.550 OA
ATOM      8  O   UNL     1      13.347  37.994   7.488  1.00  0.00    -0.550 OA
ENDBRANCH   5   6
ENDBRANCH   1   5
TORSDOF 3
ENDMDL
MODEL 7
REMARK VINA RESULT:    -2.954     10.296     12.065
REMARK INTER + INTRA:          -3.525
REMARK INTER:                  -3.395
REMARK INTRA:                  -0.129
REMARK UNBOUND:                -0.053
REMARK SMILES O=C([O-])CCC(=O)[O-]
REMARK SMILES IDX 4 1 2 2 1 3 3 4 5 5 6 6 7 7 8 8
REMARK H PARENT
REMARK Flexibility Score: inf
ROOT
ATOM      1  C   UNL     1      14.735  39.565   8.829  1.00  0.00     0.059 C 
ENDROOT
BRANCH   1   2
ATOM      2  C   UNL     1      14.504  38.739   7.604  1.00  0.00     0.042 C 
ATOM      3  O   UNL     1      15.353  38.733   6.674  1.00  0.00    -0.550 OA
ATOM      4  O   UNL     1      13.330  38.010   7.467  1.00  0.00    -0.550 OA
ENDBRANCH   1   2
BRANCH   1   5
ATOM      5  C   UNL     1      15.658  38.831   9.803  1.00  0.00     0.059 C 
BRANCH   5   6
ATOM      6  C   UNL     1      14.864  37.942  10.707  1.00  0.00     0.042 C 
ATOM      7  O   UNL     1      13.671  38.228  10.990  1.00  0.00    -0.550 OA
ATOM      8  O   UNL     1      15.427  36.772  11.201  1.00  0.00    -0.550 OA
ENDBRANCH   5   6
ENDBRANCH   1   5
TORSDOF 3
ENDMDL
MODEL 8
REMARK VINA RESULT:    -2.899     10.524     12.853
REMARK INTER + INTRA:          -3.460
REMARK INTER:                  -3.423
REMARK INTRA:                  -0.037
REMARK UNBOUND:                -0.053
REMARK SMILES O=C([O-])CCC(=O)[O-]
REMARK SMILES IDX 4 1 2 2 1 3 3 4 5 5 6 6 7 7 8 8
REMARK H PARENT
REMARK Flexibility Score: inf
ROOT
ATOM      1  C   UNL     1      14.072  37.941  10.156  1.00  0.00     0.059 C 
ENDROOT
BRANCH   1   2
ATOM      2  C   UNL     1      14.798  37.653  11.431  1.00  0.00     0.042 C 
ATOM      3  O   UNL     1      14.490  38.264  12.489  1.00  0.00    -0.550 OA
ATOM      4  O   UNL     1      15.847  36.742  11.444  1.00  0.00    -0.550 OA
ENDBRANCH   1   2
BRANCH   1   5
ATOM      5  C   UNL     1      14.854  38.947   9.311  1.00  0.00     0.059 C 
BRANCH   5   6
ATOM      6  C   UNL     1      14.430  38.869   7.879  1.00  0.00     0.042 C 
ATOM      7  O   UNL     1      13.485  38.110   7.538  1.00  0.00    -0.550 OA
ATOM      8  O   UNL     1      15.047  39.671   6.926  1.00  0.00    -0.550 OA
ENDBRANCH   5   6
ENDBRANCH   1   5
TORSDOF 3
ENDMDL
MODEL 9
REMARK VINA RESULT:    -2.787      9.070     10.364
REMARK INTER + INTRA:          -3.328
REMARK INTER:                  -3.258
REMARK INTRA:                  -0.071
REMARK UNBOUND:                -0.053
REMARK SMILES O=C([O-])CCC(=O)[O-]
REMARK SMILES IDX 4 1 2 2 1 3 3 4 5 5 6 6 7 7 8 8
REMARK H PARENT
REMARK Flexibility Score: inf
ROOT
ATOM      1  C   UNL     1      14.771  39.610   8.608  1.00  0.00     0.059 C 
ENDROOT
BRANCH   1   2
ATOM      2  C   UNL     1      14.465  38.703   7.459  1.00  0.00     0.042 C 
ATOM      3  O   UNL     1      15.279  38.593   6.505  1.00  0.00    -0.550 OA
ATOM      4  O   UNL     1      13.259  38.014   7.417  1.00  0.00    -0.550 OA
ENDBRANCH   1   2
BRANCH   1   5
ATOM      5  C   UNL     1      16.123  40.294   8.404  1.00  0.00     0.059 C 
BRANCH   5   6
ATOM      6  C   UNL     1      15.939  41.641   7.780  1.00  0.00     0.042 C 
ATOM      7  O   UNL     1      16.632  41.978   6.785  1.00  0.00    -0.550 OA
ATOM      8  O   UNL     1      14.968  42.507   8.268  1.00  0.00    -0.550 OA
ENDBRANCH   5   6
ENDBRANCH   1   5
TORSDOF 3
ENDMDL
