MODEL 1
REMARK VINA RESULT:    -6.163      0.000      0.000
REMARK INTER + INTRA:          -6.703
REMARK INTER:                  -6.703
REMARK INTRA:                   0.000
REMARK UNBOUND:                 0.000
REMARK SMILES Cc1cc(O)c2c(c1)C(=O)c1cc(O)cc(O)c1C2=O
REMARK SMILES IDX 1 1 2 2 8 3 7 4 6 5 4 6 3 7 19 8 20 9 18 10 11 11 9 12 10 13
REMARK SMILES IDX 12 14 13 15 15 16 16 17 5 18 17 20 14 22
REMARK H PARENT 5 19 17 21 14 23
REMARK Flexibility Score: inf
ROOT
ATOM      1  C   UNL     1      -0.777 -27.831  -0.949  1.00  0.00     0.044 C 
ATOM      2  C   UNL     1      -2.082 -28.501  -1.265  1.00  0.00    -0.047 A 
ATOM      3  C   UNL     1      -2.380 -28.876  -2.579  1.00  0.00     0.016 A 
ATOM      4  C   UNL     1      -3.612 -29.478  -2.890  1.00  0.00     0.038 A 
ATOM      5  C   UNL     1      -4.559 -29.709  -1.867  1.00  0.00     0.076 A 
ATOM      6  C   UNL     1      -4.285 -29.250  -0.553  1.00  0.00     0.127 A 
ATOM      7  C   UNL     1      -3.045 -28.671  -0.264  1.00  0.00     0.050 A 
ATOM      8  C   UNL     1      -5.784 -30.479  -2.204  1.00  0.00     0.201 C 
ATOM      9  O   UNL     1      -6.342 -31.186  -1.324  1.00  0.00    -0.288 OA
ATOM     10  C   UNL     1      -6.236 -30.565  -3.617  1.00  0.00     0.076 A 
ATOM     11  C   UNL     1      -5.287 -30.331  -4.638  1.00  0.00     0.041 A 
ATOM     12  C   UNL     1      -3.923 -29.867  -4.285  1.00  0.00     0.194 C 
ATOM     13  O   UNL     1      -3.036 -29.778  -5.178  1.00  0.00    -0.289 OA
ATOM     14  C   UNL     1      -5.640 -30.536  -5.982  1.00  0.00     0.059 A 
ATOM     15  C   UNL     1      -6.929 -30.955  -6.320  1.00  0.00     0.120 A 
ATOM     16  C   UNL     1      -7.881 -31.148  -5.320  1.00  0.00     0.093 A 
ATOM     17  C   UNL     1      -7.561 -30.931  -3.975  1.00  0.00     0.131 A 
ENDROOT
BRANCH   6  18
ATOM     18  O   UNL     1      -5.223 -29.313   0.480  1.00  0.00    -0.507 OA
ATOM     19  H   UNL     1      -5.962 -28.636   0.606  1.00  0.00     0.293 HD
ENDBRANCH   6  18
BRANCH  17  20
ATOM     20  O   UNL     1      -8.589 -31.055  -3.040  1.00  0.00    -0.507 OA
ATOM     21  H   UNL     1      -9.359 -31.704  -3.138  1.00  0.00     0.293 HD
ENDBRANCH  17  20
BRANCH  15  22
ATOM     22  O   UNL     1      -7.280 -31.171  -7.651  1.00  0.00    -0.508 OA
ATOM     23  H   UNL     1      -6.606 -31.510  -8.329  1.00  0.00     0.293 HD
ENDBRANCH  15  22
TORSDOF 3
ENDMDL
MODEL 2
REMARK VINA RESULT:    -6.093      2.005      3.646
REMARK INTER + INTRA:          -6.627
REMARK INTER:                  -6.627
REMARK INTRA:                   0.000
REMARK UNBOUND:                 0.000
REMARK SMILES Cc1cc(O)c2c(c1)C(=O)c1cc(O)cc(O)c1C2=O
REMARK SMILES IDX 1 1 2 2 8 3 7 4 6 5 4 6 3 7 19 8 20 9 18 10 11 11 9 12 10 13
REMARK SMILES IDX 12 14 13 15 15 16 16 17 5 18 17 20 14 22
REMARK H PARENT 5 19 17 21 14 23
REMARK Flexibility Score: inf
ROOT
ATOM      1  C   UNL     1      -5.350 -28.470   1.631  1.00  0.00     0.044 C 
ATOM      2  C   UNL     1      -5.414 -29.039   0.244  1.00  0.00    -0.047 A 
ATOM      3  C   UNL     1      -4.237 -29.262  -0.480  1.00  0.00     0.016 A 
ATOM      4  C   UNL     1      -4.287 -29.768  -1.790  1.00  0.00     0.038 A 
ATOM      5  C   UNL     1      -5.536 -30.055  -2.385  1.00  0.00     0.076 A 
ATOM      6  C   UNL     1      -6.727 -29.748  -1.678  1.00  0.00     0.127 A 
ATOM      7  C   UNL     1      -6.652 -29.263  -0.368  1.00  0.00     0.050 A 
ATOM      8  C   UNL     1      -5.545 -30.726  -3.711  1.00  0.00     0.201 C 
ATOM      9  O   UNL     1      -6.497 -31.491  -4.020  1.00  0.00    -0.288 OA
ATOM     10  C   UNL     1      -4.349 -30.643  -4.588  1.00  0.00     0.076 A 
ATOM     11  C   UNL     1      -3.101 -30.353  -3.990  1.00  0.00     0.041 A 
ATOM     12  C   UNL     1      -3.037 -29.995  -2.552  1.00  0.00     0.194 C 
ATOM     13  O   UNL     1      -1.918 -29.859  -1.985  1.00  0.00    -0.289 OA
ATOM     14  C   UNL     1      -1.928 -30.402  -4.761  1.00  0.00     0.059 A 
ATOM     15  C   UNL     1      -1.985 -30.719  -6.120  1.00  0.00     0.120 A 
ATOM     16  C   UNL     1      -3.217 -30.967  -6.723  1.00  0.00     0.093 A 
ATOM     17  C   UNL     1      -4.403 -30.905  -5.982  1.00  0.00     0.131 A 
ENDROOT
BRANCH   6  18
ATOM     18  O   UNL     1      -7.997 -29.871  -2.248  1.00  0.00    -0.507 OA
ATOM     19  H   UNL     1      -8.402 -29.179  -2.863  1.00  0.00     0.293 HD
ENDBRANCH   6  18
BRANCH  17  20
ATOM     20  O   UNL     1      -5.604 -31.074  -6.673  1.00  0.00    -0.507 OA
ATOM     21  H   UNL     1      -6.444 -30.547  -6.472  1.00  0.00     0.293 HD
ENDBRANCH  17  20
BRANCH  15  22
ATOM     22  O   UNL     1      -0.823 -30.780  -6.886  1.00  0.00    -0.508 OA
ATOM     23  H   UNL     1       0.053 -31.108  -6.495  1.00  0.00     0.293 HD
ENDBRANCH  15  22
TORSDOF 3
ENDMDL
MODEL 3
REMARK VINA RESULT:    -5.965      1.442      6.398
REMARK INTER + INTRA:          -6.488
REMARK INTER:                  -6.488
REMARK INTRA:                   0.000
REMARK UNBOUND:                 0.000
REMARK SMILES Cc1cc(O)c2c(c1)C(=O)c1cc(O)cc(O)c1C2=O
REMARK SMILES IDX 1 1 2 2 8 3 7 4 6 5 4 6 3 7 19 8 20 9 18 10 11 11 9 12 10 13
REMARK SMILES IDX 12 14 13 15 15 16 16 17 5 18 17 20 14 22
REMARK H PARENT 5 19 17 21 14 23
REMARK Flexibility Score: inf
ROOT
ATOM      1  C   UNL     1     -11.183 -31.506  -4.960  1.00  0.00     0.044 C 
ATOM      2  C   UNL     1      -9.703 -31.271  -5.038  1.00  0.00    -0.047 A 
ATOM      3  C   UNL     1      -8.969 -31.011  -3.876  1.00  0.00     0.016 A 
ATOM      4  C   UNL     1      -7.587 -30.762  -3.942  1.00  0.00     0.038 A 
ATOM      5  C   UNL     1      -6.930 -30.774  -5.193  1.00  0.00     0.076 A 
ATOM      6  C   UNL     1      -7.694 -30.955  -6.375  1.00  0.00     0.127 A 
ATOM      7  C   UNL     1      -9.064 -31.221  -6.282  1.00  0.00     0.050 A 
ATOM      8  C   UNL     1      -5.449 -30.654  -5.210  1.00  0.00     0.201 C 
ATOM      9  O   UNL     1      -4.786 -31.205  -6.129  1.00  0.00    -0.288 OA
ATOM     10  C   UNL     1      -4.744 -30.052  -4.049  1.00  0.00     0.076 A 
ATOM     11  C   UNL     1      -5.405 -30.039  -2.800  1.00  0.00     0.041 A 
ATOM     12  C   UNL     1      -6.818 -30.479  -2.708  1.00  0.00     0.194 C 
ATOM     13  O   UNL     1      -7.373 -30.589  -1.579  1.00  0.00    -0.289 OA
ATOM     14  C   UNL     1      -4.722 -29.605  -1.651  1.00  0.00     0.059 A 
ATOM     15  C   UNL     1      -3.397 -29.170  -1.737  1.00  0.00     0.120 A 
ATOM     16  C   UNL     1      -2.754 -29.144  -2.973  1.00  0.00     0.093 A 
ATOM     17  C   UNL     1      -3.418 -29.552  -4.135  1.00  0.00     0.131 A 
ENDROOT
BRANCH   6  18
ATOM     18  O   UNL     1      -7.144 -30.843  -7.654  1.00  0.00    -0.507 OA
ATOM     19  H   UNL     1      -7.583 -31.214  -8.485  1.00  0.00     0.293 HD
ENDBRANCH   6  18
BRANCH  17  20
ATOM     20  O   UNL     1      -2.741 -29.411  -5.348  1.00  0.00    -0.507 OA
ATOM     21  H   UNL     1      -2.747 -30.113  -6.076  1.00  0.00     0.293 HD
ENDBRANCH  17  20
BRANCH  15  22
ATOM     22  O   UNL     1      -2.712 -28.751  -0.599  1.00  0.00    -0.508 OA
ATOM     23  H   UNL     1      -1.832 -28.250  -0.663  1.00  0.00     0.293 HD
ENDBRANCH  15  22
TORSDOF 3
ENDMDL
MODEL 4
REMARK VINA RESULT:    -5.932      2.097      4.469
REMARK INTER + INTRA:          -6.452
REMARK INTER:                  -6.452
REMARK INTRA:                   0.000
REMARK UNBOUND:                 0.000
REMARK SMILES Cc1cc(O)c2c(c1)C(=O)c1cc(O)cc(O)c1C2=O
REMARK SMILES IDX 1 1 2 2 8 3 7 4 6 5 4 6 3 7 19 8 20 9 18 10 11 11 9 12 10 13
REMARK SMILES IDX 12 14 13 15 15 16 16 17 5 18 17 20 14 22
REMARK H PARENT 5 19 17 21 14 23
REMARK Flexibility Score: inf
ROOT
ATOM      1  C   UNL     1      -8.373 -28.461   1.262  1.00  0.00     0.044 C 
ATOM      2  C   UNL     1      -7.973 -28.968  -0.093  1.00  0.00    -0.047 A 
ATOM      3  C   UNL     1      -6.627 -29.225  -0.378  1.00  0.00     0.016 A 
ATOM      4  C   UNL     1      -6.239 -29.673  -1.652  1.00  0.00     0.038 A 
ATOM      5  C   UNL     1      -7.214 -29.867  -2.657  1.00  0.00     0.076 A 
ATOM      6  C   UNL     1      -8.564 -29.525  -2.386  1.00  0.00     0.127 A 
ATOM      7  C   UNL     1      -8.930 -29.099  -1.105  1.00  0.00     0.050 A 
ATOM      8  C   UNL     1      -6.787 -30.481  -3.941  1.00  0.00     0.201 C 
ATOM      9  O   UNL     1      -7.600 -31.180  -4.602  1.00  0.00    -0.288 OA
ATOM     10  C   UNL     1      -5.359 -30.427  -4.346  1.00  0.00     0.076 A 
ATOM     11  C   UNL     1      -4.386 -30.230  -3.339  1.00  0.00     0.041 A 
ATOM     12  C   UNL     1      -4.811 -29.935  -1.950  1.00  0.00     0.194 C 
ATOM     13  O   UNL     1      -3.954 -29.884  -1.025  1.00  0.00    -0.289 OA
ATOM     14  C   UNL     1      -3.021 -30.310  -3.661  1.00  0.00     0.059 A 
ATOM     15  C   UNL     1      -2.615 -30.568  -4.973  1.00  0.00     0.120 A 
ATOM     16  C   UNL     1      -3.570 -30.723  -5.976  1.00  0.00     0.093 A 
ATOM     17  C   UNL     1      -4.936 -30.628  -5.686  1.00  0.00     0.131 A 
ENDROOT
BRANCH   6  18
ATOM     18  O   UNL     1      -9.561 -29.555  -3.364  1.00  0.00    -0.507 OA
ATOM     19  H   UNL     1     -10.161 -28.770  -3.576  1.00  0.00     0.293 HD
ENDBRANCH   6  18
BRANCH  17  20
ATOM     20  O   UNL     1      -5.829 -30.703  -6.757  1.00  0.00    -0.507 OA
ATOM     21  H   UNL     1      -6.211 -31.572  -7.106  1.00  0.00     0.293 HD
ENDBRANCH  17  20
BRANCH  15  22
ATOM     22  O   UNL     1      -1.262 -30.661  -5.293  1.00  0.00    -0.508 OA
ATOM     23  H   UNL     1      -0.954 -31.005  -6.196  1.00  0.00     0.293 HD
ENDBRANCH  15  22
TORSDOF 3
ENDMDL
MODEL 5
REMARK VINA RESULT:    -5.877      1.423      6.285
REMARK INTER + INTRA:          -6.392
REMARK INTER:                  -6.392
REMARK INTRA:                   0.000
REMARK UNBOUND:                 0.000
REMARK SMILES Cc1cc(O)c2c(c1)C(=O)c1cc(O)cc(O)c1C2=O
REMARK SMILES IDX 1 1 2 2 8 3 7 4 6 5 4 6 3 7 19 8 20 9 18 10 11 11 9 12 10 13
REMARK SMILES IDX 12 14 13 15 15 16 16 17 5 18 17 20 14 22
REMARK H PARENT 5 19 17 21 14 23
REMARK Flexibility Score: inf
ROOT
ATOM      1  C   UNL     1      -8.553 -31.389  -6.000  1.00  0.00     0.044 C 
ATOM      2  C   UNL     1      -7.257 -30.992  -5.357  1.00  0.00    -0.047 A 
ATOM      3  C   UNL     1      -7.194 -30.774  -3.976  1.00  0.00     0.016 A 
ATOM      4  C   UNL     1      -5.992 -30.375  -3.368  1.00  0.00     0.038 A 
ATOM      5  C   UNL     1      -4.833 -30.191  -4.156  1.00  0.00     0.076 A 
ATOM      6  C   UNL     1      -4.924 -30.332  -5.565  1.00  0.00     0.127 A 
ATOM      7  C   UNL     1      -6.126 -30.749  -6.145  1.00  0.00     0.050 A 
ATOM      8  C   UNL     1      -3.549 -29.914  -3.462  1.00  0.00     0.201 C 
ATOM      9  O   UNL     1      -2.463 -30.295  -3.977  1.00  0.00    -0.288 OA
ATOM     10  C   UNL     1      -3.559 -29.361  -2.083  1.00  0.00     0.076 A 
ATOM     11  C   UNL     1      -4.720 -29.544  -1.299  1.00  0.00     0.041 A 
ATOM     12  C   UNL     1      -5.935 -30.139  -1.906  1.00  0.00     0.194 C 
ATOM     13  O   UNL     1      -6.930 -30.420  -1.183  1.00  0.00    -0.289 OA
ATOM     14  C   UNL     1      -4.720 -29.159   0.052  1.00  0.00     0.059 A 
ATOM     15  C   UNL     1      -3.584 -28.580   0.624  1.00  0.00     0.120 A 
ATOM     16  C   UNL     1      -2.450 -28.361  -0.156  1.00  0.00     0.093 A 
ATOM     17  C   UNL     1      -2.431 -28.717  -1.509  1.00  0.00     0.131 A 
ENDROOT
BRANCH   6  18
ATOM     18  O   UNL     1      -3.864 -30.033  -6.423  1.00  0.00    -0.507 OA
ATOM     19  H   UNL     1      -3.471 -30.695  -7.078  1.00  0.00     0.293 HD
ENDBRANCH   6  18
BRANCH  17  20
ATOM     20  O   UNL     1      -1.295 -28.383  -2.248  1.00  0.00    -0.507 OA
ATOM     21  H   UNL     1      -0.351 -28.479  -1.896  1.00  0.00     0.293 HD
ENDBRANCH  17  20
BRANCH  15  22
ATOM     22  O   UNL     1      -3.575 -28.207   1.967  1.00  0.00    -0.508 OA
ATOM     23  H   UNL     1      -4.031 -27.359   2.285  1.00  0.00     0.293 HD
ENDBRANCH  15  22
TORSDOF 3
ENDMDL
MODEL 6
REMARK VINA RESULT:    -5.812      9.395     10.851
REMARK INTER + INTRA:          -6.322
REMARK INTER:                  -6.322
REMARK INTRA:                   0.000
REMARK UNBOUND:                 0.000
REMARK SMILES Cc1cc(O)c2c(c1)C(=O)c1cc(O)cc(O)c1C2=O
REMARK SMILES IDX 1 1 2 2 8 3 7 4 6 5 4 6 3 7 19 8 20 9 18 10 11 11 9 12 10 13
REMARK SMILES IDX 12 14 13 15 15 16 16 17 5 18 17 20 14 22
REMARK H PARENT 5 19 17 21 14 23
REMARK Flexibility Score: inf
ROOT
ATOM      1  C   UNL     1       2.539 -30.640   3.580  1.00  0.00     0.044 C 
ATOM      2  C   UNL     1       3.049 -29.491   2.762  1.00  0.00    -0.047 A 
ATOM      3  C   UNL     1       2.214 -28.404   2.478  1.00  0.00     0.016 A 
ATOM      4  C   UNL     1       2.672 -27.336   1.689  1.00  0.00     0.038 A 
ATOM      5  C   UNL     1       3.989 -27.356   1.175  1.00  0.00     0.076 A 
ATOM      6  C   UNL     1       4.801 -28.498   1.397  1.00  0.00     0.127 A 
ATOM      7  C   UNL     1       4.330 -29.540   2.202  1.00  0.00     0.050 A 
ATOM      8  C   UNL     1       4.487 -26.145   0.472  1.00  0.00     0.201 C 
ATOM      9  O   UNL     1       5.714 -25.861   0.506  1.00  0.00    -0.288 OA
ATOM     10  C   UNL     1       3.519 -25.176  -0.105  1.00  0.00     0.076 A 
ATOM     11  C   UNL     1       2.203 -25.161   0.408  1.00  0.00     0.041 A 
ATOM     12  C   UNL     1       1.779 -26.192   1.386  1.00  0.00     0.194 C 
ATOM     13  O   UNL     1       0.649 -26.110   1.942  1.00  0.00    -0.289 OA
ATOM     14  C   UNL     1       1.299 -24.171  -0.013  1.00  0.00     0.059 A 
ATOM     15  C   UNL     1       1.687 -23.209  -0.949  1.00  0.00     0.120 A 
ATOM     16  C   UNL     1       2.972 -23.245  -1.488  1.00  0.00     0.093 A 
ATOM     17  C   UNL     1       3.884 -24.232  -1.100  1.00  0.00     0.131 A 
ENDROOT
BRANCH   6  18
ATOM     18  O   UNL     1       6.058 -28.655   0.809  1.00  0.00    -0.507 OA
ATOM     19  H   UNL     1       6.312 -29.448   0.237  1.00  0.00     0.293 HD
ENDBRANCH   6  18
BRANCH  17  20
ATOM     20  O   UNL     1       5.119 -24.259  -1.750  1.00  0.00    -0.507 OA
ATOM     21  H   UNL     1       5.612 -25.112  -1.980  1.00  0.00     0.293 HD
ENDBRANCH  17  20
BRANCH  15  22
ATOM     22  O   UNL     1       0.798 -22.218  -1.360  1.00  0.00    -0.508 OA
ATOM     23  H   UNL     1       0.619 -22.040  -2.342  1.00  0.00     0.293 HD
ENDBRANCH  15  22
TORSDOF 3
ENDMDL
MODEL 7
REMARK VINA RESULT:    -5.787      1.590      2.526
REMARK INTER + INTRA:          -6.294
REMARK INTER:                  -6.294
REMARK INTRA:                   0.000
REMARK UNBOUND:                 0.000
REMARK SMILES Cc1cc(O)c2c(c1)C(=O)c1cc(O)cc(O)c1C2=O
REMARK SMILES IDX 1 1 2 2 8 3 7 4 6 5 4 6 3 7 19 8 20 9 18 10 11 11 9 12 10 13
REMARK SMILES IDX 12 14 13 15 15 16 16 17 5 18 17 20 14 22
REMARK H PARENT 5 19 17 21 14 23
REMARK Flexibility Score: inf
ROOT
ATOM      1  C   UNL     1      -2.626 -27.310   2.585  1.00  0.00     0.044 C 
ATOM      2  C   UNL     1      -3.403 -28.013   1.511  1.00  0.00    -0.047 A 
ATOM      3  C   UNL     1      -2.815 -28.262   0.266  1.00  0.00     0.016 A 
ATOM      4  C   UNL     1      -3.543 -28.895  -0.756  1.00  0.00     0.038 A 
ATOM      5  C   UNL     1      -4.882 -29.285  -0.527  1.00  0.00     0.076 A 
ATOM      6  C   UNL     1      -5.498 -28.954   0.708  1.00  0.00     0.127 A 
ATOM      7  C   UNL     1      -4.747 -28.342   1.717  1.00  0.00     0.050 A 
ATOM      8  C   UNL     1      -5.570 -30.081  -1.575  1.00  0.00     0.201 C 
ATOM      9  O   UNL     1      -6.463 -30.908  -1.248  1.00  0.00    -0.288 OA
ATOM     10  C   UNL     1      -5.078 -30.040  -2.976  1.00  0.00     0.076 A 
ATOM     11  C   UNL     1      -3.739 -29.647  -3.202  1.00  0.00     0.041 A 
ATOM     12  C   UNL     1      -2.916 -29.148  -2.074  1.00  0.00     0.194 C 
ATOM     13  O   UNL     1      -1.687 -28.916  -2.244  1.00  0.00    -0.289 OA
ATOM     14  C   UNL     1      -3.195 -29.727  -4.495  1.00  0.00     0.059 A 
ATOM     15  C   UNL     1      -3.973 -30.177  -5.565  1.00  0.00     0.120 A 
ATOM     16  C   UNL     1      -5.306 -30.528  -5.354  1.00  0.00     0.093 A 
ATOM     17  C   UNL     1      -5.877 -30.438  -4.080  1.00  0.00     0.131 A 
ENDROOT
BRANCH   6  18
ATOM     18  O   UNL     1      -6.853 -29.180   0.959  1.00  0.00    -0.507 OA
ATOM     19  H   UNL     1      -7.597 -28.646   0.531  1.00  0.00     0.293 HD
ENDBRANCH   6  18
BRANCH  17  20
ATOM     20  O   UNL     1      -7.240 -30.719  -3.964  1.00  0.00    -0.507 OA
ATOM     21  H   UNL     1      -7.603 -31.614  -3.663  1.00  0.00     0.293 HD
ENDBRANCH  17  20
BRANCH  15  22
ATOM     22  O   UNL     1      -3.434 -30.270  -6.846  1.00  0.00    -0.508 OA
ATOM     23  H   UNL     1      -2.482 -29.982  -7.044  1.00  0.00     0.293 HD
ENDBRANCH  15  22
TORSDOF 3
ENDMDL
MODEL 8
REMARK VINA RESULT:    -5.683      1.822      3.756
REMARK INTER + INTRA:          -6.181
REMARK INTER:                  -6.181
REMARK INTRA:                   0.000
REMARK UNBOUND:                 0.000
REMARK SMILES Cc1cc(O)c2c(c1)C(=O)c1cc(O)cc(O)c1C2=O
REMARK SMILES IDX 1 1 2 2 8 3 7 4 6 5 4 6 3 7 19 8 20 9 18 10 11 11 9 12 10 13
REMARK SMILES IDX 12 14 13 15 15 16 16 17 5 18 17 20 14 22
REMARK H PARENT 5 19 17 21 14 23
REMARK Flexibility Score: inf
ROOT
ATOM      1  C   UNL     1      -5.963 -29.393   2.998  1.00  0.00     0.044 C 
ATOM      2  C   UNL     1      -5.277 -29.364   1.663  1.00  0.00    -0.047 A 
ATOM      3  C   UNL     1      -6.000 -29.629   0.495  1.00  0.00     0.016 A 
ATOM      4  C   UNL     1      -5.360 -29.632  -0.757  1.00  0.00     0.038 A 
ATOM      5  C   UNL     1      -3.975 -29.363  -0.839  1.00  0.00     0.076 A 
ATOM      6  C   UNL     1      -3.234 -29.178   0.356  1.00  0.00     0.127 A 
ATOM      7  C   UNL     1      -3.895 -29.160   1.588  1.00  0.00     0.050 A 
ATOM      8  C   UNL     1      -3.365 -29.228  -2.187  1.00  0.00     0.201 C 
ATOM      9  O   UNL     1      -2.372 -28.471  -2.353  1.00  0.00    -0.288 OA
ATOM     10  C   UNL     1      -4.038 -29.833  -3.366  1.00  0.00     0.076 A 
ATOM     11  C   UNL     1      -5.422 -30.103  -3.279  1.00  0.00     0.041 A 
ATOM     12  C   UNL     1      -6.131 -29.922  -1.989  1.00  0.00     0.194 C 
ATOM     13  O   UNL     1      -7.386 -30.039  -1.936  1.00  0.00    -0.289 OA
ATOM     14  C   UNL     1      -6.121 -30.546  -4.415  1.00  0.00     0.059 A 
ATOM     15  C   UNL     1      -5.455 -30.737  -5.628  1.00  0.00     0.120 A 
ATOM     16  C   UNL     1      -4.082 -30.510  -5.708  1.00  0.00     0.093 A 
ATOM     17  C   UNL     1      -3.359 -30.089  -4.586  1.00  0.00     0.131 A 
ENDROOT
BRANCH   6  18
ATOM     18  O   UNL     1      -1.843 -29.047   0.368  1.00  0.00    -0.507 OA
ATOM     19  H   UNL     1      -1.292 -28.864  -0.459  1.00  0.00     0.293 HD
ENDBRANCH   6  18
BRANCH  17  20
ATOM     20  O   UNL     1      -1.974 -29.971  -4.719  1.00  0.00    -0.507 OA
ATOM     21  H   UNL     1      -1.320 -30.196  -3.981  1.00  0.00     0.293 HD
ENDBRANCH  17  20
BRANCH  15  22
ATOM     22  O   UNL     1      -6.146 -31.164  -6.759  1.00  0.00    -0.508 OA
ATOM     23  H   UNL     1      -6.824 -31.917  -6.714  1.00  0.00     0.293 HD
ENDBRANCH  15  22
TORSDOF 3
ENDMDL
MODEL 9
REMARK VINA RESULT:    -5.643      1.602      3.421
REMARK INTER + INTRA:          -6.137
REMARK INTER:                  -6.137
REMARK INTRA:                   0.000
REMARK UNBOUND:                 0.000
REMARK SMILES Cc1cc(O)c2c(c1)C(=O)c1cc(O)cc(O)c1C2=O
REMARK SMILES IDX 1 1 2 2 8 3 7 4 6 5 4 6 3 7 19 8 20 9 18 10 11 11 9 12 10 13
REMARK SMILES IDX 12 14 13 15 15 16 16 17 5 18 17 20 14 22
REMARK H PARENT 5 19 17 21 14 23
REMARK Flexibility Score: inf
ROOT
ATOM      1  C   UNL     1      -4.588 -28.479   1.612  1.00  0.00     0.044 C 
ATOM      2  C   UNL     1      -4.343 -28.864   0.182  1.00  0.00    -0.047 A 
ATOM      3  C   UNL     1      -5.298 -29.608  -0.520  1.00  0.00     0.016 A 
ATOM      4  C   UNL     1      -5.066 -29.997  -1.850  1.00  0.00     0.038 A 
ATOM      5  C   UNL     1      -3.858 -29.635  -2.488  1.00  0.00     0.076 A 
ATOM      6  C   UNL     1      -2.860 -28.953  -1.744  1.00  0.00     0.127 A 
ATOM      7  C   UNL     1      -3.122 -28.559  -0.428  1.00  0.00     0.050 A 
ATOM      8  C   UNL     1      -3.711 -29.934  -3.935  1.00  0.00     0.201 C 
ATOM      9  O   UNL     1      -2.998 -29.190  -4.660  1.00  0.00    -0.288 OA
ATOM     10  C   UNL     1      -4.548 -30.991  -4.560  1.00  0.00     0.076 A 
ATOM     11  C   UNL     1      -5.754 -31.354  -3.918  1.00  0.00     0.041 A 
ATOM     12  C   UNL     1      -6.078 -30.792  -2.584  1.00  0.00     0.194 C 
ATOM     13  O   UNL     1      -7.207 -31.011  -2.064  1.00  0.00    -0.289 OA
ATOM     14  C   UNL     1      -6.639 -32.247  -4.544  1.00  0.00     0.059 A 
ATOM     15  C   UNL     1      -6.328 -32.795  -5.792  1.00  0.00     0.120 A 
ATOM     16  C   UNL     1      -5.122 -32.471  -6.410  1.00  0.00     0.093 A 
ATOM     17  C   UNL     1      -4.214 -31.600  -5.798  1.00  0.00     0.131 A 
ENDROOT
BRANCH   6  18
ATOM     18  O   UNL     1      -1.589 -28.683  -2.258  1.00  0.00    -0.507 OA
ATOM     19  H   UNL     1      -1.405 -28.523  -3.239  1.00  0.00     0.293 HD
ENDBRANCH   6  18
BRANCH  17  20
ATOM     20  O   UNL     1      -2.988 -31.395  -6.434  1.00  0.00    -0.507 OA
ATOM     21  H   UNL     1      -2.170 -31.966  -6.268  1.00  0.00     0.293 HD
ENDBRANCH  17  20
BRANCH  15  22
ATOM     22  O   UNL     1      -7.209 -33.672  -6.422  1.00  0.00    -0.508 OA
ATOM     23  H   UNL     1      -8.179 -33.745  -6.138  1.00  0.00     0.293 HD
ENDBRANCH  15  22
TORSDOF 3
ENDMDL
