MODEL 1
REMARK VINA RESULT:    -3.678      0.000      0.000
REMARK INTER + INTRA:          -3.911
REMARK INTER:                  -3.893
REMARK INTRA:                  -0.018
REMARK UNBOUND:                -0.018
REMARK SMILES O=C([O-])c1cccnc1
REMARK SMILES IDX 4 1 5 2 9 3 6 4 8 5 7 6 2 7 1 8 3 9
REMARK H PARENT
REMARK Flexibility Score: inf
ROOT
ATOM      1  C   UNL     1      -4.719   1.785  -0.100  1.00  0.00     0.016 A 
ATOM      2  C   UNL     1      -4.927   0.578   0.590  1.00  0.00     0.013 A 
ATOM      3  C   UNL     1      -5.798   2.343  -0.808  1.00  0.00     0.120 A 
ATOM      4  C   UNL     1      -6.179  -0.037   0.563  1.00  0.00     0.021 A 
ATOM      5  N   UNL     1      -7.007   1.722  -0.818  1.00  0.00    -0.264 NA
ATOM      6  C   UNL     1      -7.219   0.557  -0.153  1.00  0.00     0.111 A 
ENDROOT
BRANCH   1   7
ATOM      7  C   UNL     1      -3.400   2.453  -0.086  1.00  0.00     0.073 C 
ATOM      8  O   UNL     1      -2.827   2.761  -1.166  1.00  0.00    -0.545 OA
ATOM      9  O   UNL     1      -2.774   2.751   1.118  1.00  0.00    -0.545 OA
ENDBRANCH   1   7
TORSDOF 1
ENDMDL
MODEL 2
REMARK VINA RESULT:    -3.671      0.901      1.601
REMARK INTER + INTRA:          -3.904
REMARK INTER:                  -3.886
REMARK INTRA:                  -0.018
REMARK UNBOUND:                -0.018
REMARK SMILES O=C([O-])c1cccnc1
REMARK SMILES IDX 4 1 5 2 9 3 6 4 8 5 7 6 2 7 1 8 3 9
REMARK H PARENT
REMARK Flexibility Score: inf
ROOT
ATOM      1  C   UNL     1      -4.716   1.800  -0.080  1.00  0.00     0.016 A 
ATOM      2  C   UNL     1      -5.764   2.386  -0.812  1.00  0.00     0.013 A 
ATOM      3  C   UNL     1      -4.975   0.607   0.618  1.00  0.00     0.120 A 
ATOM      4  C   UNL     1      -7.023   1.785  -0.835  1.00  0.00     0.021 A 
ATOM      5  N   UNL     1      -6.211   0.043   0.578  1.00  0.00    -0.264 NA
ATOM      6  C   UNL     1      -7.230   0.601  -0.127  1.00  0.00     0.111 A 
ENDROOT
BRANCH   1   7
ATOM      7  C   UNL     1      -3.375   2.420  -0.041  1.00  0.00     0.073 C 
ATOM      8  O   UNL     1      -2.748   2.658  -1.109  1.00  0.00    -0.545 OA
ATOM      9  O   UNL     1      -2.786   2.748   1.174  1.00  0.00    -0.545 OA
ENDBRANCH   1   7
TORSDOF 1
ENDMDL
MODEL 3
REMARK VINA RESULT:    -3.362      9.100      9.648
REMARK INTER + INTRA:          -3.577
REMARK INTER:                  -3.555
REMARK INTRA:                  -0.021
REMARK UNBOUND:                -0.018
REMARK SMILES O=C([O-])c1cccnc1
REMARK SMILES IDX 4 1 5 2 9 3 6 4 8 5 7 6 2 7 1 8 3 9
REMARK H PARENT
REMARK Flexibility Score: inf
ROOT
ATOM      1  C   UNL     1       4.086   1.634  -1.643  1.00  0.00     0.016 A 
ATOM      2  C   UNL     1       4.632   2.874  -1.268  1.00  0.00     0.013 A 
ATOM      3  C   UNL     1       3.317   1.571  -2.818  1.00  0.00     0.120 A 
ATOM      4  C   UNL     1       4.407   4.005  -2.054  1.00  0.00     0.021 A 
ATOM      5  N   UNL     1       3.114   2.689  -3.566  1.00  0.00    -0.264 NA
ATOM      6  C   UNL     1       3.638   3.891  -3.212  1.00  0.00     0.111 A 
ENDROOT
BRANCH   1   7
ATOM      7  C   UNL     1       4.311   0.424  -0.824  1.00  0.00     0.073 C 
ATOM      8  O   UNL     1       4.410  -0.709  -1.369  1.00  0.00    -0.545 OA
ATOM      9  O   UNL     1       4.415   0.518   0.558  1.00  0.00    -0.545 OA
ENDBRANCH   1   7
TORSDOF 1
ENDMDL
MODEL 4
REMARK VINA RESULT:    -3.248      1.517      1.594
REMARK INTER + INTRA:          -3.457
REMARK INTER:                  -3.434
REMARK INTRA:                  -0.023
REMARK UNBOUND:                -0.018
REMARK SMILES O=C([O-])c1cccnc1
REMARK SMILES IDX 4 1 5 2 9 3 6 4 8 5 7 6 2 7 1 8 3 9
REMARK H PARENT
REMARK Flexibility Score: inf
ROOT
ATOM      1  C   UNL     1      -4.696   1.942   1.055  1.00  0.00     0.016 A 
ATOM      2  C   UNL     1      -4.982   0.733   0.397  1.00  0.00     0.013 A 
ATOM      3  C   UNL     1      -5.682   2.498   1.888  1.00  0.00     0.120 A 
ATOM      4  C   UNL     1      -6.218   0.113   0.578  1.00  0.00     0.021 A 
ATOM      5  N   UNL     1      -6.879   1.872   2.047  1.00  0.00    -0.264 NA
ATOM      6  C   UNL     1      -7.164   0.703   1.416  1.00  0.00     0.111 A 
ENDROOT
BRANCH   1   7
ATOM      7  C   UNL     1      -3.392   2.617   0.876  1.00  0.00     0.073 C 
ATOM      8  O   UNL     1      -2.668   2.356  -0.121  1.00  0.00    -0.545 OA
ATOM      9  O   UNL     1      -2.948   3.548   1.807  1.00  0.00    -0.545 OA
ENDBRANCH   1   7
TORSDOF 1
ENDMDL
MODEL 5
REMARK VINA RESULT:    -3.240      2.442      3.429
REMARK INTER + INTRA:          -3.448
REMARK INTER:                  -3.429
REMARK INTRA:                  -0.019
REMARK UNBOUND:                -0.018
REMARK SMILES O=C([O-])c1cccnc1
REMARK SMILES IDX 4 1 5 2 9 3 6 4 8 5 7 6 2 7 1 8 3 9
REMARK H PARENT
REMARK Flexibility Score: inf
ROOT
ATOM      1  C   UNL     1      -5.262   1.379   0.043  1.00  0.00     0.016 A 
ATOM      2  C   UNL     1      -3.924   1.763   0.240  1.00  0.00     0.013 A 
ATOM      3  C   UNL     1      -6.061   2.159  -0.810  1.00  0.00     0.120 A 
ATOM      4  C   UNL     1      -3.418   2.893  -0.404  1.00  0.00     0.021 A 
ATOM      5  N   UNL     1      -5.542   3.255  -1.426  1.00  0.00    -0.264 NA
ATOM      6  C   UNL     1      -4.251   3.634  -1.243  1.00  0.00     0.111 A 
ENDROOT
BRANCH   1   7
ATOM      7  C   UNL     1      -5.819   0.187   0.716  1.00  0.00     0.073 C 
ATOM      8  O   UNL     1      -6.883   0.269   1.388  1.00  0.00    -0.545 OA
ATOM      9  O   UNL     1      -5.176  -1.042   0.619  1.00  0.00    -0.545 OA
ENDBRANCH   1   7
TORSDOF 1
ENDMDL
MODEL 6
REMARK VINA RESULT:    -3.154      3.242      3.930
REMARK INTER + INTRA:          -3.357
REMARK INTER:                  -3.333
REMARK INTRA:                  -0.024
REMARK UNBOUND:                -0.018
REMARK SMILES O=C([O-])c1cccnc1
REMARK SMILES IDX 4 1 5 2 9 3 6 4 8 5 7 6 2 7 1 8 3 9
REMARK H PARENT
REMARK Flexibility Score: inf
ROOT
ATOM      1  C   UNL     1      -4.599   3.376   2.356  1.00  0.00     0.016 A 
ATOM      2  C   UNL     1      -5.497   2.443   1.809  1.00  0.00     0.013 A 
ATOM      3  C   UNL     1      -3.325   3.497   1.774  1.00  0.00     0.120 A 
ATOM      4  C   UNL     1      -5.117   1.663   0.716  1.00  0.00     0.021 A 
ATOM      5  N   UNL     1      -2.981   2.724   0.709  1.00  0.00    -0.264 NA
ATOM      6  C   UNL     1      -3.842   1.820   0.173  1.00  0.00     0.111 A 
ENDROOT
BRANCH   1   7
ATOM      7  C   UNL     1      -4.980   4.211   3.515  1.00  0.00     0.073 C 
ATOM      8  O   UNL     1      -6.106   4.069   4.064  1.00  0.00    -0.545 OA
ATOM      9  O   UNL     1      -4.102   5.166   4.014  1.00  0.00    -0.545 OA
ENDBRANCH   1   7
TORSDOF 1
ENDMDL
MODEL 7
REMARK VINA RESULT:    -3.137      2.859      3.766
REMARK INTER + INTRA:          -3.339
REMARK INTER:                  -3.322
REMARK INTRA:                  -0.017
REMARK UNBOUND:                -0.018
REMARK SMILES O=C([O-])c1cccnc1
REMARK SMILES IDX 4 1 5 2 9 3 6 4 8 5 7 6 2 7 1 8 3 9
REMARK H PARENT
REMARK Flexibility Score: inf
ROOT
ATOM      1  C   UNL     1      -5.020   1.495   0.873  1.00  0.00     0.016 A 
ATOM      2  C   UNL     1      -3.796   1.861   0.287  1.00  0.00     0.013 A 
ATOM      3  C   UNL     1      -5.533   2.299   1.905  1.00  0.00     0.120 A 
ATOM      4  C   UNL     1      -3.120   2.998   0.730  1.00  0.00     0.021 A 
ATOM      5  N   UNL     1      -4.853   3.403   2.317  1.00  0.00    -0.264 NA
ATOM      6  C   UNL     1      -3.670   3.766   1.756  1.00  0.00     0.111 A 
ENDROOT
BRANCH   1   7
ATOM      7  C   UNL     1      -5.752   0.293   0.420  1.00  0.00     0.073 C 
ATOM      8  O   UNL     1      -6.890   0.399  -0.112  1.00  0.00    -0.545 OA
ATOM      9  O   UNL     1      -5.196  -0.971   0.576  1.00  0.00    -0.545 OA
ENDBRANCH   1   7
TORSDOF 1
ENDMDL
MODEL 8
REMARK VINA RESULT:    -3.050      9.588     10.269
REMARK INTER + INTRA:          -3.246
REMARK INTER:                  -3.229
REMARK INTRA:                  -0.017
REMARK UNBOUND:                -0.018
REMARK SMILES O=C([O-])c1cccnc1
REMARK SMILES IDX 4 1 5 2 9 3 6 4 8 5 7 6 2 7 1 8 3 9
REMARK H PARENT
REMARK Flexibility Score: inf
ROOT
ATOM      1  C   UNL     1       4.421   1.546  -2.217  1.00  0.00     0.016 A 
ATOM      2  C   UNL     1       4.062   0.403  -1.482  1.00  0.00     0.013 A 
ATOM      3  C   UNL     1       5.559   2.267  -1.816  1.00  0.00     0.120 A 
ATOM      4  C   UNL     1       4.828   0.007  -0.384  1.00  0.00     0.021 A 
ATOM      5  N   UNL     1       6.288   1.859  -0.743  1.00  0.00    -0.264 NA
ATOM      6  C   UNL     1       5.950   0.755  -0.027  1.00  0.00     0.111 A 
ENDROOT
BRANCH   1   7
ATOM      7  C   UNL     1       3.623   1.984  -3.382  1.00  0.00     0.073 C 
ATOM      8  O   UNL     1       2.949   3.048  -3.333  1.00  0.00    -0.545 OA
ATOM      9  O   UNL     1       3.605   1.228  -4.547  1.00  0.00    -0.545 OA
ENDBRANCH   1   7
TORSDOF 1
ENDMDL
MODEL 9
REMARK VINA RESULT:    -3.025      1.830      2.541
REMARK INTER + INTRA:          -3.221
REMARK INTER:                  -3.205
REMARK INTRA:                  -0.016
REMARK UNBOUND:                -0.018
REMARK SMILES O=C([O-])c1cccnc1
REMARK SMILES IDX 4 1 5 2 9 3 6 4 8 5 7 6 2 7 1 8 3 9
REMARK H PARENT
REMARK Flexibility Score: inf
ROOT
ATOM      1  C   UNL     1      -4.668   2.996  -0.824  1.00  0.00     0.016 A 
ATOM      2  C   UNL     1      -6.016   2.711  -1.103  1.00  0.00     0.013 A 
ATOM      3  C   UNL     1      -3.956   2.110   0.003  1.00  0.00     0.120 A 
ATOM      4  C   UNL     1      -6.617   1.572  -0.566  1.00  0.00     0.021 A 
ATOM      5  N   UNL     1      -4.566   1.007   0.513  1.00  0.00    -0.264 NA
ATOM      6  C   UNL     1      -5.868   0.722   0.248  1.00  0.00     0.111 A 
ENDROOT
BRANCH   1   7
ATOM      7  C   UNL     1      -4.012   4.198  -1.382  1.00  0.00     0.073 C 
ATOM      8  O   UNL     1      -4.090   5.305  -0.785  1.00  0.00    -0.545 OA
ATOM      9  O   UNL     1      -3.301   4.123  -2.573  1.00  0.00    -0.545 OA
ENDBRANCH   1   7
TORSDOF 1
ENDMDL
