MODEL 1
REMARK VINA RESULT:    -2.380      0.000      0.000
REMARK INTER + INTRA:          -3.213
REMARK INTER:                  -2.867
REMARK INTRA:                  -0.346
REMARK UNBOUND:                -0.346
REMARK SMILES O=c1c(O)c(-c2ccc(O)cc2O)oc2cc(O)cc(O)c12
REMARK SMILES IDX 5 1 3 2 2 3 1 4 22 5 20 6 19 7 17 8 16 9 15 10 14 11 6 12
REMARK SMILES IDX 8 13 7 14 9 15 11 16 12 17 10 18 13 20 4 22 21 24 18 26
REMARK H PARENT 10 19 13 21 4 23 21 25 18 27
REMARK Flexibility Score: inf
ROOT
ATOM      1  C   UNL     1      16.240  -0.668  27.033  1.00  0.00     0.184 A 
ATOM      2  C   UNL     1      17.444  -1.310  26.705  1.00  0.00     0.208 A 
ATOM      3  C   UNL     1      17.971  -2.264  27.591  1.00  0.00     0.238 A 
ATOM      4  O   UNL     1      19.010  -2.887  27.256  1.00  0.00    -0.285 OA
ATOM      5  C   UNL     1      17.313  -2.522  28.819  1.00  0.00     0.111 A 
ATOM      6  C   UNL     1      17.779  -3.435  29.812  1.00  0.00     0.134 A 
ATOM      7  C   UNL     1      16.990  -3.689  30.942  1.00  0.00     0.093 A 
ATOM      8  C   UNL     1      15.784  -3.014  31.145  1.00  0.00     0.123 A 
ATOM      9  C   UNL     1      15.348  -2.081  30.208  1.00  0.00     0.094 A 
ATOM     10  C   UNL     1      16.093  -1.834  29.052  1.00  0.00     0.146 A 
ATOM     11  O   UNL     1      15.629  -0.952  28.176  1.00  0.00    -0.451 OA
ENDROOT
BRANCH   1  12
ATOM     12  C   UNL     1      15.629   0.340  26.141  1.00  0.00     0.063 A 
ATOM     13  C   UNL     1      14.648   0.883  23.984  1.00  0.00     0.047 A 
ATOM     14  C   UNL     1      15.223  -0.047  24.855  1.00  0.00     0.020 A 
ATOM     15  C   UNL     1      14.483   2.211  24.384  1.00  0.00     0.119 A 
ATOM     16  C   UNL     1      14.906   2.613  25.658  1.00  0.00     0.093 A 
ATOM     17  C   UNL     1      15.490   1.688  26.535  1.00  0.00     0.130 A 
BRANCH  15  18
ATOM     18  O   UNL     1      13.904   3.125  23.507  1.00  0.00    -0.508 OA
ATOM     19  H   UNL     1      14.452   3.603  22.800  1.00  0.00     0.293 HD
ENDBRANCH  15  18
BRANCH  17  20
ATOM     20  O   UNL     1      15.952   2.109  27.782  1.00  0.00    -0.507 OA
ATOM     21  H   UNL     1      15.422   2.756  28.355  1.00  0.00     0.293 HD
ENDBRANCH  17  20
ENDBRANCH   1  12
BRANCH   2  22
ATOM     22  O   UNL     1      18.110  -0.983  25.520  1.00  0.00    -0.502 OA
ATOM     23  H   UNL     1      18.241  -1.651  24.770  1.00  0.00     0.293 HD
ENDBRANCH   2  22
BRANCH   6  24
ATOM     24  O   UNL     1      19.010  -4.096  29.753  1.00  0.00    -0.507 OA
ATOM     25  H   UNL     1      19.155  -5.013  29.361  1.00  0.00     0.293 HD
ENDBRANCH   6  24
BRANCH   8  26
ATOM     26  O   UNL     1      15.015  -3.260  32.280  1.00  0.00    -0.508 OA
ATOM     27  H   UNL     1      14.459  -2.532  32.712  1.00  0.00     0.293 HD
ENDBRANCH   8  26
TORSDOF 6
ENDMDL
MODEL 2
REMARK VINA RESULT:    -1.782      1.261      3.016
REMARK INTER + INTRA:          -2.493
REMARK INTER:                  -2.161
REMARK INTRA:                  -0.332
REMARK UNBOUND:                -0.346
REMARK SMILES O=c1c(O)c(-c2ccc(O)cc2O)oc2cc(O)cc(O)c12
REMARK SMILES IDX 5 1 3 2 2 3 1 4 22 5 20 6 19 7 17 8 16 9 15 10 14 11 6 12
REMARK SMILES IDX 8 13 7 14 9 15 11 16 12 17 10 18 13 20 4 22 21 24 18 26
REMARK H PARENT 10 19 13 21 4 23 21 25 18 27
REMARK Flexibility Score: inf
ROOT
ATOM      1  C   UNL     1      16.258  -0.492  26.952  1.00  0.00     0.184 A 
ATOM      2  C   UNL     1      15.579  -0.997  28.072  1.00  0.00     0.208 A 
ATOM      3  C   UNL     1      16.239  -1.904  28.917  1.00  0.00     0.238 A 
ATOM      4  O   UNL     1      15.651  -2.295  29.958  1.00  0.00    -0.285 OA
ATOM      5  C   UNL     1      17.550  -2.336  28.598  1.00  0.00     0.111 A 
ATOM      6  C   UNL     1      18.299  -3.285  29.358  1.00  0.00     0.134 A 
ATOM      7  C   UNL     1      19.628  -3.556  29.008  1.00  0.00     0.093 A 
ATOM      8  C   UNL     1      20.214  -2.961  27.887  1.00  0.00     0.123 A 
ATOM      9  C   UNL     1      19.474  -2.076  27.108  1.00  0.00     0.094 A 
ATOM     10  C   UNL     1      18.158  -1.755  27.454  1.00  0.00     0.146 A 
ATOM     11  O   UNL     1      17.497  -0.890  26.695  1.00  0.00    -0.451 OA
ENDROOT
BRANCH   1  12
ATOM     12  C   UNL     1      15.624   0.470  26.027  1.00  0.00     0.063 A 
ATOM     13  C   UNL     1      14.600   0.909  23.866  1.00  0.00     0.047 A 
ATOM     14  C   UNL     1      15.198   0.023  24.767  1.00  0.00     0.020 A 
ATOM     15  C   UNL     1      14.433   2.252  24.208  1.00  0.00     0.119 A 
ATOM     16  C   UNL     1      14.876   2.715  25.454  1.00  0.00     0.093 A 
ATOM     17  C   UNL     1      15.482   1.834  26.362  1.00  0.00     0.130 A 
BRANCH  15  18
ATOM     18  O   UNL     1      13.832   3.122  23.301  1.00  0.00    -0.508 OA
ATOM     19  H   UNL     1      13.613   4.080  23.550  1.00  0.00     0.293 HD
ENDBRANCH  15  18
BRANCH  17  20
ATOM     20  O   UNL     1      15.964   2.314  27.580  1.00  0.00    -0.507 OA
ATOM     21  H   UNL     1      15.890   1.770  28.432  1.00  0.00     0.293 HD
ENDBRANCH  17  20
ENDBRANCH   1  12
BRANCH   2  22
ATOM     22  O   UNL     1      14.259  -0.609  28.322  1.00  0.00    -0.502 OA
ATOM     23  H   UNL     1      13.509  -0.785  27.666  1.00  0.00     0.293 HD
ENDBRANCH   2  22
BRANCH   6  24
ATOM     24  O   UNL     1      17.783  -4.003  30.442  1.00  0.00    -0.507 OA
ATOM     25  H   UNL     1      18.337  -4.473  31.140  1.00  0.00     0.293 HD
ENDBRANCH   6  24
BRANCH   8  26
ATOM     26  O   UNL     1      21.530  -3.251  27.537  1.00  0.00    -0.508 OA
ATOM     27  H   UNL     1      22.168  -2.528  27.227  1.00  0.00     0.293 HD
ENDBRANCH   8  26
TORSDOF 6
ENDMDL
MODEL 3
REMARK VINA RESULT:    -1.411      2.437      6.498
REMARK INTER + INTRA:          -2.046
REMARK INTER:                  -1.713
REMARK INTRA:                  -0.332
REMARK UNBOUND:                -0.346
REMARK SMILES O=c1c(O)c(-c2ccc(O)cc2O)oc2cc(O)cc(O)c12
REMARK SMILES IDX 5 1 3 2 2 3 1 4 22 5 20 6 19 7 17 8 16 9 15 10 14 11 6 12
REMARK SMILES IDX 8 13 7 14 9 15 11 16 12 17 10 18 13 20 4 22 21 24 18 26
REMARK H PARENT 10 19 13 21 4 23 21 25 18 27
REMARK Flexibility Score: inf
ROOT
ATOM      1  C   UNL     1      15.653  -1.829  26.807  1.00  0.00     0.184 A 
ATOM      2  C   UNL     1      15.775  -1.265  28.086  1.00  0.00     0.208 A 
ATOM      3  C   UNL     1      15.573   0.116  28.244  1.00  0.00     0.238 A 
ATOM      4  O   UNL     1      15.611   0.602  29.403  1.00  0.00    -0.285 OA
ATOM      5  C   UNL     1      15.306   0.922  27.109  1.00  0.00     0.111 A 
ATOM      6  C   UNL     1      15.127   2.338  27.144  1.00  0.00     0.134 A 
ATOM      7  C   UNL     1      14.762   3.017  25.974  1.00  0.00     0.093 A 
ATOM      8  C   UNL     1      14.632   2.341  24.759  1.00  0.00     0.123 A 
ATOM      9  C   UNL     1      14.858   0.968  24.704  1.00  0.00     0.094 A 
ATOM     10  C   UNL     1      15.185   0.256  25.861  1.00  0.00     0.146 A 
ATOM     11  O   UNL     1      15.371  -1.055  25.767  1.00  0.00    -0.451 OA
ENDROOT
BRANCH   1  12
ATOM     12  C   UNL     1      15.846  -3.275  26.574  1.00  0.00     0.063 A 
ATOM     13  C   UNL     1      14.868  -5.456  26.125  1.00  0.00     0.047 A 
ATOM     14  C   UNL     1      14.722  -4.083  26.343  1.00  0.00     0.020 A 
ATOM     15  C   UNL     1      16.137  -6.039  26.150  1.00  0.00     0.119 A 
ATOM     16  C   UNL     1      17.264  -5.246  26.403  1.00  0.00     0.093 A 
ATOM     17  C   UNL     1      17.125  -3.869  26.629  1.00  0.00     0.130 A 
BRANCH  15  18
ATOM     18  O   UNL     1      16.268  -7.408  25.927  1.00  0.00    -0.508 OA
ATOM     19  H   UNL     1      17.058  -7.790  25.420  1.00  0.00     0.293 HD
ENDBRANCH  15  18
BRANCH  17  20
ATOM     20  O   UNL     1      18.247  -3.097  26.929  1.00  0.00    -0.507 OA
ATOM     21  H   UNL     1      18.279  -2.104  26.728  1.00  0.00     0.293 HD
ENDBRANCH  17  20
ENDBRANCH   1  12
BRANCH   2  22
ATOM     22  O   UNL     1      16.110  -2.071  29.177  1.00  0.00    -0.502 OA
ATOM     23  H   UNL     1      17.065  -2.344  29.377  1.00  0.00     0.293 HD
ENDBRANCH   2  22
BRANCH   6  24
ATOM     24  O   UNL     1      15.319   3.124  28.285  1.00  0.00    -0.507 OA
ATOM     25  H   UNL     1      15.627   4.084  28.280  1.00  0.00     0.293 HD
ENDBRANCH   6  24
BRANCH   8  26
ATOM     26  O   UNL     1      14.286   3.027  23.598  1.00  0.00    -0.508 OA
ATOM     27  H   UNL     1      14.984   3.485  23.024  1.00  0.00     0.293 HD
ENDBRANCH   8  26
TORSDOF 6
ENDMDL
MODEL 4
REMARK VINA RESULT:     0.051     10.237     13.110
REMARK INTER + INTRA:          -0.285
REMARK INTER:                  -0.155
REMARK INTRA:                  -0.130
REMARK UNBOUND:                -0.346
REMARK SMILES O=c1c(O)c(-c2ccc(O)cc2O)oc2cc(O)cc(O)c12
REMARK SMILES IDX 5 1 3 2 2 3 1 4 22 5 20 6 19 7 17 8 16 9 15 10 14 11 6 12
REMARK SMILES IDX 8 13 7 14 9 15 11 16 12 17 10 18 13 20 4 22 21 24 18 26
REMARK H PARENT 10 19 13 21 4 23 21 25 18 27
REMARK Flexibility Score: inf
ROOT
ATOM      1  C   UNL     1      13.673 -12.725  28.684  1.00  0.00     0.184 A 
ATOM      2  C   UNL     1      12.465 -12.291  28.117  1.00  0.00     0.208 A 
ATOM      3  C   UNL     1      11.807 -11.185  28.681  1.00  0.00     0.238 A 
ATOM      4  O   UNL     1      10.764 -10.756  28.123  1.00  0.00    -0.285 OA
ATOM      5  C   UNL     1      12.339 -10.564  29.838  1.00  0.00     0.111 A 
ATOM      6  C   UNL     1      11.734  -9.465  30.519  1.00  0.00     0.134 A 
ATOM      7  C   UNL     1      12.406  -8.863  31.591  1.00  0.00     0.093 A 
ATOM      8  C   UNL     1      13.629  -9.362  32.047  1.00  0.00     0.123 A 
ATOM      9  C   UNL     1      14.200 -10.468  31.423  1.00  0.00     0.094 A 
ATOM     10  C   UNL     1      13.574 -11.066  30.326  1.00  0.00     0.146 A 
ATOM     11  O   UNL     1      14.165 -12.105  29.749  1.00  0.00    -0.451 OA
ENDROOT
BRANCH   1  12
ATOM     12  C   UNL     1      14.419 -13.877  28.135  1.00  0.00     0.063 A 
ATOM     13  C   UNL     1      15.298 -15.048  26.195  1.00  0.00     0.047 A 
ATOM     14  C   UNL     1      14.603 -13.969  26.747  1.00  0.00     0.020 A 
ATOM     15  C   UNL     1      15.805 -16.054  27.021  1.00  0.00     0.119 A 
ATOM     16  C   UNL     1      15.606 -15.984  28.406  1.00  0.00     0.093 A 
ATOM     17  C   UNL     1      14.904 -14.907  28.968  1.00  0.00     0.130 A 
BRANCH  15  18
ATOM     18  O   UNL     1      16.499 -17.121  26.456  1.00  0.00    -0.508 OA
ATOM     19  H   UNL     1      16.910 -17.057  25.532  1.00  0.00     0.293 HD
ENDBRANCH  15  18
BRANCH  17  20
ATOM     20  O   UNL     1      14.670 -14.872  30.342  1.00  0.00    -0.507 OA
ATOM     21  H   UNL     1      14.158 -14.111  30.775  1.00  0.00     0.293 HD
ENDBRANCH  17  20
ENDBRANCH   1  12
BRANCH   2  22
ATOM     22  O   UNL     1      11.925 -12.966  27.019  1.00  0.00    -0.502 OA
ATOM     23  H   UNL     1      11.528 -13.895  27.096  1.00  0.00     0.293 HD
ENDBRANCH   2  22
BRANCH   6  24
ATOM     24  O   UNL     1      10.475  -8.944  30.204  1.00  0.00    -0.507 OA
ATOM     25  H   UNL     1      10.098  -8.083  30.568  1.00  0.00     0.293 HD
ENDBRANCH   6  24
BRANCH   8  26
ATOM     26  O   UNL     1      14.280  -8.768  33.125  1.00  0.00    -0.508 OA
ATOM     27  H   UNL     1      14.791  -9.318  33.805  1.00  0.00     0.293 HD
ENDBRANCH   8  26
TORSDOF 6
ENDMDL
