MODEL 1
REMARK VINA RESULT:    -5.032      0.000      0.000
REMARK INTER + INTRA:         -10.198
REMARK INTER:                  -7.679
REMARK INTRA:                  -2.519
REMARK UNBOUND:                -2.519
REMARK SMILES COc1cc(C=CC(=O)CC(=O)C=Cc2ccc(O)c(OC)c2)ccc1O
REMARK SMILES IDX 10 1 8 2 9 3 7 4 6 5 5 6 3 7 26 8 4 9 25 10 24 11 2 12 1 13
REMARK SMILES IDX 27 14 11 16 12 17 13 18 14 19 15 20 23 21 16 22 20 23 17 24
REMARK SMILES IDX 18 25 21 26 22 27 19 28
REMARK H PARENT 27 15 19 29
REMARK Flexibility Score: inf
ROOT
ATOM      1  C   UNL     1     102.740 113.719  84.627  1.00  0.00     0.160 C 
ENDROOT
BRANCH   1   2
ATOM      2  C   UNL     1     101.400 113.475  85.280  1.00  0.00     0.163 C 
ATOM      3  O   UNL     1     100.533 112.772  84.694  1.00  0.00    -0.294 OA
BRANCH   2   4
ATOM      4  C   UNL     1     101.051 114.053  86.596  1.00  0.00     0.048 C 
ATOM      5  C   UNL     1     100.931 113.323  87.715  1.00  0.00     0.012 C 
BRANCH   5   6
ATOM      6  C   UNL     1     100.594 113.902  89.039  1.00  0.00    -0.022 A 
ATOM      7  C   UNL     1     100.676 113.705  91.478  1.00  0.00     0.161 A 
ATOM      8  C   UNL     1      99.969 114.910  91.594  1.00  0.00     0.157 A 
ATOM      9  C   UNL     1     100.980 113.203  90.197  1.00  0.00     0.058 A 
ATOM     10  C   UNL     1      99.566 115.601  90.445  1.00  0.00     0.051 A 
ATOM     11  C   UNL     1      99.871 115.101  89.177  1.00  0.00     0.012 A 
BRANCH   7  12
ATOM     12  O   UNL     1     101.057 113.039  92.653  1.00  0.00    -0.493 OA
ATOM     13  C   UNL     1     101.290 111.637  92.746  1.00  0.00     0.278 C 
ENDBRANCH   7  12
BRANCH   8  14
ATOM     14  O   UNL     1      99.668 115.413  92.858  1.00  0.00    -0.504 OA
ATOM     15  H   UNL     1      98.876 116.027  93.009  1.00  0.00     0.293 HD
ENDBRANCH   8  14
ENDBRANCH   5   6
ENDBRANCH   2   4
ENDBRANCH   1   2
BRANCH   1  16
ATOM     16  C   UNL     1     103.848 112.946  85.283  1.00  0.00     0.163 C 
ATOM     17  O   UNL     1     103.582 111.849  85.845  1.00  0.00    -0.294 OA
BRANCH  16  18
ATOM     18  C   UNL     1     105.228 113.485  85.277  1.00  0.00     0.048 C 
ATOM     19  C   UNL     1     105.709 114.406  86.126  1.00  0.00     0.012 C 
BRANCH  19  20
ATOM     20  C   UNL     1     105.008 114.912  87.325  1.00  0.00    -0.022 A 
ATOM     21  C   UNL     1     105.149 114.230  88.542  1.00  0.00     0.058 A 
ATOM     22  C   UNL     1     104.128 116.003  87.244  1.00  0.00     0.012 A 
ATOM     23  C   UNL     1     104.457 114.664  89.691  1.00  0.00     0.161 A 
ATOM     24  C   UNL     1     103.443 116.439  88.379  1.00  0.00     0.051 A 
ATOM     25  C   UNL     1     103.608 115.776  89.602  1.00  0.00     0.157 A 
BRANCH  23  26
ATOM     26  O   UNL     1     104.587 114.019  90.931  1.00  0.00    -0.493 OA
ATOM     27  C   UNL     1     105.827 113.770  91.584  1.00  0.00     0.278 C 
ENDBRANCH  23  26
BRANCH  25  28
ATOM     28  O   UNL     1     102.927 116.214  90.736  1.00  0.00    -0.504 OA
ATOM     29  H   UNL     1     102.696 117.192  90.871  1.00  0.00     0.293 HD
ENDBRANCH  25  28
ENDBRANCH  19  20
ENDBRANCH  16  18
ENDBRANCH   1  16
TORSDOF 10
ENDMDL
MODEL 2
REMARK VINA RESULT:    -5.023      1.986      2.999
REMARK INTER + INTRA:         -10.185
REMARK INTER:                  -8.392
REMARK INTRA:                  -1.793
REMARK UNBOUND:                -2.519
REMARK SMILES COc1cc(C=CC(=O)CC(=O)C=Cc2ccc(O)c(OC)c2)ccc1O
REMARK SMILES IDX 10 1 8 2 9 3 7 4 6 5 5 6 3 7 26 8 4 9 25 10 24 11 2 12 1 13
REMARK SMILES IDX 27 14 11 16 12 17 13 18 14 19 15 20 23 21 16 22 20 23 17 24
REMARK SMILES IDX 18 25 21 26 22 27 19 28
REMARK H PARENT 27 15 19 29
REMARK Flexibility Score: inf
ROOT
ATOM      1  C   UNL     1     101.142 113.159  83.976  1.00  0.00     0.160 C 
ENDROOT
BRANCH   1   2
ATOM      2  C   UNL     1     101.565 112.932  85.408  1.00  0.00     0.163 C 
ATOM      3  O   UNL     1     102.438 112.062  85.675  1.00  0.00    -0.294 OA
BRANCH   2   4
ATOM      4  C   UNL     1     100.972 113.688  86.532  1.00  0.00     0.048 C 
ATOM      5  C   UNL     1     101.363 113.542  87.807  1.00  0.00     0.012 C 
BRANCH   5   6
ATOM      6  C   UNL     1     100.779 114.308  88.936  1.00  0.00    -0.022 A 
ATOM      7  C   UNL     1     100.933 116.227  90.449  1.00  0.00     0.161 A 
ATOM      8  C   UNL     1      99.761 115.807  91.092  1.00  0.00     0.157 A 
ATOM      9  C   UNL     1     101.441 115.469  89.375  1.00  0.00     0.058 A 
ATOM     10  C   UNL     1      99.107 114.643  90.672  1.00  0.00     0.051 A 
ATOM     11  C   UNL     1      99.613 113.895  89.606  1.00  0.00     0.012 A 
BRANCH   7  12
ATOM     12  O   UNL     1     101.563 117.396  90.904  1.00  0.00    -0.493 OA
ATOM     13  C   UNL     1     102.540 118.125  90.168  1.00  0.00     0.278 C 
ENDBRANCH   7  12
BRANCH   8  14
ATOM     14  O   UNL     1      99.252 116.554  92.153  1.00  0.00    -0.504 OA
ATOM     15  H   UNL     1      99.075 116.136  93.059  1.00  0.00     0.293 HD
ENDBRANCH   8  14
ENDBRANCH   5   6
ENDBRANCH   2   4
ENDBRANCH   1   2
BRANCH   1  16
ATOM     16  C   UNL     1     101.747 114.403  83.389  1.00  0.00     0.163 C 
ATOM     17  O   UNL     1     101.107 115.488  83.459  1.00  0.00    -0.294 OA
BRANCH  16  18
ATOM     18  C   UNL     1     103.069 114.337  82.725  1.00  0.00     0.048 C 
ATOM     19  C   UNL     1     104.245 114.638  83.297  1.00  0.00     0.012 C 
BRANCH  19  20
ATOM     20  C   UNL     1     104.451 114.914  84.734  1.00  0.00    -0.022 A 
ATOM     21  C   UNL     1     105.313 114.092  85.474  1.00  0.00     0.058 A 
ATOM     22  C   UNL     1     103.724 115.920  85.390  1.00  0.00     0.012 A 
ATOM     23  C   UNL     1     105.494 114.305  86.856  1.00  0.00     0.161 A 
ATOM     24  C   UNL     1     103.902 116.137  86.757  1.00  0.00     0.051 A 
ATOM     25  C   UNL     1     104.787 115.336  87.491  1.00  0.00     0.157 A 
BRANCH  23  26
ATOM     26  O   UNL     1     106.362 113.516  87.627  1.00  0.00    -0.493 OA
ATOM     27  C   UNL     1     107.103 112.408  87.127  1.00  0.00     0.278 C 
ENDBRANCH  23  26
BRANCH  25  28
ATOM     28  O   UNL     1     104.967 115.556  88.855  1.00  0.00    -0.504 OA
ATOM     29  H   UNL     1     105.814 115.267  89.332  1.00  0.00     0.293 HD
ENDBRANCH  25  28
ENDBRANCH  19  20
ENDBRANCH  16  18
ENDBRANCH   1  16
TORSDOF 10
ENDMDL
MODEL 3
REMARK VINA RESULT:    -4.974      2.243      3.670
REMARK INTER + INTRA:         -10.110
REMARK INTER:                  -7.942
REMARK INTRA:                  -2.168
REMARK UNBOUND:                -2.519
REMARK SMILES COc1cc(C=CC(=O)CC(=O)C=Cc2ccc(O)c(OC)c2)ccc1O
REMARK SMILES IDX 10 1 8 2 9 3 7 4 6 5 5 6 3 7 26 8 4 9 25 10 24 11 2 12 1 13
REMARK SMILES IDX 27 14 11 16 12 17 13 18 14 19 15 20 23 21 16 22 20 23 17 24
REMARK SMILES IDX 18 25 21 26 22 27 19 28
REMARK H PARENT 27 15 19 29
REMARK Flexibility Score: inf
ROOT
ATOM      1  C   UNL     1     106.746 113.724  86.134  1.00  0.00     0.160 C 
ENDROOT
BRANCH   1   2
ATOM      2  C   UNL     1     105.328 114.242  86.106  1.00  0.00     0.163 C 
ATOM      3  O   UNL     1     104.690 114.272  85.018  1.00  0.00    -0.294 OA
BRANCH   2   4
ATOM      4  C   UNL     1     104.650 114.744  87.320  1.00  0.00     0.048 C 
ATOM      5  C   UNL     1     103.929 115.875  87.349  1.00  0.00     0.012 C 
BRANCH   5   6
ATOM      6  C   UNL     1     103.237 116.376  88.563  1.00  0.00    -0.022 A 
ATOM      7  C   UNL     1     101.681 115.936  90.401  1.00  0.00     0.161 A 
ATOM      8  C   UNL     1     101.857 117.250  90.857  1.00  0.00     0.157 A 
ATOM      9  C   UNL     1     102.370 115.507  89.249  1.00  0.00     0.058 A 
ATOM     10  C   UNL     1     102.705 118.125  90.168  1.00  0.00     0.051 A 
ATOM     11  C   UNL     1     103.386 117.696  89.027  1.00  0.00     0.012 A 
BRANCH   7  12
ATOM     12  O   UNL     1     100.817 115.091  91.116  1.00  0.00    -0.493 OA
ATOM     13  C   UNL     1      99.424 114.954  90.854  1.00  0.00     0.278 C 
ENDBRANCH   7  12
BRANCH   8  14
ATOM     14  O   UNL     1     101.181 117.679  91.998  1.00  0.00    -0.504 OA
ATOM     15  H   UNL     1     100.524 117.078  92.482  1.00  0.00     0.293 HD
ENDBRANCH   8  14
ENDBRANCH   5   6
ENDBRANCH   2   4
ENDBRANCH   1   2
BRANCH   1  16
ATOM     16  C   UNL     1     106.857 112.389  86.815  1.00  0.00     0.163 C 
ATOM     17  O   UNL     1     105.970 111.518  86.603  1.00  0.00    -0.294 OA
BRANCH  16  18
ATOM     18  C   UNL     1     107.987 112.121  87.733  1.00  0.00     0.048 C 
ATOM     19  C   UNL     1     107.964 112.277  89.066  1.00  0.00     0.012 C 
BRANCH  19  20
ATOM     20  C   UNL     1     106.759 112.570  89.871  1.00  0.00    -0.022 A 
ATOM     21  C   UNL     1     105.894 111.522  90.219  1.00  0.00     0.058 A 
ATOM     22  C   UNL     1     106.415 113.888  90.208  1.00  0.00     0.012 A 
ATOM     23  C   UNL     1     104.716 111.778  90.948  1.00  0.00     0.161 A 
ATOM     24  C   UNL     1     105.251 114.148  90.932  1.00  0.00     0.051 A 
ATOM     25  C   UNL     1     104.403 113.097  91.307  1.00  0.00     0.157 A 
BRANCH  23  26
ATOM     26  O   UNL     1     103.835 110.754  91.331  1.00  0.00    -0.493 OA
ATOM     27  C   UNL     1     104.163 109.707  92.238  1.00  0.00     0.278 C 
ENDBRANCH  23  26
BRANCH  25  28
ATOM     28  O   UNL     1     103.242 113.356  92.034  1.00  0.00    -0.504 OA
ATOM     29  H   UNL     1     102.906 112.714  92.742  1.00  0.00     0.293 HD
ENDBRANCH  25  28
ENDBRANCH  19  20
ENDBRANCH  16  18
ENDBRANCH   1  16
TORSDOF 10
ENDMDL
MODEL 4
REMARK VINA RESULT:    -4.889      1.955      4.239
REMARK INTER + INTRA:          -9.980
REMARK INTER:                  -7.434
REMARK INTRA:                  -2.546
REMARK UNBOUND:                -2.519
REMARK SMILES COc1cc(C=CC(=O)CC(=O)C=Cc2ccc(O)c(OC)c2)ccc1O
REMARK SMILES IDX 10 1 8 2 9 3 7 4 6 5 5 6 3 7 26 8 4 9 25 10 24 11 2 12 1 13
REMARK SMILES IDX 27 14 11 16 12 17 13 18 14 19 15 20 23 21 16 22 20 23 17 24
REMARK SMILES IDX 18 25 21 26 22 27 19 28
REMARK H PARENT 27 15 19 29
REMARK Flexibility Score: inf
ROOT
ATOM      1  C   UNL     1     106.165 113.602  84.124  1.00  0.00     0.160 C 
ENDROOT
BRANCH   1   2
ATOM      2  C   UNL     1     106.710 112.768  85.259  1.00  0.00     0.163 C 
ATOM      3  O   UNL     1     107.287 111.674  85.014  1.00  0.00    -0.294 OA
BRANCH   2   4
ATOM      4  C   UNL     1     106.575 113.181  86.672  1.00  0.00     0.048 C 
ATOM      5  C   UNL     1     105.814 112.525  87.563  1.00  0.00     0.012 C 
BRANCH   5   6
ATOM      6  C   UNL     1     105.686 112.928  88.985  1.00  0.00    -0.022 A 
ATOM      7  C   UNL     1     104.497 112.702  91.113  1.00  0.00     0.161 A 
ATOM      8  C   UNL     1     105.351 113.655  91.685  1.00  0.00     0.157 A 
ATOM      9  C   UNL     1     104.667 112.347  89.760  1.00  0.00     0.058 A 
ATOM     10  C   UNL     1     106.357 114.250  90.915  1.00  0.00     0.051 A 
ATOM     11  C   UNL     1     106.522 113.895  89.574  1.00  0.00     0.012 A 
BRANCH   7  12
ATOM     12  O   UNL     1     103.496 112.133  91.917  1.00  0.00    -0.493 OA
ATOM     13  C   UNL     1     102.134 112.549  91.923  1.00  0.00     0.278 C 
ENDBRANCH   7  12
BRANCH   8  14
ATOM     14  O   UNL     1     105.190 114.008  93.024  1.00  0.00    -0.504 OA
ATOM     15  H   UNL     1     104.591 114.778  93.300  1.00  0.00     0.293 HD
ENDBRANCH   8  14
ENDBRANCH   5   6
ENDBRANCH   2   4
ENDBRANCH   1   2
BRANCH   1  16
ATOM     16  C   UNL     1     104.675 113.470  83.978  1.00  0.00     0.163 C 
ATOM     17  O   UNL     1     104.129 112.366  84.246  1.00  0.00    -0.294 OA
BRANCH  16  18
ATOM     18  C   UNL     1     103.875 114.625  83.509  1.00  0.00     0.048 C 
ATOM     19  C   UNL     1     103.129 115.425  84.287  1.00  0.00     0.012 C 
BRANCH  19  20
ATOM     20  C   UNL     1     103.115 115.408  85.765  1.00  0.00    -0.022 A 
ATOM     21  C   UNL     1     102.136 114.658  86.434  1.00  0.00     0.058 A 
ATOM     22  C   UNL     1     103.999 116.206  86.507  1.00  0.00     0.012 A 
ATOM     23  C   UNL     1     102.072 114.659  87.841  1.00  0.00     0.161 A 
ATOM     24  C   UNL     1     103.942 116.208  87.902  1.00  0.00     0.051 A 
ATOM     25  C   UNL     1     102.984 115.434  88.571  1.00  0.00     0.157 A 
BRANCH  23  26
ATOM     26  O   UNL     1     101.119 113.907  88.547  1.00  0.00    -0.493 OA
ATOM     27  C   UNL     1      99.803 114.357  88.852  1.00  0.00     0.278 C 
ENDBRANCH  23  26
BRANCH  25  28
ATOM     28  O   UNL     1     102.929 115.434  89.964  1.00  0.00    -0.504 OA
ATOM     29  H   UNL     1     103.764 115.320  90.527  1.00  0.00     0.293 HD
ENDBRANCH  25  28
ENDBRANCH  19  20
ENDBRANCH  16  18
ENDBRANCH   1  16
TORSDOF 10
ENDMDL
MODEL 5
REMARK VINA RESULT:    -4.881      3.574      7.810
REMARK INTER + INTRA:          -9.968
REMARK INTER:                  -8.974
REMARK INTRA:                  -0.994
REMARK UNBOUND:                -2.519
REMARK SMILES COc1cc(C=CC(=O)CC(=O)C=Cc2ccc(O)c(OC)c2)ccc1O
REMARK SMILES IDX 10 1 8 2 9 3 7 4 6 5 5 6 3 7 26 8 4 9 25 10 24 11 2 12 1 13
REMARK SMILES IDX 27 14 11 16 12 17 13 18 14 19 15 20 23 21 16 22 20 23 17 24
REMARK SMILES IDX 18 25 21 26 22 27 19 28
REMARK H PARENT 27 15 19 29
REMARK Flexibility Score: inf
ROOT
ATOM      1  C   UNL     1     102.641 114.879  85.802  1.00  0.00     0.160 C 
ENDROOT
BRANCH   1   2
ATOM      2  C   UNL     1     102.934 114.974  84.323  1.00  0.00     0.163 C 
ATOM      3  O   UNL     1     102.005 115.245  83.514  1.00  0.00    -0.294 OA
BRANCH   2   4
ATOM      4  C   UNL     1     104.286 114.736  83.773  1.00  0.00     0.048 C 
ATOM      5  C   UNL     1     104.680 115.175  82.568  1.00  0.00     0.012 C 
BRANCH   5   6
ATOM      6  C   UNL     1     106.040 114.951  82.018  1.00  0.00    -0.022 A 
ATOM      7  C   UNL     1     108.061 113.570  81.963  1.00  0.00     0.161 A 
ATOM      8  C   UNL     1     108.639 114.463  81.050  1.00  0.00     0.157 A 
ATOM      9  C   UNL     1     106.762 113.824  82.448  1.00  0.00     0.058 A 
ATOM     10  C   UNL     1     107.932 115.596  80.631  1.00  0.00     0.051 A 
ATOM     11  C   UNL     1     106.645 115.843  81.113  1.00  0.00     0.012 A 
BRANCH   7  12
ATOM     12  O   UNL     1     108.804 112.449  82.363  1.00  0.00    -0.493 OA
ATOM     13  C   UNL     1     108.824 111.925  83.688  1.00  0.00     0.278 C 
ENDBRANCH   7  12
BRANCH   8  14
ATOM     14  O   UNL     1     109.922 114.216  80.564  1.00  0.00    -0.504 OA
ATOM     15  H   UNL     1     110.274 113.273  80.453  1.00  0.00     0.293 HD
ENDBRANCH   8  14
ENDBRANCH   5   6
ENDBRANCH   2   4
ENDBRANCH   1   2
BRANCH   1  16
ATOM     16  C   UNL     1     103.635 115.639  86.634  1.00  0.00     0.163 C 
ATOM     17  O   UNL     1     103.812 116.867  86.408  1.00  0.00    -0.294 OA
BRANCH  16  18
ATOM     18  C   UNL     1     104.403 114.938  87.688  1.00  0.00     0.048 C 
ATOM     19  C   UNL     1     104.066 114.874  88.986  1.00  0.00     0.012 C 
BRANCH  19  20
ATOM     20  C   UNL     1     102.785 115.334  89.560  1.00  0.00    -0.022 A 
ATOM     21  C   UNL     1     101.639 114.541  89.407  1.00  0.00     0.058 A 
ATOM     22  C   UNL     1     102.675 116.594  90.169  1.00  0.00     0.012 A 
ATOM     23  C   UNL     1     100.395 114.976  89.906  1.00  0.00     0.161 A 
ATOM     24  C   UNL     1     101.446 117.030  90.668  1.00  0.00     0.051 A 
ATOM     25  C   UNL     1     100.307 116.223  90.542  1.00  0.00     0.157 A 
BRANCH  23  26
ATOM     26  O   UNL     1      99.229 114.203  89.789  1.00  0.00    -0.493 OA
ATOM     27  C   UNL     1      99.116 112.847  90.208  1.00  0.00     0.278 C 
ENDBRANCH  23  26
BRANCH  25  28
ATOM     28  O   UNL     1      99.081 116.656  91.044  1.00  0.00    -0.504 OA
ATOM     29  H   UNL     1      98.360 115.999  91.320  1.00  0.00     0.293 HD
ENDBRANCH  25  28
ENDBRANCH  19  20
ENDBRANCH  16  18
ENDBRANCH   1  16
TORSDOF 10
ENDMDL
MODEL 6
REMARK VINA RESULT:    -4.795      1.571      2.691
REMARK INTER + INTRA:          -9.837
REMARK INTER:                  -8.249
REMARK INTRA:                  -1.588
REMARK UNBOUND:                -2.519
REMARK SMILES COc1cc(C=CC(=O)CC(=O)C=Cc2ccc(O)c(OC)c2)ccc1O
REMARK SMILES IDX 10 1 8 2 9 3 7 4 6 5 5 6 3 7 26 8 4 9 25 10 24 11 2 12 1 13
REMARK SMILES IDX 27 14 11 16 12 17 13 18 14 19 15 20 23 21 16 22 20 23 17 24
REMARK SMILES IDX 18 25 21 26 22 27 19 28
REMARK H PARENT 27 15 19 29
REMARK Flexibility Score: inf
ROOT
ATOM      1  C   UNL     1     102.659 112.958  85.248  1.00  0.00     0.160 C 
ENDROOT
BRANCH   1   2
ATOM      2  C   UNL     1     101.170 113.131  85.431  1.00  0.00     0.163 C 
ATOM      3  O   UNL     1     100.385 112.879  84.477  1.00  0.00    -0.294 OA
BRANCH   2   4
ATOM      4  C   UNL     1     100.586 113.613  86.702  1.00  0.00     0.048 C 
ATOM      5  C   UNL     1     101.317 113.880  87.795  1.00  0.00     0.012 C 
BRANCH   5   6
ATOM      6  C   UNL     1     100.737 114.377  89.068  1.00  0.00    -0.022 A 
ATOM      7  C   UNL     1     100.674 116.118  90.787  1.00  0.00     0.161 A 
ATOM      8  C   UNL     1      99.713 115.381  91.491  1.00  0.00     0.157 A 
ATOM      9  C   UNL     1     101.187 115.607  89.578  1.00  0.00     0.058 A 
ATOM     10  C   UNL     1      99.274 114.147  90.998  1.00  0.00     0.051 A 
ATOM     11  C   UNL     1      99.783 113.644  89.799  1.00  0.00     0.012 A 
BRANCH   7  12
ATOM     12  O   UNL     1     101.095 117.348  91.318  1.00  0.00    -0.493 OA
ATOM     13  C   UNL     1     102.171 118.124  90.801  1.00  0.00     0.278 C 
ENDBRANCH   7  12
BRANCH   8  14
ATOM     14  O   UNL     1      99.200 115.883  92.686  1.00  0.00    -0.504 OA
ATOM     15  H   UNL     1      99.438 116.811  93.017  1.00  0.00     0.293 HD
ENDBRANCH   8  14
ENDBRANCH   5   6
ENDBRANCH   2   4
ENDBRANCH   1   2
BRANCH   1  16
ATOM     16  C   UNL     1     103.273 114.071  84.446  1.00  0.00     0.163 C 
ATOM     17  O   UNL     1     103.809 113.804  83.337  1.00  0.00    -0.294 OA
BRANCH  16  18
ATOM     18  C   UNL     1     103.256 115.455  84.974  1.00  0.00     0.048 C 
ATOM     19  C   UNL     1     103.861 115.868  86.098  1.00  0.00     0.012 C 
BRANCH  19  20
ATOM     20  C   UNL     1     104.796 115.063  86.911  1.00  0.00    -0.022 A 
ATOM     21  C   UNL     1     104.700 115.104  88.310  1.00  0.00     0.058 A 
ATOM     22  C   UNL     1     105.837 114.337  86.313  1.00  0.00     0.012 A 
ATOM     23  C   UNL     1     105.606 114.381  89.111  1.00  0.00     0.161 A 
ATOM     24  C   UNL     1     106.736 113.616  87.101  1.00  0.00     0.051 A 
ATOM     25  C   UNL     1     106.621 113.633  88.497  1.00  0.00     0.157 A 
BRANCH  23  26
ATOM     26  O   UNL     1     105.532 114.383  90.513  1.00  0.00    -0.493 OA
ATOM     27  C   UNL     1     104.528 113.711  91.267  1.00  0.00     0.278 C 
ENDBRANCH  23  26
BRANCH  25  28
ATOM     28  O   UNL     1     107.516 112.910  89.284  1.00  0.00    -0.504 OA
ATOM     29  H   UNL     1     108.132 112.213  88.882  1.00  0.00     0.293 HD
ENDBRANCH  25  28
ENDBRANCH  19  20
ENDBRANCH  16  18
ENDBRANCH   1  16
TORSDOF 10
ENDMDL
MODEL 7
REMARK VINA RESULT:    -4.755      1.902      5.103
REMARK INTER + INTRA:          -9.775
REMARK INTER:                  -7.741
REMARK INTRA:                  -2.034
REMARK UNBOUND:                -2.519
REMARK SMILES COc1cc(C=CC(=O)CC(=O)C=Cc2ccc(O)c(OC)c2)ccc1O
REMARK SMILES IDX 10 1 8 2 9 3 7 4 6 5 5 6 3 7 26 8 4 9 25 10 24 11 2 12 1 13
REMARK SMILES IDX 27 14 11 16 12 17 13 18 14 19 15 20 23 21 16 22 20 23 17 24
REMARK SMILES IDX 18 25 21 26 22 27 19 28
REMARK H PARENT 27 15 19 29
REMARK Flexibility Score: inf
ROOT
ATOM      1  C   UNL     1     103.311 115.410  87.232  1.00  0.00     0.160 C 
ENDROOT
BRANCH   1   2
ATOM      2  C   UNL     1     103.401 115.832  88.679  1.00  0.00     0.163 C 
ATOM      3  O   UNL     1     103.304 117.051  88.987  1.00  0.00    -0.294 OA
BRANCH   2   4
ATOM      4  C   UNL     1     103.623 114.857  89.769  1.00  0.00     0.048 C 
ATOM      5  C   UNL     1     104.769 114.178  89.931  1.00  0.00     0.012 C 
BRANCH   5   6
ATOM      6  C   UNL     1     105.000 113.210  91.031  1.00  0.00    -0.022 A 
ATOM      7  C   UNL     1     104.075 111.906  92.884  1.00  0.00     0.161 A 
ATOM      8  C   UNL     1     105.352 111.399  93.159  1.00  0.00     0.157 A 
ATOM      9  C   UNL     1     103.907 112.816  91.822  1.00  0.00     0.058 A 
ATOM     10  C   UNL     1     106.448 111.801  92.386  1.00  0.00     0.051 A 
ATOM     11  C   UNL     1     106.277 112.702  91.334  1.00  0.00     0.012 A 
BRANCH   7  12
ATOM     12  O   UNL     1     103.002 111.484  93.686  1.00  0.00    -0.493 OA
ATOM     13  C   UNL     1     102.617 112.103  94.910  1.00  0.00     0.278 C 
ENDBRANCH   7  12
BRANCH   8  14
ATOM     14  O   UNL     1     105.525 110.497  94.207  1.00  0.00    -0.504 OA
ATOM     15  H   UNL     1     106.020 110.755  95.052  1.00  0.00     0.293 HD
ENDBRANCH   8  14
ENDBRANCH   5   6
ENDBRANCH   2   4
ENDBRANCH   1   2
BRANCH   1  16
ATOM     16  C   UNL     1     102.421 114.215  87.036  1.00  0.00     0.163 C 
ATOM     17  O   UNL     1     102.903 113.060  87.187  1.00  0.00    -0.294 OA
BRANCH  16  18
ATOM     18  C   UNL     1     101.003 114.407  86.653  1.00  0.00     0.048 C 
ATOM     19  C   UNL     1      99.957 114.377  87.493  1.00  0.00     0.012 C 
BRANCH  19  20
ATOM     20  C   UNL     1     100.047 114.327  88.968  1.00  0.00    -0.022 A 
ATOM     21  C   UNL     1     100.001 115.522  89.700  1.00  0.00     0.058 A 
ATOM     22  C   UNL     1     100.275 113.116  89.639  1.00  0.00     0.012 A 
ATOM     23  C   UNL     1     100.128 115.508  91.103  1.00  0.00     0.161 A 
ATOM     24  C   UNL     1     100.399 113.095  91.030  1.00  0.00     0.051 A 
ATOM     25  C   UNL     1     100.322 114.286  91.763  1.00  0.00     0.157 A 
BRANCH  23  26
ATOM     26  O   UNL     1     100.069 116.681  91.872  1.00  0.00    -0.493 OA
ATOM     27  C   UNL     1     100.950 117.789  91.720  1.00  0.00     0.278 C 
ENDBRANCH  23  26
BRANCH  25  28
ATOM     28  O   UNL     1     100.442 114.265  93.152  1.00  0.00    -0.504 OA
ATOM     29  H   UNL     1     101.087 113.638  93.618  1.00  0.00     0.293 HD
ENDBRANCH  25  28
ENDBRANCH  19  20
ENDBRANCH  16  18
ENDBRANCH   1  16
TORSDOF 10
ENDMDL
MODEL 8
REMARK VINA RESULT:    -4.748      3.939      7.769
REMARK INTER + INTRA:          -9.764
REMARK INTER:                  -8.862
REMARK INTRA:                  -0.902
REMARK UNBOUND:                -2.519
REMARK SMILES COc1cc(C=CC(=O)CC(=O)C=Cc2ccc(O)c(OC)c2)ccc1O
REMARK SMILES IDX 10 1 8 2 9 3 7 4 6 5 5 6 3 7 26 8 4 9 25 10 24 11 2 12 1 13
REMARK SMILES IDX 27 14 11 16 12 17 13 18 14 19 15 20 23 21 16 22 20 23 17 24
REMARK SMILES IDX 18 25 21 26 22 27 19 28
REMARK H PARENT 27 15 19 29
REMARK Flexibility Score: inf
ROOT
ATOM      1  C   UNL     1     103.491 114.293  85.698  1.00  0.00     0.160 C 
ENDROOT
BRANCH   1   2
ATOM      2  C   UNL     1     102.186 114.711  85.064  1.00  0.00     0.163 C 
ATOM      3  O   UNL     1     101.122 114.690  85.741  1.00  0.00    -0.294 OA
BRANCH   2   4
ATOM      4  C   UNL     1     102.099 115.133  83.649  1.00  0.00     0.048 C 
ATOM      5  C   UNL     1     101.187 114.653  82.791  1.00  0.00     0.012 C 
BRANCH   5   6
ATOM      6  C   UNL     1     101.088 115.084  81.374  1.00  0.00    -0.022 A 
ATOM      7  C   UNL     1     102.103 115.166  79.148  1.00  0.00     0.161 A 
ATOM      8  C   UNL     1     100.998 115.888  78.676  1.00  0.00     0.157 A 
ATOM      9  C   UNL     1     102.144 114.772  80.501  1.00  0.00     0.058 A 
ATOM     10  C   UNL     1      99.951 116.217  79.546  1.00  0.00     0.051 A 
ATOM     11  C   UNL     1      99.995 115.824  80.884  1.00  0.00     0.012 A 
BRANCH   7  12
ATOM     12  O   UNL     1     103.136 114.862  78.248  1.00  0.00    -0.493 OA
ATOM     13  C   UNL     1     104.345 115.605  78.125  1.00  0.00     0.278 C 
ENDBRANCH   7  12
BRANCH   8  14
ATOM     14  O   UNL     1     100.950 116.278  77.339  1.00  0.00    -0.504 OA
ATOM     15  H   UNL     1     100.151 116.773  76.960  1.00  0.00     0.293 HD
ENDBRANCH   8  14
ENDBRANCH   5   6
ENDBRANCH   2   4
ENDBRANCH   1   2
BRANCH   1  16
ATOM     16  C   UNL     1     104.002 115.307  86.683  1.00  0.00     0.163 C 
ATOM     17  O   UNL     1     103.813 116.532  86.455  1.00  0.00    -0.294 OA
BRANCH  16  18
ATOM     18  C   UNL     1     104.731 114.858  87.891  1.00  0.00     0.048 C 
ATOM     19  C   UNL     1     104.264 114.910  89.149  1.00  0.00     0.012 C 
BRANCH  19  20
ATOM     20  C   UNL     1     102.879 115.254  89.532  1.00  0.00    -0.022 A 
ATOM     21  C   UNL     1     101.830 114.399  89.159  1.00  0.00     0.058 A 
ATOM     22  C   UNL     1     102.584 116.466  90.174  1.00  0.00     0.012 A 
ATOM     23  C   UNL     1     100.496 114.725  89.473  1.00  0.00     0.161 A 
ATOM     24  C   UNL     1     101.264 116.793  90.490  1.00  0.00     0.051 A 
ATOM     25  C   UNL     1     100.220 115.924  90.146  1.00  0.00     0.157 A 
BRANCH  23  26
ATOM     26  O   UNL     1      99.422 113.887  89.134  1.00  0.00    -0.493 OA
ATOM     27  C   UNL     1      99.232 112.573  89.647  1.00  0.00     0.278 C 
ENDBRANCH  23  26
BRANCH  25  28
ATOM     28  O   UNL     1      98.903 116.248  90.465  1.00  0.00    -0.504 OA
ATOM     29  H   UNL     1      98.684 116.942  91.171  1.00  0.00     0.293 HD
ENDBRANCH  25  28
ENDBRANCH  19  20
ENDBRANCH  16  18
ENDBRANCH   1  16
TORSDOF 10
ENDMDL
MODEL 9
REMARK VINA RESULT:    -4.713      6.293     10.446
REMARK INTER + INTRA:          -9.712
REMARK INTER:                  -7.816
REMARK INTRA:                  -1.896
REMARK UNBOUND:                -2.519
REMARK SMILES COc1cc(C=CC(=O)CC(=O)C=Cc2ccc(O)c(OC)c2)ccc1O
REMARK SMILES IDX 10 1 8 2 9 3 7 4 6 5 5 6 3 7 26 8 4 9 25 10 24 11 2 12 1 13
REMARK SMILES IDX 27 14 11 16 12 17 13 18 14 19 15 20 23 21 16 22 20 23 17 24
REMARK SMILES IDX 18 25 21 26 22 27 19 28
REMARK H PARENT 27 15 19 29
REMARK Flexibility Score: inf
ROOT
ATOM      1  C   UNL     1     101.182 115.001  78.451  1.00  0.00     0.160 C 
ENDROOT
BRANCH   1   2
ATOM      2  C   UNL     1     102.070 116.096  77.908  1.00  0.00     0.163 C 
ATOM      3  O   UNL     1     101.588 116.977  77.146  1.00  0.00    -0.294 OA
BRANCH   2   4
ATOM      4  C   UNL     1     103.513 116.166  78.224  1.00  0.00     0.048 C 
ATOM      5  C   UNL     1     104.135 115.293  79.032  1.00  0.00     0.012 C 
BRANCH   5   6
ATOM      6  C   UNL     1     105.585 115.351  79.341  1.00  0.00    -0.022 A 
ATOM      7  C   UNL     1     107.886 114.928  78.618  1.00  0.00     0.161 A 
ATOM      8  C   UNL     1     108.354 115.397  79.853  1.00  0.00     0.157 A 
ATOM      9  C   UNL     1     106.498 114.902  78.371  1.00  0.00     0.058 A 
ATOM     10  C   UNL     1     107.449 115.830  80.830  1.00  0.00     0.051 A 
ATOM     11  C   UNL     1     106.076 115.804  80.580  1.00  0.00     0.012 A 
BRANCH   7  12
ATOM     12  O   UNL     1     108.824 114.497  77.668  1.00  0.00    -0.493 OA
ATOM     13  C   UNL     1     109.010 115.094  76.389  1.00  0.00     0.278 C 
ENDBRANCH   7  12
BRANCH   8  14
ATOM     14  O   UNL     1     109.725 115.428  80.103  1.00  0.00    -0.504 OA
ATOM     15  H   UNL     1     110.400 115.494  79.349  1.00  0.00     0.293 HD
ENDBRANCH   8  14
ENDBRANCH   5   6
ENDBRANCH   2   4
ENDBRANCH   1   2
BRANCH   1  16
ATOM     16  C   UNL     1     100.405 115.439  79.661  1.00  0.00     0.163 C 
ATOM     17  O   UNL     1     100.373 116.664  79.958  1.00  0.00    -0.294 OA
BRANCH  16  18
ATOM     18  C   UNL     1      99.708 114.432  80.493  1.00  0.00     0.048 C 
ATOM     19  C   UNL     1     100.246 113.766  81.526  1.00  0.00     0.012 C 
BRANCH  19  20
ATOM     20  C   UNL     1     101.566 114.045  82.129  1.00  0.00    -0.022 A 
ATOM     21  C   UNL     1     102.677 113.285  81.733  1.00  0.00     0.058 A 
ATOM     22  C   UNL     1     101.709 114.989  83.158  1.00  0.00     0.012 A 
ATOM     23  C   UNL     1     103.939 113.500  82.323  1.00  0.00     0.161 A 
ATOM     24  C   UNL     1     102.957 115.209  83.743  1.00  0.00     0.051 A 
ATOM     25  C   UNL     1     104.072 114.471  83.326  1.00  0.00     0.157 A 
BRANCH  23  26
ATOM     26  O   UNL     1     105.077 112.772  81.941  1.00  0.00    -0.493 OA
ATOM     27  C   UNL     1     105.133 111.893  80.823  1.00  0.00     0.278 C 
ENDBRANCH  23  26
BRANCH  25  28
ATOM     28  O   UNL     1     105.319 114.693  83.908  1.00  0.00    -0.504 OA
ATOM     29  H   UNL     1     105.443 114.682  84.914  1.00  0.00     0.293 HD
ENDBRANCH  25  28
ENDBRANCH  19  20
ENDBRANCH  16  18
ENDBRANCH   1  16
TORSDOF 10
ENDMDL
