MODEL 1
REMARK VINA RESULT:    -3.889      0.000      0.000
REMARK INTER + INTRA:          -5.442
REMARK INTER:                  -5.025
REMARK INTRA:                  -0.417
REMARK UNBOUND:                -0.417
REMARK SMILES CCCCCCC(=O)[O-]
REMARK SMILES IDX 5 1 6 2 7 3 8 4 9 5 4 6 3 7 2 8 1 9
REMARK H PARENT
REMARK Flexibility Score: inf
ROOT
ATOM      1  C   UNL     1      -8.727   3.584  -7.465  1.00  0.00     0.006 C 
ENDROOT
BRANCH   1   2
ATOM      2  C   UNL     1      -9.069   2.592  -8.587  1.00  0.00     0.053 C 
BRANCH   2   3
ATOM      3  C   UNL     1      -8.060   2.624  -9.693  1.00  0.00     0.041 C 
ATOM      4  O   UNL     1      -7.035   1.894  -9.637  1.00  0.00    -0.550 OA
ATOM      5  O   UNL     1      -8.266   3.436 -10.801  1.00  0.00    -0.550 OA
ENDBRANCH   2   3
ENDBRANCH   1   2
BRANCH   1   6
ATOM      6  C   UNL     1      -9.515   4.908  -7.522  1.00  0.00     0.000 C 
BRANCH   6   7
ATOM      7  C   UNL     1      -8.888   6.008  -8.402  1.00  0.00    -0.000 C 
BRANCH   7   8
ATOM      8  C   UNL     1      -9.772   6.491  -9.565  1.00  0.00    -0.003 C 
ATOM      9  C   UNL     1     -11.045   5.662  -9.730  1.00  0.00     0.004 C 
ENDBRANCH   7   8
ENDBRANCH   6   7
ENDBRANCH   1   6
TORSDOF 5
ENDMDL
MODEL 2
REMARK VINA RESULT:    -3.824      1.663      2.589
REMARK INTER + INTRA:          -5.359
REMARK INTER:                  -4.928
REMARK INTRA:                  -0.431
REMARK UNBOUND:                -0.417
REMARK SMILES CCCCCCC(=O)[O-]
REMARK SMILES IDX 5 1 6 2 7 3 8 4 9 5 4 6 3 7 2 8 1 9
REMARK H PARENT
REMARK Flexibility Score: inf
ROOT
ATOM      1  C   UNL     1     -10.665   4.967  -8.830  1.00  0.00     0.006 C 
ENDROOT
BRANCH   1   2
ATOM      2  C   UNL     1      -9.790   4.310  -7.751  1.00  0.00     0.053 C 
BRANCH   2   3
ATOM      3  C   UNL     1      -9.040   3.127  -8.281  1.00  0.00     0.041 C 
ATOM      4  O   UNL     1      -7.838   3.246  -8.637  1.00  0.00    -0.550 OA
ATOM      5  O   UNL     1      -9.658   1.885  -8.349  1.00  0.00    -0.550 OA
ENDBRANCH   2   3
ENDBRANCH   1   2
BRANCH   1   6
ATOM      6  C   UNL     1     -10.067   6.248  -9.444  1.00  0.00     0.000 C 
BRANCH   6   7
ATOM      7  C   UNL     1      -9.182   6.027 -10.687  1.00  0.00    -0.000 C 
BRANCH   7   8
ATOM      8  C   UNL     1      -7.698   6.389 -10.499  1.00  0.00    -0.003 C 
ATOM      9  C   UNL     1      -7.361   6.795  -9.065  1.00  0.00     0.004 C 
ENDBRANCH   7   8
ENDBRANCH   6   7
ENDBRANCH   1   6
TORSDOF 5
ENDMDL
MODEL 3
REMARK VINA RESULT:    -3.810      0.787      1.749
REMARK INTER + INTRA:          -5.340
REMARK INTER:                  -5.038
REMARK INTRA:                  -0.302
REMARK UNBOUND:                -0.417
REMARK SMILES CCCCCCC(=O)[O-]
REMARK SMILES IDX 5 1 6 2 7 3 8 4 9 5 4 6 3 7 2 8 1 9
REMARK H PARENT
REMARK Flexibility Score: inf
ROOT
ATOM      1  C   UNL     1      -8.861   3.756  -7.668  1.00  0.00     0.006 C 
ENDROOT
BRANCH   1   2
ATOM      2  C   UNL     1      -9.317   2.981  -8.914  1.00  0.00     0.053 C 
BRANCH   2   3
ATOM      3  C   UNL     1      -8.201   2.786  -9.893  1.00  0.00     0.041 C 
ATOM      4  O   UNL     1      -8.245   3.339 -11.024  1.00  0.00    -0.550 OA
ATOM      5  O   UNL     1      -7.094   2.022  -9.545  1.00  0.00    -0.550 OA
ENDBRANCH   2   3
ENDBRANCH   1   2
BRANCH   1   6
ATOM      6  C   UNL     1      -9.284   5.238  -7.648  1.00  0.00     0.000 C 
BRANCH   6   7
ATOM      7  C   UNL     1      -9.827   5.783  -8.984  1.00  0.00    -0.000 C 
BRANCH   7   8
ATOM      8  C   UNL     1      -8.912   6.801  -9.688  1.00  0.00    -0.003 C 
ATOM      9  C   UNL     1      -7.492   6.814  -9.125  1.00  0.00     0.004 C 
ENDBRANCH   7   8
ENDBRANCH   6   7
ENDBRANCH   1   6
TORSDOF 5
ENDMDL
MODEL 4
REMARK VINA RESULT:    -3.698      1.690      2.132
REMARK INTER + INTRA:          -5.196
REMARK INTER:                  -4.897
REMARK INTRA:                  -0.300
REMARK UNBOUND:                -0.417
REMARK SMILES CCCCCCC(=O)[O-]
REMARK SMILES IDX 5 1 6 2 7 3 8 4 9 5 4 6 3 7 2 8 1 9
REMARK H PARENT
REMARK Flexibility Score: inf
ROOT
ATOM      1  C   UNL     1      -9.647   5.065  -8.118  1.00  0.00     0.006 C 
ENDROOT
BRANCH   1   2
ATOM      2  C   UNL     1      -8.812   3.884  -7.599  1.00  0.00     0.053 C 
BRANCH   2   3
ATOM      3  C   UNL     1      -8.850   2.716  -8.536  1.00  0.00     0.041 C 
ATOM      4  O   UNL     1      -7.836   2.421  -9.222  1.00  0.00    -0.550 OA
ATOM      5  O   UNL     1      -9.993   1.932  -8.626  1.00  0.00    -0.550 OA
ENDBRANCH   2   3
ENDBRANCH   1   2
BRANCH   1   6
ATOM      6  C   UNL     1      -8.822   6.310  -8.499  1.00  0.00     0.000 C 
BRANCH   6   7
ATOM      7  C   UNL     1      -8.999   6.795  -9.952  1.00  0.00    -0.000 C 
BRANCH   7   8
ATOM      8  C   UNL     1      -8.041   6.150 -10.971  1.00  0.00    -0.003 C 
ATOM      9  C   UNL     1      -8.716   5.082 -11.829  1.00  0.00     0.004 C 
ENDBRANCH   7   8
ENDBRANCH   6   7
ENDBRANCH   1   6
TORSDOF 5
ENDMDL
MODEL 5
REMARK VINA RESULT:    -3.660      2.085      3.699
REMARK INTER + INTRA:          -5.147
REMARK INTER:                  -4.864
REMARK INTRA:                  -0.284
REMARK UNBOUND:                -0.417
REMARK SMILES CCCCCCC(=O)[O-]
REMARK SMILES IDX 5 1 6 2 7 3 8 4 9 5 4 6 3 7 2 8 1 9
REMARK H PARENT
REMARK Flexibility Score: inf
ROOT
ATOM      1  C   UNL     1     -10.153   5.700  -9.997  1.00  0.00     0.006 C 
ENDROOT
BRANCH   1   2
ATOM      2  C   UNL     1      -9.417   6.936  -9.457  1.00  0.00     0.053 C 
BRANCH   2   3
ATOM      3  C   UNL     1      -7.936   6.836  -9.650  1.00  0.00     0.041 C 
ATOM      4  O   UNL     1      -7.154   7.050  -8.686  1.00  0.00    -0.550 OA
ATOM      5  O   UNL     1      -7.418   6.472 -10.887  1.00  0.00    -0.550 OA
ENDBRANCH   2   3
ENDBRANCH   1   2
BRANCH   1   6
ATOM      6  C   UNL     1     -10.770   4.799  -8.909  1.00  0.00     0.000 C 
BRANCH   6   7
ATOM      7  C   UNL     1      -9.961   4.704  -7.600  1.00  0.00    -0.000 C 
BRANCH   7   8
ATOM      8  C   UNL     1      -8.782   3.716  -7.637  1.00  0.00    -0.003 C 
ATOM      9  C   UNL     1      -9.093   2.446  -8.427  1.00  0.00     0.004 C 
ENDBRANCH   7   8
ENDBRANCH   6   7
ENDBRANCH   1   6
TORSDOF 5
ENDMDL
MODEL 6
REMARK VINA RESULT:    -3.512      2.128      3.252
REMARK INTER + INTRA:          -4.955
REMARK INTER:                  -4.656
REMARK INTRA:                  -0.299
REMARK UNBOUND:                -0.417
REMARK SMILES CCCCCCC(=O)[O-]
REMARK SMILES IDX 5 1 6 2 7 3 8 4 9 5 4 6 3 7 2 8 1 9
REMARK H PARENT
REMARK Flexibility Score: inf
ROOT
ATOM      1  C   UNL     1      -7.993   6.286  -8.888  1.00  0.00     0.006 C 
ENDROOT
BRANCH   1   2
ATOM      2  C   UNL     1      -8.812   6.677 -10.128  1.00  0.00     0.053 C 
BRANCH   2   3
ATOM      3  C   UNL     1      -8.328   5.981 -11.363  1.00  0.00     0.041 C 
ATOM      4  O   UNL     1      -9.046   5.109 -11.921  1.00  0.00    -0.550 OA
ATOM      5  O   UNL     1      -7.100   6.318 -11.916  1.00  0.00    -0.550 OA
ENDBRANCH   2   3
ENDBRANCH   1   2
BRANCH   1   6
ATOM      6  C   UNL     1      -7.740   4.772  -8.742  1.00  0.00     0.000 C 
BRANCH   6   7
ATOM      7  C   UNL     1      -8.557   4.074  -7.637  1.00  0.00    -0.000 C 
BRANCH   7   8
ATOM      8  C   UNL     1     -10.030   4.509  -7.548  1.00  0.00    -0.003 C 
ATOM      9  C   UNL     1     -10.905   3.879  -8.631  1.00  0.00     0.004 C 
ENDBRANCH   7   8
ENDBRANCH   6   7
ENDBRANCH   1   6
TORSDOF 5
ENDMDL
MODEL 7
REMARK VINA RESULT:    -3.479      1.841      2.315
REMARK INTER + INTRA:          -4.913
REMARK INTER:                  -4.710
REMARK INTRA:                  -0.204
REMARK UNBOUND:                -0.417
REMARK SMILES CCCCCCC(=O)[O-]
REMARK SMILES IDX 5 1 6 2 7 3 8 4 9 5 4 6 3 7 2 8 1 9
REMARK H PARENT
REMARK Flexibility Score: inf
ROOT
ATOM      1  C   UNL     1     -10.032   3.659  -8.539  1.00  0.00     0.006 C 
ENDROOT
BRANCH   1   2
ATOM      2  C   UNL     1      -8.864   2.679  -8.726  1.00  0.00     0.053 C 
BRANCH   2   3
ATOM      3  C   UNL     1      -9.295   1.255  -8.558  1.00  0.00     0.041 C 
ATOM      4  O   UNL     1      -8.598   0.458  -7.875  1.00  0.00    -0.550 OA
ATOM      5  O   UNL     1     -10.483   0.814  -9.126  1.00  0.00    -0.550 OA
ENDBRANCH   2   3
ENDBRANCH   1   2
BRANCH   1   6
ATOM      6  C   UNL     1      -9.614   5.068  -8.073  1.00  0.00     0.000 C 
BRANCH   6   7
ATOM      7  C   UNL     1      -9.873   6.199  -9.089  1.00  0.00    -0.000 C 
BRANCH   7   8
ATOM      8  C   UNL     1      -8.638   6.645  -9.891  1.00  0.00    -0.003 C 
ATOM      9  C   UNL     1      -7.390   6.803  -9.025  1.00  0.00     0.004 C 
ENDBRANCH   7   8
ENDBRANCH   6   7
ENDBRANCH   1   6
TORSDOF 5
ENDMDL
MODEL 8
REMARK VINA RESULT:    -3.282      2.259      3.943
REMARK INTER + INTRA:          -4.658
REMARK INTER:                  -4.444
REMARK INTRA:                  -0.215
REMARK UNBOUND:                -0.417
REMARK SMILES CCCCCCC(=O)[O-]
REMARK SMILES IDX 5 1 6 2 7 3 8 4 9 5 4 6 3 7 2 8 1 9
REMARK H PARENT
REMARK Flexibility Score: inf
ROOT
ATOM      1  C   UNL     1      -7.582   4.724  -8.580  1.00  0.00     0.006 C 
ENDROOT
BRANCH   1   2
ATOM      2  C   UNL     1      -7.624   6.228  -8.897  1.00  0.00     0.053 C 
BRANCH   2   3
ATOM      3  C   UNL     1      -8.701   6.563  -9.882  1.00  0.00     0.041 C 
ATOM      4  O   UNL     1      -8.530   6.336 -11.109  1.00  0.00    -0.550 OA
ATOM      5  O   UNL     1      -9.907   7.094  -9.443  1.00  0.00    -0.550 OA
ENDBRANCH   2   3
ENDBRANCH   1   2
BRANCH   1   6
ATOM      6  C   UNL     1      -8.767   4.217  -7.736  1.00  0.00     0.000 C 
BRANCH   6   7
ATOM      7  C   UNL     1      -9.637   3.136  -8.409  1.00  0.00    -0.000 C 
BRANCH   7   8
ATOM      8  C   UNL     1      -8.855   1.949  -8.999  1.00  0.00    -0.003 C 
ATOM      9  C   UNL     1      -9.150   0.630  -8.288  1.00  0.00     0.004 C 
ENDBRANCH   7   8
ENDBRANCH   6   7
ENDBRANCH   1   6
TORSDOF 5
ENDMDL
MODEL 9
REMARK VINA RESULT:    -3.111      1.789      2.319
REMARK INTER + INTRA:          -4.438
REMARK INTER:                  -4.309
REMARK INTRA:                  -0.129
REMARK UNBOUND:                -0.417
REMARK SMILES CCCCCCC(=O)[O-]
REMARK SMILES IDX 5 1 6 2 7 3 8 4 9 5 4 6 3 7 2 8 1 9
REMARK H PARENT
REMARK Flexibility Score: inf
ROOT
ATOM      1  C   UNL     1      -8.137   3.325  -9.511  1.00  0.00     0.006 C 
ENDROOT
BRANCH   1   2
ATOM      2  C   UNL     1      -8.721   1.935  -9.805  1.00  0.00     0.053 C 
BRANCH   2   3
ATOM      3  C   UNL     1      -7.650   0.916 -10.046  1.00  0.00     0.041 C 
ATOM      4  O   UNL     1      -7.385   0.055  -9.165  1.00  0.00    -0.550 OA
ATOM      5  O   UNL     1      -6.966   0.896 -11.255  1.00  0.00    -0.550 OA
ENDBRANCH   2   3
ENDBRANCH   1   2
BRANCH   1   6
ATOM      6  C   UNL     1      -8.747   4.464 -10.352  1.00  0.00     0.000 C 
BRANCH   6   7
ATOM      7  C   UNL     1      -9.560   5.505  -9.556  1.00  0.00    -0.000 C 
BRANCH   7   8
ATOM      8  C   UNL     1      -8.939   6.913  -9.508  1.00  0.00    -0.003 C 
ATOM      9  C   UNL     1      -7.452   6.897  -9.160  1.00  0.00     0.004 C 
ENDBRANCH   7   8
ENDBRANCH   6   7
ENDBRANCH   1   6
TORSDOF 5
ENDMDL
