MODEL 1
REMARK VINA RESULT:    -3.803      0.000      0.000
REMARK INTER + INTRA:          -4.771
REMARK INTER:                  -4.693
REMARK INTRA:                  -0.078
REMARK UNBOUND:                -0.078
REMARK SMILES CCCCCC(C)=O
REMARK SMILES IDX 4 1 3 2 2 3 1 4 5 5 6 6 8 7 7 8
REMARK H PARENT
REMARK Flexibility Score: inf
ROOT
ATOM      1  C   UNL     1      24.474  56.077  -8.850  1.00  0.00     0.008 C 
ENDROOT
BRANCH   1   2
ATOM      2  C   UNL     1      24.042  55.606  -7.447  1.00  0.00     0.000 C 
BRANCH   2   3
ATOM      3  C   UNL     1      22.671  54.908  -7.393  1.00  0.00    -0.003 C 
ATOM      4  C   UNL     1      22.244  54.542  -5.972  1.00  0.00     0.004 C 
ENDBRANCH   2   3
ENDBRANCH   1   2
BRANCH   1   5
ATOM      5  C   UNL     1      25.905  56.638  -8.917  1.00  0.00     0.075 C 
BRANCH   5   6
ATOM      6  C   UNL     1      25.926  58.099  -9.277  1.00  0.00     0.129 C 
ATOM      7  O   UNL     1      25.045  58.839  -8.864  1.00  0.00    -0.300 OA
ATOM      8  C   UNL     1      27.012  58.651 -10.152  1.00  0.00     0.087 C 
ENDBRANCH   5   6
ENDBRANCH   1   5
TORSDOF 4
ENDMDL
MODEL 2
REMARK VINA RESULT:    -3.712      2.234      3.272
REMARK INTER + INTRA:          -4.658
REMARK INTER:                  -4.531
REMARK INTRA:                  -0.127
REMARK UNBOUND:                -0.078
REMARK SMILES CCCCCC(C)=O
REMARK SMILES IDX 4 1 3 2 2 3 1 4 5 5 6 6 8 7 7 8
REMARK H PARENT
REMARK Flexibility Score: inf
ROOT
ATOM      1  C   UNL     1      25.834  59.117  -9.309  1.00  0.00     0.008 C 
ENDROOT
BRANCH   1   2
ATOM      2  C   UNL     1      24.911  58.036  -8.711  1.00  0.00     0.000 C 
BRANCH   2   3
ATOM      3  C   UNL     1      25.488  56.609  -8.729  1.00  0.00    -0.003 C 
ATOM      4  C   UNL     1      24.455  55.543  -8.365  1.00  0.00     0.004 C 
ENDBRANCH   2   3
ENDBRANCH   1   2
BRANCH   1   5
ATOM      5  C   UNL     1      27.011  58.562 -10.128  1.00  0.00     0.075 C 
BRANCH   5   6
ATOM      6  C   UNL     1      28.009  59.631 -10.485  1.00  0.00     0.129 C 
ATOM      7  O   UNL     1      29.097  59.317 -10.947  1.00  0.00    -0.300 OA
ATOM      8  C   UNL     1      27.685  61.078 -10.263  1.00  0.00     0.087 C 
ENDBRANCH   5   6
ENDBRANCH   1   5
TORSDOF 4
ENDMDL
MODEL 3
REMARK VINA RESULT:    -3.614     15.658     16.863
REMARK INTER + INTRA:          -4.538
REMARK INTER:                  -4.212
REMARK INTRA:                  -0.326
REMARK UNBOUND:                -0.078
REMARK SMILES CCCCCC(C)=O
REMARK SMILES IDX 4 1 3 2 2 3 1 4 5 5 6 6 8 7 7 8
REMARK H PARENT
REMARK Flexibility Score: inf
ROOT
ATOM      1  C   UNL     1      19.824  45.051   0.068  1.00  0.00     0.008 C 
ENDROOT
BRANCH   1   2
ATOM      2  C   UNL     1      20.062  44.532   1.500  1.00  0.00     0.000 C 
BRANCH   2   3
ATOM      3  C   UNL     1      20.796  43.181   1.586  1.00  0.00    -0.003 C 
ATOM      4  C   UNL     1      21.005  42.528   0.220  1.00  0.00     0.004 C 
ENDBRANCH   2   3
ENDBRANCH   1   2
BRANCH   1   5
ATOM      5  C   UNL     1      18.354  45.369  -0.254  1.00  0.00     0.075 C 
BRANCH   5   6
ATOM      6  C   UNL     1      17.435  44.234   0.109  1.00  0.00     0.129 C 
ATOM      7  O   UNL     1      17.538  43.161  -0.468  1.00  0.00    -0.300 OA
ATOM      8  C   UNL     1      16.383  44.414   1.161  1.00  0.00     0.087 C 
ENDBRANCH   5   6
ENDBRANCH   1   5
TORSDOF 4
ENDMDL
MODEL 4
REMARK VINA RESULT:    -3.553     15.449     16.978
REMARK INTER + INTRA:          -4.463
REMARK INTER:                  -4.215
REMARK INTRA:                  -0.248
REMARK UNBOUND:                -0.078
REMARK SMILES CCCCCC(C)=O
REMARK SMILES IDX 4 1 3 2 2 3 1 4 5 5 6 6 8 7 7 8
REMARK H PARENT
REMARK Flexibility Score: inf
ROOT
ATOM      1  C   UNL     1      17.381  43.710   1.396  1.00  0.00     0.008 C 
ENDROOT
BRANCH   1   2
ATOM      2  C   UNL     1      16.168  44.477   1.959  1.00  0.00     0.000 C 
BRANCH   2   3
ATOM      3  C   UNL     1      15.333  45.231   0.908  1.00  0.00    -0.003 C 
ATOM      4  C   UNL     1      16.098  45.486  -0.391  1.00  0.00     0.004 C 
ENDBRANCH   2   3
ENDBRANCH   1   2
BRANCH   1   5
ATOM      5  C   UNL     1      18.717  44.052   2.076  1.00  0.00     0.075 C 
BRANCH   5   6
ATOM      6  C   UNL     1      19.834  44.224   1.081  1.00  0.00     0.129 C 
ATOM      7  O   UNL     1      20.842  43.538   1.175  1.00  0.00    -0.300 OA
ATOM      8  C   UNL     1      19.726  45.242  -0.014  1.00  0.00     0.087 C 
ENDBRANCH   5   6
ENDBRANCH   1   5
TORSDOF 4
ENDMDL
MODEL 5
REMARK VINA RESULT:    -3.527     15.966     17.004
REMARK INTER + INTRA:          -4.431
REMARK INTER:                  -4.262
REMARK INTRA:                  -0.169
REMARK UNBOUND:                -0.078
REMARK SMILES CCCCCC(C)=O
REMARK SMILES IDX 4 1 3 2 2 3 1 4 5 5 6 6 8 7 7 8
REMARK H PARENT
REMARK Flexibility Score: inf
ROOT
ATOM      1  C   UNL     1      17.936  44.107   0.331  1.00  0.00     0.008 C 
ENDROOT
BRANCH   1   2
ATOM      2  C   UNL     1      17.310  44.021   1.738  1.00  0.00     0.000 C 
BRANCH   2   3
ATOM      3  C   UNL     1      15.855  44.515   1.831  1.00  0.00    -0.003 C 
ATOM      4  C   UNL     1      15.429  45.348   0.622  1.00  0.00     0.004 C 
ENDBRANCH   2   3
ENDBRANCH   1   2
BRANCH   1   5
ATOM      5  C   UNL     1      19.325  44.767   0.296  1.00  0.00     0.075 C 
BRANCH   5   6
ATOM      6  C   UNL     1      20.275  44.145   1.284  1.00  0.00     0.129 C 
ATOM      7  O   UNL     1      20.608  44.768   2.281  1.00  0.00    -0.300 OA
ATOM      8  C   UNL     1      20.829  42.772   1.045  1.00  0.00     0.087 C 
ENDBRANCH   5   6
ENDBRANCH   1   5
TORSDOF 4
ENDMDL
MODEL 6
REMARK VINA RESULT:    -3.470     15.905     17.064
REMARK INTER + INTRA:          -4.359
REMARK INTER:                  -4.153
REMARK INTRA:                  -0.206
REMARK UNBOUND:                -0.078
REMARK SMILES CCCCCC(C)=O
REMARK SMILES IDX 4 1 3 2 2 3 1 4 5 5 6 6 8 7 7 8
REMARK H PARENT
REMARK Flexibility Score: inf
ROOT
ATOM      1  C   UNL     1      19.036  44.707   0.017  1.00  0.00     0.008 C 
ENDROOT
BRANCH   1   2
ATOM      2  C   UNL     1      19.876  44.472   1.289  1.00  0.00     0.000 C 
BRANCH   2   3
ATOM      3  C   UNL     1      20.301  43.011   1.523  1.00  0.00    -0.003 C 
ATOM      4  C   UNL     1      21.188  42.461   0.407  1.00  0.00     0.004 C 
ENDBRANCH   2   3
ENDBRANCH   1   2
BRANCH   1   5
ATOM      5  C   UNL     1      17.701  43.945  -0.011  1.00  0.00     0.075 C 
BRANCH   5   6
ATOM      6  C   UNL     1      16.555  44.790   0.478  1.00  0.00     0.129 C 
ATOM      7  O   UNL     1      16.108  45.677  -0.234  1.00  0.00    -0.300 OA
ATOM      8  C   UNL     1      15.967  44.561   1.839  1.00  0.00     0.087 C 
ENDBRANCH   5   6
ENDBRANCH   1   5
TORSDOF 4
ENDMDL
MODEL 7
REMARK VINA RESULT:    -3.416     14.952     16.285
REMARK INTER + INTRA:          -4.293
REMARK INTER:                  -4.185
REMARK INTRA:                  -0.108
REMARK UNBOUND:                -0.078
REMARK SMILES CCCCCC(C)=O
REMARK SMILES IDX 4 1 3 2 2 3 1 4 5 5 6 6 8 7 7 8
REMARK H PARENT
REMARK Flexibility Score: inf
ROOT
ATOM      1  C   UNL     1      31.915  45.515   1.447  1.00  0.00     0.008 C 
ENDROOT
BRANCH   1   2
ATOM      2  C   UNL     1      32.646  46.241   2.594  1.00  0.00     0.000 C 
BRANCH   2   3
ATOM      3  C   UNL     1      31.774  47.219   3.401  1.00  0.00    -0.003 C 
ATOM      4  C   UNL     1      32.529  48.477   3.832  1.00  0.00     0.004 C 
ENDBRANCH   2   3
ENDBRANCH   1   2
BRANCH   1   5
ATOM      5  C   UNL     1      30.384  45.662   1.478  1.00  0.00     0.075 C 
BRANCH   5   6
ATOM      6  C   UNL     1      29.745  45.219   0.189  1.00  0.00     0.129 C 
ATOM      7  O   UNL     1      30.223  44.284  -0.436  1.00  0.00    -0.300 OA
ATOM      8  C   UNL     1      28.535  45.928  -0.342  1.00  0.00     0.087 C 
ENDBRANCH   5   6
ENDBRANCH   1   5
TORSDOF 4
ENDMDL
MODEL 8
REMARK VINA RESULT:    -3.406     15.537     17.211
REMARK INTER + INTRA:          -4.281
REMARK INTER:                  -4.023
REMARK INTRA:                  -0.257
REMARK UNBOUND:                -0.078
REMARK SMILES CCCCCC(C)=O
REMARK SMILES IDX 4 1 3 2 2 3 1 4 5 5 6 6 8 7 7 8
REMARK H PARENT
REMARK Flexibility Score: inf
ROOT
ATOM      1  C   UNL     1      17.495  43.742   1.237  1.00  0.00     0.008 C 
ENDROOT
BRANCH   1   2
ATOM      2  C   UNL     1      18.806  44.006   2.003  1.00  0.00     0.000 C 
BRANCH   2   3
ATOM      3  C   UNL     1      20.030  44.293   1.115  1.00  0.00    -0.003 C 
ATOM      4  C   UNL     1      19.734  45.290  -0.005  1.00  0.00     0.004 C 
ENDBRANCH   2   3
ENDBRANCH   1   2
BRANCH   1   5
ATOM      5  C   UNL     1      16.268  44.470   1.811  1.00  0.00     0.075 C 
BRANCH   5   6
ATOM      6  C   UNL     1      15.530  45.256   0.760  1.00  0.00     0.129 C 
ATOM      7  O   UNL     1      14.446  45.754   1.024  1.00  0.00    -0.300 OA
ATOM      8  C   UNL     1      16.108  45.417  -0.614  1.00  0.00     0.087 C 
ENDBRANCH   5   6
ENDBRANCH   1   5
TORSDOF 4
ENDMDL
MODEL 9
REMARK VINA RESULT:    -3.347      4.948      7.785
REMARK INTER + INTRA:          -4.208
REMARK INTER:                  -4.050
REMARK INTRA:                  -0.157
REMARK UNBOUND:                -0.078
REMARK SMILES CCCCCC(C)=O
REMARK SMILES IDX 4 1 3 2 2 3 1 4 5 5 6 6 8 7 7 8
REMARK H PARENT
REMARK Flexibility Score: inf
ROOT
ATOM      1  C   UNL     1      30.306  59.332 -12.390  1.00  0.00     0.008 C 
ENDROOT
BRANCH   1   2
ATOM      2  C   UNL     1      29.965  57.983 -13.056  1.00  0.00     0.000 C 
BRANCH   2   3
ATOM      3  C   UNL     1      31.176  57.211 -13.609  1.00  0.00    -0.003 C 
ATOM      4  C   UNL     1      32.245  58.124 -14.208  1.00  0.00     0.004 C 
ENDBRANCH   2   3
ENDBRANCH   1   2
BRANCH   1   5
ATOM      5  C   UNL     1      29.889  59.432 -10.913  1.00  0.00     0.075 C 
BRANCH   5   6
ATOM      6  C   UNL     1      28.463  59.887 -10.754  1.00  0.00     0.129 C 
ATOM      7  O   UNL     1      28.190  61.075 -10.851  1.00  0.00    -0.300 OA
ATOM      8  C   UNL     1      27.377  58.896 -10.462  1.00  0.00     0.087 C 
ENDBRANCH   5   6
ENDBRANCH   1   5
TORSDOF 4
ENDMDL
