MODEL 1
REMARK VINA RESULT:    -3.241      0.000      0.000
REMARK INTER + INTRA:          -3.761
REMARK INTER:                  -3.715
REMARK INTRA:                  -0.046
REMARK UNBOUND:                -0.046
REMARK SMILES CC(C)[C@H]([NH3+])C(=O)[O-]
REMARK SMILES IDX 4 1 5 2 6 6 7 7 8 8 2 9 1 10 3 11
REMARK H PARENT 5 3 5 4 5 5
REMARK Flexibility Score: inf
ROOT
ATOM      1  C   UNL     1     178.040 162.971 168.548  1.00  0.00     0.230 C 
ENDROOT
BRANCH   1   2
ATOM      2  N   UNL     1     177.618 164.372 168.396  1.00  0.00    -0.350 N 
ATOM      3  H   UNL     1     176.810 164.586 169.025  1.00  0.00     0.345 HD
ATOM      4  H   UNL     1     178.413 165.015 168.615  1.00  0.00     0.345 HD
ATOM      5  H   UNL     1     177.336 164.557 167.405  1.00  0.00     0.345 HD
ENDBRANCH   1   2
BRANCH   1   6
ATOM      6  C   UNL     1     178.266 162.364 167.184  1.00  0.00     0.099 C 
ATOM      7  O   UNL     1     177.746 162.885 166.162  1.00  0.00    -0.544 OA
ATOM      8  O   UNL     1     179.043 161.221 167.053  1.00  0.00    -0.544 OA
ENDBRANCH   1   6
BRANCH   1   9
ATOM      9  C   UNL     1     177.006 162.137 169.363  1.00  0.00     0.047 C 
ATOM     10  C   UNL     1     175.682 162.897 169.557  1.00  0.00     0.014 C 
ATOM     11  C   UNL     1     177.567 161.744 170.741  1.00  0.00     0.014 C 
ENDBRANCH   1   9
TORSDOF 3
ENDMDL
MODEL 2
REMARK VINA RESULT:    -3.189     16.721     17.351
REMARK INTER + INTRA:          -3.701
REMARK INTER:                  -3.904
REMARK INTRA:                   0.203
REMARK UNBOUND:                -0.046
REMARK SMILES CC(C)[C@H]([NH3+])C(=O)[O-]
REMARK SMILES IDX 4 1 5 2 6 6 7 7 8 8 2 9 1 10 3 11
REMARK H PARENT 5 3 5 4 5 5
REMARK Flexibility Score: inf
ROOT
ATOM      1  C   UNL     1     161.118 162.345 168.704  1.00  0.00     0.230 C 
ENDROOT
BRANCH   1   2
ATOM      2  N   UNL     1     161.132 163.728 169.205  1.00  0.00    -0.350 N 
ATOM      3  H   UNL     1     160.727 163.778 170.168  1.00  0.00     0.345 HD
ATOM      4  H   UNL     1     162.110 164.098 169.217  1.00  0.00     0.345 HD
ATOM      5  H   UNL     1     160.577 164.347 168.570  1.00  0.00     0.345 HD
ENDBRANCH   1   2
BRANCH   1   6
ATOM      6  C   UNL     1     160.244 162.266 167.475  1.00  0.00     0.099 C 
ATOM      7  O   UNL     1     159.222 162.995 167.372  1.00  0.00    -0.544 OA
ATOM      8  O   UNL     1     160.561 161.379 166.454  1.00  0.00    -0.544 OA
ENDBRANCH   1   6
BRANCH   1   9
ATOM      9  C   UNL     1     160.638 161.337 169.792  1.00  0.00     0.047 C 
ATOM     10  C   UNL     1     160.851 159.877 169.354  1.00  0.00     0.014 C 
ATOM     11  C   UNL     1     159.153 161.548 170.133  1.00  0.00     0.014 C 
ENDBRANCH   1   9
TORSDOF 3
ENDMDL
MODEL 3
REMARK VINA RESULT:    -3.103      2.021      2.663
REMARK INTER + INTRA:          -3.603
REMARK INTER:                  -3.709
REMARK INTRA:                   0.107
REMARK UNBOUND:                -0.046
REMARK SMILES CC(C)[C@H]([NH3+])C(=O)[O-]
REMARK SMILES IDX 4 1 5 2 6 6 7 7 8 8 2 9 1 10 3 11
REMARK H PARENT 5 3 5 4 5 5
REMARK Flexibility Score: inf
ROOT
ATOM      1  C   UNL     1     176.875 161.830 168.963  1.00  0.00     0.230 C 
ENDROOT
BRANCH   1   2
ATOM      2  N   UNL     1     176.291 161.725 170.308  1.00  0.00    -0.350 N 
ATOM      3  H   UNL     1     175.627 162.514 170.487  1.00  0.00     0.345 HD
ATOM      4  H   UNL     1     175.789 160.814 170.414  1.00  0.00     0.345 HD
ATOM      5  H   UNL     1     177.047 161.746 171.032  1.00  0.00     0.345 HD
ENDBRANCH   1   2
BRANCH   1   6
ATOM      6  C   UNL     1     177.809 160.667 168.729  1.00  0.00     0.099 C 
ATOM      7  O   UNL     1     178.018 160.242 167.562  1.00  0.00    -0.544 OA
ATOM      8  O   UNL     1     178.436 160.053 169.806  1.00  0.00    -0.544 OA
ENDBRANCH   1   6
BRANCH   1   9
ATOM      9  C   UNL     1     177.615 163.187 168.753  1.00  0.00     0.047 C 
ATOM     10  C   UNL     1     177.665 163.588 167.269  1.00  0.00     0.014 C 
ATOM     11  C   UNL     1     179.049 163.131 169.308  1.00  0.00     0.014 C 
ENDBRANCH   1   9
TORSDOF 3
ENDMDL
MODEL 4
REMARK VINA RESULT:    -2.981      2.476      3.437
REMARK INTER + INTRA:          -3.463
REMARK INTER:                  -3.402
REMARK INTRA:                  -0.061
REMARK UNBOUND:                -0.046
REMARK SMILES CC(C)[C@H]([NH3+])C(=O)[O-]
REMARK SMILES IDX 4 1 5 2 6 6 7 7 8 8 2 9 1 10 3 11
REMARK H PARENT 5 3 5 4 5 5
REMARK Flexibility Score: inf
ROOT
ATOM      1  C   UNL     1     176.987 161.830 169.367  1.00  0.00     0.230 C 
ENDROOT
BRANCH   1   2
ATOM      2  N   UNL     1     175.826 162.661 169.722  1.00  0.00    -0.350 N 
ATOM      3  H   UNL     1     175.101 162.627 168.969  1.00  0.00     0.345 HD
ATOM      4  H   UNL     1     175.410 162.334 170.624  1.00  0.00     0.345 HD
ATOM      5  H   UNL     1     176.124 163.654 169.863  1.00  0.00     0.345 HD
ENDBRANCH   1   2
BRANCH   1   6
ATOM      6  C   UNL     1     177.846 161.621 170.591  1.00  0.00     0.099 C 
ATOM      7  O   UNL     1     179.074 161.903 170.563  1.00  0.00    -0.544 OA
ATOM      8  O   UNL     1     177.287 161.107 171.753  1.00  0.00    -0.544 OA
ENDBRANCH   1   6
BRANCH   1   9
ATOM      9  C   UNL     1     177.817 162.455 168.205  1.00  0.00     0.047 C 
ATOM     10  C   UNL     1     177.531 163.958 168.041  1.00  0.00     0.014 C 
ATOM     11  C   UNL     1     177.535 161.741 166.872  1.00  0.00     0.014 C 
ENDBRANCH   1   9
TORSDOF 3
ENDMDL
MODEL 5
REMARK VINA RESULT:    -2.980     12.760     13.668
REMARK INTER + INTRA:          -3.462
REMARK INTER:                  -3.420
REMARK INTRA:                  -0.042
REMARK UNBOUND:                -0.046
REMARK SMILES CC(C)[C@H]([NH3+])C(=O)[O-]
REMARK SMILES IDX 4 1 5 2 6 6 7 7 8 8 2 9 1 10 3 11
REMARK H PARENT 5 3 5 4 5 5
REMARK Flexibility Score: inf
ROOT
ATOM      1  C   UNL     1     170.522 173.052 162.799  1.00  0.00     0.230 C 
ENDROOT
BRANCH   1   2
ATOM      2  N   UNL     1     170.922 173.960 163.884  1.00  0.00    -0.350 N 
ATOM      3  H   UNL     1     171.513 173.460 164.588  1.00  0.00     0.345 HD
ATOM      4  H   UNL     1     171.452 174.774 163.498  1.00  0.00     0.345 HD
ATOM      5  H   UNL     1     170.075 174.345 164.363  1.00  0.00     0.345 HD
ENDBRANCH   1   2
BRANCH   1   6
ATOM      6  C   UNL     1     169.100 172.599 163.022  1.00  0.00     0.099 C 
ATOM      7  O   UNL     1     168.639 172.498 164.191  1.00  0.00    -0.544 OA
ATOM      8  O   UNL     1     168.293 172.282 161.937  1.00  0.00    -0.544 OA
ENDBRANCH   1   6
BRANCH   1   9
ATOM      9  C   UNL     1     171.482 171.830 162.679  1.00  0.00     0.047 C 
ATOM     10  C   UNL     1     171.967 171.346 164.056  1.00  0.00     0.014 C 
ATOM     11  C   UNL     1     172.704 172.163 161.804  1.00  0.00     0.014 C 
ENDBRANCH   1   9
TORSDOF 3
ENDMDL
MODEL 6
REMARK VINA RESULT:    -2.894     12.558     13.400
REMARK INTER + INTRA:          -3.362
REMARK INTER:                  -3.303
REMARK INTRA:                  -0.059
REMARK UNBOUND:                -0.046
REMARK SMILES CC(C)[C@H]([NH3+])C(=O)[O-]
REMARK SMILES IDX 4 1 5 2 6 6 7 7 8 8 2 9 1 10 3 11
REMARK H PARENT 5 3 5 4 5 5
REMARK Flexibility Score: inf
ROOT
ATOM      1  C   UNL     1     171.175 172.496 162.193  1.00  0.00     0.230 C 
ENDROOT
BRANCH   1   2
ATOM      2  N   UNL     1     171.523 173.486 161.162  1.00  0.00    -0.350 N 
ATOM      3  H   UNL     1     170.962 174.361 161.284  1.00  0.00     0.345 HD
ATOM      4  H   UNL     1     172.542 173.714 161.210  1.00  0.00     0.345 HD
ATOM      5  H   UNL     1     171.340 173.094 160.210  1.00  0.00     0.345 HD
ENDBRANCH   1   2
BRANCH   1   6
ATOM      6  C   UNL     1     170.042 173.029 163.037  1.00  0.00     0.099 C 
ATOM      7  O   UNL     1     170.197 174.071 163.728  1.00  0.00    -0.544 OA
ATOM      8  O   UNL     1     168.822 172.364 163.062  1.00  0.00    -0.544 OA
ENDBRANCH   1   6
BRANCH   1   9
ATOM      9  C   UNL     1     172.401 172.124 163.081  1.00  0.00     0.047 C 
ATOM     10  C   UNL     1     173.537 171.495 162.254  1.00  0.00     0.014 C 
ATOM     11  C   UNL     1     172.001 171.153 164.205  1.00  0.00     0.014 C 
ENDBRANCH   1   9
TORSDOF 3
ENDMDL
MODEL 7
REMARK VINA RESULT:    -2.854     12.927     13.820
REMARK INTER + INTRA:          -3.318
REMARK INTER:                  -3.260
REMARK INTRA:                  -0.058
REMARK UNBOUND:                -0.046
REMARK SMILES CC(C)[C@H]([NH3+])C(=O)[O-]
REMARK SMILES IDX 4 1 5 2 6 6 7 7 8 8 2 9 1 10 3 11
REMARK H PARENT 5 3 5 4 5 5
REMARK Flexibility Score: inf
ROOT
ATOM      1  C   UNL     1     170.217 172.917 163.621  1.00  0.00     0.230 C 
ENDROOT
BRANCH   1   2
ATOM      2  N   UNL     1     170.864 174.226 163.804  1.00  0.00    -0.350 N 
ATOM      3  H   UNL     1     171.733 174.294 163.225  1.00  0.00     0.345 HD
ATOM      4  H   UNL     1     170.206 174.994 163.541  1.00  0.00     0.345 HD
ATOM      5  H   UNL     1     171.114 174.366 164.811  1.00  0.00     0.345 HD
ENDBRANCH   1   2
BRANCH   1   6
ATOM      6  C   UNL     1     171.246 171.908 163.170  1.00  0.00     0.099 C 
ATOM      7  O   UNL     1     171.408 171.668 161.944  1.00  0.00    -0.544 OA
ATOM      8  O   UNL     1     172.013 171.232 164.109  1.00  0.00    -0.544 OA
ENDBRANCH   1   6
BRANCH   1   9
ATOM      9  C   UNL     1     169.031 172.991 162.611  1.00  0.00     0.047 C 
ATOM     10  C   UNL     1     168.764 174.433 162.146  1.00  0.00     0.014 C 
ATOM     11  C   UNL     1     167.742 172.413 163.222  1.00  0.00     0.014 C 
ENDBRANCH   1   9
TORSDOF 3
ENDMDL
MODEL 8
REMARK VINA RESULT:    -2.782     17.109     17.814
REMARK INTER + INTRA:          -3.235
REMARK INTER:                  -3.187
REMARK INTRA:                  -0.048
REMARK UNBOUND:                -0.046
REMARK SMILES CC(C)[C@H]([NH3+])C(=O)[O-]
REMARK SMILES IDX 4 1 5 2 6 6 7 7 8 8 2 9 1 10 3 11
REMARK H PARENT 5 3 5 4 5 5
REMARK Flexibility Score: inf
ROOT
ATOM      1  C   UNL     1     160.416 162.052 168.034  1.00  0.00     0.230 C 
ENDROOT
BRANCH   1   2
ATOM      2  N   UNL     1     161.883 162.139 168.086  1.00  0.00    -0.350 N 
ATOM      3  H   UNL     1     162.212 162.273 169.070  1.00  0.00     0.345 HD
ATOM      4  H   UNL     1     162.311 161.272 167.689  1.00  0.00     0.345 HD
ATOM      5  H   UNL     1     162.217 162.942 167.504  1.00  0.00     0.345 HD
ENDBRANCH   1   2
BRANCH   1   6
ATOM      6  C   UNL     1     159.929 161.131 169.126  1.00  0.00     0.099 C 
ATOM      7  O   UNL     1     160.105 159.887 169.037  1.00  0.00    -0.544 OA
ATOM      8  O   UNL     1     159.274 161.654 170.235  1.00  0.00    -0.544 OA
ENDBRANCH   1   6
BRANCH   1   9
ATOM      9  C   UNL     1     159.910 161.574 166.638  1.00  0.00     0.047 C 
ATOM     10  C   UNL     1     161.066 161.409 165.637  1.00  0.00     0.014 C 
ATOM     11  C   UNL     1     158.875 162.551 166.055  1.00  0.00     0.014 C 
ENDBRANCH   1   9
TORSDOF 3
ENDMDL
MODEL 9
REMARK VINA RESULT:    -2.774      2.053      3.217
REMARK INTER + INTRA:          -3.225
REMARK INTER:                  -3.165
REMARK INTRA:                  -0.060
REMARK UNBOUND:                -0.046
REMARK SMILES CC(C)[C@H]([NH3+])C(=O)[O-]
REMARK SMILES IDX 4 1 5 2 6 6 7 7 8 8 2 9 1 10 3 11
REMARK H PARENT 5 3 5 4 5 5
REMARK Flexibility Score: inf
ROOT
ATOM      1  C   UNL     1     177.306 162.929 167.792  1.00  0.00     0.230 C 
ENDROOT
BRANCH   1   2
ATOM      2  N   UNL     1     177.547 164.378 167.720  1.00  0.00    -0.350 N 
ATOM      3  H   UNL     1     177.448 164.819 168.663  1.00  0.00     0.345 HD
ATOM      4  H   UNL     1     178.504 164.567 167.344  1.00  0.00     0.345 HD
ATOM      5  H   UNL     1     176.865 164.824 167.062  1.00  0.00     0.345 HD
ENDBRANCH   1   2
BRANCH   1   6
ATOM      6  C   UNL     1     177.076 162.531 169.230  1.00  0.00     0.099 C 
ATOM      7  O   UNL     1     175.924 162.606 169.736  1.00  0.00    -0.544 OA
ATOM      8  O   UNL     1     178.139 162.086 170.007  1.00  0.00    -0.544 OA
ENDBRANCH   1   6
BRANCH   1   9
ATOM      9  C   UNL     1     178.480 162.112 167.171  1.00  0.00     0.047 C 
ATOM     10  C   UNL     1     179.124 162.848 165.984  1.00  0.00     0.014 C 
ATOM     11  C   UNL     1     178.009 160.723 166.706  1.00  0.00     0.014 C 
ENDBRANCH   1   9
TORSDOF 3
ENDMDL
