MODEL 1
REMARK VINA RESULT:    -3.923      0.000      0.000
REMARK INTER + INTRA:          -8.253
REMARK INTER:                  -6.904
REMARK INTRA:                  -1.348
REMARK UNBOUND:                -1.348
REMARK SMILES CCCCCCCCCCCCCCC(=O)[O-]
REMARK SMILES IDX 9 1 10 2 11 3 12 4 13 5 14 6 15 7 16 8 17 9 8 10 7 11 6 12
REMARK SMILES IDX 5 13 4 14 3 15 2 16 1 17
REMARK H PARENT
REMARK Flexibility Score: inf
ROOT
ATOM      1  C   UNL     1      58.026   2.547  95.644  1.00  0.00     0.000 C 
ENDROOT
BRANCH   1   2
ATOM      2  C   UNL     1      57.617   3.842  96.362  1.00  0.00     0.000 C 
BRANCH   2   3
ATOM      3  C   UNL     1      58.472   5.050  95.940  1.00  0.00     0.000 C 
BRANCH   3   4
ATOM      4  C   UNL     1      59.743   5.201  96.791  1.00  0.00     0.000 C 
BRANCH   4   5
ATOM      5  C   UNL     1      60.740   6.205  96.193  1.00  0.00     0.006 C 
BRANCH   5   6
ATOM      6  C   UNL     1      60.017   7.255  95.344  1.00  0.00     0.053 C 
BRANCH   6   7
ATOM      7  C   UNL     1      59.984   8.571  96.055  1.00  0.00     0.041 C 
ATOM      8  O   UNL     1      59.333   8.697  97.125  1.00  0.00    -0.550 OA
ATOM      9  O   UNL     1      60.714   9.646  95.563  1.00  0.00    -0.550 OA
ENDBRANCH   6   7
ENDBRANCH   5   6
ENDBRANCH   4   5
ENDBRANCH   3   4
ENDBRANCH   2   3
ENDBRANCH   1   2
BRANCH   1  10
ATOM     10  C   UNL     1      58.468   1.444  96.621  1.00  0.00     0.000 C 
BRANCH  10  11
ATOM     11  C   UNL     1      59.960   1.539  96.982  1.00  0.00    -0.000 C 
BRANCH  11  12
ATOM     12  C   UNL     1      60.703   0.209  96.788  1.00  0.00    -0.000 C 
BRANCH  12  13
ATOM     13  C   UNL     1      59.978  -0.682  95.772  1.00  0.00    -0.000 C 
BRANCH  13  14
ATOM     14  C   UNL     1      60.874  -0.983  94.564  1.00  0.00    -0.000 C 
BRANCH  14  15
ATOM     15  C   UNL     1      60.106  -0.786  93.248  1.00  0.00    -0.000 C 
BRANCH  15  16
ATOM     16  C   UNL     1      58.601  -0.576  93.468  1.00  0.00    -0.003 C 
ATOM     17  C   UNL     1      58.012   0.489  92.543  1.00  0.00     0.004 C 
ENDBRANCH  15  16
ENDBRANCH  14  15
ENDBRANCH  13  14
ENDBRANCH  12  13
ENDBRANCH  11  12
ENDBRANCH  10  11
ENDBRANCH   1  10
TORSDOF 13
ENDMDL
MODEL 2
REMARK VINA RESULT:    -3.696      5.121      7.283
REMARK INTER + INTRA:          -7.854
REMARK INTER:                  -5.763
REMARK INTRA:                  -2.091
REMARK UNBOUND:                -1.348
REMARK SMILES CCCCCCCCCCCCCCC(=O)[O-]
REMARK SMILES IDX 9 1 10 2 11 3 12 4 13 5 14 6 15 7 16 8 17 9 8 10 7 11 6 12
REMARK SMILES IDX 5 13 4 14 3 15 2 16 1 17
REMARK H PARENT
REMARK Flexibility Score: inf
ROOT
ATOM      1  C   UNL     1      59.611   1.625  96.880  1.00  0.00     0.000 C 
ENDROOT
BRANCH   1   2
ATOM      2  C   UNL     1      60.547   0.408  96.825  1.00  0.00     0.000 C 
BRANCH   2   3
ATOM      3  C   UNL     1      60.065  -0.668  95.836  1.00  0.00     0.000 C 
BRANCH   3   4
ATOM      4  C   UNL     1      61.074  -0.925  94.705  1.00  0.00     0.000 C 
BRANCH   4   5
ATOM      5  C   UNL     1      60.393  -1.210  93.358  1.00  0.00     0.006 C 
BRANCH   5   6
ATOM      6  C   UNL     1      60.340  -2.715  93.079  1.00  0.00     0.053 C 
BRANCH   6   7
ATOM      7  C   UNL     1      59.532  -2.992  91.850  1.00  0.00     0.041 C 
ATOM      8  O   UNL     1      59.174  -4.168  91.579  1.00  0.00    -0.550 OA
ATOM      9  O   UNL     1      59.133  -1.945  91.030  1.00  0.00    -0.550 OA
ENDBRANCH   6   7
ENDBRANCH   5   6
ENDBRANCH   4   5
ENDBRANCH   3   4
ENDBRANCH   2   3
ENDBRANCH   1   2
BRANCH   1  10
ATOM     10  C   UNL     1      58.178   1.288  96.434  1.00  0.00     0.000 C 
BRANCH  10  11
ATOM     11  C   UNL     1      57.752   2.067  95.179  1.00  0.00    -0.000 C 
BRANCH  11  12
ATOM     12  C   UNL     1      57.394   1.148  94.002  1.00  0.00    -0.000 C 
BRANCH  12  13
ATOM     13  C   UNL     1      56.437   0.034  94.446  1.00  0.00    -0.000 C 
BRANCH  13  14
ATOM     14  C   UNL     1      56.736  -1.276  93.707  1.00  0.00    -0.000 C 
BRANCH  14  15
ATOM     15  C   UNL     1      57.009  -2.417  94.699  1.00  0.00    -0.000 C 
BRANCH  15  16
ATOM     16  C   UNL     1      56.700  -2.024  96.151  1.00  0.00    -0.003 C 
ATOM     17  C   UNL     1      55.858  -3.071  96.880  1.00  0.00     0.004 C 
ENDBRANCH  15  16
ENDBRANCH  14  15
ENDBRANCH  13  14
ENDBRANCH  12  13
ENDBRANCH  11  12
ENDBRANCH  10  11
ENDBRANCH   1  10
TORSDOF 13
ENDMDL
MODEL 3
REMARK VINA RESULT:    -3.684      1.580      2.261
REMARK INTER + INTRA:          -7.832
REMARK INTER:                  -6.172
REMARK INTRA:                  -1.659
REMARK UNBOUND:                -1.348
REMARK SMILES CCCCCCCCCCCCCCC(=O)[O-]
REMARK SMILES IDX 9 1 10 2 11 3 12 4 13 5 14 6 15 7 16 8 17 9 8 10 7 11 6 12
REMARK SMILES IDX 5 13 4 14 3 15 2 16 1 17
REMARK H PARENT
REMARK Flexibility Score: inf
ROOT
ATOM      1  C   UNL     1      58.783   1.656  97.019  1.00  0.00     0.000 C 
ENDROOT
BRANCH   1   2
ATOM      2  C   UNL     1      57.904   2.128  95.851  1.00  0.00     0.000 C 
BRANCH   2   3
ATOM      3  C   UNL     1      57.936   3.656  95.663  1.00  0.00     0.000 C 
BRANCH   3   4
ATOM      4  C   UNL     1      58.333   4.400  96.948  1.00  0.00     0.000 C 
BRANCH   4   5
ATOM      5  C   UNL     1      59.614   5.230  96.780  1.00  0.00     0.006 C 
BRANCH   5   6
ATOM      6  C   UNL     1      59.291   6.725  96.693  1.00  0.00     0.053 C 
BRANCH   6   7
ATOM      7  C   UNL     1      59.739   7.283  95.379  1.00  0.00     0.041 C 
ATOM      8  O   UNL     1      60.265   8.425  95.323  1.00  0.00    -0.550 OA
ATOM      9  O   UNL     1      59.622   6.521  94.224  1.00  0.00    -0.550 OA
ENDBRANCH   6   7
ENDBRANCH   5   6
ENDBRANCH   4   5
ENDBRANCH   3   4
ENDBRANCH   2   3
ENDBRANCH   1   2
BRANCH   1  10
ATOM     10  C   UNL     1      60.232   1.368  96.589  1.00  0.00     0.000 C 
BRANCH  10  11
ATOM     11  C   UNL     1      60.601  -0.119  96.717  1.00  0.00    -0.000 C 
BRANCH  11  12
ATOM     12  C   UNL     1      61.125  -0.717  95.403  1.00  0.00    -0.000 C 
BRANCH  12  13
ATOM     13  C   UNL     1      60.077  -0.593  94.288  1.00  0.00    -0.000 C 
BRANCH  13  14
ATOM     14  C   UNL     1      58.954  -1.622  94.472  1.00  0.00    -0.000 C 
BRANCH  14  15
ATOM     15  C   UNL     1      57.597  -1.033  94.059  1.00  0.00    -0.000 C 
BRANCH  15  16
ATOM     16  C   UNL     1      56.546  -1.131  95.174  1.00  0.00    -0.003 C 
ATOM     17  C   UNL     1      57.120  -1.680  96.480  1.00  0.00     0.004 C 
ENDBRANCH  15  16
ENDBRANCH  14  15
ENDBRANCH  13  14
ENDBRANCH  12  13
ENDBRANCH  11  12
ENDBRANCH  10  11
ENDBRANCH   1  10
TORSDOF 13
ENDMDL
MODEL 4
REMARK VINA RESULT:    -3.675      3.361      7.115
REMARK INTER + INTRA:          -7.817
REMARK INTER:                  -6.758
REMARK INTRA:                  -1.059
REMARK UNBOUND:                -1.348
REMARK SMILES CCCCCCCCCCCCCCC(=O)[O-]
REMARK SMILES IDX 9 1 10 2 11 3 12 4 13 5 14 6 15 7 16 8 17 9 8 10 7 11 6 12
REMARK SMILES IDX 5 13 4 14 3 15 2 16 1 17
REMARK H PARENT
REMARK Flexibility Score: inf
ROOT
ATOM      1  C   UNL     1      58.235   1.641  96.772  1.00  0.00     0.000 C 
ENDROOT
BRANCH   1   2
ATOM      2  C   UNL     1      59.750   1.862  96.909  1.00  0.00     0.000 C 
BRANCH   2   3
ATOM      3  C   UNL     1      60.544   0.543  96.921  1.00  0.00     0.000 C 
BRANCH   3   4
ATOM      4  C   UNL     1      59.958  -0.507  95.964  1.00  0.00     0.000 C 
BRANCH   4   5
ATOM      5  C   UNL     1      60.757  -0.627  94.657  1.00  0.00     0.006 C 
BRANCH   5   6
ATOM      6  C   UNL     1      59.886  -1.196  93.533  1.00  0.00     0.053 C 
BRANCH   6   7
ATOM      7  C   UNL     1      59.151  -0.097  92.832  1.00  0.00     0.041 C 
ATOM      8  O   UNL     1      58.205   0.500  93.409  1.00  0.00    -0.550 OA
ATOM      9  O   UNL     1      59.543   0.301  91.561  1.00  0.00    -0.550 OA
ENDBRANCH   6   7
ENDBRANCH   5   6
ENDBRANCH   4   5
ENDBRANCH   3   4
ENDBRANCH   2   3
ENDBRANCH   1   2
BRANCH   1  10
ATOM     10  C   UNL     1      57.452   2.961  96.686  1.00  0.00     0.000 C 
BRANCH  10  11
ATOM     11  C   UNL     1      57.639   3.672  95.335  1.00  0.00    -0.000 C 
BRANCH  11  12
ATOM     12  C   UNL     1      57.928   5.172  95.489  1.00  0.00    -0.000 C 
BRANCH  12  13
ATOM     13  C   UNL     1      58.703   5.452  96.783  1.00  0.00    -0.000 C 
BRANCH  13  14
ATOM     14  C   UNL     1      60.202   5.620  96.503  1.00  0.00    -0.000 C 
BRANCH  14  15
ATOM     15  C   UNL     1      60.510   7.033  95.987  1.00  0.00    -0.000 C 
BRANCH  15  16
ATOM     16  C   UNL     1      59.948   8.132  96.902  1.00  0.00    -0.003 C 
ATOM     17  C   UNL     1      59.832   9.484  96.200  1.00  0.00     0.004 C 
ENDBRANCH  15  16
ENDBRANCH  14  15
ENDBRANCH  13  14
ENDBRANCH  12  13
ENDBRANCH  11  12
ENDBRANCH  10  11
ENDBRANCH   1  10
TORSDOF 13
ENDMDL
MODEL 5
REMARK VINA RESULT:    -3.661      5.455      7.713
REMARK INTER + INTRA:          -7.792
REMARK INTER:                  -5.717
REMARK INTRA:                  -2.075
REMARK UNBOUND:                -1.348
REMARK SMILES CCCCCCCCCCCCCCC(=O)[O-]
REMARK SMILES IDX 9 1 10 2 11 3 12 4 13 5 14 6 15 7 16 8 17 9 8 10 7 11 6 12
REMARK SMILES IDX 5 13 4 14 3 15 2 16 1 17
REMARK H PARENT
REMARK Flexibility Score: inf
ROOT
ATOM      1  C   UNL     1      60.073  -0.714  95.671  1.00  0.00     0.000 C 
ENDROOT
BRANCH   1   2
ATOM      2  C   UNL     1      61.078  -1.117  94.580  1.00  0.00     0.000 C 
BRANCH   2   3
ATOM      3  C   UNL     1      60.411  -1.332  93.209  1.00  0.00     0.000 C 
BRANCH   3   4
ATOM      4  C   UNL     1      59.328  -0.283  92.908  1.00  0.00     0.000 C 
BRANCH   4   5
ATOM      5  C   UNL     1      58.120  -0.875  92.168  1.00  0.00     0.006 C 
BRANCH   5   6
ATOM      6  C   UNL     1      58.042  -2.391  92.371  1.00  0.00     0.053 C 
BRANCH   6   7
ATOM      7  C   UNL     1      58.044  -3.098  91.052  1.00  0.00     0.041 C 
ATOM      8  O   UNL     1      58.785  -2.692  90.118  1.00  0.00    -0.550 OA
ATOM      9  O   UNL     1      57.266  -4.233  90.869  1.00  0.00    -0.550 OA
ENDBRANCH   6   7
ENDBRANCH   5   6
ENDBRANCH   4   5
ENDBRANCH   3   4
ENDBRANCH   2   3
ENDBRANCH   1   2
BRANCH   1  10
ATOM     10  C   UNL     1      60.719   0.127  96.785  1.00  0.00     0.000 C 
BRANCH  10  11
ATOM     11  C   UNL     1      59.968   1.445  97.040  1.00  0.00    -0.000 C 
BRANCH  11  12
ATOM     12  C   UNL     1      58.767   1.635  96.102  1.00  0.00    -0.000 C 
BRANCH  12  13
ATOM     13  C   UNL     1      57.514   2.039  96.890  1.00  0.00    -0.000 C 
BRANCH  13  14
ATOM     14  C   UNL     1      56.400   0.998  96.724  1.00  0.00    -0.000 C 
BRANCH  14  15
ATOM     15  C   UNL     1      56.530   0.263  95.381  1.00  0.00    -0.000 C 
BRANCH  15  16
ATOM     16  C   UNL     1      56.186  -1.230  95.489  1.00  0.00    -0.003 C 
ATOM     17  C   UNL     1      56.795  -1.889  96.726  1.00  0.00     0.004 C 
ENDBRANCH  15  16
ENDBRANCH  14  15
ENDBRANCH  13  14
ENDBRANCH  12  13
ENDBRANCH  11  12
ENDBRANCH  10  11
ENDBRANCH   1  10
TORSDOF 13
ENDMDL
MODEL 6
REMARK VINA RESULT:    -3.628      0.988      2.043
REMARK INTER + INTRA:          -7.733
REMARK INTER:                  -6.613
REMARK INTRA:                  -1.120
REMARK UNBOUND:                -1.348
REMARK SMILES CCCCCCCCCCCCCCC(=O)[O-]
REMARK SMILES IDX 9 1 10 2 11 3 12 4 13 5 14 6 15 7 16 8 17 9 8 10 7 11 6 12
REMARK SMILES IDX 5 13 4 14 3 15 2 16 1 17
REMARK H PARENT
REMARK Flexibility Score: inf
ROOT
ATOM      1  C   UNL     1      59.767   1.746  97.123  1.00  0.00     0.000 C 
ENDROOT
BRANCH   1   2
ATOM      2  C   UNL     1      58.555   1.940  96.198  1.00  0.00     0.000 C 
BRANCH   2   3
ATOM      3  C   UNL     1      58.116   3.412  96.096  1.00  0.00     0.000 C 
BRANCH   3   4
ATOM      4  C   UNL     1      59.049   4.361  96.864  1.00  0.00     0.000 C 
BRANCH   4   5
ATOM      5  C   UNL     1      59.274   5.691  96.130  1.00  0.00     0.006 C 
BRANCH   5   6
ATOM      6  C   UNL     1      60.696   6.211  96.362  1.00  0.00     0.053 C 
BRANCH   6   7
ATOM      7  C   UNL     1      60.776   7.673  96.055  1.00  0.00     0.041 C 
ATOM      8  O   UNL     1      60.889   8.511  96.989  1.00  0.00    -0.550 OA
ATOM      9  O   UNL     1      60.777   8.108  94.736  1.00  0.00    -0.550 OA
ENDBRANCH   6   7
ENDBRANCH   5   6
ENDBRANCH   4   5
ENDBRANCH   3   4
ENDBRANCH   2   3
ENDBRANCH   1   2
BRANCH   1  10
ATOM     10  C   UNL     1      60.607   0.514  96.745  1.00  0.00     0.000 C 
BRANCH  10  11
ATOM     11  C   UNL     1      59.868  -0.432  95.784  1.00  0.00    -0.000 C 
BRANCH  11  12
ATOM     12  C   UNL     1      60.755  -0.913  94.626  1.00  0.00    -0.000 C 
BRANCH  12  13
ATOM     13  C   UNL     1      59.994  -0.861  93.295  1.00  0.00    -0.000 C 
BRANCH  13  14
ATOM     14  C   UNL     1      58.487  -1.044  93.514  1.00  0.00    -0.000 C 
BRANCH  14  15
ATOM     15  C   UNL     1      57.708  -0.796  92.213  1.00  0.00    -0.000 C 
BRANCH  15  16
ATOM     16  C   UNL     1      56.574   0.224  92.389  1.00  0.00    -0.003 C 
ATOM     17  C   UNL     1      57.075   1.594  92.843  1.00  0.00     0.004 C 
ENDBRANCH  15  16
ENDBRANCH  14  15
ENDBRANCH  13  14
ENDBRANCH  12  13
ENDBRANCH  11  12
ENDBRANCH  10  11
ENDBRANCH   1  10
TORSDOF 13
ENDMDL
MODEL 7
REMARK VINA RESULT:    -3.619      4.915      6.956
REMARK INTER + INTRA:          -7.718
REMARK INTER:                  -5.490
REMARK INTRA:                  -2.228
REMARK UNBOUND:                -1.348
REMARK SMILES CCCCCCCCCCCCCCC(=O)[O-]
REMARK SMILES IDX 9 1 10 2 11 3 12 4 13 5 14 6 15 7 16 8 17 9 8 10 7 11 6 12
REMARK SMILES IDX 5 13 4 14 3 15 2 16 1 17
REMARK H PARENT
REMARK Flexibility Score: inf
ROOT
ATOM      1  C   UNL     1      60.912  -0.559  94.841  1.00  0.00     0.000 C 
ENDROOT
BRANCH   1   2
ATOM      2  C   UNL     1      60.334  -1.871  94.290  1.00  0.00     0.000 C 
BRANCH   2   3
ATOM      3  C   UNL     1      59.846  -1.740  92.836  1.00  0.00     0.000 C 
BRANCH   3   4
ATOM      4  C   UNL     1      59.768  -0.278  92.369  1.00  0.00     0.000 C 
BRANCH   4   5
ATOM      5  C   UNL     1      58.322   0.218  92.217  1.00  0.00     0.006 C 
BRANCH   5   6
ATOM      6  C   UNL     1      57.484  -0.778  91.410  1.00  0.00     0.053 C 
BRANCH   6   7
ATOM      7  C   UNL     1      57.558  -0.462  89.949  1.00  0.00     0.041 C 
ATOM      8  O   UNL     1      57.203  -1.319  89.097  1.00  0.00    -0.550 OA
ATOM      9  O   UNL     1      57.971   0.795  89.529  1.00  0.00    -0.550 OA
ENDBRANCH   6   7
ENDBRANCH   5   6
ENDBRANCH   4   5
ENDBRANCH   3   4
ENDBRANCH   2   3
ENDBRANCH   1   2
BRANCH   1  10
ATOM     10  C   UNL     1      60.684  -0.404  96.355  1.00  0.00     0.000 C 
BRANCH  10  11
ATOM     11  C   UNL     1      60.055   0.950  96.722  1.00  0.00    -0.000 C 
BRANCH  11  12
ATOM     12  C   UNL     1      58.866   1.317  95.822  1.00  0.00    -0.000 C 
BRANCH  12  13
ATOM     13  C   UNL     1      57.548   0.813  96.424  1.00  0.00    -0.000 C 
BRANCH  13  14
ATOM     14  C   UNL     1      56.964  -0.334  95.590  1.00  0.00    -0.000 C 
BRANCH  14  15
ATOM     15  C   UNL     1      57.173  -1.685  96.291  1.00  0.00    -0.000 C 
BRANCH  15  16
ATOM     16  C   UNL     1      56.306  -2.802  95.692  1.00  0.00    -0.003 C 
ATOM     17  C   UNL     1      56.790  -3.250  94.313  1.00  0.00     0.004 C 
ENDBRANCH  15  16
ENDBRANCH  14  15
ENDBRANCH  13  14
ENDBRANCH  12  13
ENDBRANCH  11  12
ENDBRANCH  10  11
ENDBRANCH   1  10
TORSDOF 13
ENDMDL
MODEL 8
REMARK VINA RESULT:    -3.600      1.727      2.396
REMARK INTER + INTRA:          -7.685
REMARK INTER:                  -7.048
REMARK INTRA:                  -0.637
REMARK UNBOUND:                -1.348
REMARK SMILES CCCCCCCCCCCCCCC(=O)[O-]
REMARK SMILES IDX 9 1 10 2 11 3 12 4 13 5 14 6 15 7 16 8 17 9 8 10 7 11 6 12
REMARK SMILES IDX 5 13 4 14 3 15 2 16 1 17
REMARK H PARENT
REMARK Flexibility Score: inf
ROOT
ATOM      1  C   UNL     1      58.871   1.702  96.758  1.00  0.00     0.000 C 
ENDROOT
BRANCH   1   2
ATOM      2  C   UNL     1      58.556   3.172  97.076  1.00  0.00     0.000 C 
BRANCH   2   3
ATOM      3  C   UNL     1      57.854   3.893  95.912  1.00  0.00     0.000 C 
BRANCH   3   4
ATOM      4  C   UNL     1      58.523   5.230  95.557  1.00  0.00     0.000 C 
BRANCH   4   5
ATOM      5  C   UNL     1      59.409   5.768  96.690  1.00  0.00     0.006 C 
BRANCH   5   6
ATOM      6  C   UNL     1      60.804   6.130  96.171  1.00  0.00     0.053 C 
BRANCH   6   7
ATOM      7  C   UNL     1      60.714   7.206  95.134  1.00  0.00     0.041 C 
ATOM      8  O   UNL     1      60.453   8.390  95.472  1.00  0.00    -0.550 OA
ATOM      9  O   UNL     1      60.967   6.910  93.801  1.00  0.00    -0.550 OA
ENDBRANCH   6   7
ENDBRANCH   5   6
ENDBRANCH   4   5
ENDBRANCH   3   4
ENDBRANCH   2   3
ENDBRANCH   1   2
BRANCH   1  10
ATOM     10  C   UNL     1      60.352   1.354  96.986  1.00  0.00     0.000 C 
BRANCH  10  11
ATOM     11  C   UNL     1      60.661  -0.126  96.706  1.00  0.00    -0.000 C 
BRANCH  11  12
ATOM     12  C   UNL     1      59.987  -0.641  95.425  1.00  0.00    -0.000 C 
BRANCH  12  13
ATOM     13  C   UNL     1      61.035  -1.063  94.387  1.00  0.00    -0.000 C 
BRANCH  13  14
ATOM     14  C   UNL     1      60.661  -2.403  93.739  1.00  0.00    -0.000 C 
BRANCH  14  15
ATOM     15  C   UNL     1      60.306  -2.216  92.257  1.00  0.00    -0.000 C 
BRANCH  15  16
ATOM     16  C   UNL     1      61.053  -3.198  91.342  1.00  0.00    -0.003 C 
ATOM     17  C   UNL     1      60.111  -4.027  90.470  1.00  0.00     0.004 C 
ENDBRANCH  15  16
ENDBRANCH  14  15
ENDBRANCH  13  14
ENDBRANCH  12  13
ENDBRANCH  11  12
ENDBRANCH  10  11
ENDBRANCH   1  10
TORSDOF 13
ENDMDL
