MODEL 1
REMARK VINA RESULT:    -3.050      0.000      0.000
REMARK INTER + INTRA:          -3.050
REMARK INTER:                  -3.050
REMARK INTRA:                   0.000
REMARK UNBOUND:                 0.000
REMARK SMILES O=c1ccc2ccccc2o1
REMARK SMILES IDX 7 1 8 2 9 3 10 4 5 5 6 6 4 7 3 8 2 9 1 10 11 11
REMARK H PARENT
REMARK Flexibility Score: inf
ROOT
ATOM      1  C   UNL     1    -132.302  41.809  17.319  1.00  0.00     0.001 A 
ATOM      2  C   UNL     1    -131.056  42.098  16.751  1.00  0.00     0.004 A 
ATOM      3  C   UNL     1    -129.951  41.286  17.024  1.00  0.00     0.048 A 
ATOM      4  C   UNL     1    -130.088  40.178  17.869  1.00  0.00     0.138 A 
ATOM      5  C   UNL     1    -131.345  39.886  18.443  1.00  0.00     0.018 A 
ATOM      6  C   UNL     1    -132.449  40.705  18.165  1.00  0.00     0.012 A 
ATOM      7  C   UNL     1    -131.452  38.773  19.282  1.00  0.00     0.019 A 
ATOM      8  C   UNL     1    -130.323  37.990  19.528  1.00  0.00     0.094 A 
ATOM      9  C   UNL     1    -129.111  38.341  18.925  1.00  0.00     0.336 A 
ATOM     10  O   UNL     1    -128.082  37.647  19.134  1.00  0.00    -0.246 OA
ATOM     11  O   UNL     1    -129.037  39.405  18.130  1.00  0.00    -0.423 OA
ENDROOT
TORSDOF 0
ENDMDL
MODEL 2
REMARK VINA RESULT:    -2.968     18.467     19.766
REMARK INTER + INTRA:          -2.968
REMARK INTER:                  -2.968
REMARK INTRA:                   0.000
REMARK UNBOUND:                 0.000
REMARK SMILES O=c1ccc2ccccc2o1
REMARK SMILES IDX 7 1 8 2 9 3 10 4 5 5 6 6 4 7 3 8 2 9 1 10 11 11
REMARK H PARENT
REMARK Flexibility Score: inf
ROOT
ATOM      1  C   UNL     1    -119.078  42.068   3.260  1.00  0.00     0.001 A 
ATOM      2  C   UNL     1    -120.445  41.977   3.545  1.00  0.00     0.004 A 
ATOM      3  C   UNL     1    -121.234  41.012   2.912  1.00  0.00     0.048 A 
ATOM      4  C   UNL     1    -120.659  40.132   1.987  1.00  0.00     0.138 A 
ATOM      5  C   UNL     1    -119.278  40.224   1.698  1.00  0.00     0.018 A 
ATOM      6  C   UNL     1    -118.493  41.195   2.337  1.00  0.00     0.012 A 
ATOM      7  C   UNL     1    -118.731  39.332   0.771  1.00  0.00     0.019 A 
ATOM      8  C   UNL     1    -119.556  38.386   0.162  1.00  0.00     0.094 A 
ATOM      9  C   UNL     1    -120.914  38.354   0.498  1.00  0.00     0.336 A 
ATOM     10  O   UNL     1    -121.674  37.508  -0.040  1.00  0.00    -0.246 OA
ATOM     11  O   UNL     1    -121.409  39.214   1.384  1.00  0.00    -0.423 OA
ENDROOT
TORSDOF 0
ENDMDL
MODEL 3
REMARK VINA RESULT:    -2.930      1.643      3.221
REMARK INTER + INTRA:          -2.930
REMARK INTER:                  -2.930
REMARK INTRA:                   0.000
REMARK UNBOUND:                 0.000
REMARK SMILES O=c1ccc2ccccc2o1
REMARK SMILES IDX 7 1 8 2 9 3 10 4 5 5 6 6 4 7 3 8 2 9 1 10 11 11
REMARK H PARENT
REMARK Flexibility Score: inf
ROOT
ATOM      1  C   UNL     1    -134.375  40.272  18.991  1.00  0.00     0.001 A 
ATOM      2  C   UNL     1    -133.711  39.106  19.388  1.00  0.00     0.004 A 
ATOM      3  C   UNL     1    -132.373  38.904  19.039  1.00  0.00     0.048 A 
ATOM      4  C   UNL     1    -131.691  39.868  18.287  1.00  0.00     0.138 A 
ATOM      5  C   UNL     1    -132.361  41.046  17.885  1.00  0.00     0.018 A 
ATOM      6  C   UNL     1    -133.704  41.242  18.240  1.00  0.00     0.012 A 
ATOM      7  C   UNL     1    -131.655  41.992  17.137  1.00  0.00     0.019 A 
ATOM      8  C   UNL     1    -130.320  41.748  16.810  1.00  0.00     0.094 A 
ATOM      9  C   UNL     1    -129.723  40.559  17.242  1.00  0.00     0.336 A 
ATOM     10  O   UNL     1    -128.520  40.322  16.958  1.00  0.00    -0.246 OA
ATOM     11  O   UNL     1    -130.417  39.676  17.954  1.00  0.00    -0.423 OA
ENDROOT
TORSDOF 0
ENDMDL
MODEL 4
REMARK VINA RESULT:    -2.928      1.594      2.076
REMARK INTER + INTRA:          -2.928
REMARK INTER:                  -2.928
REMARK INTRA:                   0.000
REMARK UNBOUND:                 0.000
REMARK SMILES O=c1ccc2ccccc2o1
REMARK SMILES IDX 7 1 8 2 9 3 10 4 5 5 6 6 4 7 3 8 2 9 1 10 11 11
REMARK H PARENT
REMARK Flexibility Score: inf
ROOT
ATOM      1  C   UNL     1    -132.850  41.051  18.201  1.00  0.00     0.001 A 
ATOM      2  C   UNL     1    -132.379  42.125  17.438  1.00  0.00     0.004 A 
ATOM      3  C   UNL     1    -131.093  42.088  16.890  1.00  0.00     0.048 A 
ATOM      4  C   UNL     1    -130.271  40.975  17.103  1.00  0.00     0.138 A 
ATOM      5  C   UNL     1    -130.747  39.890  17.874  1.00  0.00     0.018 A 
ATOM      6  C   UNL     1    -132.038  39.934  18.421  1.00  0.00     0.012 A 
ATOM      7  C   UNL     1    -129.905  38.791  18.069  1.00  0.00     0.019 A 
ATOM      8  C   UNL     1    -128.630  38.797  17.504  1.00  0.00     0.094 A 
ATOM      9  C   UNL     1    -128.227  39.907  16.753  1.00  0.00     0.336 A 
ATOM     10  O   UNL     1    -127.080  39.931  16.235  1.00  0.00    -0.246 OA
ATOM     11  O   UNL     1    -129.048  40.939  16.582  1.00  0.00    -0.423 OA
ENDROOT
TORSDOF 0
ENDMDL
MODEL 5
REMARK VINA RESULT:    -2.908      2.456      3.346
REMARK INTER + INTRA:          -2.908
REMARK INTER:                  -2.908
REMARK INTRA:                   0.000
REMARK UNBOUND:                 0.000
REMARK SMILES O=c1ccc2ccccc2o1
REMARK SMILES IDX 7 1 8 2 9 3 10 4 5 5 6 6 4 7 3 8 2 9 1 10 11 11
REMARK H PARENT
REMARK Flexibility Score: inf
ROOT
ATOM      1  C   UNL     1    -129.267  40.590  17.510  1.00  0.00     0.001 A 
ATOM      2  C   UNL     1    -130.238  41.420  16.940  1.00  0.00     0.004 A 
ATOM      3  C   UNL     1    -131.587  41.253  17.268  1.00  0.00     0.048 A 
ATOM      4  C   UNL     1    -131.971  40.254  18.170  1.00  0.00     0.138 A 
ATOM      5  C   UNL     1    -130.990  39.416  18.746  1.00  0.00     0.018 A 
ATOM      6  C   UNL     1    -129.639  39.589  18.412  1.00  0.00     0.012 A 
ATOM      7  C   UNL     1    -131.403  38.427  19.644  1.00  0.00     0.019 A 
ATOM      8  C   UNL     1    -132.760  38.297  19.943  1.00  0.00     0.094 A 
ATOM      9  C   UNL     1    -133.674  39.163  19.334  1.00  0.00     0.336 A 
ATOM     10  O   UNL     1    -134.902  39.061  19.590  1.00  0.00    -0.246 OA
ATOM     11  O   UNL     1    -133.255  40.095  18.483  1.00  0.00    -0.423 OA
ENDROOT
TORSDOF 0
ENDMDL
MODEL 6
REMARK VINA RESULT:    -2.866      1.207      2.371
REMARK INTER + INTRA:          -2.866
REMARK INTER:                  -2.866
REMARK INTRA:                   0.000
REMARK UNBOUND:                 0.000
REMARK SMILES O=c1ccc2ccccc2o1
REMARK SMILES IDX 7 1 8 2 9 3 10 4 5 5 6 6 4 7 3 8 2 9 1 10 11 11
REMARK H PARENT
REMARK Flexibility Score: inf
ROOT
ATOM      1  C   UNL     1    -133.099  42.075  17.582  1.00  0.00     0.001 A 
ATOM      2  C   UNL     1    -133.522  40.981  18.344  1.00  0.00     0.004 A 
ATOM      3  C   UNL     1    -132.641  39.930  18.618  1.00  0.00     0.048 A 
ATOM      4  C   UNL     1    -131.330  39.969  18.129  1.00  0.00     0.138 A 
ATOM      5  C   UNL     1    -130.902  41.074  17.358  1.00  0.00     0.018 A 
ATOM      6  C   UNL     1    -131.791  42.125  17.088  1.00  0.00     0.012 A 
ATOM      7  C   UNL     1    -129.587  41.087  16.884  1.00  0.00     0.019 A 
ATOM      8  C   UNL     1    -128.742  40.017  17.181  1.00  0.00     0.094 A 
ATOM      9  C   UNL     1    -129.236  38.957  17.949  1.00  0.00     0.336 A 
ATOM     10  O   UNL     1    -128.489  37.983  18.227  1.00  0.00    -0.246 OA
ATOM     11  O   UNL     1    -130.491  38.970  18.389  1.00  0.00    -0.423 OA
ENDROOT
TORSDOF 0
ENDMDL
MODEL 7
REMARK VINA RESULT:    -2.851     19.150     20.363
REMARK INTER + INTRA:          -2.851
REMARK INTER:                  -2.851
REMARK INTRA:                   0.000
REMARK UNBOUND:                 0.000
REMARK SMILES O=c1ccc2ccccc2o1
REMARK SMILES IDX 7 1 8 2 9 3 10 4 5 5 6 6 4 7 3 8 2 9 1 10 11 11
REMARK H PARENT
REMARK Flexibility Score: inf
ROOT
ATOM      1  C   UNL     1    -121.257  41.057   2.851  1.00  0.00     0.001 A 
ATOM      2  C   UNL     1    -120.342  41.934   3.444  1.00  0.00     0.004 A 
ATOM      3  C   UNL     1    -118.986  41.869   3.109  1.00  0.00     0.048 A 
ATOM      4  C   UNL     1    -118.538  40.925   2.178  1.00  0.00     0.138 A 
ATOM      5  C   UNL     1    -119.462  40.039   1.579  1.00  0.00     0.018 A 
ATOM      6  C   UNL     1    -120.821  40.110   1.920  1.00  0.00     0.012 A 
ATOM      7  C   UNL     1    -118.986  39.107   0.652  1.00  0.00     0.019 A 
ATOM      8  C   UNL     1    -117.625  39.078   0.348  1.00  0.00     0.094 A 
ATOM      9  C   UNL     1    -116.769  39.986   0.981  1.00  0.00     0.336 A 
ATOM     10  O   UNL     1    -115.538  39.975   0.719  1.00  0.00    -0.246 OA
ATOM     11  O   UNL     1    -117.248  40.863   1.859  1.00  0.00    -0.423 OA
ENDROOT
TORSDOF 0
ENDMDL
MODEL 8
REMARK VINA RESULT:    -2.849      2.181      3.292
REMARK INTER + INTRA:          -2.849
REMARK INTER:                  -2.849
REMARK INTRA:                   0.000
REMARK UNBOUND:                 0.000
REMARK SMILES O=c1ccc2ccccc2o1
REMARK SMILES IDX 7 1 8 2 9 3 10 4 5 5 6 6 4 7 3 8 2 9 1 10 11 11
REMARK H PARENT
REMARK Flexibility Score: inf
ROOT
ATOM      1  C   UNL     1    -129.893  41.402  16.957  1.00  0.00     0.001 A 
ATOM      2  C   UNL     1    -129.263  40.301  17.547  1.00  0.00     0.004 A 
ATOM      3  C   UNL     1    -130.001  39.394  18.313  1.00  0.00     0.048 A 
ATOM      4  C   UNL     1    -131.376  39.585  18.494  1.00  0.00     0.138 A 
ATOM      5  C   UNL     1    -132.013  40.697  17.898  1.00  0.00     0.018 A 
ATOM      6  C   UNL     1    -131.266  41.603  17.131  1.00  0.00     0.012 A 
ATOM      7  C   UNL     1    -133.387  40.862  18.094  1.00  0.00     0.019 A 
ATOM      8  C   UNL     1    -134.085  39.932  18.867  1.00  0.00     0.094 A 
ATOM      9  C   UNL     1    -133.387  38.856  19.425  1.00  0.00     0.336 A 
ATOM     10  O   UNL     1    -133.998  38.007  20.125  1.00  0.00    -0.246 OA
ATOM     11  O   UNL     1    -132.079  38.722  19.223  1.00  0.00    -0.423 OA
ENDROOT
TORSDOF 0
ENDMDL
MODEL 9
REMARK VINA RESULT:    -2.762      2.094      4.167
REMARK INTER + INTRA:          -2.762
REMARK INTER:                  -2.762
REMARK INTRA:                   0.000
REMARK UNBOUND:                 0.000
REMARK SMILES O=c1ccc2ccccc2o1
REMARK SMILES IDX 7 1 8 2 9 3 10 4 5 5 6 6 4 7 3 8 2 9 1 10 11 11
REMARK H PARENT
REMARK Flexibility Score: inf
ROOT
ATOM      1  C   UNL     1    -130.417  38.357  20.125  1.00  0.00     0.001 A 
ATOM      2  C   UNL     1    -131.802  38.377  19.926  1.00  0.00     0.004 A 
ATOM      3  C   UNL     1    -132.354  39.141  18.893  1.00  0.00     0.048 A 
ATOM      4  C   UNL     1    -131.522  39.889  18.053  1.00  0.00     0.138 A 
ATOM      5  C   UNL     1    -130.123  39.869  18.253  1.00  0.00     0.018 A 
ATOM      6  C   UNL     1    -129.576  39.101  19.292  1.00  0.00     0.012 A 
ATOM      7  C   UNL     1    -129.317  40.625  17.398  1.00  0.00     0.019 A 
ATOM      8  C   UNL     1    -129.910  41.373  16.380  1.00  0.00     0.094 A 
ATOM      9  C   UNL     1    -131.302  41.345  16.242  1.00  0.00     0.336 A 
ATOM     10  O   UNL     1    -131.856  42.012  15.330  1.00  0.00    -0.246 OA
ATOM     11  O   UNL     1    -132.047  40.616  17.069  1.00  0.00    -0.423 OA
ENDROOT
TORSDOF 0
ENDMDL
