MODEL 1
REMARK VINA RESULT:    -3.004      0.000      0.000
REMARK INTER + INTRA:          -4.956
REMARK INTER:                  -4.233
REMARK INTRA:                  -0.722
REMARK UNBOUND:                -0.722
REMARK SMILES CCCCCCCCC(=O)[O-]
REMARK SMILES IDX 6 1 7 2 8 3 9 4 10 5 11 6 5 7 4 8 3 9 2 10 1 11
REMARK H PARENT
REMARK Flexibility Score: inf
ROOT
ATOM      1  C   UNL     1     -98.187 -45.298 -12.008  1.00  0.00     0.000 C 
ENDROOT
BRANCH   1   2
ATOM      2  C   UNL     1     -97.108 -46.391 -11.940  1.00  0.00     0.006 C 
BRANCH   2   3
ATOM      3  C   UNL     1     -95.690 -45.815 -12.047  1.00  0.00     0.053 C 
BRANCH   3   4
ATOM      4  C   UNL     1     -94.677 -46.879 -12.339  1.00  0.00     0.041 C 
ATOM      5  O   UNL     1     -93.451 -46.593 -12.377  1.00  0.00    -0.550 OA
ATOM      6  O   UNL     1     -95.084 -48.192 -12.537  1.00  0.00    -0.550 OA
ENDBRANCH   3   4
ENDBRANCH   2   3
ENDBRANCH   1   2
BRANCH   1   7
ATOM      7  C   UNL     1     -97.561 -43.902 -11.880  1.00  0.00     0.000 C 
BRANCH   7   8
ATOM      8  C   UNL     1     -98.119 -43.110 -10.686  1.00  0.00    -0.000 C 
BRANCH   8   9
ATOM      9  C   UNL     1     -97.115 -42.995  -9.530  1.00  0.00    -0.000 C 
BRANCH   9  10
ATOM     10  C   UNL     1     -97.323 -44.121  -8.511  1.00  0.00    -0.003 C 
ATOM     11  C   UNL     1     -96.088 -45.012  -8.412  1.00  0.00     0.004 C 
ENDBRANCH   9  10
ENDBRANCH   8   9
ENDBRANCH   7   8
ENDBRANCH   1   7
TORSDOF 7
ENDMDL
MODEL 2
REMARK VINA RESULT:    -2.841      1.959      3.756
REMARK INTER + INTRA:          -4.726
REMARK INTER:                  -4.233
REMARK INTRA:                  -0.493
REMARK UNBOUND:                -0.722
REMARK SMILES CCCCCCCCC(=O)[O-]
REMARK SMILES IDX 6 1 7 2 8 3 9 4 10 5 11 6 5 7 4 8 3 9 2 10 1 11
REMARK H PARENT
REMARK Flexibility Score: inf
ROOT
ATOM      1  C   UNL     1     -97.745 -45.022 -11.333  1.00  0.00     0.000 C 
ENDROOT
BRANCH   1   2
ATOM      2  C   UNL     1     -96.381 -45.083 -12.040  1.00  0.00     0.006 C 
BRANCH   2   3
ATOM      3  C   UNL     1     -95.752 -46.481 -11.969  1.00  0.00     0.053 C 
BRANCH   3   4
ATOM      4  C   UNL     1     -94.304 -46.460 -12.351  1.00  0.00     0.041 C 
ATOM      5  O   UNL     1     -93.882 -45.623 -13.192  1.00  0.00    -0.550 OA
ATOM      6  O   UNL     1     -93.413 -47.342 -11.753  1.00  0.00    -0.550 OA
ENDBRANCH   3   4
ENDBRANCH   2   3
ENDBRANCH   1   2
BRANCH   1   7
ATOM      7  C   UNL     1     -98.874 -44.765 -12.342  1.00  0.00     0.000 C 
BRANCH   7   8
ATOM      8  C   UNL     1     -99.920 -45.892 -12.358  1.00  0.00    -0.000 C 
BRANCH   8   9
ATOM      9  C   UNL     1     -99.348 -47.239 -11.895  1.00  0.00    -0.000 C 
BRANCH   9  10
ATOM     10  C   UNL     1     -99.105 -48.170 -13.089  1.00  0.00    -0.003 C 
ATOM     11  C   UNL     1    -100.413 -48.519 -13.793  1.00  0.00     0.004 C 
ENDBRANCH   9  10
ENDBRANCH   8   9
ENDBRANCH   7   8
ENDBRANCH   1   7
TORSDOF 7
ENDMDL
MODEL 3
REMARK VINA RESULT:    -2.782      2.974      4.571
REMARK INTER + INTRA:          -4.643
REMARK INTER:                  -3.806
REMARK INTRA:                  -0.837
REMARK UNBOUND:                -0.722
REMARK SMILES CCCCCCCCC(=O)[O-]
REMARK SMILES IDX 6 1 7 2 8 3 9 4 10 5 11 6 5 7 4 8 3 9 2 10 1 11
REMARK H PARENT
REMARK Flexibility Score: inf
ROOT
ATOM      1  C   UNL     1     -95.984 -46.554  -9.897  1.00  0.00     0.000 C 
ENDROOT
BRANCH   1   2
ATOM      2  C   UNL     1     -95.624 -45.421  -8.923  1.00  0.00     0.006 C 
BRANCH   2   3
ATOM      3  C   UNL     1     -96.847 -44.907  -8.151  1.00  0.00     0.053 C 
BRANCH   3   4
ATOM      4  C   UNL     1     -97.335 -43.597  -8.690  1.00  0.00     0.041 C 
ATOM      5  O   UNL     1     -96.573 -42.875  -9.387  1.00  0.00    -0.550 OA
ATOM      6  O   UNL     1     -98.642 -43.189  -8.453  1.00  0.00    -0.550 OA
ENDBRANCH   3   4
ENDBRANCH   2   3
ENDBRANCH   1   2
BRANCH   1   7
ATOM      7  C   UNL     1     -95.580 -46.191 -11.333  1.00  0.00     0.000 C 
BRANCH   7   8
ATOM      8  C   UNL     1     -96.610 -45.283 -12.026  1.00  0.00    -0.000 C 
BRANCH   8   9
ATOM      9  C   UNL     1     -98.011 -45.908 -12.079  1.00  0.00    -0.000 C 
BRANCH   9  10
ATOM     10  C   UNL     1     -99.090 -44.861 -11.779  1.00  0.00    -0.003 C 
ATOM     11  C   UNL     1     -98.622 -43.460 -12.163  1.00  0.00     0.004 C 
ENDBRANCH   9  10
ENDBRANCH   8   9
ENDBRANCH   7   8
ENDBRANCH   1   7
TORSDOF 7
ENDMDL
MODEL 4
REMARK VINA RESULT:    -2.778      1.142      2.940
REMARK INTER + INTRA:          -4.637
REMARK INTER:                  -3.939
REMARK INTRA:                  -0.699
REMARK UNBOUND:                -0.722
REMARK SMILES CCCCCCCCC(=O)[O-]
REMARK SMILES IDX 6 1 7 2 8 3 9 4 10 5 11 6 5 7 4 8 3 9 2 10 1 11
REMARK H PARENT
REMARK Flexibility Score: inf
ROOT
ATOM      1  C   UNL     1     -95.879 -44.837  -8.989  1.00  0.00     0.000 C 
ENDROOT
BRANCH   1   2
ATOM      2  C   UNL     1     -95.614 -46.267  -9.489  1.00  0.00     0.006 C 
BRANCH   2   3
ATOM      3  C   UNL     1     -94.360 -46.351 -10.370  1.00  0.00     0.053 C 
BRANCH   3   4
ATOM      4  C   UNL     1     -94.703 -46.638 -11.799  1.00  0.00     0.041 C 
ATOM      5  O   UNL     1     -95.525 -47.550 -12.083  1.00  0.00    -0.550 OA
ATOM      6  O   UNL     1     -94.142 -45.878 -12.818  1.00  0.00    -0.550 OA
ENDBRANCH   3   4
ENDBRANCH   2   3
ENDBRANCH   1   2
BRANCH   1   7
ATOM      7  C   UNL     1     -97.257 -44.342  -9.451  1.00  0.00     0.000 C 
BRANCH   7   8
ATOM      8  C   UNL     1     -97.163 -43.244 -10.523  1.00  0.00    -0.000 C 
BRANCH   8   9
ATOM      9  C   UNL     1     -97.219 -43.803 -11.951  1.00  0.00    -0.000 C 
BRANCH   9  10
ATOM     10  C   UNL     1     -98.094 -45.061 -12.013  1.00  0.00    -0.003 C 
ATOM     11  C   UNL     1     -99.526 -44.718 -12.413  1.00  0.00     0.004 C 
ENDBRANCH   9  10
ENDBRANCH   8   9
ENDBRANCH   7   8
ENDBRANCH   1   7
TORSDOF 7
ENDMDL
MODEL 5
REMARK VINA RESULT:    -2.772      0.889      2.536
REMARK INTER + INTRA:          -4.629
REMARK INTER:                  -3.977
REMARK INTRA:                  -0.652
REMARK UNBOUND:                -0.722
REMARK SMILES CCCCCCCCC(=O)[O-]
REMARK SMILES IDX 6 1 7 2 8 3 9 4 10 5 11 6 5 7 4 8 3 9 2 10 1 11
REMARK H PARENT
REMARK Flexibility Score: inf
ROOT
ATOM      1  C   UNL     1     -95.516 -45.152  -9.366  1.00  0.00     0.000 C 
ENDROOT
BRANCH   1   2
ATOM      2  C   UNL     1     -95.983 -46.306 -10.269  1.00  0.00     0.006 C 
BRANCH   2   3
ATOM      3  C   UNL     1     -95.727 -46.021 -11.755  1.00  0.00     0.053 C 
BRANCH   3   4
ATOM      4  C   UNL     1     -94.509 -46.732 -12.257  1.00  0.00     0.041 C 
ATOM      5  O   UNL     1     -93.521 -46.075 -12.682  1.00  0.00    -0.550 OA
ATOM      6  O   UNL     1     -94.449 -48.120 -12.224  1.00  0.00    -0.550 OA
ENDBRANCH   3   4
ENDBRANCH   2   3
ENDBRANCH   1   2
BRANCH   1   7
ATOM      7  C   UNL     1     -96.710 -44.314  -8.888  1.00  0.00     0.000 C 
BRANCH   7   8
ATOM      8  C   UNL     1     -96.946 -43.069  -9.760  1.00  0.00    -0.000 C 
BRANCH   8   9
ATOM      9  C   UNL     1     -98.332 -43.061 -10.420  1.00  0.00    -0.000 C 
BRANCH   9  10
ATOM     10  C   UNL     1     -98.229 -43.400 -11.912  1.00  0.00    -0.003 C 
ATOM     11  C   UNL     1     -99.114 -44.590 -12.270  1.00  0.00     0.004 C 
ENDBRANCH   9  10
ENDBRANCH   8   9
ENDBRANCH   7   8
ENDBRANCH   1   7
TORSDOF 7
ENDMDL
MODEL 6
REMARK VINA RESULT:    -2.761      1.706      3.422
REMARK INTER + INTRA:          -4.613
REMARK INTER:                  -3.952
REMARK INTRA:                  -0.660
REMARK UNBOUND:                -0.722
REMARK SMILES CCCCCCCCC(=O)[O-]
REMARK SMILES IDX 6 1 7 2 8 3 9 4 10 5 11 6 5 7 4 8 3 9 2 10 1 11
REMARK H PARENT
REMARK Flexibility Score: inf
ROOT
ATOM      1  C   UNL     1     -97.287 -43.933  -8.686  1.00  0.00     0.000 C 
ENDROOT
BRANCH   1   2
ATOM      2  C   UNL     1     -95.837 -44.368  -8.955  1.00  0.00     0.006 C 
BRANCH   2   3
ATOM      3  C   UNL     1     -95.570 -45.810  -8.504  1.00  0.00     0.053 C 
BRANCH   3   4
ATOM      4  C   UNL     1     -94.282 -46.337  -9.059  1.00  0.00     0.041 C 
ATOM      5  O   UNL     1     -94.170 -46.566 -10.293  1.00  0.00    -0.550 OA
ATOM      6  O   UNL     1     -93.195 -46.545  -8.220  1.00  0.00    -0.550 OA
ENDBRANCH   3   4
ENDBRANCH   2   3
ENDBRANCH   1   2
BRANCH   1   7
ATOM      7  C   UNL     1     -97.786 -42.982  -9.783  1.00  0.00     0.000 C 
BRANCH   7   8
ATOM      8  C   UNL     1     -97.349 -43.420 -11.190  1.00  0.00    -0.000 C 
BRANCH   8   9
ATOM      9  C   UNL     1     -98.530 -43.854 -12.070  1.00  0.00    -0.000 C 
BRANCH   9  10
ATOM     10  C   UNL     1     -98.659 -45.382 -12.099  1.00  0.00    -0.003 C 
ATOM     11  C   UNL     1     -97.295 -46.054 -11.981  1.00  0.00     0.004 C 
ENDBRANCH   9  10
ENDBRANCH   8   9
ENDBRANCH   7   8
ENDBRANCH   1   7
TORSDOF 7
ENDMDL
MODEL 7
REMARK VINA RESULT:    -2.709      2.603      4.355
REMARK INTER + INTRA:          -4.540
REMARK INTER:                  -3.954
REMARK INTRA:                  -0.586
REMARK UNBOUND:                -0.722
REMARK SMILES CCCCCCCCC(=O)[O-]
REMARK SMILES IDX 6 1 7 2 8 3 9 4 10 5 11 6 5 7 4 8 3 9 2 10 1 11
REMARK H PARENT
REMARK Flexibility Score: inf
ROOT
ATOM      1  C   UNL     1     -98.786 -43.952 -11.985  1.00  0.00     0.000 C 
ENDROOT
BRANCH   1   2
ATOM      2  C   UNL     1     -97.351 -43.638 -11.531  1.00  0.00     0.006 C 
BRANCH   2   3
ATOM      3  C   UNL     1     -97.318 -42.875 -10.199  1.00  0.00     0.053 C 
BRANCH   3   4
ATOM      4  C   UNL     1     -96.981 -43.775  -9.051  1.00  0.00     0.041 C 
ATOM      5  O   UNL     1     -97.811 -43.950  -8.118  1.00  0.00    -0.550 OA
ATOM      6  O   UNL     1     -95.766 -44.448  -9.025  1.00  0.00    -0.550 OA
ENDBRANCH   3   4
ENDBRANCH   2   3
ENDBRANCH   1   2
BRANCH   1   7
ATOM      7  C   UNL     1     -98.936 -45.439 -12.338  1.00  0.00     0.000 C 
BRANCH   7   8
ATOM      8  C   UNL     1     -98.008 -46.341 -11.506  1.00  0.00    -0.000 C 
BRANCH   8   9
ATOM      9  C   UNL     1     -97.453 -47.524 -12.312  1.00  0.00    -0.000 C 
BRANCH   9  10
ATOM     10  C   UNL     1     -95.987 -47.793 -11.951  1.00  0.00    -0.003 C 
ATOM     11  C   UNL     1     -95.156 -46.516 -12.029  1.00  0.00     0.004 C 
ENDBRANCH   9  10
ENDBRANCH   8   9
ENDBRANCH   7   8
ENDBRANCH   1   7
TORSDOF 7
ENDMDL
MODEL 8
REMARK VINA RESULT:    -2.674      2.509      4.082
REMARK INTER + INTRA:          -4.490
REMARK INTER:                  -3.887
REMARK INTRA:                  -0.603
REMARK UNBOUND:                -0.722
REMARK SMILES CCCCCCCCC(=O)[O-]
REMARK SMILES IDX 6 1 7 2 8 3 9 4 10 5 11 6 5 7 4 8 3 9 2 10 1 11
REMARK H PARENT
REMARK Flexibility Score: inf
ROOT
ATOM      1  C   UNL     1     -97.037 -44.243 -12.034  1.00  0.00     0.000 C 
ENDROOT
BRANCH   1   2
ATOM      2  C   UNL     1     -96.183 -45.508 -11.850  1.00  0.00     0.006 C 
BRANCH   2   3
ATOM      3  C   UNL     1     -96.362 -46.132 -10.459  1.00  0.00     0.053 C 
BRANCH   3   4
ATOM      4  C   UNL     1     -95.464 -45.496  -9.444  1.00  0.00     0.041 C 
ATOM      5  O   UNL     1     -94.271 -45.884  -9.321  1.00  0.00    -0.550 OA
ATOM      6  O   UNL     1     -95.931 -44.451  -8.656  1.00  0.00    -0.550 OA
ENDBRANCH   3   4
ENDBRANCH   2   3
ENDBRANCH   1   2
BRANCH   1   7
ATOM      7  C   UNL     1     -98.451 -44.450 -11.473  1.00  0.00     0.000 C 
BRANCH   7   8
ATOM      8  C   UNL     1     -99.395 -45.129 -12.479  1.00  0.00    -0.000 C 
BRANCH   8   9
ATOM      9  C   UNL     1     -99.825 -46.533 -12.033  1.00  0.00    -0.000 C 
BRANCH   9  10
ATOM     10  C   UNL     1     -99.071 -47.613 -12.818  1.00  0.00    -0.003 C 
ATOM     11  C   UNL     1    -100.029 -48.470 -13.640  1.00  0.00     0.004 C 
ENDBRANCH   9  10
ENDBRANCH   8   9
ENDBRANCH   7   8
ENDBRANCH   1   7
TORSDOF 7
ENDMDL
