MODEL 1
REMARK VINA RESULT:    34.478      0.000      0.000
REMARK INTER + INTRA:          37.058
REMARK INTER:                  37.502
REMARK INTRA:                  -0.443
REMARK UNBOUND:                -0.443
REMARK SMILES C=C(C)[C@H]1CC[C@]2(C)CC[C@]3(C)[C@H](CC[C@H]4[C@@]5(C)CC[C@@H](O)C(C)(C)[C@H]5CC[C@]43C)[C@H]12
REMARK SMILES IDX 4 1 5 2 6 3 7 4 31 5 13 6 14 7 15 8 16 9 17 10 19 11 20 12
REMARK SMILES IDX 21 13 23 14 26 15 27 16 28 17 29 18 11 19 10 20 9 21 12 22
REMARK SMILES IDX 30 23 24 24 25 25 18 26 8 27 2 28 3 29 1 30 22 31
REMARK H PARENT 22 32
REMARK Flexibility Score: inf
ROOT
ATOM      1  C   UNL     1       9.323 -32.274  12.636  1.00  0.00     0.018 C 
ATOM      2  C   UNL     1       9.166 -33.604  11.876  1.00  0.00     0.009 C 
ATOM      3  C   UNL     1       9.394 -34.723  12.884  1.00  0.00     0.008 C 
ATOM      4  C   UNL     1       9.101 -34.131  14.273  1.00  0.00    -0.029 C 
ATOM      5  C   UNL     1       9.528 -32.653  14.121  1.00  0.00     0.006 C 
ATOM      6  C   UNL     1       8.907 -31.744  15.217  1.00  0.00    -0.000 C 
ATOM      7  C   UNL     1       9.445 -30.325  15.263  1.00  0.00     0.005 C 
ATOM      8  C   UNL     1       9.354 -29.796  16.705  1.00  0.00     0.005 C 
ATOM      9  C   UNL     1       8.254 -30.463  17.631  1.00  0.00     0.002 C 
ATOM     10  C   UNL     1       7.985 -29.633  18.995  1.00  0.00    -0.026 C 
ATOM     11  C   UNL     1       9.315 -28.926  19.470  1.00  0.00     0.010 C 
ATOM     12  C   UNL     1       9.142 -27.901  20.590  1.00  0.00     0.033 C 
ATOM     13  C   UNL     1       8.148 -26.797  20.207  1.00  0.00     0.120 C 
ATOM     14  C   UNL     1       6.735 -27.358  19.850  1.00  0.00    -0.006 C 
ATOM     15  C   UNL     1       6.779 -28.595  18.826  1.00  0.00     0.003 C 
ATOM     16  C   UNL     1       6.560 -28.219  17.332  1.00  0.00     0.005 C 
ATOM     17  C   UNL     1       6.366 -29.408  16.345  1.00  0.00     0.008 C 
ATOM     18  C   UNL     1       6.974 -30.810  16.762  1.00  0.00    -0.024 C 
ATOM     19  C   UNL     1       7.360 -31.788  15.479  1.00  0.00    -0.024 C 
ATOM     20  C   UNL     1       7.073 -33.322  15.723  1.00  0.00     0.008 C 
ATOM     21  C   UNL     1       7.586 -34.274  14.612  1.00  0.00     0.007 C 
ATOM     22  C   UNL     1       6.513 -31.362  14.236  1.00  0.00     0.012 C 
ATOM     23  C   UNL     1       5.876 -31.547  17.590  1.00  0.00     0.012 C 
ATOM     24  C   UNL     1       5.876 -26.179  19.319  1.00  0.00     0.014 C 
ATOM     25  C   UNL     1       6.037 -27.794  21.175  1.00  0.00     0.014 C 
ATOM     26  C   UNL     1       7.638 -30.670  20.124  1.00  0.00     0.012 C 
ATOM     27  C   UNL     1       9.937 -34.877  15.344  1.00  0.00     0.011 C 
ENDROOT
BRANCH   1  28
ATOM     28  C   UNL     1      10.451 -31.427  12.049  1.00  0.00    -0.077 C 
ATOM     29  C   UNL     1      10.325 -29.922  11.893  1.00  0.00     0.039 C 
ATOM     30  C   UNL     1      11.668 -31.983  11.876  1.00  0.00     0.008 C 
ENDBRANCH   1  28
BRANCH  13  31
ATOM     31  O   UNL     1       8.670 -25.950  19.208  1.00  0.00    -0.393 OA
ATOM     32  H   UNL     1       9.618 -25.744  19.422  1.00  0.00     0.210 HD
ENDBRANCH  13  31
TORSDOF 2
ENDMDL
MODEL 2
REMARK VINA RESULT:    34.706      3.424      5.830
REMARK INTER + INTRA:          37.306
REMARK INTER:                  37.170
REMARK INTRA:                   0.136
REMARK UNBOUND:                -0.443
REMARK SMILES C=C(C)[C@H]1CC[C@]2(C)CC[C@]3(C)[C@H](CC[C@H]4[C@@]5(C)CC[C@@H](O)C(C)(C)[C@H]5CC[C@]43C)[C@H]12
REMARK SMILES IDX 4 1 5 2 6 3 7 4 31 5 13 6 14 7 15 8 16 9 17 10 19 11 20 12
REMARK SMILES IDX 21 13 23 14 26 15 27 16 28 17 29 18 11 19 10 20 9 21 12 22
REMARK SMILES IDX 30 23 24 24 25 25 18 26 8 27 2 28 3 29 1 30 22 31
REMARK H PARENT 22 32
REMARK Flexibility Score: inf
ROOT
ATOM      1  C   UNL     1       7.238 -33.129  13.340  1.00  0.00     0.018 C 
ATOM      2  C   UNL     1       5.875 -33.583  13.895  1.00  0.00     0.009 C 
ATOM      3  C   UNL     1       5.998 -33.610  15.414  1.00  0.00     0.008 C 
ATOM      4  C   UNL     1       7.147 -32.655  15.779  1.00  0.00    -0.029 C 
ATOM      5  C   UNL     1       8.106 -32.783  14.572  1.00  0.00     0.006 C 
ATOM      6  C   UNL     1       9.097 -31.590  14.477  1.00  0.00    -0.000 C 
ATOM      7  C   UNL     1      10.204 -31.747  13.450  1.00  0.00     0.005 C 
ATOM      8  C   UNL     1      11.442 -30.964  13.916  1.00  0.00     0.005 C 
ATOM      9  C   UNL     1      11.178 -29.750  14.900  1.00  0.00     0.002 C 
ATOM     10  C   UNL     1      12.460 -28.776  15.067  1.00  0.00    -0.026 C 
ATOM     11  C   UNL     1      13.795 -29.612  14.937  1.00  0.00     0.010 C 
ATOM     12  C   UNL     1      15.072 -28.782  14.811  1.00  0.00     0.033 C 
ATOM     13  C   UNL     1      15.014 -27.823  13.614  1.00  0.00     0.120 C 
ATOM     14  C   UNL     1      13.807 -26.835  13.694  1.00  0.00    -0.006 C 
ATOM     15  C   UNL     1      12.413 -27.556  14.033  1.00  0.00     0.003 C 
ATOM     16  C   UNL     1      11.530 -27.895  12.797  1.00  0.00     0.005 C 
ATOM     17  C   UNL     1      10.081 -28.378  13.099  1.00  0.00     0.008 C 
ATOM     18  C   UNL     1       9.812 -29.044  14.510  1.00  0.00    -0.024 C 
ATOM     19  C   UNL     1       8.549 -30.119  14.522  1.00  0.00    -0.024 C 
ATOM     20  C   UNL     1       7.684 -30.090  15.842  1.00  0.00     0.008 C 
ATOM     21  C   UNL     1       6.608 -31.202  15.951  1.00  0.00     0.007 C 
ATOM     22  C   UNL     1       7.582 -29.787  13.340  1.00  0.00     0.012 C 
ATOM     23  C   UNL     1       9.442 -27.886  15.488  1.00  0.00     0.012 C 
ATOM     24  C   UNL     1      13.755 -26.041  12.361  1.00  0.00     0.014 C 
ATOM     25  C   UNL     1      14.128 -25.765  14.783  1.00  0.00     0.014 C 
ATOM     26  C   UNL     1      12.454 -28.226  16.538  1.00  0.00     0.012 C 
ATOM     27  C   UNL     1       7.807 -33.116  17.104  1.00  0.00     0.011 C 
ENDROOT
BRANCH   1  28
ATOM     28  C   UNL     1       7.849 -34.191  12.428  1.00  0.00    -0.077 C 
ATOM     29  C   UNL     1       9.351 -34.390  12.326  1.00  0.00     0.039 C 
ATOM     30  C   UNL     1       7.047 -35.123  11.875  1.00  0.00     0.008 C 
ENDBRANCH   1  28
BRANCH  13  31
ATOM     31  O   UNL     1      15.075 -28.516  12.388  1.00  0.00    -0.393 OA
ATOM     32  H   UNL     1      15.835 -29.154  12.415  1.00  0.00     0.210 HD
ENDBRANCH  13  31
TORSDOF 2
ENDMDL
MODEL 3
REMARK VINA RESULT:    36.374      2.281      7.658
REMARK INTER + INTRA:          39.121
REMARK INTER:                  39.399
REMARK INTRA:                  -0.278
REMARK UNBOUND:                -0.443
REMARK SMILES C=C(C)[C@H]1CC[C@]2(C)CC[C@]3(C)[C@H](CC[C@H]4[C@@]5(C)CC[C@@H](O)C(C)(C)[C@H]5CC[C@]43C)[C@H]12
REMARK SMILES IDX 4 1 5 2 6 3 7 4 31 5 13 6 14 7 15 8 16 9 17 10 19 11 20 12
REMARK SMILES IDX 21 13 23 14 26 15 27 16 28 17 29 18 11 19 10 20 9 21 12 22
REMARK SMILES IDX 30 23 24 24 25 25 18 26 8 27 2 28 3 29 1 30 22 31
REMARK H PARENT 22 32
REMARK Flexibility Score: inf
ROOT
ATOM      1  C   UNL     1       8.503 -28.416  19.579  1.00  0.00     0.018 C 
ATOM      2  C   UNL     1       7.264 -27.922  20.349  1.00  0.00     0.009 C 
ATOM      3  C   UNL     1       6.225 -27.518  19.310  1.00  0.00     0.008 C 
ATOM      4  C   UNL     1       6.569 -28.283  18.022  1.00  0.00    -0.029 C 
ATOM      5  C   UNL     1       8.110 -28.397  18.083  1.00  0.00     0.006 C 
ATOM      6  C   UNL     1       8.657 -29.516  17.153  1.00  0.00    -0.000 C 
ATOM      7  C   UNL     1      10.166 -29.549  16.997  1.00  0.00     0.005 C 
ATOM      8  C   UNL     1      10.519 -30.118  15.612  1.00  0.00     0.005 C 
ATOM      9  C   UNL     1       9.440 -31.068  14.945  1.00  0.00     0.002 C 
ATOM     10  C   UNL     1      10.016 -31.893  13.677  1.00  0.00    -0.026 C 
ATOM     11  C   UNL     1      11.110 -31.036  12.927  1.00  0.00     0.010 C 
ATOM     12  C   UNL     1      11.920 -31.793  11.875  1.00  0.00     0.033 C 
ATOM     13  C   UNL     1      12.628 -33.017  12.472  1.00  0.00     0.120 C 
ATOM     14  C   UNL     1      11.632 -34.027  13.127  1.00  0.00    -0.006 C 
ATOM     15  C   UNL     1      10.571 -33.330  14.110  1.00  0.00     0.003 C 
ATOM     16  C   UNL     1      10.956 -33.357  15.618  1.00  0.00     0.005 C 
ATOM     17  C   UNL     1       9.852 -32.902  16.618  1.00  0.00     0.008 C 
ATOM     18  C   UNL     1       8.728 -31.929  16.072  1.00  0.00    -0.024 C 
ATOM     19  C   UNL     1       8.049 -30.961  17.235  1.00  0.00    -0.024 C 
ATOM     20  C   UNL     1       6.499 -30.718  17.053  1.00  0.00     0.008 C 
ATOM     21  C   UNL     1       5.876 -29.680  18.021  1.00  0.00     0.007 C 
ATOM     22  C   UNL     1       8.240 -31.630  18.635  1.00  0.00     0.012 C 
ATOM     23  C   UNL     1       7.592 -32.832  15.501  1.00  0.00     0.012 C 
ATOM     24  C   UNL     1      12.467 -35.124  13.838  1.00  0.00     0.014 C 
ATOM     25  C   UNL     1      10.880 -34.777  11.984  1.00  0.00     0.014 C 
ATOM     26  C   UNL     1       8.842 -32.066  12.647  1.00  0.00     0.012 C 
ATOM     27  C   UNL     1       6.089 -27.473  16.790  1.00  0.00     0.011 C 
ENDROOT
BRANCH   1  28
ATOM     28  C   UNL     1       9.735 -27.575  19.908  1.00  0.00    -0.077 C 
ATOM     29  C   UNL     1      10.473 -26.784  18.842  1.00  0.00     0.039 C 
ATOM     30  C   UNL     1      10.044 -27.341  21.200  1.00  0.00     0.008 C 
ENDBRANCH   1  28
BRANCH  13  31
ATOM     31  O   UNL     1      13.676 -32.643  13.336  1.00  0.00    -0.393 OA
ATOM     32  H   UNL     1      14.344 -32.115  12.824  1.00  0.00     0.210 HD
ENDBRANCH  13  31
TORSDOF 2
ENDMDL
