MODEL 1
REMARK VINA RESULT:    23.811      0.000      0.000
REMARK INTER + INTRA:          61.732
REMARK INTER:                  62.787
REMARK INTRA:                  -1.055
REMARK UNBOUND:                -1.055
REMARK SMILES CCCCCCCCCCCCCCCCCCCCCCCCCCCCCC(=O)[O-]
REMARK SMILES IDX 16 1 17 2 18 3 19 4 20 5 21 6 22 7 23 8 24 9 25 10 26 11
REMARK SMILES IDX 27 12 28 13 29 14 30 15 31 16 32 17 15 18 14 19 13 20 12 21
REMARK SMILES IDX 11 22 10 23 9 24 8 25 7 26 6 27 5 28 4 29 3 30 2 31 1 32
REMARK H PARENT
REMARK Flexibility Score: inf
ROOT
ATOM      1  C   UNL     1      14.732  14.179  17.482  1.00  0.00     0.000 C 
ENDROOT
BRANCH   1   2
ATOM      2  C   UNL     1      13.484  13.546  16.845  1.00  0.00     0.000 C 
BRANCH   2   3
ATOM      3  C   UNL     1      13.441  12.019  17.025  1.00  0.00     0.000 C 
BRANCH   3   4
ATOM      4  C   UNL     1      14.841  11.386  16.968  1.00  0.00     0.000 C 
BRANCH   4   5
ATOM      5  C   UNL     1      15.356  11.211  15.528  1.00  0.00     0.000 C 
BRANCH   5   6
ATOM      6  C   UNL     1      16.484  10.173  15.363  1.00  0.00     0.000 C 
BRANCH   6   7
ATOM      7  C   UNL     1      16.093   8.896  14.592  1.00  0.00     0.000 C 
BRANCH   7   8
ATOM      8  C   UNL     1      15.829   9.092  13.086  1.00  0.00     0.000 C 
BRANCH   8   9
ATOM      9  C   UNL     1      16.844   9.991  12.357  1.00  0.00     0.000 C 
BRANCH   9  10
ATOM     10  C   UNL     1      17.294   9.416  11.003  1.00  0.00     0.000 C 
BRANCH  10  11
ATOM     11  C   UNL     1      16.154   9.428   9.961  1.00  0.00     0.000 C 
BRANCH  11  12
ATOM     12  C   UNL     1      15.827  10.826   9.408  1.00  0.00     0.000 C 
BRANCH  12  13
ATOM     13  C   UNL     1      16.746  11.922   9.964  1.00  0.00     0.006 C 
BRANCH  13  14
ATOM     14  C   UNL     1      16.314  13.304   9.469  1.00  0.00     0.053 C 
BRANCH  14  15
ATOM     15  C   UNL     1      17.300  14.349   9.887  1.00  0.00     0.041 C 
ATOM     16  O   UNL     1      17.556  14.525  11.109  1.00  0.00    -0.550 OA
ATOM     17  O   UNL     1      17.924  15.143   8.933  1.00  0.00    -0.550 OA
ENDBRANCH  14  15
ENDBRANCH  13  14
ENDBRANCH  12  13
ENDBRANCH  11  12
ENDBRANCH  10  11
ENDBRANCH   9  10
ENDBRANCH   8   9
ENDBRANCH   7   8
ENDBRANCH   6   7
ENDBRANCH   5   6
ENDBRANCH   4   5
ENDBRANCH   3   4
ENDBRANCH   2   3
ENDBRANCH   1   2
BRANCH   1  18
ATOM     18  C   UNL     1      14.519  15.677  17.733  1.00  0.00     0.000 C 
BRANCH  18  19
ATOM     19  C   UNL     1      13.604  16.297  16.666  1.00  0.00     0.000 C 
BRANCH  19  20
ATOM     20  C   UNL     1      14.194  17.573  16.040  1.00  0.00     0.000 C 
BRANCH  20  21
ATOM     21  C   UNL     1      13.159  18.644  15.642  1.00  0.00     0.000 C 
BRANCH  21  22
ATOM     22  C   UNL     1      13.759  19.986  15.187  1.00  0.00     0.000 C 
BRANCH  22  23
ATOM     23  C   UNL     1      15.288  19.928  15.029  1.00  0.00     0.000 C 
BRANCH  23  24
ATOM     24  C   UNL     1      15.938  21.324  14.966  1.00  0.00    -0.000 C 
BRANCH  24  25
ATOM     25  C   UNL     1      16.141  22.009  16.336  1.00  0.00    -0.000 C 
BRANCH  25  26
ATOM     26  C   UNL     1      14.841  22.418  17.054  1.00  0.00    -0.000 C 
BRANCH  26  27
ATOM     27  C   UNL     1      14.826  22.007  18.535  1.00  0.00    -0.000 C 
BRANCH  27  28
ATOM     28  C   UNL     1      16.236  21.710  19.077  1.00  0.00    -0.000 C 
BRANCH  28  29
ATOM     29  C   UNL     1      16.290  20.619  20.169  1.00  0.00    -0.000 C 
BRANCH  29  30
ATOM     30  C   UNL     1      17.072  19.344  19.790  1.00  0.00    -0.000 C 
BRANCH  30  31
ATOM     31  C   UNL     1      16.650  18.691  18.463  1.00  0.00    -0.003 C 
ATOM     32  C   UNL     1      16.692  17.166  18.507  1.00  0.00     0.004 C 
ENDBRANCH  30  31
ENDBRANCH  29  30
ENDBRANCH  28  29
ENDBRANCH  27  28
ENDBRANCH  26  27
ENDBRANCH  25  26
ENDBRANCH  24  25
ENDBRANCH  23  24
ENDBRANCH  22  23
ENDBRANCH  21  22
ENDBRANCH  20  21
ENDBRANCH  19  20
ENDBRANCH  18  19
ENDBRANCH   1  18
TORSDOF 28
ENDMDL
MODEL 2
REMARK VINA RESULT:    23.853      0.827      2.839
REMARK INTER + INTRA:          61.843
REMARK INTER:                  62.637
REMARK INTRA:                  -0.794
REMARK UNBOUND:                -1.055
REMARK SMILES CCCCCCCCCCCCCCCCCCCCCCCCCCCCCC(=O)[O-]
REMARK SMILES IDX 16 1 17 2 18 3 19 4 20 5 21 6 22 7 23 8 24 9 25 10 26 11
REMARK SMILES IDX 27 12 28 13 29 14 30 15 31 16 32 17 15 18 14 19 13 20 12 21
REMARK SMILES IDX 11 22 10 23 9 24 8 25 7 26 6 27 5 28 4 29 3 30 2 31 1 32
REMARK H PARENT
REMARK Flexibility Score: inf
ROOT
ATOM      1  C   UNL     1      12.615  13.490  16.624  1.00  0.00     0.000 C 
ENDROOT
BRANCH   1   2
ATOM      2  C   UNL     1      12.847  12.232  17.476  1.00  0.00     0.000 C 
BRANCH   2   3
ATOM      3  C   UNL     1      14.312  11.764  17.450  1.00  0.00     0.000 C 
BRANCH   3   4
ATOM      4  C   UNL     1      14.618  10.874  16.233  1.00  0.00     0.000 C 
BRANCH   4   5
ATOM      5  C   UNL     1      16.000  11.161  15.619  1.00  0.00     0.000 C 
BRANCH   5   6
ATOM      6  C   UNL     1      16.683   9.946  14.962  1.00  0.00     0.000 C 
BRANCH   6   7
ATOM      7  C   UNL     1      15.724   8.904  14.352  1.00  0.00     0.000 C 
BRANCH   7   8
ATOM      8  C   UNL     1      15.706   8.848  12.812  1.00  0.00     0.000 C 
BRANCH   8   9
ATOM      9  C   UNL     1      16.959   9.419  12.124  1.00  0.00     0.000 C 
BRANCH   9  10
ATOM     10  C   UNL     1      17.058   9.034  10.638  1.00  0.00     0.000 C 
BRANCH  10  11
ATOM     11  C   UNL     1      16.304  10.028   9.728  1.00  0.00     0.000 C 
BRANCH  11  12
ATOM     12  C   UNL     1      16.726  11.494   9.921  1.00  0.00     0.000 C 
BRANCH  12  13
ATOM     13  C   UNL     1      16.023  12.454   8.951  1.00  0.00     0.006 C 
BRANCH  13  14
ATOM     14  C   UNL     1      15.785  13.818   9.605  1.00  0.00     0.053 C 
BRANCH  14  15
ATOM     15  C   UNL     1      17.080  14.440  10.021  1.00  0.00     0.041 C 
ATOM     16  O   UNL     1      17.847  14.945   9.157  1.00  0.00    -0.550 OA
ATOM     17  O   UNL     1      17.453  14.450  11.359  1.00  0.00    -0.550 OA
ENDBRANCH  14  15
ENDBRANCH  13  14
ENDBRANCH  12  13
ENDBRANCH  11  12
ENDBRANCH  10  11
ENDBRANCH   9  10
ENDBRANCH   8   9
ENDBRANCH   7   8
ENDBRANCH   6   7
ENDBRANCH   5   6
ENDBRANCH   4   5
ENDBRANCH   3   4
ENDBRANCH   2   3
ENDBRANCH   1   2
BRANCH   1  18
ATOM     18  C   UNL     1      13.908  14.303  16.485  1.00  0.00     0.000 C 
BRANCH  18  19
ATOM     19  C   UNL     1      14.298  14.963  17.816  1.00  0.00     0.000 C 
BRANCH  19  20
ATOM     20  C   UNL     1      14.668  16.449  17.661  1.00  0.00     0.000 C 
BRANCH  20  21
ATOM     21  C   UNL     1      16.044  16.842  18.236  1.00  0.00     0.000 C 
BRANCH  21  22
ATOM     22  C   UNL     1      16.292  18.357  18.342  1.00  0.00     0.000 C 
BRANCH  22  23
ATOM     23  C   UNL     1      17.033  18.747  19.633  1.00  0.00     0.000 C 
BRANCH  23  24
ATOM     24  C   UNL     1      16.380  19.935  20.364  1.00  0.00    -0.000 C 
BRANCH  24  25
ATOM     25  C   UNL     1      16.731  21.326  19.789  1.00  0.00    -0.000 C 
BRANCH  25  26
ATOM     26  C   UNL     1      16.717  21.413  18.251  1.00  0.00    -0.000 C 
BRANCH  26  27
ATOM     27  C   UNL     1      15.332  21.773  17.690  1.00  0.00    -0.000 C 
BRANCH  27  28
ATOM     28  C   UNL     1      15.421  22.594  16.390  1.00  0.00    -0.000 C 
BRANCH  28  29
ATOM     29  C   UNL     1      16.398  22.028  15.336  1.00  0.00    -0.000 C 
BRANCH  29  30
ATOM     30  C   UNL     1      15.875  20.817  14.533  1.00  0.00    -0.000 C 
BRANCH  30  31
ATOM     31  C   UNL     1      15.134  19.756  15.364  1.00  0.00    -0.003 C 
ATOM     32  C   UNL     1      13.616  19.905  15.307  1.00  0.00     0.004 C 
ENDBRANCH  30  31
ENDBRANCH  29  30
ENDBRANCH  28  29
ENDBRANCH  27  28
ENDBRANCH  26  27
ENDBRANCH  25  26
ENDBRANCH  24  25
ENDBRANCH  23  24
ENDBRANCH  22  23
ENDBRANCH  21  22
ENDBRANCH  20  21
ENDBRANCH  19  20
ENDBRANCH  18  19
ENDBRANCH   1  18
TORSDOF 28
ENDMDL
MODEL 3
REMARK VINA RESULT:    23.907      0.981      2.961
REMARK INTER + INTRA:          61.986
REMARK INTER:                  63.659
REMARK INTRA:                  -1.674
REMARK UNBOUND:                -1.055
REMARK SMILES CCCCCCCCCCCCCCCCCCCCCCCCCCCCCC(=O)[O-]
REMARK SMILES IDX 16 1 17 2 18 3 19 4 20 5 21 6 22 7 23 8 24 9 25 10 26 11
REMARK SMILES IDX 27 12 28 13 29 14 30 15 31 16 32 17 15 18 14 19 13 20 12 21
REMARK SMILES IDX 11 22 10 23 9 24 8 25 7 26 6 27 5 28 4 29 3 30 2 31 1 32
REMARK H PARENT
REMARK Flexibility Score: inf
ROOT
ATOM      1  C   UNL     1      13.091  12.389  17.517  1.00  0.00     0.000 C 
ENDROOT
BRANCH   1   2
ATOM      2  C   UNL     1      13.989  11.197  17.150  1.00  0.00     0.000 C 
BRANCH   2   3
ATOM      3  C   UNL     1      15.068  11.567  16.118  1.00  0.00     0.000 C 
BRANCH   3   4
ATOM      4  C   UNL     1      16.128  10.465  15.961  1.00  0.00     0.000 C 
BRANCH   4   5
ATOM      5  C   UNL     1      16.479  10.181  14.490  1.00  0.00     0.000 C 
BRANCH   5   6
ATOM      6  C   UNL     1      15.956   8.837  13.945  1.00  0.00     0.000 C 
BRANCH   6   7
ATOM      7  C   UNL     1      15.683   8.805  12.428  1.00  0.00     0.000 C 
BRANCH   7   8
ATOM      8  C   UNL     1      16.913   9.056  11.533  1.00  0.00     0.000 C 
BRANCH   8   9
ATOM      9  C   UNL     1      17.085  10.509  11.054  1.00  0.00     0.000 C 
BRANCH   9  10
ATOM     10  C   UNL     1      16.675  10.711   9.585  1.00  0.00     0.000 C 
BRANCH  10  11
ATOM     11  C   UNL     1      15.401  11.574   9.452  1.00  0.00     0.000 C 
BRANCH  11  12
ATOM     12  C   UNL     1      15.662  12.996   8.928  1.00  0.00     0.000 C 
BRANCH  12  13
ATOM     13  C   UNL     1      15.420  14.080   9.986  1.00  0.00     0.006 C 
BRANCH  13  14
ATOM     14  C   UNL     1      16.733  14.497  10.655  1.00  0.00     0.053 C 
BRANCH  14  15
ATOM     15  C   UNL     1      17.879  14.365   9.703  1.00  0.00     0.041 C 
ATOM     16  O   UNL     1      18.626  13.350   9.748  1.00  0.00    -0.550 OA
ATOM     17  O   UNL     1      18.137  15.366   8.775  1.00  0.00    -0.550 OA
ENDBRANCH  14  15
ENDBRANCH  13  14
ENDBRANCH  12  13
ENDBRANCH  11  12
ENDBRANCH  10  11
ENDBRANCH   9  10
ENDBRANCH   8   9
ENDBRANCH   7   8
ENDBRANCH   6   7
ENDBRANCH   5   6
ENDBRANCH   4   5
ENDBRANCH   3   4
ENDBRANCH   2   3
ENDBRANCH   1   2
BRANCH   1  18
ATOM     18  C   UNL     1      13.170  13.485  16.447  1.00  0.00     0.000 C 
BRANCH  18  19
ATOM     19  C   UNL     1      14.325  14.457  16.730  1.00  0.00     0.000 C 
BRANCH  19  20
ATOM     20  C   UNL     1      13.841  15.840  17.202  1.00  0.00     0.000 C 
BRANCH  20  21
ATOM     21  C   UNL     1      14.752  16.532  18.236  1.00  0.00     0.000 C 
BRANCH  21  22
ATOM     22  C   UNL     1      16.259  16.423  17.948  1.00  0.00     0.000 C 
BRANCH  22  23
ATOM     23  C   UNL     1      17.030  17.695  18.341  1.00  0.00     0.000 C 
BRANCH  23  24
ATOM     24  C   UNL     1      16.152  18.727  19.075  1.00  0.00    -0.000 C 
BRANCH  24  25
ATOM     25  C   UNL     1      16.924  19.715  19.978  1.00  0.00    -0.000 C 
BRANCH  25  26
ATOM     26  C   UNL     1      17.097  21.128  19.391  1.00  0.00    -0.000 C 
BRANCH  26  27
ATOM     27  C   UNL     1      15.791  21.697  18.815  1.00  0.00    -0.000 C 
BRANCH  27  28
ATOM     28  C   UNL     1      15.900  22.017  17.313  1.00  0.00    -0.000 C 
BRANCH  28  29
ATOM     29  C   UNL     1      14.622  21.724  16.497  1.00  0.00    -0.000 C 
BRANCH  29  30
ATOM     30  C   UNL     1      14.772  20.650  15.399  1.00  0.00    -0.000 C 
BRANCH  30  31
ATOM     31  C   UNL     1      14.525  19.205  15.863  1.00  0.00    -0.003 C 
ATOM     32  C   UNL     1      13.193  18.640  15.378  1.00  0.00     0.004 C 
ENDBRANCH  30  31
ENDBRANCH  29  30
ENDBRANCH  28  29
ENDBRANCH  27  28
ENDBRANCH  26  27
ENDBRANCH  25  26
ENDBRANCH  24  25
ENDBRANCH  23  24
ENDBRANCH  22  23
ENDBRANCH  21  22
ENDBRANCH  20  21
ENDBRANCH  19  20
ENDBRANCH  18  19
ENDBRANCH   1  18
TORSDOF 28
ENDMDL
MODEL 4
REMARK VINA RESULT:    23.931      0.882      2.966
REMARK INTER + INTRA:          62.048
REMARK INTER:                  62.790
REMARK INTRA:                  -0.742
REMARK UNBOUND:                -1.055
REMARK SMILES CCCCCCCCCCCCCCCCCCCCCCCCCCCCCC(=O)[O-]
REMARK SMILES IDX 16 1 17 2 18 3 19 4 20 5 21 6 22 7 23 8 24 9 25 10 26 11
REMARK SMILES IDX 27 12 28 13 29 14 30 15 31 16 32 17 15 18 14 19 13 20 12 21
REMARK SMILES IDX 11 22 10 23 9 24 8 25 7 26 6 27 5 28 4 29 3 30 2 31 1 32
REMARK H PARENT
REMARK Flexibility Score: inf
ROOT
ATOM      1  C   UNL     1      13.717  15.276  16.975  1.00  0.00     0.000 C 
ENDROOT
BRANCH   1   2
ATOM      2  C   UNL     1      13.945  13.818  16.543  1.00  0.00     0.000 C 
BRANCH   2   3
ATOM      3  C   UNL     1      13.473  12.809  17.605  1.00  0.00     0.000 C 
BRANCH   3   4
ATOM      4  C   UNL     1      13.899  11.370  17.271  1.00  0.00     0.000 C 
BRANCH   4   5
ATOM      5  C   UNL     1      14.743  11.282  15.987  1.00  0.00     0.000 C 
BRANCH   5   6
ATOM      6  C   UNL     1      16.116  10.602  16.157  1.00  0.00     0.000 C 
BRANCH   6   7
ATOM      7  C   UNL     1      16.685   9.946  14.883  1.00  0.00     0.000 C 
BRANCH   7   8
ATOM      8  C   UNL     1      15.693   9.065  14.097  1.00  0.00     0.000 C 
BRANCH   8   9
ATOM      9  C   UNL     1      15.871   9.086  12.568  1.00  0.00     0.000 C 
BRANCH   9  10
ATOM     10  C   UNL     1      17.173   9.775  12.123  1.00  0.00     0.000 C 
BRANCH  10  11
ATOM     11  C   UNL     1      17.342   9.762  10.589  1.00  0.00     0.000 C 
BRANCH  11  12
ATOM     12  C   UNL     1      16.050  10.075   9.816  1.00  0.00     0.000 C 
BRANCH  12  13
ATOM     13  C   UNL     1      15.879  11.569   9.512  1.00  0.00     0.006 C 
BRANCH  13  14
ATOM     14  C   UNL     1      17.088  12.371  10.002  1.00  0.00     0.053 C 
BRANCH  14  15
ATOM     15  C   UNL     1      16.864  13.838   9.813  1.00  0.00     0.041 C 
ATOM     16  O   UNL     1      15.697  14.313   9.869  1.00  0.00    -0.550 OA
ATOM     17  O   UNL     1      17.937  14.682   9.558  1.00  0.00    -0.550 OA
ENDBRANCH  14  15
ENDBRANCH  13  14
ENDBRANCH  12  13
ENDBRANCH  11  12
ENDBRANCH  10  11
ENDBRANCH   9  10
ENDBRANCH   8   9
ENDBRANCH   7   8
ENDBRANCH   6   7
ENDBRANCH   5   6
ENDBRANCH   4   5
ENDBRANCH   3   4
ENDBRANCH   2   3
ENDBRANCH   1   2
BRANCH   1  18
ATOM     18  C   UNL     1      14.851  15.763  17.883  1.00  0.00     0.000 C 
BRANCH  18  19
ATOM     19  C   UNL     1      15.155  17.250  17.647  1.00  0.00     0.000 C 
BRANCH  19  20
ATOM     20  C   UNL     1      15.477  18.009  18.946  1.00  0.00     0.000 C 
BRANCH  20  21
ATOM     21  C   UNL     1      16.914  18.560  19.042  1.00  0.00     0.000 C 
BRANCH  21  22
ATOM     22  C   UNL     1      17.152  19.551  20.195  1.00  0.00     0.000 C 
BRANCH  22  23
ATOM     23  C   UNL     1      16.334  20.845  20.041  1.00  0.00     0.000 C 
BRANCH  23  24
ATOM     24  C   UNL     1      16.513  21.508  18.661  1.00  0.00    -0.000 C 
BRANCH  24  25
ATOM     25  C   UNL     1      15.197  21.827  17.917  1.00  0.00    -0.000 C 
BRANCH  25  26
ATOM     26  C   UNL     1      15.373  22.583  16.586  1.00  0.00    -0.000 C 
BRANCH  26  27
ATOM     27  C   UNL     1      16.729  22.304  15.919  1.00  0.00    -0.000 C 
BRANCH  27  28
ATOM     28  C   UNL     1      16.578  21.720  14.502  1.00  0.00    -0.000 C 
BRANCH  28  29
ATOM     29  C   UNL     1      15.817  20.378  14.436  1.00  0.00    -0.000 C 
BRANCH  29  30
ATOM     30  C   UNL     1      14.332  20.439  14.850  1.00  0.00    -0.000 C 
BRANCH  30  31
ATOM     31  C   UNL     1      13.915  19.429  15.932  1.00  0.00    -0.003 C 
ATOM     32  C   UNL     1      13.182  18.216  15.367  1.00  0.00     0.004 C 
ENDBRANCH  30  31
ENDBRANCH  29  30
ENDBRANCH  28  29
ENDBRANCH  27  28
ENDBRANCH  26  27
ENDBRANCH  25  26
ENDBRANCH  24  25
ENDBRANCH  23  24
ENDBRANCH  22  23
ENDBRANCH  21  22
ENDBRANCH  20  21
ENDBRANCH  19  20
ENDBRANCH  18  19
ENDBRANCH   1  18
TORSDOF 28
ENDMDL
MODEL 5
REMARK VINA RESULT:    24.518      0.845      1.381
REMARK INTER + INTRA:          63.596
REMARK INTER:                  65.303
REMARK INTRA:                  -1.707
REMARK UNBOUND:                -1.055
REMARK SMILES CCCCCCCCCCCCCCCCCCCCCCCCCCCCCC(=O)[O-]
REMARK SMILES IDX 16 1 17 2 18 3 19 4 20 5 21 6 22 7 23 8 24 9 25 10 26 11
REMARK SMILES IDX 27 12 28 13 29 14 30 15 31 16 32 17 15 18 14 19 13 20 12 21
REMARK SMILES IDX 11 22 10 23 9 24 8 25 7 26 6 27 5 28 4 29 3 30 2 31 1 32
REMARK H PARENT
REMARK Flexibility Score: inf
ROOT
ATOM      1  C   UNL     1      14.571  13.953  17.442  1.00  0.00     0.000 C 
ENDROOT
BRANCH   1   2
ATOM      2  C   UNL     1      13.565  12.905  17.945  1.00  0.00     0.000 C 
BRANCH   2   3
ATOM      3  C   UNL     1      13.617  11.600  17.131  1.00  0.00     0.000 C 
BRANCH   3   4
ATOM      4  C   UNL     1      14.666  11.655  16.008  1.00  0.00     0.000 C 
BRANCH   4   5
ATOM      5  C   UNL     1      15.863  10.724  16.267  1.00  0.00     0.000 C 
BRANCH   5   6
ATOM      6  C   UNL     1      16.583  10.223  14.999  1.00  0.00     0.000 C 
BRANCH   6   7
ATOM      7  C   UNL     1      15.992   8.945  14.371  1.00  0.00     0.000 C 
BRANCH   7   8
ATOM      8  C   UNL     1      15.839   8.977  12.837  1.00  0.00     0.000 C 
BRANCH   8   9
ATOM      9  C   UNL     1      16.884   9.827  12.094  1.00  0.00     0.000 C 
BRANCH   9  10
ATOM     10  C   UNL     1      17.053   9.423  10.619  1.00  0.00     0.000 C 
BRANCH  10  11
ATOM     11  C   UNL     1      16.055  10.158   9.698  1.00  0.00     0.000 C 
BRANCH  11  12
ATOM     12  C   UNL     1      16.615  11.446   9.072  1.00  0.00     0.000 C 
BRANCH  12  13
ATOM     13  C   UNL     1      15.757  12.682   9.373  1.00  0.00     0.006 C 
BRANCH  13  14
ATOM     14  C   UNL     1      16.345  13.490  10.532  1.00  0.00     0.053 C 
BRANCH  14  15
ATOM     15  C   UNL     1      17.500  14.320  10.068  1.00  0.00     0.041 C 
ATOM     16  O   UNL     1      18.499  14.492  10.820  1.00  0.00    -0.550 OA
ATOM     17  O   UNL     1      17.473  14.920   8.816  1.00  0.00    -0.550 OA
ENDBRANCH  14  15
ENDBRANCH  13  14
ENDBRANCH  12  13
ENDBRANCH  11  12
ENDBRANCH  10  11
ENDBRANCH   9  10
ENDBRANCH   8   9
ENDBRANCH   7   8
ENDBRANCH   6   7
ENDBRANCH   5   6
ENDBRANCH   4   5
ENDBRANCH   3   4
ENDBRANCH   2   3
ENDBRANCH   1   2
BRANCH   1  18
ATOM     18  C   UNL     1      13.902  15.322  17.279  1.00  0.00     0.000 C 
BRANCH  18  19
ATOM     19  C   UNL     1      14.632  16.400  18.093  1.00  0.00     0.000 C 
BRANCH  19  20
ATOM     20  C   UNL     1      14.761  17.735  17.338  1.00  0.00     0.000 C 
BRANCH  20  21
ATOM     21  C   UNL     1      14.143  17.749  15.926  1.00  0.00     0.000 C 
BRANCH  21  22
ATOM     22  C   UNL     1      13.135  18.884  15.671  1.00  0.00     0.000 C 
BRANCH  22  23
ATOM     23  C   UNL     1      13.820  20.216  15.322  1.00  0.00     0.000 C 
BRANCH  23  24
ATOM     24  C   UNL     1      15.272  20.036  14.837  1.00  0.00    -0.000 C 
BRANCH  24  25
ATOM     25  C   UNL     1      16.034  21.352  14.562  1.00  0.00    -0.000 C 
BRANCH  25  26
ATOM     26  C   UNL     1      16.340  22.197  15.813  1.00  0.00    -0.000 C 
BRANCH  26  27
ATOM     27  C   UNL     1      15.119  22.361  16.732  1.00  0.00    -0.000 C 
BRANCH  27  28
ATOM     28  C   UNL     1      15.371  21.813  18.148  1.00  0.00    -0.000 C 
BRANCH  28  29
ATOM     29  C   UNL     1      16.828  21.379  18.421  1.00  0.00    -0.000 C 
BRANCH  29  30
ATOM     30  C   UNL     1      17.112  20.884  19.855  1.00  0.00    -0.000 C 
BRANCH  30  31
ATOM     31  C   UNL     1      16.591  19.472  20.172  1.00  0.00    -0.003 C 
ATOM     32  C   UNL     1      15.441  19.470  21.174  1.00  0.00     0.004 C 
ENDBRANCH  30  31
ENDBRANCH  29  30
ENDBRANCH  28  29
ENDBRANCH  27  28
ENDBRANCH  26  27
ENDBRANCH  25  26
ENDBRANCH  24  25
ENDBRANCH  23  24
ENDBRANCH  22  23
ENDBRANCH  21  22
ENDBRANCH  20  21
ENDBRANCH  19  20
ENDBRANCH  18  19
ENDBRANCH   1  18
TORSDOF 28
ENDMDL
MODEL 6
REMARK VINA RESULT:    24.542      2.729     10.567
REMARK INTER + INTRA:          63.658
REMARK INTER:                  65.170
REMARK INTRA:                  -1.512
REMARK UNBOUND:                -1.055
REMARK SMILES CCCCCCCCCCCCCCCCCCCCCCCCCCCCCC(=O)[O-]
REMARK SMILES IDX 16 1 17 2 18 3 19 4 20 5 21 6 22 7 23 8 24 9 25 10 26 11
REMARK SMILES IDX 27 12 28 13 29 14 30 15 31 16 32 17 15 18 14 19 13 20 12 21
REMARK SMILES IDX 11 22 10 23 9 24 8 25 7 26 6 27 5 28 4 29 3 30 2 31 1 32
REMARK H PARENT
REMARK Flexibility Score: inf
ROOT
ATOM      1  C   UNL     1      14.172  13.520  18.264  1.00  0.00     0.000 C 
ENDROOT
BRANCH   1   2
ATOM      2  C   UNL     1      14.206  14.654  17.226  1.00  0.00     0.000 C 
BRANCH   2   3
ATOM      3  C   UNL     1      15.061  15.848  17.686  1.00  0.00     0.000 C 
BRANCH   3   4
ATOM      4  C   UNL     1      14.475  17.195  17.229  1.00  0.00     0.000 C 
BRANCH   4   5
ATOM      5  C   UNL     1      13.540  17.055  16.015  1.00  0.00     0.000 C 
BRANCH   5   6
ATOM      6  C   UNL     1      12.898  18.372  15.534  1.00  0.00     0.000 C 
BRANCH   6   7
ATOM      7  C   UNL     1      13.736  19.640  15.789  1.00  0.00     0.000 C 
BRANCH   7   8
ATOM      8  C   UNL     1      14.535  20.156  14.575  1.00  0.00     0.000 C 
BRANCH   8   9
ATOM      9  C   UNL     1      16.015  20.473  14.856  1.00  0.00     0.000 C 
BRANCH   9  10
ATOM     10  C   UNL     1      16.360  21.959  14.657  1.00  0.00     0.000 C 
BRANCH  10  11
ATOM     11  C   UNL     1      16.698  22.660  15.991  1.00  0.00     0.000 C 
BRANCH  11  12
ATOM     12  C   UNL     1      16.015  22.032  17.217  1.00  0.00     0.000 C 
BRANCH  12  13
ATOM     13  C   UNL     1      17.013  21.490  18.249  1.00  0.00     0.006 C 
BRANCH  13  14
ATOM     14  C   UNL     1      16.296  21.050  19.528  1.00  0.00     0.053 C 
BRANCH  14  15
ATOM     15  C   UNL     1      16.726  19.676  19.932  1.00  0.00     0.041 C 
ATOM     16  O   UNL     1      16.746  18.744  19.082  1.00  0.00    -0.550 OA
ATOM     17  O   UNL     1      17.088  19.414  21.247  1.00  0.00    -0.550 OA
ENDBRANCH  14  15
ENDBRANCH  13  14
ENDBRANCH  12  13
ENDBRANCH  11  12
ENDBRANCH  10  11
ENDBRANCH   9  10
ENDBRANCH   8   9
ENDBRANCH   7   8
ENDBRANCH   6   7
ENDBRANCH   5   6
ENDBRANCH   4   5
ENDBRANCH   3   4
ENDBRANCH   2   3
ENDBRANCH   1   2
BRANCH   1  18
ATOM     18  C   UNL     1      13.047  12.526  17.954  1.00  0.00     0.000 C 
BRANCH  18  19
ATOM     19  C   UNL     1      13.500  11.474  16.930  1.00  0.00     0.000 C 
BRANCH  19  20
ATOM     20  C   UNL     1      14.872  11.795  16.309  1.00  0.00     0.000 C 
BRANCH  20  21
ATOM     21  C   UNL     1      15.882  10.631  16.322  1.00  0.00     0.000 C 
BRANCH  21  22
ATOM     22  C   UNL     1      16.430  10.234  14.940  1.00  0.00     0.000 C 
BRANCH  22  23
ATOM     23  C   UNL     1      16.015   8.811  14.526  1.00  0.00     0.000 C 
BRANCH  23  24
ATOM     24  C   UNL     1      15.664   8.701  13.029  1.00  0.00    -0.000 C 
BRANCH  24  25
ATOM     25  C   UNL     1      16.616   9.464  12.080  1.00  0.00    -0.000 C 
BRANCH  25  26
ATOM     26  C   UNL     1      16.219   9.419  10.592  1.00  0.00    -0.000 C 
BRANCH  26  27
ATOM     27  C   UNL     1      17.118  10.300   9.710  1.00  0.00    -0.000 C 
BRANCH  27  28
ATOM     28  C   UNL     1      16.560  11.724   9.539  1.00  0.00    -0.000 C 
BRANCH  28  29
ATOM     29  C   UNL     1      17.444  12.839  10.139  1.00  0.00    -0.000 C 
BRANCH  29  30
ATOM     30  C   UNL     1      17.010  14.281   9.798  1.00  0.00    -0.000 C 
BRANCH  30  31
ATOM     31  C   UNL     1      15.541  14.611  10.111  1.00  0.00    -0.003 C 
ATOM     32  C   UNL     1      15.305  14.958  11.578  1.00  0.00     0.004 C 
ENDBRANCH  30  31
ENDBRANCH  29  30
ENDBRANCH  28  29
ENDBRANCH  27  28
ENDBRANCH  26  27
ENDBRANCH  25  26
ENDBRANCH  24  25
ENDBRANCH  23  24
ENDBRANCH  22  23
ENDBRANCH  21  22
ENDBRANCH  20  21
ENDBRANCH  19  20
ENDBRANCH  18  19
ENDBRANCH   1  18
TORSDOF 28
ENDMDL
MODEL 7
REMARK VINA RESULT:    24.657      2.275     10.377
REMARK INTER + INTRA:          63.962
REMARK INTER:                  64.417
REMARK INTRA:                  -0.455
REMARK UNBOUND:                -1.055
REMARK SMILES CCCCCCCCCCCCCCCCCCCCCCCCCCCCCC(=O)[O-]
REMARK SMILES IDX 16 1 17 2 18 3 19 4 20 5 21 6 22 7 23 8 24 9 25 10 26 11
REMARK SMILES IDX 27 12 28 13 29 14 30 15 31 16 32 17 15 18 14 19 13 20 12 21
REMARK SMILES IDX 11 22 10 23 9 24 8 25 7 26 6 27 5 28 4 29 3 30 2 31 1 32
REMARK H PARENT
REMARK Flexibility Score: inf
ROOT
ATOM      1  C   UNL     1      14.259  13.284  18.344  1.00  0.00     0.000 C 
ENDROOT
BRANCH   1   2
ATOM      2  C   UNL     1      14.752  14.091  17.132  1.00  0.00     0.000 C 
BRANCH   2   3
ATOM      3  C   UNL     1      13.674  15.039  16.578  1.00  0.00     0.000 C 
BRANCH   3   4
ATOM      4  C   UNL     1      14.017  16.518  16.821  1.00  0.00     0.000 C 
BRANCH   4   5
ATOM      5  C   UNL     1      14.951  16.722  18.027  1.00  0.00     0.000 C 
BRANCH   5   6
ATOM      6  C   UNL     1      15.404  18.177  18.259  1.00  0.00     0.000 C 
BRANCH   6   7
ATOM      7  C   UNL     1      16.709  18.337  19.064  1.00  0.00     0.000 C 
BRANCH   7   8
ATOM      8  C   UNL     1      16.717  19.496  20.081  1.00  0.00     0.000 C 
BRANCH   8   9
ATOM      9  C   UNL     1      16.585  20.902  19.468  1.00  0.00     0.000 C 
BRANCH   9  10
ATOM     10  C   UNL     1      17.879  21.389  18.793  1.00  0.00     0.000 C 
BRANCH  10  11
ATOM     11  C   UNL     1      17.593  22.288  17.571  1.00  0.00     0.000 C 
BRANCH  11  12
ATOM     12  C   UNL     1      16.405  21.819  16.714  1.00  0.00     0.000 C 
BRANCH  12  13
ATOM     13  C   UNL     1      16.690  21.879  15.208  1.00  0.00     0.006 C 
BRANCH  13  14
ATOM     14  C   UNL     1      15.591  21.169  14.413  1.00  0.00     0.053 C 
BRANCH  14  15
ATOM     15  C   UNL     1      14.512  20.674  15.323  1.00  0.00     0.041 C 
ATOM     16  O   UNL     1      13.913  21.477  16.090  1.00  0.00    -0.550 OA
ATOM     17  O   UNL     1      14.175  19.327  15.341  1.00  0.00    -0.550 OA
ENDBRANCH  14  15
ENDBRANCH  13  14
ENDBRANCH  12  13
ENDBRANCH  11  12
ENDBRANCH  10  11
ENDBRANCH   9  10
ENDBRANCH   8   9
ENDBRANCH   7   8
ENDBRANCH   6   7
ENDBRANCH   5   6
ENDBRANCH   4   5
ENDBRANCH   3   4
ENDBRANCH   2   3
ENDBRANCH   1   2
BRANCH   1  18
ATOM     18  C   UNL     1      13.076  12.387  17.962  1.00  0.00     0.000 C 
BRANCH  18  19
ATOM     19  C   UNL     1      13.459  11.407  16.842  1.00  0.00     0.000 C 
BRANCH  19  20
ATOM     20  C   UNL     1      14.979  11.200  16.723  1.00  0.00     0.000 C 
BRANCH  20  21
ATOM     21  C   UNL     1      15.497  10.970  15.289  1.00  0.00     0.000 C 
BRANCH  21  22
ATOM     22  C   UNL     1      16.482   9.798  15.136  1.00  0.00     0.000 C 
BRANCH  22  23
ATOM     23  C   UNL     1      16.052   8.804  14.043  1.00  0.00     0.000 C 
BRANCH  23  24
ATOM     24  C   UNL     1      15.947   9.453  12.649  1.00  0.00    -0.000 C 
BRANCH  24  25
ATOM     25  C   UNL     1      17.258   9.451  11.830  1.00  0.00    -0.000 C 
BRANCH  25  26
ATOM     26  C   UNL     1      17.066   9.495  10.303  1.00  0.00    -0.000 C 
BRANCH  26  27
ATOM     27  C   UNL     1      15.894  10.393   9.876  1.00  0.00    -0.000 C 
BRANCH  27  28
ATOM     28  C   UNL     1      16.354  11.607   9.050  1.00  0.00    -0.000 C 
BRANCH  28  29
ATOM     29  C   UNL     1      15.751  12.957   9.496  1.00  0.00    -0.000 C 
BRANCH  29  30
ATOM     30  C   UNL     1      16.401  13.590  10.745  1.00  0.00    -0.000 C 
BRANCH  30  31
ATOM     31  C   UNL     1      17.671  14.413  10.472  1.00  0.00    -0.003 C 
ATOM     32  C   UNL     1      17.775  14.891   9.026  1.00  0.00     0.004 C 
ENDBRANCH  30  31
ENDBRANCH  29  30
ENDBRANCH  28  29
ENDBRANCH  27  28
ENDBRANCH  26  27
ENDBRANCH  25  26
ENDBRANCH  24  25
ENDBRANCH  23  24
ENDBRANCH  22  23
ENDBRANCH  21  22
ENDBRANCH  20  21
ENDBRANCH  19  20
ENDBRANCH  18  19
ENDBRANCH   1  18
TORSDOF 28
ENDMDL
MODEL 8
REMARK VINA RESULT:    25.555      2.305     10.227
REMARK INTER + INTRA:          66.331
REMARK INTER:                  67.144
REMARK INTRA:                  -0.814
REMARK UNBOUND:                -1.055
REMARK SMILES CCCCCCCCCCCCCCCCCCCCCCCCCCCCCC(=O)[O-]
REMARK SMILES IDX 16 1 17 2 18 3 19 4 20 5 21 6 22 7 23 8 24 9 25 10 26 11
REMARK SMILES IDX 27 12 28 13 29 14 30 15 31 16 32 17 15 18 14 19 13 20 12 21
REMARK SMILES IDX 11 22 10 23 9 24 8 25 7 26 6 27 5 28 4 29 3 30 2 31 1 32
REMARK H PARENT
REMARK Flexibility Score: inf
ROOT
ATOM      1  C   UNL     1      13.330  12.630  17.796  1.00  0.00     0.000 C 
ENDROOT
BRANCH   1   2
ATOM      2  C   UNL     1      12.609  13.474  16.732  1.00  0.00     0.000 C 
BRANCH   2   3
ATOM      3  C   UNL     1      13.308  14.821  16.476  1.00  0.00     0.000 C 
BRANCH   3   4
ATOM      4  C   UNL     1      14.671  14.914  17.181  1.00  0.00     0.000 C 
BRANCH   4   5
ATOM      5  C   UNL     1      14.687  15.960  18.309  1.00  0.00     0.000 C 
BRANCH   5   6
ATOM      6  C   UNL     1      15.060  17.389  17.865  1.00  0.00     0.000 C 
BRANCH   6   7
ATOM      7  C   UNL     1      16.528  17.790  18.111  1.00  0.00     0.000 C 
BRANCH   7   8
ATOM      8  C   UNL     1      16.856  18.234  19.551  1.00  0.00     0.000 C 
BRANCH   8   9
ATOM      9  C   UNL     1      16.319  19.622  19.943  1.00  0.00     0.000 C 
BRANCH   9  10
ATOM     10  C   UNL     1      17.343  20.749  19.720  1.00  0.00     0.000 C 
BRANCH  10  11
ATOM     11  C   UNL     1      16.776  21.882  18.837  1.00  0.00     0.000 C 
BRANCH  11  12
ATOM     12  C   UNL     1      15.342  21.630  18.342  1.00  0.00     0.000 C 
BRANCH  12  13
ATOM     13  C   UNL     1      15.073  22.221  16.952  1.00  0.00     0.006 C 
BRANCH  13  14
ATOM     14  C   UNL     1      15.266  21.165  15.860  1.00  0.00     0.053 C 
BRANCH  14  15
ATOM     15  C   UNL     1      16.244  21.638  14.832  1.00  0.00     0.041 C 
ATOM     16  O   UNL     1      16.106  21.301  13.625  1.00  0.00    -0.550 OA
ATOM     17  O   UNL     1      17.319  22.436  15.204  1.00  0.00    -0.550 OA
ENDBRANCH  14  15
ENDBRANCH  13  14
ENDBRANCH  12  13
ENDBRANCH  11  12
ENDBRANCH  10  11
ENDBRANCH   9  10
ENDBRANCH   8   9
ENDBRANCH   7   8
ENDBRANCH   6   7
ENDBRANCH   5   6
ENDBRANCH   4   5
ENDBRANCH   3   4
ENDBRANCH   2   3
ENDBRANCH   1   2
BRANCH   1  18
ATOM     18  C   UNL     1      13.913  11.352  17.181  1.00  0.00     0.000 C 
BRANCH  18  19
ATOM     19  C   UNL     1      15.042  11.676  16.191  1.00  0.00     0.000 C 
BRANCH  19  20
ATOM     20  C   UNL     1      16.149  10.606  16.176  1.00  0.00     0.000 C 
BRANCH  20  21
ATOM     21  C   UNL     1      16.574  10.125  14.775  1.00  0.00     0.000 C 
BRANCH  21  22
ATOM     22  C   UNL     1      15.890   8.832  14.298  1.00  0.00     0.000 C 
BRANCH  22  23
ATOM     23  C   UNL     1      15.760   8.762  12.766  1.00  0.00     0.000 C 
BRANCH  23  24
ATOM     24  C   UNL     1      16.839   9.583  12.034  1.00  0.00    -0.000 C 
BRANCH  24  25
ATOM     25  C   UNL     1      16.829   9.445  10.495  1.00  0.00    -0.000 C 
BRANCH  25  26
ATOM     26  C   UNL     1      16.617  10.764   9.728  1.00  0.00    -0.000 C 
BRANCH  26  27
ATOM     27  C   UNL     1      17.598  11.866  10.159  1.00  0.00    -0.000 C 
BRANCH  27  28
ATOM     28  C   UNL     1      17.031  13.279   9.930  1.00  0.00    -0.000 C 
BRANCH  28  29
ATOM     29  C   UNL     1      15.624  13.314   9.296  1.00  0.00    -0.000 C 
BRANCH  29  30
ATOM     30  C   UNL     1      14.842  14.629   9.496  1.00  0.00    -0.000 C 
BRANCH  30  31
ATOM     31  C   UNL     1      15.203  15.415  10.769  1.00  0.00    -0.003 C 
ATOM     32  C   UNL     1      15.964  14.577  11.792  1.00  0.00     0.004 C 
ENDBRANCH  30  31
ENDBRANCH  29  30
ENDBRANCH  28  29
ENDBRANCH  27  28
ENDBRANCH  26  27
ENDBRANCH  25  26
ENDBRANCH  24  25
ENDBRANCH  23  24
ENDBRANCH  22  23
ENDBRANCH  21  22
ENDBRANCH  20  21
ENDBRANCH  19  20
ENDBRANCH  18  19
ENDBRANCH   1  18
TORSDOF 28
ENDMDL
MODEL 9
REMARK VINA RESULT:    25.932      1.316      3.283
REMARK INTER + INTRA:          67.324
REMARK INTER:                  65.445
REMARK INTRA:                   1.879
REMARK UNBOUND:                -1.055
REMARK SMILES CCCCCCCCCCCCCCCCCCCCCCCCCCCCCC(=O)[O-]
REMARK SMILES IDX 16 1 17 2 18 3 19 4 20 5 21 6 22 7 23 8 24 9 25 10 26 11
REMARK SMILES IDX 27 12 28 13 29 14 30 15 31 16 32 17 15 18 14 19 13 20 12 21
REMARK SMILES IDX 11 22 10 23 9 24 8 25 7 26 6 27 5 28 4 29 3 30 2 31 1 32
REMARK H PARENT
REMARK Flexibility Score: inf
ROOT
ATOM      1  C   UNL     1      10.646  13.413  15.962  1.00  0.00     0.000 C 
ENDROOT
BRANCH   1   2
ATOM      2  C   UNL     1      10.060  11.994  16.046  1.00  0.00     0.000 C 
BRANCH   2   3
ATOM      3  C   UNL     1      10.639  11.187  17.222  1.00  0.00     0.000 C 
BRANCH   3   4
ATOM      4  C   UNL     1      11.999  11.731  17.689  1.00  0.00     0.000 C 
BRANCH   4   5
ATOM      5  C   UNL     1      13.185  10.915  17.145  1.00  0.00     0.000 C 
BRANCH   5   6
ATOM      6  C   UNL     1      14.538  11.654  17.149  1.00  0.00     0.000 C 
BRANCH   6   7
ATOM      7  C   UNL     1      15.391  11.468  15.878  1.00  0.00     0.000 C 
BRANCH   7   8
ATOM      8  C   UNL     1      15.534  10.013  15.389  1.00  0.00     0.000 C 
BRANCH   8   9
ATOM      9  C   UNL     1      16.607   9.791  14.308  1.00  0.00     0.000 C 
BRANCH   9  10
ATOM     10  C   UNL     1      16.019   9.338  12.960  1.00  0.00     0.000 C 
BRANCH  10  11
ATOM     11  C   UNL     1      17.057   9.413  11.820  1.00  0.00     0.000 C 
BRANCH  11  12
ATOM     12  C   UNL     1      16.547  10.125  10.555  1.00  0.00     0.000 C 
BRANCH  12  13
ATOM     13  C   UNL     1      17.365  11.371  10.195  1.00  0.00     0.006 C 
BRANCH  13  14
ATOM     14  C   UNL     1      16.454  12.514   9.741  1.00  0.00     0.053 C 
BRANCH  14  15
ATOM     15  C   UNL     1      16.997  13.835  10.187  1.00  0.00     0.041 C 
ATOM     16  O   UNL     1      17.777  14.484   9.439  1.00  0.00    -0.550 OA
ATOM     17  O   UNL     1      16.657  14.345  11.434  1.00  0.00    -0.550 OA
ENDBRANCH  14  15
ENDBRANCH  13  14
ENDBRANCH  12  13
ENDBRANCH  11  12
ENDBRANCH  10  11
ENDBRANCH   9  10
ENDBRANCH   8   9
ENDBRANCH   7   8
ENDBRANCH   6   7
ENDBRANCH   5   6
ENDBRANCH   4   5
ENDBRANCH   3   4
ENDBRANCH   2   3
ENDBRANCH   1   2
BRANCH   1  18
ATOM     18  C   UNL     1      11.975  13.504  16.719  1.00  0.00     0.000 C 
BRANCH  18  19
ATOM     19  C   UNL     1      12.852  14.641  16.172  1.00  0.00     0.000 C 
BRANCH  19  20
ATOM     20  C   UNL     1      14.254  14.673  16.806  1.00  0.00     0.000 C 
BRANCH  20  21
ATOM     21  C   UNL     1      14.775  16.078  17.167  1.00  0.00     0.000 C 
BRANCH  21  22
ATOM     22  C   UNL     1      14.592  16.478  18.642  1.00  0.00     0.000 C 
BRANCH  22  23
ATOM     23  C   UNL     1      14.984  17.941  18.911  1.00  0.00     0.000 C 
BRANCH  23  24
ATOM     24  C   UNL     1      16.503  18.183  18.815  1.00  0.00    -0.000 C 
BRANCH  24  25
ATOM     25  C   UNL     1      17.070  19.181  19.849  1.00  0.00    -0.000 C 
BRANCH  25  26
ATOM     26  C   UNL     1      16.406  20.571  19.838  1.00  0.00    -0.000 C 
BRANCH  26  27
ATOM     27  C   UNL     1      16.892  21.453  18.677  1.00  0.00    -0.000 C 
BRANCH  27  28
ATOM     28  C   UNL     1      15.780  21.738  17.651  1.00  0.00    -0.000 C 
BRANCH  28  29
ATOM     29  C   UNL     1      16.274  22.336  16.316  1.00  0.00    -0.000 C 
BRANCH  29  30
ATOM     30  C   UNL     1      15.878  21.545  15.051  1.00  0.00    -0.000 C 
BRANCH  30  31
ATOM     31  C   UNL     1      15.416  20.099  15.304  1.00  0.00    -0.003 C 
ATOM     32  C   UNL     1      13.898  19.960  15.369  1.00  0.00     0.004 C 
ENDBRANCH  30  31
ENDBRANCH  29  30
ENDBRANCH  28  29
ENDBRANCH  27  28
ENDBRANCH  26  27
ENDBRANCH  25  26
ENDBRANCH  24  25
ENDBRANCH  23  24
ENDBRANCH  22  23
ENDBRANCH  21  22
ENDBRANCH  20  21
ENDBRANCH  19  20
ENDBRANCH  18  19
ENDBRANCH   1  18
TORSDOF 28
ENDMDL
