MODEL 1
REMARK VINA RESULT:    -3.730      0.000      0.000
REMARK INTER + INTRA:          -6.596
REMARK INTER:                  -5.693
REMARK INTRA:                  -0.903
REMARK UNBOUND:                -0.903
REMARK SMILES CCCCCCCCCCC(=O)[O-]
REMARK SMILES IDX 7 1 8 2 9 3 10 4 11 5 12 6 13 7 6 8 5 9 4 10 3 11 2 12 1 13
REMARK H PARENT
REMARK Flexibility Score: inf
ROOT
ATOM      1  C   UNL     1    -115.877  11.149  21.888  1.00  0.00     0.000 C 
ENDROOT
BRANCH   1   2
ATOM      2  C   UNL     1    -116.385  11.374  23.323  1.00  0.00     0.000 C 
BRANCH   2   3
ATOM      3  C   UNL     1    -115.461  12.291  24.139  1.00  0.00     0.006 C 
BRANCH   3   4
ATOM      4  C   UNL     1    -114.539  11.508  25.083  1.00  0.00     0.053 C 
BRANCH   4   5
ATOM      5  C   UNL     1    -113.126  11.555  24.591  1.00  0.00     0.041 C 
ATOM      6  O   UNL     1    -112.653  10.594  23.929  1.00  0.00    -0.550 OA
ATOM      7  O   UNL     1    -112.316  12.639  24.904  1.00  0.00    -0.550 OA
ENDBRANCH   4   5
ENDBRANCH   3   4
ENDBRANCH   2   3
ENDBRANCH   1   2
BRANCH   1   8
ATOM      8  C   UNL     1    -116.748  11.853  20.832  1.00  0.00     0.000 C 
BRANCH   8   9
ATOM      9  C   UNL     1    -118.020  12.527  21.386  1.00  0.00    -0.000 C 
BRANCH   9  10
ATOM     10  C   UNL     1    -118.188  14.012  21.012  1.00  0.00    -0.000 C 
BRANCH  10  11
ATOM     11  C   UNL     1    -118.693  14.918  22.152  1.00  0.00    -0.000 C 
BRANCH  11  12
ATOM     12  C   UNL     1    -118.459  14.366  23.569  1.00  0.00    -0.003 C 
ATOM     13  C   UNL     1    -117.573  15.272  24.423  1.00  0.00     0.004 C 
ENDBRANCH  11  12
ENDBRANCH  10  11
ENDBRANCH   9  10
ENDBRANCH   8   9
ENDBRANCH   1   8
TORSDOF 9
ENDMDL
MODEL 2
REMARK VINA RESULT:    -3.671      1.328      2.549
REMARK INTER + INTRA:          -6.506
REMARK INTER:                  -5.823
REMARK INTRA:                  -0.683
REMARK UNBOUND:                -0.903
REMARK SMILES CCCCCCCCCCC(=O)[O-]
REMARK SMILES IDX 7 1 8 2 9 3 10 4 11 5 12 6 13 7 6 8 5 9 4 10 3 11 2 12 1 13
REMARK H PARENT
REMARK Flexibility Score: inf
ROOT
ATOM      1  C   UNL     1    -116.124  12.238  23.254  1.00  0.00     0.000 C 
ENDROOT
BRANCH   1   2
ATOM      2  C   UNL     1    -115.197  11.247  23.979  1.00  0.00     0.000 C 
BRANCH   2   3
ATOM      3  C   UNL     1    -114.397  11.909  25.112  1.00  0.00     0.006 C 
BRANCH   3   4
ATOM      4  C   UNL     1    -112.916  12.094  24.756  1.00  0.00     0.053 C 
BRANCH   4   5
ATOM      5  C   UNL     1    -112.243  10.765  24.615  1.00  0.00     0.041 C 
ATOM      6  O   UNL     1    -112.309   9.919  25.546  1.00  0.00    -0.550 OA
ATOM      7  O   UNL     1    -111.501  10.478  23.477  1.00  0.00    -0.550 OA
ENDBRANCH   4   5
ENDBRANCH   3   4
ENDBRANCH   2   3
ENDBRANCH   1   2
BRANCH   1   8
ATOM      8  C   UNL     1    -116.330  13.544  24.041  1.00  0.00     0.000 C 
BRANCH   8   9
ATOM      9  C   UNL     1    -117.715  14.198  23.861  1.00  0.00    -0.000 C 
BRANCH   9  10
ATOM     10  C   UNL     1    -118.498  13.740  22.615  1.00  0.00    -0.000 C 
BRANCH  10  11
ATOM     11  C   UNL     1    -118.671  14.813  21.522  1.00  0.00    -0.000 C 
BRANCH  11  12
ATOM     12  C   UNL     1    -118.207  14.387  20.118  1.00  0.00    -0.003 C 
ATOM     13  C   UNL     1    -117.804  12.915  20.046  1.00  0.00     0.004 C 
ENDBRANCH  11  12
ENDBRANCH  10  11
ENDBRANCH   9  10
ENDBRANCH   8   9
ENDBRANCH   1   8
TORSDOF 9
ENDMDL
MODEL 3
REMARK VINA RESULT:    -3.650      2.467      5.008
REMARK INTER + INTRA:          -6.474
REMARK INTER:                  -5.577
REMARK INTRA:                  -0.896
REMARK UNBOUND:                -0.903
REMARK SMILES CCCCCCCCCCC(=O)[O-]
REMARK SMILES IDX 7 1 8 2 9 3 10 4 11 5 12 6 13 7 6 8 5 9 4 10 3 11 2 12 1 13
REMARK H PARENT
REMARK Flexibility Score: inf
ROOT
ATOM      1  C   UNL     1    -116.628  11.900  21.053  1.00  0.00     0.000 C 
ENDROOT
BRANCH   1   2
ATOM      2  C   UNL     1    -117.944  12.508  21.567  1.00  0.00     0.000 C 
BRANCH   2   3
ATOM      3  C   UNL     1    -118.003  14.032  21.378  1.00  0.00     0.006 C 
BRANCH   3   4
ATOM      4  C   UNL     1    -118.824  14.729  22.471  1.00  0.00     0.053 C 
BRANCH   4   5
ATOM      5  C   UNL     1    -118.290  14.384  23.826  1.00  0.00     0.041 C 
ATOM      6  O   UNL     1    -117.180  14.842  24.205  1.00  0.00    -0.550 OA
ATOM      7  O   UNL     1    -118.994  13.517  24.651  1.00  0.00    -0.550 OA
ENDBRANCH   4   5
ENDBRANCH   3   4
ENDBRANCH   2   3
ENDBRANCH   1   2
BRANCH   1   8
ATOM      8  C   UNL     1    -115.834  11.180  22.158  1.00  0.00     0.000 C 
BRANCH   8   9
ATOM      9  C   UNL     1    -116.628  10.904  23.451  1.00  0.00    -0.000 C 
BRANCH   9  10
ATOM     10  C   UNL     1    -115.892  11.258  24.758  1.00  0.00    -0.000 C 
BRANCH  10  11
ATOM     11  C   UNL     1    -114.725  12.252  24.600  1.00  0.00    -0.000 C 
BRANCH  11  12
ATOM     12  C   UNL     1    -113.424  11.841  25.312  1.00  0.00    -0.003 C 
ATOM     13  C   UNL     1    -112.386  11.246  24.361  1.00  0.00     0.004 C 
ENDBRANCH  11  12
ENDBRANCH  10  11
ENDBRANCH   9  10
ENDBRANCH   8   9
ENDBRANCH   1   8
TORSDOF 9
ENDMDL
MODEL 4
REMARK VINA RESULT:    -3.493      3.229      6.143
REMARK INTER + INTRA:          -6.235
REMARK INTER:                  -5.451
REMARK INTRA:                  -0.783
REMARK UNBOUND:                -0.903
REMARK SMILES CCCCCCCCCCC(=O)[O-]
REMARK SMILES IDX 7 1 8 2 9 3 10 4 11 5 12 6 13 7 6 8 5 9 4 10 3 11 2 12 1 13
REMARK H PARENT
REMARK Flexibility Score: inf
ROOT
ATOM      1  C   UNL     1    -115.194  11.300  24.996  1.00  0.00     0.000 C 
ENDROOT
BRANCH   1   2
ATOM      2  C   UNL     1    -115.368  12.556  24.124  1.00  0.00     0.000 C 
BRANCH   2   3
ATOM      3  C   UNL     1    -116.755  12.629  23.466  1.00  0.00     0.006 C 
BRANCH   3   4
ATOM      4  C   UNL     1    -117.468  13.959  23.741  1.00  0.00     0.053 C 
BRANCH   4   5
ATOM      5  C   UNL     1    -118.245  14.393  22.538  1.00  0.00     0.041 C 
ATOM      6  O   UNL     1    -117.885  14.033  21.387  1.00  0.00    -0.550 OA
ATOM      7  O   UNL     1    -119.339  15.236  22.684  1.00  0.00    -0.550 OA
ENDBRANCH   4   5
ENDBRANCH   3   4
ENDBRANCH   2   3
ENDBRANCH   1   2
BRANCH   1   8
ATOM      8  C   UNL     1    -113.793  11.203  25.626  1.00  0.00     0.000 C 
BRANCH   8   9
ATOM      9  C   UNL     1    -112.690  11.976  24.875  1.00  0.00    -0.000 C 
BRANCH   9  10
ATOM     10  C   UNL     1    -111.881  11.142  23.862  1.00  0.00    -0.000 C 
BRANCH  10  11
ATOM     11  C   UNL     1    -112.253   9.648  23.804  1.00  0.00    -0.000 C 
BRANCH  11  12
ATOM     12  C   UNL     1    -112.670   9.139  22.413  1.00  0.00    -0.003 C 
ATOM     13  C   UNL     1    -114.061   9.615  21.997  1.00  0.00     0.004 C 
ENDBRANCH  11  12
ENDBRANCH  10  11
ENDBRANCH   9  10
ENDBRANCH   8   9
ENDBRANCH   1   8
TORSDOF 9
ENDMDL
MODEL 5
REMARK VINA RESULT:    -3.482      2.849      5.808
REMARK INTER + INTRA:          -6.217
REMARK INTER:                  -5.397
REMARK INTRA:                  -0.820
REMARK UNBOUND:                -0.903
REMARK SMILES CCCCCCCCCCC(=O)[O-]
REMARK SMILES IDX 7 1 8 2 9 3 10 4 11 5 12 6 13 7 6 8 5 9 4 10 3 11 2 12 1 13
REMARK H PARENT
REMARK Flexibility Score: inf
ROOT
ATOM      1  C   UNL     1    -116.604  10.895  23.817  1.00  0.00     0.000 C 
ENDROOT
BRANCH   1   2
ATOM      2  C   UNL     1    -116.131  11.402  22.443  1.00  0.00     0.000 C 
BRANCH   2   3
ATOM      3  C   UNL     1    -116.984  12.569  21.920  1.00  0.00     0.006 C 
BRANCH   3   4
ATOM      4  C   UNL     1    -118.189  12.868  22.821  1.00  0.00     0.053 C 
BRANCH   4   5
ATOM      5  C   UNL     1    -118.197  14.310  23.221  1.00  0.00     0.041 C 
ATOM      6  O   UNL     1    -118.972  15.122  22.648  1.00  0.00    -0.550 OA
ATOM      7  O   UNL     1    -117.315  14.768  24.190  1.00  0.00    -0.550 OA
ENDBRANCH   4   5
ENDBRANCH   3   4
ENDBRANCH   2   3
ENDBRANCH   1   2
BRANCH   1   8
ATOM      8  C   UNL     1    -115.526  11.039  24.906  1.00  0.00     0.000 C 
BRANCH   8   9
ATOM      9  C   UNL     1    -114.549  12.214  24.700  1.00  0.00    -0.000 C 
BRANCH   9  10
ATOM     10  C   UNL     1    -113.122  11.979  25.234  1.00  0.00    -0.000 C 
BRANCH  10  11
ATOM     11  C   UNL     1    -112.133  11.387  24.211  1.00  0.00    -0.000 C 
BRANCH  11  12
ATOM     12  C   UNL     1    -112.066   9.849  24.193  1.00  0.00    -0.003 C 
ATOM     13  C   UNL     1    -112.119   9.234  25.590  1.00  0.00     0.004 C 
ENDBRANCH  11  12
ENDBRANCH  10  11
ENDBRANCH   9  10
ENDBRANCH   8   9
ENDBRANCH   1   8
TORSDOF 9
ENDMDL
MODEL 6
REMARK VINA RESULT:    -3.451      1.117      2.554
REMARK INTER + INTRA:          -6.171
REMARK INTER:                  -5.460
REMARK INTRA:                  -0.711
REMARK UNBOUND:                -0.903
REMARK SMILES CCCCCCCCCCC(=O)[O-]
REMARK SMILES IDX 7 1 8 2 9 3 10 4 11 5 12 6 13 7 6 8 5 9 4 10 3 11 2 12 1 13
REMARK H PARENT
REMARK Flexibility Score: inf
ROOT
ATOM      1  C   UNL     1    -116.962  13.422  23.747  1.00  0.00     0.000 C 
ENDROOT
BRANCH   1   2
ATOM      2  C   UNL     1    -116.624  11.964  24.105  1.00  0.00     0.000 C 
BRANCH   2   3
ATOM      3  C   UNL     1    -115.128  11.651  23.951  1.00  0.00     0.006 C 
BRANCH   3   4
ATOM      4  C   UNL     1    -114.423  11.464  25.301  1.00  0.00     0.053 C 
BRANCH   4   5
ATOM      5  C   UNL     1    -112.938  11.450  25.117  1.00  0.00     0.041 C 
ATOM      6  O   UNL     1    -112.281  10.401  25.350  1.00  0.00    -0.550 OA
ATOM      7  O   UNL     1    -112.273  12.608  24.737  1.00  0.00    -0.550 OA
ENDBRANCH   4   5
ENDBRANCH   3   4
ENDBRANCH   2   3
ENDBRANCH   1   2
BRANCH   1   8
ATOM      8  C   UNL     1    -118.462  13.635  23.477  1.00  0.00     0.000 C 
BRANCH   8   9
ATOM      9  C   UNL     1    -118.805  14.927  22.706  1.00  0.00    -0.000 C 
BRANCH   9  10
ATOM     10  C   UNL     1    -119.203  14.722  21.231  1.00  0.00    -0.000 C 
BRANCH  10  11
ATOM     11  C   UNL     1    -118.070  14.223  20.313  1.00  0.00    -0.000 C 
BRANCH  11  12
ATOM     12  C   UNL     1    -118.148  12.731  19.942  1.00  0.00    -0.003 C 
ATOM     13  C   UNL     1    -116.914  11.943  20.379  1.00  0.00     0.004 C 
ENDBRANCH  11  12
ENDBRANCH  10  11
ENDBRANCH   9  10
ENDBRANCH   8   9
ENDBRANCH   1   8
TORSDOF 9
ENDMDL
MODEL 7
REMARK VINA RESULT:    -3.363     13.011     14.843
REMARK INTER + INTRA:          -6.036
REMARK INTER:                  -5.096
REMARK INTRA:                  -0.940
REMARK UNBOUND:                -0.903
REMARK SMILES CCCCCCCCCCC(=O)[O-]
REMARK SMILES IDX 7 1 8 2 9 3 10 4 11 5 12 6 13 7 6 8 5 9 4 10 3 11 2 12 1 13
REMARK H PARENT
REMARK Flexibility Score: inf
ROOT
ATOM      1  C   UNL     1    -101.419  11.512  22.623  1.00  0.00     0.000 C 
ENDROOT
BRANCH   1   2
ATOM      2  C   UNL     1    -102.771  10.816  22.388  1.00  0.00     0.000 C 
BRANCH   2   3
ATOM      3  C   UNL     1    -102.774   9.945  21.121  1.00  0.00     0.006 C 
BRANCH   3   4
ATOM      4  C   UNL     1    -102.400  10.738  19.862  1.00  0.00     0.053 C 
BRANCH   4   5
ATOM      5  C   UNL     1    -103.627  11.296  19.213  1.00  0.00     0.041 C 
ATOM      6  O   UNL     1    -103.529  12.201  18.343  1.00  0.00    -0.550 OA
ATOM      7  O   UNL     1    -104.884  10.852  19.604  1.00  0.00    -0.550 OA
ENDBRANCH   4   5
ENDBRANCH   3   4
ENDBRANCH   2   3
ENDBRANCH   1   2
BRANCH   1   8
ATOM      8  C   UNL     1    -100.311  10.532  23.046  1.00  0.00     0.000 C 
BRANCH   8   9
ATOM      9  C   UNL     1    -100.699   9.568  24.186  1.00  0.00    -0.000 C 
BRANCH   9  10
ATOM     10  C   UNL     1    -100.140   9.938  25.574  1.00  0.00    -0.000 C 
BRANCH  10  11
ATOM     11  C   UNL     1    -101.191  10.429  26.590  1.00  0.00    -0.000 C 
BRANCH  11  12
ATOM     12  C   UNL     1    -102.648  10.354  26.100  1.00  0.00    -0.003 C 
ATOM     13  C   UNL     1    -103.282  11.730  25.905  1.00  0.00     0.004 C 
ENDBRANCH  11  12
ENDBRANCH  10  11
ENDBRANCH   9  10
ENDBRANCH   8   9
ENDBRANCH   1   8
TORSDOF 9
ENDMDL
MODEL 8
REMARK VINA RESULT:    -3.360     17.881     19.202
REMARK INTER + INTRA:          -6.031
REMARK INTER:                  -4.953
REMARK INTRA:                  -1.078
REMARK UNBOUND:                -0.903
REMARK SMILES CCCCCCCCCCC(=O)[O-]
REMARK SMILES IDX 7 1 8 2 9 3 10 4 11 5 12 6 13 7 6 8 5 9 4 10 3 11 2 12 1 13
REMARK H PARENT
REMARK Flexibility Score: inf
ROOT
ATOM      1  C   UNL     1    -100.663  24.640  19.683  1.00  0.00     0.000 C 
ENDROOT
BRANCH   1   2
ATOM      2  C   UNL     1    -102.080  24.914  20.216  1.00  0.00     0.000 C 
BRANCH   2   3
ATOM      3  C   UNL     1    -102.936  25.720  19.226  1.00  0.00     0.006 C 
BRANCH   3   4
ATOM      4  C   UNL     1    -103.045  27.201  19.611  1.00  0.00     0.053 C 
BRANCH   4   5
ATOM      5  C   UNL     1    -104.010  27.376  20.742  1.00  0.00     0.041 C 
ATOM      6  O   UNL     1    -105.236  27.147  20.570  1.00  0.00    -0.550 OA
ATOM      7  O   UNL     1    -103.563  27.839  21.972  1.00  0.00    -0.550 OA
ENDBRANCH   4   5
ENDBRANCH   3   4
ENDBRANCH   2   3
ENDBRANCH   1   2
BRANCH   1   8
ATOM      8  C   UNL     1    -100.526  24.933  18.179  1.00  0.00     0.000 C 
BRANCH   8   9
ATOM      9  C   UNL     1    -100.331  23.688  17.290  1.00  0.00    -0.000 C 
BRANCH   9  10
ATOM     10  C   UNL     1    -101.619  23.130  16.654  1.00  0.00    -0.000 C 
BRANCH  10  11
ATOM     11  C   UNL     1    -102.164  21.844  17.305  1.00  0.00    -0.000 C 
BRANCH  11  12
ATOM     12  C   UNL     1    -103.276  22.066  18.345  1.00  0.00    -0.003 C 
ATOM     13  C   UNL     1    -104.548  22.657  17.740  1.00  0.00     0.004 C 
ENDBRANCH  11  12
ENDBRANCH  10  11
ENDBRANCH   9  10
ENDBRANCH   8   9
ENDBRANCH   1   8
TORSDOF 9
ENDMDL
MODEL 9
REMARK VINA RESULT:    -3.245      3.426      6.274
REMARK INTER + INTRA:          -5.856
REMARK INTER:                  -5.432
REMARK INTRA:                  -0.423
REMARK UNBOUND:                -0.903
REMARK SMILES CCCCCCCCCCC(=O)[O-]
REMARK SMILES IDX 7 1 8 2 9 3 10 4 11 5 12 6 13 7 6 8 5 9 4 10 3 11 2 12 1 13
REMARK H PARENT
REMARK Flexibility Score: inf
ROOT
ATOM      1  C   UNL     1    -116.668  13.466  24.064  1.00  0.00     0.000 C 
ENDROOT
BRANCH   1   2
ATOM      2  C   UNL     1    -117.853  14.122  23.335  1.00  0.00     0.000 C 
BRANCH   2   3
ATOM      3  C   UNL     1    -118.065  13.552  21.923  1.00  0.00     0.006 C 
BRANCH   3   4
ATOM      4  C   UNL     1    -118.550  14.614  20.927  1.00  0.00     0.053 C 
BRANCH   4   5
ATOM      5  C   UNL     1    -118.172  14.231  19.531  1.00  0.00     0.041 C 
ATOM      6  O   UNL     1    -117.751  15.104  18.726  1.00  0.00    -0.550 OA
ATOM      7  O   UNL     1    -118.330  12.920  19.102  1.00  0.00    -0.550 OA
ENDBRANCH   4   5
ENDBRANCH   3   4
ENDBRANCH   2   3
ENDBRANCH   1   2
BRANCH   1   8
ATOM      8  C   UNL     1    -116.164  12.195  23.356  1.00  0.00     0.000 C 
BRANCH   8   9
ATOM      9  C   UNL     1    -115.094  11.401  24.133  1.00  0.00    -0.000 C 
BRANCH   9  10
ATOM     10  C   UNL     1    -114.138  12.256  24.988  1.00  0.00    -0.000 C 
BRANCH  10  11
ATOM     11  C   UNL     1    -112.670  11.786  24.992  1.00  0.00    -0.000 C 
BRANCH  11  12
ATOM     12  C   UNL     1    -112.361  10.621  24.035  1.00  0.00    -0.003 C 
ATOM     13  C   UNL     1    -111.742   9.417  24.742  1.00  0.00     0.004 C 
ENDBRANCH  11  12
ENDBRANCH  10  11
ENDBRANCH   9  10
ENDBRANCH   8   9
ENDBRANCH   1   8
TORSDOF 9
ENDMDL
