MODEL 1
REMARK VINA RESULT:    -7.058      0.000      0.000
REMARK INTER + INTRA:         -12.044
REMARK INTER:                 -10.360
REMARK INTRA:                  -1.685
REMARK UNBOUND:                -1.685
REMARK SMILES O=c1c(O[C@@H]2O[C@H](CO)[C@@H](O)[C@H](O)[C@@H]2O)c(-c2ccc(O)c(O)c2)oc2cc(O)cc(O)c12
REMARK SMILES IDX 4 1 3 2 16 3 25 4 2 5 26 6 1 7 33 8 27 9 31 10 28 11 30 12
REMARK SMILES IDX 17 13 18 14 19 15 20 16 24 17 22 18 21 19 23 21 32 23 29 25
REMARK SMILES IDX 5 27 14 28 6 29 12 30 7 31 10 32 15 33 13 35 8 37 9 38 11 40
REMARK H PARENT 21 20 23 22 32 24 29 26 15 34 13 36 9 39 11 41
REMARK Flexibility Score: inf
ROOT
ATOM      1  O   UNL     1       8.838   9.111 -20.619  1.00  0.00    -0.454 OA
ENDROOT
BRANCH   1   2
ATOM      2  C   UNL     1       7.842   8.261 -20.100  1.00  0.00     0.214 A 
ATOM      3  C   UNL     1       6.629   7.983 -20.779  1.00  0.00     0.180 A 
ATOM      4  O   UNL     1       6.012   6.813 -20.547  1.00  0.00    -0.452 OA
ATOM      5  C   UNL     1       8.038   7.652 -18.858  1.00  0.00     0.239 A 
ATOM      6  C   UNL     1       6.394   6.002 -19.547  1.00  0.00     0.146 A 
ATOM      7  O   UNL     1       8.812   8.193 -18.011  1.00  0.00    -0.285 OA
ATOM      8  C   UNL     1       7.329   6.481 -18.569  1.00  0.00     0.111 A 
ATOM      9  C   UNL     1       5.886   4.695 -19.444  1.00  0.00     0.094 A 
ATOM     10  C   UNL     1       7.575   5.724 -17.410  1.00  0.00     0.134 A 
ATOM     11  C   UNL     1       6.278   3.891 -18.358  1.00  0.00     0.123 A 
ATOM     12  C   UNL     1       7.058   4.427 -17.322  1.00  0.00     0.093 A 
BRANCH   3  13
ATOM     13  C   UNL     1       5.896   9.106 -21.423  1.00  0.00     0.025 A 
ATOM     14  C   UNL     1       5.294  10.038 -20.556  1.00  0.00     0.016 A 
ATOM     15  C   UNL     1       5.217  11.387 -20.929  1.00  0.00     0.051 A 
ATOM     16  C   UNL     1       5.747  11.819 -22.143  1.00  0.00     0.157 A 
ATOM     17  C   UNL     1       6.190   9.517 -22.722  1.00  0.00     0.062 A 
ATOM     18  C   UNL     1       6.224  10.877 -23.062  1.00  0.00     0.158 A 
BRANCH  16  19
ATOM     19  O   UNL     1       5.820  13.176 -22.446  1.00  0.00    -0.504 OA
ATOM     20  H   UNL     1       5.019  13.789 -22.320  1.00  0.00     0.293 HD
ENDBRANCH  16  19
BRANCH  18  21
ATOM     21  O   UNL     1       6.807  11.327 -24.245  1.00  0.00    -0.504 OA
ATOM     22  H   UNL     1       7.144  10.722 -24.992  1.00  0.00     0.293 HD
ENDBRANCH  18  21
ENDBRANCH   3  13
BRANCH  10  23
ATOM     23  O   UNL     1       8.352   6.246 -16.356  1.00  0.00    -0.507 OA
ATOM     24  H   UNL     1       9.368   6.137 -16.360  1.00  0.00     0.293 HD
ENDBRANCH  10  23
BRANCH  11  25
ATOM     25  O   UNL     1       5.973   2.517 -18.342  1.00  0.00    -0.508 OA
ATOM     26  H   UNL     1       5.168   2.211 -17.783  1.00  0.00     0.293 HD
ENDBRANCH  11  25
ENDBRANCH   1   2
BRANCH   1  27
ATOM     27  C   UNL     1       8.858  10.537 -20.399  1.00  0.00     0.339 C 
ATOM     28  C   UNL     1       9.703  10.922 -19.153  1.00  0.00     0.214 C 
ATOM     29  O   UNL     1       9.406  11.218 -21.512  1.00  0.00    -0.332 OA
ATOM     30  C   UNL     1      10.158  12.409 -19.197  1.00  0.00     0.180 C 
ATOM     31  C   UNL     1       9.042  12.589 -21.480  1.00  0.00     0.179 C 
ATOM     32  C   UNL     1       9.209  13.239 -20.073  1.00  0.00     0.177 C 
BRANCH  28  33
ATOM     33  O   UNL     1      10.839  10.093 -19.092  1.00  0.00    -0.384 OA
ATOM     34  H   UNL     1      11.307  10.287 -18.251  1.00  0.00     0.211 HD
ENDBRANCH  28  33
BRANCH  30  35
ATOM     35  O   UNL     1      11.475  12.492 -19.682  1.00  0.00    -0.387 OA
ATOM     36  H   UNL     1      12.057  12.687 -18.897  1.00  0.00     0.211 HD
ENDBRANCH  30  35
BRANCH  31  37
ATOM     37  C   UNL     1       9.857  13.331 -22.556  1.00  0.00     0.191 C 
BRANCH  37  38
ATOM     38  O   UNL     1      10.580  14.402 -21.991  1.00  0.00    -0.394 OA
ATOM     39  H   UNL     1       9.985  15.192 -22.023  1.00  0.00     0.210 HD
ENDBRANCH  37  38
ENDBRANCH  31  37
BRANCH  32  40
ATOM     40  O   UNL     1       7.953  13.274 -19.434  1.00  0.00    -0.387 OA
ATOM     41  H   UNL     1       7.258  13.528 -20.097  1.00  0.00     0.211 HD
ENDBRANCH  32  40
ENDBRANCH   1  27
TORSDOF 12
ENDMDL
MODEL 2
REMARK VINA RESULT:    -6.934      2.235      4.504
REMARK INTER + INTRA:         -11.862
REMARK INTER:                 -10.349
REMARK INTRA:                  -1.512
REMARK UNBOUND:                -1.685
REMARK SMILES O=c1c(O[C@@H]2O[C@H](CO)[C@@H](O)[C@H](O)[C@@H]2O)c(-c2ccc(O)c(O)c2)oc2cc(O)cc(O)c12
REMARK SMILES IDX 4 1 3 2 16 3 25 4 2 5 26 6 1 7 33 8 27 9 31 10 28 11 30 12
REMARK SMILES IDX 17 13 18 14 19 15 20 16 24 17 22 18 21 19 23 21 32 23 29 25
REMARK SMILES IDX 5 27 14 28 6 29 12 30 7 31 10 32 15 33 13 35 8 37 9 38 11 40
REMARK H PARENT 21 20 23 22 32 24 29 26 15 34 13 36 9 39 11 41
REMARK Flexibility Score: inf
ROOT
ATOM      1  O   UNL     1       6.382  10.372 -20.339  1.00  0.00    -0.454 OA
ENDROOT
BRANCH   1   2
ATOM      2  C   UNL     1       6.718   9.791 -19.101  1.00  0.00     0.214 A 
ATOM      3  C   UNL     1       7.256  10.530 -18.017  1.00  0.00     0.180 A 
ATOM      4  O   UNL     1       7.037  10.095 -16.766  1.00  0.00    -0.452 OA
ATOM      5  C   UNL     1       6.519   8.421 -18.909  1.00  0.00     0.239 A 
ATOM      6  C   UNL     1       6.513   8.883 -16.524  1.00  0.00     0.146 A 
ATOM      7  O   UNL     1       6.512   7.643 -19.910  1.00  0.00    -0.285 OA
ATOM      8  C   UNL     1       6.383   7.943 -17.601  1.00  0.00     0.111 A 
ATOM      9  C   UNL     1       6.095   8.523 -15.231  1.00  0.00     0.094 A 
ATOM     10  C   UNL     1       6.034   6.610 -17.325  1.00  0.00     0.134 A 
ATOM     11  C   UNL     1       5.589   7.229 -15.009  1.00  0.00     0.123 A 
ATOM     12  C   UNL     1       5.625   6.268 -16.031  1.00  0.00     0.093 A 
BRANCH   3  13
ATOM     13  C   UNL     1       8.327  11.525 -18.293  1.00  0.00     0.025 A 
ATOM     14  C   UNL     1       9.620  11.008 -18.503  1.00  0.00     0.016 A 
ATOM     15  C   UNL     1      10.488  11.647 -19.399  1.00  0.00     0.051 A 
ATOM     16  C   UNL     1      10.077  12.780 -20.100  1.00  0.00     0.157 A 
ATOM     17  C   UNL     1       8.035  12.785 -18.811  1.00  0.00     0.062 A 
ATOM     18  C   UNL     1       8.846  13.370 -19.794  1.00  0.00     0.158 A 
BRANCH  16  19
ATOM     19  O   UNL     1      10.871  13.320 -21.108  1.00  0.00    -0.504 OA
ATOM     20  H   UNL     1      10.646  13.182 -22.089  1.00  0.00     0.293 HD
ENDBRANCH  16  19
BRANCH  18  21
ATOM     21  O   UNL     1       8.421  14.465 -20.545  1.00  0.00    -0.504 OA
ATOM     22  H   UNL     1       8.223  14.442 -21.544  1.00  0.00     0.293 HD
ENDBRANCH  18  21
ENDBRANCH   3  13
BRANCH  10  23
ATOM     23  O   UNL     1       6.067   5.628 -18.336  1.00  0.00    -0.507 OA
ATOM     24  H   UNL     1       5.245   5.458 -18.918  1.00  0.00     0.293 HD
ENDBRANCH  10  23
BRANCH  11  25
ATOM     25  O   UNL     1       4.958   6.909 -13.792  1.00  0.00    -0.508 OA
ATOM     26  H   UNL     1       5.550   6.783 -12.963  1.00  0.00     0.293 HD
ENDBRANCH  11  25
ENDBRANCH   1   2
BRANCH   1  27
ATOM     27  C   UNL     1       7.188  10.228 -21.528  1.00  0.00     0.339 C 
ATOM     28  C   UNL     1       6.476   9.371 -22.612  1.00  0.00     0.214 C 
ATOM     29  O   UNL     1       7.477  11.488 -22.104  1.00  0.00    -0.332 OA
ATOM     30  C   UNL     1       7.061   9.627 -24.030  1.00  0.00     0.180 C 
ATOM     31  C   UNL     1       8.583  11.384 -22.987  1.00  0.00     0.179 C 
ATOM     32  C   UNL     1       8.502  10.149 -23.935  1.00  0.00     0.177 C 
BRANCH  28  33
ATOM     33  O   UNL     1       5.102   9.678 -22.615  1.00  0.00    -0.384 OA
ATOM     34  H   UNL     1       4.721   9.351 -21.771  1.00  0.00     0.211 HD
ENDBRANCH  28  33
BRANCH  30  35
ATOM     35  O   UNL     1       6.250  10.543 -24.723  1.00  0.00    -0.387 OA
ATOM     36  H   UNL     1       6.634  11.448 -24.558  1.00  0.00     0.211 HD
ENDBRANCH  30  35
BRANCH  31  37
ATOM     37  C   UNL     1       8.701  12.704 -23.772  1.00  0.00     0.191 C 
BRANCH  37  38
ATOM     38  O   UNL     1       8.434  12.501 -25.142  1.00  0.00    -0.394 OA
ATOM     39  H   UNL     1       7.941  11.646 -25.209  1.00  0.00     0.210 HD
ENDBRANCH  37  38
ENDBRANCH  31  37
BRANCH  32  40
ATOM     40  O   UNL     1       9.300   9.114 -23.408  1.00  0.00    -0.387 OA
ATOM     41  H   UNL     1       9.863   9.480 -22.675  1.00  0.00     0.211 HD
ENDBRANCH  32  40
ENDBRANCH   1  27
TORSDOF 12
ENDMDL
MODEL 3
REMARK VINA RESULT:    -6.787      1.639      4.174
REMARK INTER + INTRA:         -11.646
REMARK INTER:                 -10.165
REMARK INTRA:                  -1.481
REMARK UNBOUND:                -1.685
REMARK SMILES O=c1c(O[C@@H]2O[C@H](CO)[C@@H](O)[C@H](O)[C@@H]2O)c(-c2ccc(O)c(O)c2)oc2cc(O)cc(O)c12
REMARK SMILES IDX 4 1 3 2 16 3 25 4 2 5 26 6 1 7 33 8 27 9 31 10 28 11 30 12
REMARK SMILES IDX 17 13 18 14 19 15 20 16 24 17 22 18 21 19 23 21 32 23 29 25
REMARK SMILES IDX 5 27 14 28 6 29 12 30 7 31 10 32 15 33 13 35 8 37 9 38 11 40
REMARK H PARENT 21 20 23 22 32 24 29 26 15 34 13 36 9 39 11 41
REMARK Flexibility Score: inf
ROOT
ATOM      1  O   UNL     1       5.727   9.077 -19.826  1.00  0.00    -0.454 OA
ENDROOT
BRANCH   1   2
ATOM      2  C   UNL     1       6.318   7.831 -19.538  1.00  0.00     0.214 A 
ATOM      3  C   UNL     1       7.258   7.642 -18.495  1.00  0.00     0.180 A 
ATOM      4  O   UNL     1       7.354   6.432 -17.922  1.00  0.00    -0.452 OA
ATOM      5  C   UNL     1       5.975   6.715 -20.305  1.00  0.00     0.239 A 
ATOM      6  C   UNL     1       6.743   5.356 -18.444  1.00  0.00     0.146 A 
ATOM      7  O   UNL     1       5.553   6.876 -21.490  1.00  0.00    -0.285 OA
ATOM      8  C   UNL     1       6.158   5.443 -19.752  1.00  0.00     0.111 A 
ATOM      9  C   UNL     1       6.674   4.147 -17.729  1.00  0.00     0.094 A 
ATOM     10  C   UNL     1       5.703   4.277 -20.391  1.00  0.00     0.134 A 
ATOM     11  C   UNL     1       6.061   3.031 -18.327  1.00  0.00     0.123 A 
ATOM     12  C   UNL     1       5.646   3.081 -19.666  1.00  0.00     0.093 A 
BRANCH   3  13
ATOM     13  C   UNL     1       8.342   8.647 -18.318  1.00  0.00     0.025 A 
ATOM     14  C   UNL     1       9.473   8.497 -19.143  1.00  0.00     0.016 A 
ATOM     15  C   UNL     1      10.166   9.632 -19.587  1.00  0.00     0.051 A 
ATOM     16  C   UNL     1       9.735  10.910 -19.233  1.00  0.00     0.157 A 
ATOM     17  C   UNL     1       8.085   9.908 -17.783  1.00  0.00     0.062 A 
ATOM     18  C   UNL     1       8.696  11.056 -18.308  1.00  0.00     0.158 A 
BRANCH  16  19
ATOM     19  O   UNL     1      10.318  12.039 -19.801  1.00  0.00    -0.504 OA
ATOM     20  H   UNL     1      10.535  12.860 -19.242  1.00  0.00     0.293 HD
ENDBRANCH  16  19
BRANCH  18  21
ATOM     21  O   UNL     1       8.235  12.337 -18.011  1.00  0.00    -0.504 OA
ATOM     22  H   UNL     1       7.478  12.545 -17.362  1.00  0.00     0.293 HD
ENDBRANCH  18  21
ENDBRANCH   3  13
BRANCH  10  23
ATOM     23  O   UNL     1       5.285   4.305 -21.737  1.00  0.00    -0.507 OA
ATOM     24  H   UNL     1       5.875   3.905 -22.470  1.00  0.00     0.293 HD
ENDBRANCH  10  23
BRANCH  11  25
ATOM     25  O   UNL     1       5.775   1.882 -17.565  1.00  0.00    -0.508 OA
ATOM     26  H   UNL     1       5.224   1.138 -18.009  1.00  0.00     0.293 HD
ENDBRANCH  11  25
ENDBRANCH   1   2
BRANCH   1  27
ATOM     27  C   UNL     1       5.924   9.781 -21.070  1.00  0.00     0.339 C 
ATOM     28  C   UNL     1       5.499  11.272 -20.968  1.00  0.00     0.214 C 
ATOM     29  O   UNL     1       7.283   9.751 -21.464  1.00  0.00    -0.332 OA
ATOM     30  C   UNL     1       6.161  12.141 -22.076  1.00  0.00     0.180 C 
ATOM     31  C   UNL     1       7.403  10.054 -22.845  1.00  0.00     0.179 C 
ATOM     32  C   UNL     1       6.542  11.276 -23.286  1.00  0.00     0.177 C 
BRANCH  28  33
ATOM     33  O   UNL     1       5.869  11.773 -19.705  1.00  0.00    -0.384 OA
ATOM     34  H   UNL     1       5.443  11.209 -19.023  1.00  0.00     0.211 HD
ENDBRANCH  28  33
BRANCH  30  35
ATOM     35  O   UNL     1       7.295  12.792 -21.559  1.00  0.00    -0.387 OA
ATOM     36  H   UNL     1       8.031  12.120 -21.548  1.00  0.00     0.211 HD
ENDBRANCH  30  35
BRANCH  31  37
ATOM     37  C   UNL     1       8.895  10.256 -23.168  1.00  0.00     0.191 C 
BRANCH  37  38
ATOM     38  O   UNL     1       9.465   9.070 -23.676  1.00  0.00    -0.394 OA
ATOM     39  H   UNL     1       9.887   9.307 -24.539  1.00  0.00     0.210 HD
ENDBRANCH  37  38
ENDBRANCH  31  37
BRANCH  32  40
ATOM     40  O   UNL     1       5.349  10.808 -23.872  1.00  0.00    -0.387 OA
ATOM     41  H   UNL     1       4.806  11.586 -24.170  1.00  0.00     0.211 HD
ENDBRANCH  32  40
ENDBRANCH   1  27
TORSDOF 12
ENDMDL
MODEL 4
REMARK VINA RESULT:    -6.732      2.115      7.336
REMARK INTER + INTRA:         -11.565
REMARK INTER:                  -9.907
REMARK INTRA:                  -1.658
REMARK UNBOUND:                -1.685
REMARK SMILES O=c1c(O[C@@H]2O[C@H](CO)[C@@H](O)[C@H](O)[C@@H]2O)c(-c2ccc(O)c(O)c2)oc2cc(O)cc(O)c12
REMARK SMILES IDX 4 1 3 2 16 3 25 4 2 5 26 6 1 7 33 8 27 9 31 10 28 11 30 12
REMARK SMILES IDX 17 13 18 14 19 15 20 16 24 17 22 18 21 19 23 21 32 23 29 25
REMARK SMILES IDX 5 27 14 28 6 29 12 30 7 31 10 32 15 33 13 35 8 37 9 38 11 40
REMARK H PARENT 21 20 23 22 32 24 29 26 15 34 13 36 9 39 11 41
REMARK Flexibility Score: inf
ROOT
ATOM      1  O   UNL     1       8.797  10.901 -18.797  1.00  0.00    -0.454 OA
ENDROOT
BRANCH   1   2
ATOM      2  C   UNL     1       8.281  11.887 -19.660  1.00  0.00     0.214 A 
ATOM      3  C   UNL     1       6.926  12.303 -19.640  1.00  0.00     0.180 A 
ATOM      4  O   UNL     1       6.626  13.549 -20.040  1.00  0.00    -0.452 OA
ATOM      5  C   UNL     1       9.127  12.498 -20.589  1.00  0.00     0.239 A 
ATOM      6  C   UNL     1       7.532  14.329 -20.651  1.00  0.00     0.146 A 
ATOM      7  O   UNL     1      10.160  11.884 -20.994  1.00  0.00    -0.285 OA
ATOM      8  C   UNL     1       8.776  13.759 -21.084  1.00  0.00     0.111 A 
ATOM      9  C   UNL     1       7.276  15.693 -20.875  1.00  0.00     0.094 A 
ATOM     10  C   UNL     1       9.638  14.507 -21.904  1.00  0.00     0.134 A 
ATOM     11  C   UNL     1       8.233  16.468 -21.555  1.00  0.00     0.123 A 
ATOM     12  C   UNL     1       9.365  15.862 -22.120  1.00  0.00     0.093 A 
BRANCH   3  13
ATOM     13  C   UNL     1       5.862  11.268 -19.536  1.00  0.00     0.025 A 
ATOM     14  C   UNL     1       5.726  10.400 -20.637  1.00  0.00     0.016 A 
ATOM     15  C   UNL     1       5.337   9.069 -20.430  1.00  0.00     0.051 A 
ATOM     16  C   UNL     1       5.101   8.591 -19.142  1.00  0.00     0.157 A 
ATOM     17  C   UNL     1       5.384  10.837 -18.301  1.00  0.00     0.062 A 
ATOM     18  C   UNL     1       5.105   9.483 -18.064  1.00  0.00     0.158 A 
BRANCH  16  19
ATOM     19  O   UNL     1       4.875   7.236 -18.917  1.00  0.00    -0.504 OA
ATOM     20  H   UNL     1       4.581   6.618 -19.668  1.00  0.00     0.293 HD
ENDBRANCH  16  19
BRANCH  18  21
ATOM     21  O   UNL     1       4.928   8.981 -16.776  1.00  0.00    -0.504 OA
ATOM     22  H   UNL     1       4.103   8.475 -16.458  1.00  0.00     0.293 HD
ENDBRANCH  18  21
ENDBRANCH   3  13
BRANCH  10  23
ATOM     23  O   UNL     1      10.779  13.917 -22.485  1.00  0.00    -0.507 OA
ATOM     24  H   UNL     1      11.670  14.417 -22.496  1.00  0.00     0.293 HD
ENDBRANCH  10  23
BRANCH  11  25
ATOM     25  O   UNL     1       8.115  17.870 -21.598  1.00  0.00    -0.508 OA
ATOM     26  H   UNL     1       8.041  18.373 -20.706  1.00  0.00     0.293 HD
ENDBRANCH  11  25
ENDBRANCH   1   2
BRANCH   1  27
ATOM     27  C   UNL     1       8.720   9.486 -19.072  1.00  0.00     0.339 C 
ATOM     28  C   UNL     1      10.039   8.940 -19.686  1.00  0.00     0.214 C 
ATOM     29  O   UNL     1       8.464   8.751 -17.890  1.00  0.00    -0.332 OA
ATOM     30  C   UNL     1      10.167   7.400 -19.509  1.00  0.00     0.180 C 
ATOM     31  C   UNL     1       7.976   7.457 -18.210  1.00  0.00     0.179 C 
ATOM     32  C   UNL     1       8.782   6.757 -19.346  1.00  0.00     0.177 C 
BRANCH  28  33
ATOM     33  O   UNL     1      11.134   9.570 -19.065  1.00  0.00    -0.384 OA
ATOM     34  H   UNL     1      11.806   9.753 -19.756  1.00  0.00     0.211 HD
ENDBRANCH  28  33
BRANCH  30  35
ATOM     35  O   UNL     1      10.977   7.113 -18.396  1.00  0.00    -0.387 OA
ATOM     36  H   UNL     1      10.369   7.031 -17.612  1.00  0.00     0.211 HD
ENDBRANCH  30  35
BRANCH  31  37
ATOM     37  C   UNL     1       7.951   6.616 -16.920  1.00  0.00     0.191 C 
BRANCH  37  38
ATOM     38  O   UNL     1       6.640   6.512 -16.413  1.00  0.00    -0.394 OA
ATOM     39  H   UNL     1       6.562   7.185 -15.692  1.00  0.00     0.210 HD
ENDBRANCH  37  38
ENDBRANCH  31  37
BRANCH  32  40
ATOM     40  O   UNL     1       8.089   6.915 -20.563  1.00  0.00    -0.387 OA
ATOM     41  H   UNL     1       8.186   6.085 -21.101  1.00  0.00     0.211 HD
ENDBRANCH  32  40
ENDBRANCH   1  27
TORSDOF 12
ENDMDL
MODEL 5
REMARK VINA RESULT:    -6.486      2.298      3.068
REMARK INTER + INTRA:         -11.204
REMARK INTER:                  -9.780
REMARK INTRA:                  -1.424
REMARK UNBOUND:                -1.685
REMARK SMILES O=c1c(O[C@@H]2O[C@H](CO)[C@@H](O)[C@H](O)[C@@H]2O)c(-c2ccc(O)c(O)c2)oc2cc(O)cc(O)c12
REMARK SMILES IDX 4 1 3 2 16 3 25 4 2 5 26 6 1 7 33 8 27 9 31 10 28 11 30 12
REMARK SMILES IDX 17 13 18 14 19 15 20 16 24 17 22 18 21 19 23 21 32 23 29 25
REMARK SMILES IDX 5 27 14 28 6 29 12 30 7 31 10 32 15 33 13 35 8 37 9 38 11 40
REMARK H PARENT 21 20 23 22 32 24 29 26 15 34 13 36 9 39 11 41
REMARK Flexibility Score: inf
ROOT
ATOM      1  O   UNL     1       8.441  10.280 -20.526  1.00  0.00    -0.454 OA
ENDROOT
BRANCH   1   2
ATOM      2  C   UNL     1       7.437   9.879 -19.624  1.00  0.00     0.214 A 
ATOM      3  C   UNL     1       6.376   9.010 -19.982  1.00  0.00     0.180 A 
ATOM      4  O   UNL     1       5.814   8.249 -19.029  1.00  0.00    -0.452 OA
ATOM      5  C   UNL     1       7.469  10.347 -18.308  1.00  0.00     0.239 A 
ATOM      6  C   UNL     1       6.082   8.439 -17.727  1.00  0.00     0.146 A 
ATOM      7  O   UNL     1       8.051  11.443 -18.048  1.00  0.00    -0.285 OA
ATOM      8  C   UNL     1       6.806   9.610 -17.321  1.00  0.00     0.111 A 
ATOM      9  C   UNL     1       5.658   7.511 -16.760  1.00  0.00     0.094 A 
ATOM     10  C   UNL     1       6.911   9.926 -15.956  1.00  0.00     0.134 A 
ATOM     11  C   UNL     1       5.923   7.767 -15.402  1.00  0.00     0.123 A 
ATOM     12  C   UNL     1       6.480   8.993 -15.006  1.00  0.00     0.093 A 
BRANCH   3  13
ATOM     13  C   UNL     1       5.681   9.226 -21.280  1.00  0.00     0.025 A 
ATOM     14  C   UNL     1       5.168  10.518 -21.506  1.00  0.00     0.016 A 
ATOM     15  C   UNL     1       5.151  11.043 -22.806  1.00  0.00     0.051 A 
ATOM     16  C   UNL     1       5.654  10.304 -23.876  1.00  0.00     0.157 A 
ATOM     17  C   UNL     1       5.944   8.424 -22.389  1.00  0.00     0.062 A 
ATOM     18  C   UNL     1       6.040   8.974 -23.676  1.00  0.00     0.158 A 
BRANCH  16  19
ATOM     19  O   UNL     1       5.790  10.880 -25.136  1.00  0.00    -0.504 OA
ATOM     20  H   UNL     1       5.052  11.451 -25.539  1.00  0.00     0.293 HD
ENDBRANCH  16  19
BRANCH  18  21
ATOM     21  O   UNL     1       6.599   8.268 -24.740  1.00  0.00    -0.504 OA
ATOM     22  H   UNL     1       6.111   7.562 -25.287  1.00  0.00     0.293 HD
ENDBRANCH  18  21
ENDBRANCH   3  13
BRANCH  10  23
ATOM     23  O   UNL     1       7.464  11.153 -15.536  1.00  0.00    -0.507 OA
ATOM     24  H   UNL     1       8.132  11.181 -14.764  1.00  0.00     0.293 HD
ENDBRANCH  10  23
BRANCH  11  25
ATOM     25  O   UNL     1       5.717   6.765 -14.435  1.00  0.00    -0.508 OA
ATOM     26  H   UNL     1       6.069   5.823 -14.639  1.00  0.00     0.293 HD
ENDBRANCH  11  25
ENDBRANCH   1   2
BRANCH   1  27
ATOM     27  C   UNL     1       8.410  11.531 -21.245  1.00  0.00     0.339 C 
ATOM     28  C   UNL     1       9.280  12.619 -20.557  1.00  0.00     0.214 C 
ATOM     29  O   UNL     1       8.891  11.373 -22.566  1.00  0.00    -0.332 OA
ATOM     30  C   UNL     1       9.671  13.758 -21.542  1.00  0.00     0.180 C 
ATOM     31  C   UNL     1       8.473  12.460 -23.377  1.00  0.00     0.179 C 
ATOM     32  C   UNL     1       8.659  13.848 -22.694  1.00  0.00     0.177 C 
BRANCH  28  33
ATOM     33  O   UNL     1      10.451  12.023 -20.052  1.00  0.00    -0.384 OA
ATOM     34  H   UNL     1      11.124  12.031 -20.766  1.00  0.00     0.211 HD
ENDBRANCH  28  33
BRANCH  30  35
ATOM     35  O   UNL     1      10.966  13.535 -22.041  1.00  0.00    -0.387 OA
ATOM     36  H   UNL     1      11.244  14.374 -22.501  1.00  0.00     0.211 HD
ENDBRANCH  30  35
BRANCH  31  37
ATOM     37  C   UNL     1       9.219  12.376 -24.722  1.00  0.00     0.191 C 
BRANCH  37  38
ATOM     38  O   UNL     1       8.314  12.403 -25.803  1.00  0.00    -0.394 OA
ATOM     39  H   UNL     1       8.490  11.590 -26.338  1.00  0.00     0.210 HD
ENDBRANCH  37  38
ENDBRANCH  31  37
BRANCH  32  40
ATOM     40  O   UNL     1       7.425  14.260 -22.151  1.00  0.00    -0.387 OA
ATOM     41  H   UNL     1       6.995  13.486 -21.699  1.00  0.00     0.211 HD
ENDBRANCH  32  40
ENDBRANCH   1  27
TORSDOF 12
ENDMDL
MODEL 6
REMARK VINA RESULT:    -6.418      2.516      4.535
REMARK INTER + INTRA:         -11.104
REMARK INTER:                  -9.360
REMARK INTRA:                  -1.745
REMARK UNBOUND:                -1.685
REMARK SMILES O=c1c(O[C@@H]2O[C@H](CO)[C@@H](O)[C@H](O)[C@@H]2O)c(-c2ccc(O)c(O)c2)oc2cc(O)cc(O)c12
REMARK SMILES IDX 4 1 3 2 16 3 25 4 2 5 26 6 1 7 33 8 27 9 31 10 28 11 30 12
REMARK SMILES IDX 17 13 18 14 19 15 20 16 24 17 22 18 21 19 23 21 32 23 29 25
REMARK SMILES IDX 5 27 14 28 6 29 12 30 7 31 10 32 15 33 13 35 8 37 9 38 11 40
REMARK H PARENT 21 20 23 22 32 24 29 26 15 34 13 36 9 39 11 41
REMARK Flexibility Score: inf
ROOT
ATOM      1  O   UNL     1       7.698  13.076 -19.128  1.00  0.00    -0.454 OA
ENDROOT
BRANCH   1   2
ATOM      2  C   UNL     1       7.823  11.678 -19.250  1.00  0.00     0.214 A 
ATOM      3  C   UNL     1       8.902  11.052 -19.923  1.00  0.00     0.180 A 
ATOM      4  O   UNL     1       9.265   9.815 -19.550  1.00  0.00    -0.452 OA
ATOM      5  C   UNL     1       6.848  10.850 -18.688  1.00  0.00     0.239 A 
ATOM      6  C   UNL     1       8.512   9.082 -18.714  1.00  0.00     0.146 A 
ATOM      7  O   UNL     1       5.673  11.296 -18.513  1.00  0.00    -0.285 OA
ATOM      8  C   UNL     1       7.190   9.529 -18.381  1.00  0.00     0.111 A 
ATOM      9  C   UNL     1       9.001   7.882 -18.167  1.00  0.00     0.094 A 
ATOM     10  C   UNL     1       6.321   8.675 -17.680  1.00  0.00     0.134 A 
ATOM     11  C   UNL     1       8.166   7.122 -17.328  1.00  0.00     0.123 A 
ATOM     12  C   UNL     1       6.822   7.483 -17.147  1.00  0.00     0.093 A 
BRANCH   3  13
ATOM     13  C   UNL     1       9.348  11.607 -21.230  1.00  0.00     0.025 A 
ATOM     14  C   UNL     1       8.552  11.289 -22.347  1.00  0.00     0.016 A 
ATOM     15  C   UNL     1       8.412  12.217 -23.388  1.00  0.00     0.051 A 
ATOM     16  C   UNL     1       9.038  13.460 -23.320  1.00  0.00     0.157 A 
ATOM     17  C   UNL     1      10.153  12.742 -21.301  1.00  0.00     0.062 A 
ATOM     18  C   UNL     1       9.934  13.725 -22.277  1.00  0.00     0.158 A 
BRANCH  16  19
ATOM     19  O   UNL     1       8.772  14.444 -24.268  1.00  0.00    -0.504 OA
ATOM     20  H   UNL     1       8.369  14.212 -25.171  1.00  0.00     0.293 HD
ENDBRANCH  16  19
BRANCH  18  21
ATOM     21  O   UNL     1      10.504  14.994 -22.187  1.00  0.00    -0.504 OA
ATOM     22  H   UNL     1      11.411  15.193 -21.769  1.00  0.00     0.293 HD
ENDBRANCH  18  21
ENDBRANCH   3  13
BRANCH  10  23
ATOM     23  O   UNL     1       4.966   9.017 -17.490  1.00  0.00    -0.507 OA
ATOM     24  H   UNL     1       4.431   8.602 -16.725  1.00  0.00     0.293 HD
ENDBRANCH  10  23
BRANCH  11  25
ATOM     25  O   UNL     1       8.690   6.044 -16.589  1.00  0.00    -0.508 OA
ATOM     26  H   UNL     1       9.380   6.254 -15.858  1.00  0.00     0.293 HD
ENDBRANCH  11  25
ENDBRANCH   1   2
BRANCH   1  27
ATOM     27  C   UNL     1       6.873  13.879 -19.998  1.00  0.00     0.339 C 
ATOM     28  C   UNL     1       5.524  14.264 -19.328  1.00  0.00     0.214 C 
ATOM     29  O   UNL     1       7.528  15.081 -20.357  1.00  0.00    -0.332 OA
ATOM     30  C   UNL     1       4.875  15.506 -20.003  1.00  0.00     0.180 C 
ATOM     31  C   UNL     1       6.924  15.646 -21.510  1.00  0.00     0.179 C 
ATOM     32  C   UNL     1       5.366  15.654 -21.450  1.00  0.00     0.177 C 
BRANCH  28  33
ATOM     33  O   UNL     1       5.748  14.541 -17.966  1.00  0.00    -0.384 OA
ATOM     34  H   UNL     1       5.790  13.684 -17.489  1.00  0.00     0.211 HD
ENDBRANCH  28  33
BRANCH  30  35
ATOM     35  O   UNL     1       5.172  16.663 -19.261  1.00  0.00    -0.387 OA
ATOM     36  H   UNL     1       6.126  16.884 -19.445  1.00  0.00     0.211 HD
ENDBRANCH  30  35
BRANCH  31  37
ATOM     37  C   UNL     1       7.498  17.061 -21.713  1.00  0.00     0.191 C 
BRANCH  37  38
ATOM     38  O   UNL     1       8.252  17.132 -22.903  1.00  0.00    -0.394 OA
ATOM     39  H   UNL     1       8.050  18.010 -23.312  1.00  0.00     0.210 HD
ENDBRANCH  37  38
ENDBRANCH  31  37
BRANCH  32  40
ATOM     40  O   UNL     1       4.875  14.556 -22.185  1.00  0.00    -0.387 OA
ATOM     41  H   UNL     1       4.524  13.873 -21.554  1.00  0.00     0.211 HD
ENDBRANCH  32  40
ENDBRANCH   1  27
TORSDOF 12
ENDMDL
MODEL 7
REMARK VINA RESULT:    -6.339      1.047      1.948
REMARK INTER + INTRA:         -10.989
REMARK INTER:                  -9.517
REMARK INTRA:                  -1.472
REMARK UNBOUND:                -1.685
REMARK SMILES O=c1c(O[C@@H]2O[C@H](CO)[C@@H](O)[C@H](O)[C@@H]2O)c(-c2ccc(O)c(O)c2)oc2cc(O)cc(O)c12
REMARK SMILES IDX 4 1 3 2 16 3 25 4 2 5 26 6 1 7 33 8 27 9 31 10 28 11 30 12
REMARK SMILES IDX 17 13 18 14 19 15 20 16 24 17 22 18 21 19 23 21 32 23 29 25
REMARK SMILES IDX 5 27 14 28 6 29 12 30 7 31 10 32 15 33 13 35 8 37 9 38 11 40
REMARK H PARENT 21 20 23 22 32 24 29 26 15 34 13 36 9 39 11 41
REMARK Flexibility Score: inf
ROOT
ATOM      1  O   UNL     1       8.288   8.511 -21.186  1.00  0.00    -0.454 OA
ENDROOT
BRANCH   1   2
ATOM      2  C   UNL     1       7.374   7.763 -20.418  1.00  0.00     0.214 A 
ATOM      3  C   UNL     1       6.023   7.565 -20.799  1.00  0.00     0.180 A 
ATOM      4  O   UNL     1       5.389   6.458 -20.379  1.00  0.00    -0.452 OA
ATOM      5  C   UNL     1       7.798   7.180 -19.221  1.00  0.00     0.239 A 
ATOM      6  C   UNL     1       5.923   5.651 -19.448  1.00  0.00     0.146 A 
ATOM      7  O   UNL     1       8.778   7.682 -18.593  1.00  0.00    -0.285 OA
ATOM      8  C   UNL     1       7.086   6.082 -18.725  1.00  0.00     0.111 A 
ATOM      9  C   UNL     1       5.357   4.395 -19.171  1.00  0.00     0.094 A 
ATOM     10  C   UNL     1       7.529   5.346 -17.613  1.00  0.00     0.134 A 
ATOM     11  C   UNL     1       5.922   3.596 -18.160  1.00  0.00     0.123 A 
ATOM     12  C   UNL     1       6.950   4.099 -17.348  1.00  0.00     0.093 A 
BRANCH   3  13
ATOM     13  C   UNL     1       5.249   8.724 -21.321  1.00  0.00     0.025 A 
ATOM     14  C   UNL     1       4.933   9.734 -20.392  1.00  0.00     0.016 A 
ATOM     15  C   UNL     1       4.875  11.071 -20.809  1.00  0.00     0.051 A 
ATOM     16  C   UNL     1       5.145  11.413 -22.133  1.00  0.00     0.157 A 
ATOM     17  C   UNL     1       5.269   9.062 -22.673  1.00  0.00     0.062 A 
ATOM     18  C   UNL     1       5.327  10.402 -23.084  1.00  0.00     0.158 A 
BRANCH  16  19
ATOM     19  O   UNL     1       5.249  12.747 -22.516  1.00  0.00    -0.504 OA
ATOM     20  H   UNL     1       5.274  13.015 -23.496  1.00  0.00     0.293 HD
ENDBRANCH  16  19
BRANCH  18  21
ATOM     21  O   UNL     1       5.657  10.759 -24.390  1.00  0.00    -0.504 OA
ATOM     22  H   UNL     1       5.594  11.703 -24.767  1.00  0.00     0.293 HD
ENDBRANCH  18  21
ENDBRANCH   3  13
BRANCH  10  23
ATOM     23  O   UNL     1       8.558   5.835 -16.783  1.00  0.00    -0.507 OA
ATOM     24  H   UNL     1       8.540   5.653 -15.777  1.00  0.00     0.293 HD
ENDBRANCH  10  23
BRANCH  11  25
ATOM     25  O   UNL     1       5.527   2.253 -18.009  1.00  0.00    -0.508 OA
ATOM     26  H   UNL     1       4.789   2.045 -17.325  1.00  0.00     0.293 HD
ENDBRANCH  11  25
ENDBRANCH   1   2
BRANCH   1  27
ATOM     27  C   UNL     1       8.849   9.767 -20.750  1.00  0.00     0.339 C 
ATOM     28  C   UNL     1       9.343  10.629 -21.946  1.00  0.00     0.214 C 
ATOM     29  O   UNL     1       7.896  10.533 -20.039  1.00  0.00    -0.332 OA
ATOM     30  C   UNL     1       9.461  12.133 -21.567  1.00  0.00     0.180 C 
ATOM     31  C   UNL     1       8.543  11.534 -19.268  1.00  0.00     0.179 C 
ATOM     32  C   UNL     1       9.653  12.297 -20.053  1.00  0.00     0.177 C 
BRANCH  28  33
ATOM     33  O   UNL     1       8.442  10.491 -23.018  1.00  0.00    -0.384 OA
ATOM     34  H   UNL     1       8.836   9.862 -23.661  1.00  0.00     0.211 HD
ENDBRANCH  28  33
BRANCH  30  35
ATOM     35  O   UNL     1       8.314  12.825 -21.996  1.00  0.00    -0.387 OA
ATOM     36  H   UNL     1       8.419  13.768 -21.693  1.00  0.00     0.211 HD
ENDBRANCH  30  35
BRANCH  31  37
ATOM     37  C   UNL     1       7.468  12.490 -18.717  1.00  0.00     0.191 C 
BRANCH  37  38
ATOM     38  O   UNL     1       7.815  13.834 -18.965  1.00  0.00    -0.394 OA
ATOM     39  H   UNL     1       8.540  13.818 -19.639  1.00  0.00     0.210 HD
ENDBRANCH  37  38
ENDBRANCH  31  37
BRANCH  32  40
ATOM     40  O   UNL     1      10.908  11.751 -19.717  1.00  0.00    -0.387 OA
ATOM     41  H   UNL     1      10.793  11.112 -18.964  1.00  0.00     0.211 HD
ENDBRANCH  32  40
ENDBRANCH   1  27
TORSDOF 12
ENDMDL
MODEL 8
REMARK VINA RESULT:    -6.074      2.923      7.091
REMARK INTER + INTRA:         -10.600
REMARK INTER:                  -9.549
REMARK INTRA:                  -1.051
REMARK UNBOUND:                -1.685
REMARK SMILES O=c1c(O[C@@H]2O[C@H](CO)[C@@H](O)[C@H](O)[C@@H]2O)c(-c2ccc(O)c(O)c2)oc2cc(O)cc(O)c12
REMARK SMILES IDX 4 1 3 2 16 3 25 4 2 5 26 6 1 7 33 8 27 9 31 10 28 11 30 12
REMARK SMILES IDX 17 13 18 14 19 15 20 16 24 17 22 18 21 19 23 21 32 23 29 25
REMARK SMILES IDX 5 27 14 28 6 29 12 30 7 31 10 32 15 33 13 35 8 37 9 38 11 40
REMARK H PARENT 21 20 23 22 32 24 29 26 15 34 13 36 9 39 11 41
REMARK Flexibility Score: inf
ROOT
ATOM      1  O   UNL     1       8.097  10.860 -20.683  1.00  0.00    -0.454 OA
ENDROOT
BRANCH   1   2
ATOM      2  C   UNL     1       7.743  12.019 -21.403  1.00  0.00     0.214 A 
ATOM      3  C   UNL     1       6.434  12.260 -21.888  1.00  0.00     0.180 A 
ATOM      4  O   UNL     1       6.028  13.530 -22.048  1.00  0.00    -0.452 OA
ATOM      5  C   UNL     1       8.714  12.990 -21.660  1.00  0.00     0.239 A 
ATOM      6  C   UNL     1       6.885  14.559 -21.964  1.00  0.00     0.146 A 
ATOM      7  O   UNL     1       9.938  12.657 -21.699  1.00  0.00    -0.285 OA
ATOM      8  C   UNL     1       8.296  14.299 -21.921  1.00  0.00     0.111 A 
ATOM      9  C   UNL     1       6.420  15.885 -21.922  1.00  0.00     0.094 A 
ATOM     10  C   UNL     1       9.206  15.364 -22.042  1.00  0.00     0.134 A 
ATOM     11  C   UNL     1       7.352  16.938 -21.875  1.00  0.00     0.123 A 
ATOM     12  C   UNL     1       8.725  16.677 -22.004  1.00  0.00     0.093 A 
BRANCH   3  13
ATOM     13  C   UNL     1       5.697  11.146 -22.543  1.00  0.00     0.025 A 
ATOM     14  C   UNL     1       6.036  10.875 -23.883  1.00  0.00     0.016 A 
ATOM     15  C   UNL     1       5.993   9.557 -24.360  1.00  0.00     0.051 A 
ATOM     16  C   UNL     1       5.635   8.509 -23.514  1.00  0.00     0.157 A 
ATOM     17  C   UNL     1       5.110  10.125 -21.798  1.00  0.00     0.062 A 
ATOM     18  C   UNL     1       5.170   8.790 -22.225  1.00  0.00     0.158 A 
BRANCH  16  19
ATOM     19  O   UNL     1       5.748   7.186 -23.934  1.00  0.00    -0.504 OA
ATOM     20  H   UNL     1       5.403   6.889 -24.843  1.00  0.00     0.293 HD
ENDBRANCH  16  19
BRANCH  18  21
ATOM     21  O   UNL     1       4.875   7.729 -21.370  1.00  0.00    -0.504 OA
ATOM     22  H   UNL     1       3.953   7.535 -20.984  1.00  0.00     0.293 HD
ENDBRANCH  18  21
ENDBRANCH   3  13
BRANCH  10  23
ATOM     23  O   UNL     1      10.589  15.124 -22.177  1.00  0.00    -0.507 OA
ATOM     24  H   UNL     1      10.939  14.532 -22.933  1.00  0.00     0.293 HD
ENDBRANCH  10  23
BRANCH  11  25
ATOM     25  O   UNL     1       6.928  18.254 -21.607  1.00  0.00    -0.508 OA
ATOM     26  H   UNL     1       5.921  18.421 -21.504  1.00  0.00     0.293 HD
ENDBRANCH  11  25
ENDBRANCH   1   2
BRANCH   1  27
ATOM     27  C   UNL     1       7.430  10.443 -19.473  1.00  0.00     0.339 C 
ATOM     28  C   UNL     1       8.439  10.101 -18.342  1.00  0.00     0.214 C 
ATOM     29  O   UNL     1       6.572  11.458 -18.987  1.00  0.00    -0.332 OA
ATOM     30  C   UNL     1       7.775  10.156 -16.936  1.00  0.00     0.180 C 
ATOM     31  C   UNL     1       5.628  10.913 -18.079  1.00  0.00     0.179 C 
ATOM     32  C   UNL     1       6.260   9.933 -17.045  1.00  0.00     0.177 C 
BRANCH  28  33
ATOM     33  O   UNL     1       9.509  11.016 -18.385  1.00  0.00    -0.384 OA
ATOM     34  H   UNL     1       9.849  11.121 -17.470  1.00  0.00     0.211 HD
ENDBRANCH  28  33
BRANCH  30  35
ATOM     35  O   UNL     1       8.048  11.393 -16.327  1.00  0.00    -0.387 OA
ATOM     36  H   UNL     1       9.039  11.463 -16.250  1.00  0.00     0.211 HD
ENDBRANCH  30  35
BRANCH  31  37
ATOM     37  C   UNL     1       4.889  12.076 -17.392  1.00  0.00     0.191 C 
BRANCH  37  38
ATOM     38  O   UNL     1       5.189  13.303 -18.019  1.00  0.00    -0.394 OA
ATOM     39  H   UNL     1       4.373  13.577 -18.507  1.00  0.00     0.210 HD
ENDBRANCH  37  38
ENDBRANCH  31  37
BRANCH  32  40
ATOM     40  O   UNL     1       6.050   8.609 -17.481  1.00  0.00    -0.387 OA
ATOM     41  H   UNL     1       5.833   8.617 -18.451  1.00  0.00     0.211 HD
ENDBRANCH  32  40
ENDBRANCH   1  27
TORSDOF 12
ENDMDL
MODEL 9
REMARK VINA RESULT:    -6.019      1.999      6.873
REMARK INTER + INTRA:         -10.518
REMARK INTER:                  -9.830
REMARK INTRA:                  -0.688
REMARK UNBOUND:                -1.685
REMARK SMILES O=c1c(O[C@@H]2O[C@H](CO)[C@@H](O)[C@H](O)[C@@H]2O)c(-c2ccc(O)c(O)c2)oc2cc(O)cc(O)c12
REMARK SMILES IDX 4 1 3 2 16 3 25 4 2 5 26 6 1 7 33 8 27 9 31 10 28 11 30 12
REMARK SMILES IDX 17 13 18 14 19 15 20 16 24 17 22 18 21 19 23 21 32 23 29 25
REMARK SMILES IDX 5 27 14 28 6 29 12 30 7 31 10 32 15 33 13 35 8 37 9 38 11 40
REMARK H PARENT 21 20 23 22 32 24 29 26 15 34 13 36 9 39 11 41
REMARK Flexibility Score: inf
ROOT
ATOM      1  O   UNL     1       6.199   9.332 -18.573  1.00  0.00    -0.454 OA
ENDROOT
BRANCH   1   2
ATOM      2  C   UNL     1       6.966   9.923 -19.595  1.00  0.00     0.214 A 
ATOM      3  C   UNL     1       6.450  10.209 -20.885  1.00  0.00     0.180 A 
ATOM      4  O   UNL     1       6.989  11.218 -21.588  1.00  0.00    -0.452 OA
ATOM      5  C   UNL     1       8.301  10.254 -19.348  1.00  0.00     0.239 A 
ATOM      6  C   UNL     1       8.125  11.819 -21.198  1.00  0.00     0.146 A 
ATOM      7  O   UNL     1       8.946   9.627 -18.455  1.00  0.00    -0.285 OA
ATOM      8  C   UNL     1       8.901  11.241 -20.138  1.00  0.00     0.111 A 
ATOM      9  C   UNL     1       8.564  13.003 -21.818  1.00  0.00     0.094 A 
ATOM     10  C   UNL     1      10.186  11.739 -19.864  1.00  0.00     0.134 A 
ATOM     11  C   UNL     1       9.780  13.580 -21.409  1.00  0.00     0.123 A 
ATOM     12  C   UNL     1      10.609  12.915 -20.493  1.00  0.00     0.093 A 
BRANCH   3  13
ATOM     13  C   UNL     1       5.609   9.184 -21.561  1.00  0.00     0.025 A 
ATOM     14  C   UNL     1       5.079   9.542 -22.816  1.00  0.00     0.016 A 
ATOM     15  C   UNL     1       4.911   8.563 -23.805  1.00  0.00     0.051 A 
ATOM     16  C   UNL     1       5.283   7.241 -23.565  1.00  0.00     0.157 A 
ATOM     17  C   UNL     1       5.737   7.828 -21.267  1.00  0.00     0.062 A 
ATOM     18  C   UNL     1       5.684   6.859 -22.280  1.00  0.00     0.158 A 
BRANCH  16  19
ATOM     19  O   UNL     1       5.272   6.301 -24.593  1.00  0.00    -0.504 OA
ATOM     20  H   UNL     1       4.427   6.107 -25.122  1.00  0.00     0.293 HD
ENDBRANCH  16  19
BRANCH  18  21
ATOM     21  O   UNL     1       6.111   5.549 -22.070  1.00  0.00    -0.504 OA
ATOM     22  H   UNL     1       6.902   5.284 -21.487  1.00  0.00     0.293 HD
ENDBRANCH  18  21
ENDBRANCH   3  13
BRANCH  10  23
ATOM     23  O   UNL     1      11.037  11.084 -18.950  1.00  0.00    -0.507 OA
ATOM     24  H   UNL     1      11.041  11.352 -17.964  1.00  0.00     0.293 HD
ENDBRANCH  10  23
BRANCH  11  25
ATOM     25  O   UNL     1      10.137  14.871 -21.842  1.00  0.00    -0.508 OA
ATOM     26  H   UNL     1      10.039  15.645 -21.174  1.00  0.00     0.293 HD
ENDBRANCH  11  25
ENDBRANCH   1   2
BRANCH   1  27
ATOM     27  C   UNL     1       6.613   8.152 -17.851  1.00  0.00     0.339 C 
ATOM     28  C   UNL     1       6.422   8.312 -16.317  1.00  0.00     0.214 C 
ATOM     29  O   UNL     1       5.870   7.018 -18.256  1.00  0.00    -0.332 OA
ATOM     30  C   UNL     1       6.364   6.937 -15.593  1.00  0.00     0.180 C 
ATOM     31  C   UNL     1       6.543   5.827 -17.878  1.00  0.00     0.179 C 
ATOM     32  C   UNL     1       7.084   5.861 -16.417  1.00  0.00     0.177 C 
BRANCH  28  33
ATOM     33  O   UNL     1       5.228   9.016 -16.071  1.00  0.00    -0.384 OA
ATOM     34  H   UNL     1       5.410   9.680 -15.371  1.00  0.00     0.211 HD
ENDBRANCH  28  33
BRANCH  30  35
ATOM     35  O   UNL     1       5.025   6.572 -15.368  1.00  0.00    -0.387 OA
ATOM     36  H   UNL     1       5.019   5.991 -14.558  1.00  0.00     0.211 HD
ENDBRANCH  30  35
BRANCH  31  37
ATOM     37  C   UNL     1       5.591   4.639 -18.111  1.00  0.00     0.191 C 
BRANCH  37  38
ATOM     38  O   UNL     1       5.560   4.278 -19.475  1.00  0.00    -0.394 OA
ATOM     39  H   UNL     1       4.637   4.443 -19.789  1.00  0.00     0.210 HD
ENDBRANCH  37  38
ENDBRANCH  31  37
BRANCH  32  40
ATOM     40  O   UNL     1       8.455   6.186 -16.445  1.00  0.00    -0.387 OA
ATOM     41  H   UNL     1       8.581   7.096 -16.064  1.00  0.00     0.211 HD
ENDBRANCH  32  40
ENDBRANCH   1  27
TORSDOF 12
ENDMDL
