MODEL 1
REMARK VINA RESULT:    -3.763      0.000      0.000
REMARK INTER + INTRA:          -4.292
REMARK INTER:                  -4.203
REMARK INTRA:                  -0.089
REMARK UNBOUND:                -0.089
REMARK SMILES CCc1ccc(O)cc1O
REMARK SMILES IDX 3 1 9 2 8 3 6 4 5 5 4 6 2 7 1 8 10 9 7 11
REMARK H PARENT 10 10 7 12
REMARK Flexibility Score: inf
ROOT
ATOM      1  C   UNL     1       6.638  11.370   7.927  1.00  0.00    -0.006 A 
ATOM      2  C   UNL     1       7.913  10.858   7.614  1.00  0.00     0.122 A 
ATOM      3  C   UNL     1       8.935  11.729   7.209  1.00  0.00     0.092 A 
ATOM      4  C   UNL     1       8.698  13.108   7.126  1.00  0.00     0.119 A 
ATOM      5  C   UNL     1       7.438  13.617   7.451  1.00  0.00     0.047 A 
ATOM      6  C   UNL     1       6.415  12.756   7.853  1.00  0.00     0.011 A 
ENDROOT
BRANCH   1   7
ATOM      7  C   UNL     1       5.529  10.460   8.395  1.00  0.00     0.036 C 
ATOM      8  C   UNL     1       4.243  10.735   7.623  1.00  0.00     0.009 C 
ENDBRANCH   1   7
BRANCH   2   9
ATOM      9  O   UNL     1       8.162   9.490   7.706  1.00  0.00    -0.508 OA
ATOM     10  H   UNL     1       7.870   8.845   6.980  1.00  0.00     0.293 HD
ENDBRANCH   2   9
BRANCH   4  11
ATOM     11  O   UNL     1       9.709  13.979   6.725  1.00  0.00    -0.508 OA
ATOM     12  H   UNL     1      10.677  13.820   6.979  1.00  0.00     0.293 HD
ENDBRANCH   4  11
TORSDOF 3
ENDMDL
MODEL 2
REMARK VINA RESULT:    -3.696      1.369      3.213
REMARK INTER + INTRA:          -4.218
REMARK INTER:                  -4.128
REMARK INTRA:                  -0.089
REMARK UNBOUND:                -0.089
REMARK SMILES CCc1ccc(O)cc1O
REMARK SMILES IDX 3 1 9 2 8 3 6 4 5 5 4 6 2 7 1 8 10 9 7 11
REMARK H PARENT 10 10 7 12
REMARK Flexibility Score: inf
ROOT
ATOM      1  C   UNL     1       7.666  12.594   7.624  1.00  0.00    -0.006 A 
ATOM      2  C   UNL     1       8.939  12.581   7.020  1.00  0.00     0.122 A 
ATOM      3  C   UNL     1       9.526  11.361   6.651  1.00  0.00     0.092 A 
ATOM      4  C   UNL     1       8.846  10.155   6.868  1.00  0.00     0.119 A 
ATOM      5  C   UNL     1       7.577  10.169   7.453  1.00  0.00     0.047 A 
ATOM      6  C   UNL     1       6.987  11.379   7.825  1.00  0.00     0.011 A 
ENDROOT
BRANCH   1   7
ATOM      7  C   UNL     1       6.999  13.893   8.003  1.00  0.00     0.036 C 
ATOM      8  C   UNL     1       5.522  13.873   7.624  1.00  0.00     0.009 C 
ENDBRANCH   1   7
BRANCH   2   9
ATOM      9  O   UNL     1       9.618  13.777   6.788  1.00  0.00    -0.508 OA
ATOM     10  H   UNL     1      10.560  13.790   6.416  1.00  0.00     0.293 HD
ENDBRANCH   2   9
BRANCH   4  11
ATOM     11  O   UNL     1       9.422   8.940   6.503  1.00  0.00    -0.508 OA
ATOM     12  H   UNL     1      10.316   8.899   6.029  1.00  0.00     0.293 HD
ENDBRANCH   4  11
TORSDOF 3
ENDMDL
MODEL 3
REMARK VINA RESULT:    -3.646      1.836      3.489
REMARK INTER + INTRA:          -4.162
REMARK INTER:                  -4.059
REMARK INTRA:                  -0.104
REMARK UNBOUND:                -0.089
REMARK SMILES CCc1ccc(O)cc1O
REMARK SMILES IDX 3 1 9 2 8 3 6 4 5 5 4 6 2 7 1 8 10 9 7 11
REMARK H PARENT 10 10 7 12
REMARK Flexibility Score: inf
ROOT
ATOM      1  C   UNL     1       8.265  11.478   7.461  1.00  0.00    -0.006 A 
ATOM      2  C   UNL     1       8.383  12.866   7.250  1.00  0.00     0.122 A 
ATOM      3  C   UNL     1       7.267  13.697   7.428  1.00  0.00     0.092 A 
ATOM      4  C   UNL     1       6.037  13.156   7.826  1.00  0.00     0.119 A 
ATOM      5  C   UNL     1       5.924  11.781   8.050  1.00  0.00     0.047 A 
ATOM      6  C   UNL     1       7.030  10.947   7.874  1.00  0.00     0.011 A 
ENDROOT
BRANCH   1   7
ATOM      7  C   UNL     1       9.455  10.564   7.307  1.00  0.00     0.036 C 
ATOM      8  C   UNL     1       9.502   9.970   5.904  1.00  0.00     0.009 C 
ENDBRANCH   1   7
BRANCH   2   9
ATOM      9  O   UNL     1       9.605  13.416   6.867  1.00  0.00    -0.508 OA
ATOM     10  H   UNL     1      10.124  13.059   6.072  1.00  0.00     0.293 HD
ENDBRANCH   2   9
BRANCH   4  11
ATOM     11  O   UNL     1       4.925  13.976   8.005  1.00  0.00    -0.508 OA
ATOM     12  H   UNL     1       3.985  13.598   8.014  1.00  0.00     0.293 HD
ENDBRANCH   4  11
TORSDOF 3
ENDMDL
MODEL 4
REMARK VINA RESULT:    -3.546      1.612      2.261
REMARK INTER + INTRA:          -4.050
REMARK INTER:                  -3.957
REMARK INTRA:                  -0.093
REMARK UNBOUND:                -0.089
REMARK SMILES CCc1ccc(O)cc1O
REMARK SMILES IDX 3 1 9 2 8 3 6 4 5 5 4 6 2 7 1 8 10 9 7 11
REMARK H PARENT 10 10 7 12
REMARK Flexibility Score: inf
ROOT
ATOM      1  C   UNL     1       6.635  11.339   8.001  1.00  0.00    -0.006 A 
ATOM      2  C   UNL     1       6.351  12.705   7.798  1.00  0.00     0.122 A 
ATOM      3  C   UNL     1       7.367  13.576   7.380  1.00  0.00     0.092 A 
ATOM      4  C   UNL     1       8.663  13.093   7.151  1.00  0.00     0.119 A 
ATOM      5  C   UNL     1       8.942  11.737   7.339  1.00  0.00     0.047 A 
ATOM      6  C   UNL     1       7.935  10.863   7.756  1.00  0.00     0.011 A 
ENDROOT
BRANCH   1   7
ATOM      7  C   UNL     1       5.554  10.375   8.420  1.00  0.00     0.036 C 
ATOM      8  C   UNL     1       5.537   9.152   7.509  1.00  0.00     0.009 C 
ENDBRANCH   1   7
BRANCH   2   9
ATOM      9  O   UNL     1       5.061  13.192   8.009  1.00  0.00    -0.508 OA
ATOM     10  H   UNL     1       4.601  13.790   7.333  1.00  0.00     0.293 HD
ENDBRANCH   2   9
BRANCH   4  11
ATOM     11  O   UNL     1       9.678  13.952   6.735  1.00  0.00    -0.508 OA
ATOM     12  H   UNL     1       9.477  14.795   6.210  1.00  0.00     0.293 HD
ENDBRANCH   4  11
TORSDOF 3
ENDMDL
MODEL 5
REMARK VINA RESULT:    -3.542      1.818      2.885
REMARK INTER + INTRA:          -4.046
REMARK INTER:                  -3.938
REMARK INTRA:                  -0.108
REMARK UNBOUND:                -0.089
REMARK SMILES CCc1ccc(O)cc1O
REMARK SMILES IDX 3 1 9 2 8 3 6 4 5 5 4 6 2 7 1 8 10 9 7 11
REMARK H PARENT 10 10 7 12
REMARK Flexibility Score: inf
ROOT
ATOM      1  C   UNL     1       7.400  10.675   7.714  1.00  0.00    -0.006 A 
ATOM      2  C   UNL     1       8.422  11.630   7.544  1.00  0.00     0.122 A 
ATOM      3  C   UNL     1       9.528  11.334   6.734  1.00  0.00     0.092 A 
ATOM      4  C   UNL     1       9.616  10.097   6.081  1.00  0.00     0.119 A 
ATOM      5  C   UNL     1       8.595   9.156   6.237  1.00  0.00     0.047 A 
ATOM      6  C   UNL     1       7.492   9.443   7.044  1.00  0.00     0.011 A 
ENDROOT
BRANCH   1   7
ATOM      7  C   UNL     1       6.185  10.979   8.555  1.00  0.00     0.036 C 
ATOM      8  C   UNL     1       5.006  11.382   7.677  1.00  0.00     0.009 C 
ENDBRANCH   1   7
BRANCH   2   9
ATOM      9  O   UNL     1       8.338  12.869   8.179  1.00  0.00    -0.508 OA
ATOM     10  H   UNL     1       7.512  13.146   8.698  1.00  0.00     0.293 HD
ENDBRANCH   2   9
BRANCH   4  11
ATOM     11  O   UNL     1      10.711   9.796   5.273  1.00  0.00    -0.508 OA
ATOM     12  H   UNL     1      11.608  10.247   5.409  1.00  0.00     0.293 HD
ENDBRANCH   4  11
TORSDOF 3
ENDMDL
MODEL 6
REMARK VINA RESULT:    -3.438      1.808      2.725
REMARK INTER + INTRA:          -3.929
REMARK INTER:                  -3.843
REMARK INTRA:                  -0.086
REMARK UNBOUND:                -0.089
REMARK SMILES CCc1ccc(O)cc1O
REMARK SMILES IDX 3 1 9 2 8 3 6 4 5 5 4 6 2 7 1 8 10 9 7 11
REMARK H PARENT 10 10 7 12
REMARK Flexibility Score: inf
ROOT
ATOM      1  C   UNL     1       5.283  12.072   7.766  1.00  0.00    -0.006 A 
ATOM      2  C   UNL     1       5.902  13.336   7.702  1.00  0.00     0.122 A 
ATOM      3  C   UNL     1       7.301  13.428   7.656  1.00  0.00     0.092 A 
ATOM      4  C   UNL     1       8.087  12.267   7.662  1.00  0.00     0.119 A 
ATOM      5  C   UNL     1       7.473  11.013   7.711  1.00  0.00     0.047 A 
ATOM      6  C   UNL     1       6.080  10.913   7.758  1.00  0.00     0.011 A 
ENDROOT
BRANCH   1   7
ATOM      7  C   UNL     1       3.780  11.942   7.785  1.00  0.00     0.036 C 
ATOM      8  C   UNL     1       3.361  10.485   7.629  1.00  0.00     0.009 C 
ENDBRANCH   1   7
BRANCH   2   9
ATOM      9  O   UNL     1       5.129  14.496   7.683  1.00  0.00    -0.508 OA
ATOM     10  H   UNL     1       5.052  15.098   8.495  1.00  0.00     0.293 HD
ENDBRANCH   2   9
BRANCH   4  11
ATOM     11  O   UNL     1       9.477  12.350   7.616  1.00  0.00    -0.508 OA
ATOM     12  H   UNL     1       9.948  13.203   7.334  1.00  0.00     0.293 HD
ENDBRANCH   4  11
TORSDOF 3
ENDMDL
MODEL 7
REMARK VINA RESULT:    -3.346      2.052      2.478
REMARK INTER + INTRA:          -3.826
REMARK INTER:                  -3.741
REMARK INTRA:                  -0.085
REMARK UNBOUND:                -0.089
REMARK SMILES CCc1ccc(O)cc1O
REMARK SMILES IDX 3 1 9 2 8 3 6 4 5 5 4 6 2 7 1 8 10 9 7 11
REMARK H PARENT 10 10 7 12
REMARK Flexibility Score: inf
ROOT
ATOM      1  C   UNL     1       5.201  12.716   7.691  1.00  0.00    -0.006 A 
ATOM      2  C   UNL     1       5.632  11.374   7.683  1.00  0.00     0.122 A 
ATOM      3  C   UNL     1       7.002  11.080   7.759  1.00  0.00     0.092 A 
ATOM      4  C   UNL     1       7.943  12.114   7.853  1.00  0.00     0.119 A 
ATOM      5  C   UNL     1       7.514  13.443   7.875  1.00  0.00     0.047 A 
ATOM      6  C   UNL     1       6.153  13.744   7.799  1.00  0.00     0.011 A 
ENDROOT
BRANCH   1   7
ATOM      7  C   UNL     1       3.733  13.060   7.641  1.00  0.00     0.036 C 
ATOM      8  C   UNL     1       3.525  14.460   7.074  1.00  0.00     0.009 C 
ENDBRANCH   1   7
BRANCH   2   9
ATOM      9  O   UNL     1       4.702  10.338   7.603  1.00  0.00    -0.508 OA
ATOM     10  H   UNL     1       4.241   9.971   8.428  1.00  0.00     0.293 HD
ENDBRANCH   2   9
BRANCH   4  11
ATOM     11  O   UNL     1       9.305  11.829   7.929  1.00  0.00    -0.508 OA
ATOM     12  H   UNL     1       9.876  12.172   8.693  1.00  0.00     0.293 HD
ENDBRANCH   4  11
TORSDOF 3
ENDMDL
MODEL 8
REMARK VINA RESULT:    -3.289      2.004      3.220
REMARK INTER + INTRA:          -3.762
REMARK INTER:                  -3.654
REMARK INTRA:                  -0.108
REMARK UNBOUND:                -0.089
REMARK SMILES CCc1ccc(O)cc1O
REMARK SMILES IDX 3 1 9 2 8 3 6 4 5 5 4 6 2 7 1 8 10 9 7 11
REMARK H PARENT 10 10 7 12
REMARK Flexibility Score: inf
ROOT
ATOM      1  C   UNL     1       7.960  11.110   7.609  1.00  0.00    -0.006 A 
ATOM      2  C   UNL     1       6.650  10.590   7.624  1.00  0.00     0.122 A 
ATOM      3  C   UNL     1       5.554  11.458   7.729  1.00  0.00     0.092 A 
ATOM      4  C   UNL     1       5.754  12.843   7.808  1.00  0.00     0.119 A 
ATOM      5  C   UNL     1       7.051  13.360   7.779  1.00  0.00     0.047 A 
ATOM      6  C   UNL     1       8.148  12.502   7.676  1.00  0.00     0.011 A 
ENDROOT
BRANCH   1   7
ATOM      7  C   UNL     1       9.156  10.202   7.466  1.00  0.00     0.036 C 
ATOM      8  C   UNL     1       9.596  10.113   6.009  1.00  0.00     0.009 C 
ENDBRANCH   1   7
BRANCH   2   9
ATOM      9  O   UNL     1       6.441   9.214   7.532  1.00  0.00    -0.508 OA
ATOM     10  H   UNL     1       6.989   8.555   8.074  1.00  0.00     0.293 HD
ENDBRANCH   2   9
BRANCH   4  11
ATOM     11  O   UNL     1       4.669  13.712   7.913  1.00  0.00    -0.508 OA
ATOM     12  H   UNL     1       3.814  13.557   7.391  1.00  0.00     0.293 HD
ENDBRANCH   4  11
TORSDOF 3
ENDMDL
MODEL 9
REMARK VINA RESULT:    -3.266      2.548      3.339
REMARK INTER + INTRA:          -3.737
REMARK INTER:                  -3.652
REMARK INTRA:                  -0.085
REMARK UNBOUND:                -0.089
REMARK SMILES CCc1ccc(O)cc1O
REMARK SMILES IDX 3 1 9 2 8 3 6 4 5 5 4 6 2 7 1 8 10 9 7 11
REMARK H PARENT 10 10 7 12
REMARK Flexibility Score: inf
ROOT
ATOM      1  C   UNL     1       8.500   9.151   6.234  1.00  0.00    -0.006 A 
ATOM      2  C   UNL     1       9.526  10.110   6.108  1.00  0.00     0.122 A 
ATOM      3  C   UNL     1       9.460  11.304   6.840  1.00  0.00     0.092 A 
ATOM      4  C   UNL     1       8.385  11.545   7.707  1.00  0.00     0.119 A 
ATOM      5  C   UNL     1       7.375  10.589   7.842  1.00  0.00     0.047 A 
ATOM      6  C   UNL     1       7.432   9.397   7.115  1.00  0.00     0.011 A 
ENDROOT
BRANCH   1   7
ATOM      7  C   UNL     1       8.560   7.845   5.482  1.00  0.00     0.036 C 
ATOM      8  C   UNL     1       7.196   7.164   5.471  1.00  0.00     0.009 C 
ENDBRANCH   1   7
BRANCH   2   9
ATOM      9  O   UNL     1      10.606   9.873   5.259  1.00  0.00    -0.508 OA
ATOM     10  H   UNL     1      10.474   9.564   4.303  1.00  0.00     0.293 HD
ENDBRANCH   2   9
BRANCH   4  11
ATOM     11  O   UNL     1       8.313  12.729   8.438  1.00  0.00    -0.508 OA
ATOM     12  H   UNL     1       9.050  13.424   8.394  1.00  0.00     0.293 HD
ENDBRANCH   4  11
TORSDOF 3
ENDMDL
