MODEL 1
REMARK VINA RESULT:    -3.972      0.000      0.000
REMARK INTER + INTRA:          -4.088
REMARK INTER:                  -4.088
REMARK INTRA:                   0.000
REMARK UNBOUND:                 0.000
REMARK SMILES Nc1ncnc2nc[nH]c12
REMARK SMILES IDX 8 1 7 2 6 3 5 4 4 5 3 6 2 7 10 8 9 9 1 11
REMARK H PARENT 9 10 1 12 1 13
REMARK Flexibility Score: inf
ROOT
ATOM      1  C   UNL     1     111.307 104.841  95.631  1.00  0.00     0.199 A 
ATOM      2  N   UNL     1     112.187 104.242  94.783  1.00  0.00    -0.217 NA
ATOM      3  C   UNL     1     111.553 104.335  93.602  1.00  0.00     0.182 A 
ATOM      4  N   UNL     1     112.002 103.884  92.406  1.00  0.00    -0.215 NA
ATOM      5  C   UNL     1     111.210 104.072  91.307  1.00  0.00     0.226 A 
ATOM      6  N   UNL     1     109.996 104.698  91.423  1.00  0.00    -0.217 NA
ATOM      7  C   UNL     1     109.541 105.153  92.629  1.00  0.00     0.152 A 
ATOM      8  C   UNL     1     110.358 104.955  93.738  1.00  0.00     0.127 A 
ATOM      9  N   UNL     1     110.178 105.287  95.022  1.00  0.00    -0.340 N 
ATOM     10  H   UNL     1     109.368 105.774  95.464  1.00  0.00     0.168 HD
ENDROOT
BRANCH   7  11
ATOM     11  N   UNL     1     108.272 105.802  92.725  1.00  0.00    -0.382 N 
ATOM     12  H   UNL     1     107.502 105.545  92.070  1.00  0.00     0.158 HD
ATOM     13  H   UNL     1     108.091 106.539  93.443  1.00  0.00     0.158 HD
ENDBRANCH   7  11
TORSDOF 1
ENDMDL
MODEL 2
REMARK VINA RESULT:    -3.718      2.204      3.033
REMARK INTER + INTRA:          -3.827
REMARK INTER:                  -3.827
REMARK INTRA:                   0.000
REMARK UNBOUND:                 0.000
REMARK SMILES Nc1ncnc2nc[nH]c12
REMARK SMILES IDX 8 1 7 2 6 3 5 4 4 5 3 6 2 7 10 8 9 9 1 11
REMARK H PARENT 9 10 1 12 1 13
REMARK Flexibility Score: inf
ROOT
ATOM      1  C   UNL     1     109.076 104.647  92.942  1.00  0.00     0.199 A 
ATOM      2  N   UNL     1     110.100 104.289  92.120  1.00  0.00    -0.217 NA
ATOM      3  C   UNL     1     110.328 105.424  91.438  1.00  0.00     0.182 A 
ATOM      4  N   UNL     1     111.263 105.614  90.475  1.00  0.00    -0.215 NA
ATOM      5  C   UNL     1     111.345 106.847  89.891  1.00  0.00     0.226 A 
ATOM      6  N   UNL     1     110.501 107.857  90.275  1.00  0.00    -0.217 NA
ATOM      7  C   UNL     1     109.558 107.667  91.245  1.00  0.00     0.152 A 
ATOM      8  C   UNL     1     109.486 106.406  91.831  1.00  0.00     0.127 A 
ATOM      9  N   UNL     1     108.677 105.936  92.788  1.00  0.00    -0.340 N 
ATOM     10  H   UNL     1     107.917 106.432  93.304  1.00  0.00     0.168 HD
ENDROOT
BRANCH   7  11
ATOM     11  N   UNL     1     108.689 108.734  91.628  1.00  0.00    -0.382 N 
ATOM     12  H   UNL     1     107.970 109.088  90.960  1.00  0.00     0.158 HD
ATOM     13  H   UNL     1     108.754 109.177  92.571  1.00  0.00     0.158 HD
ENDBRANCH   7  11
TORSDOF 1
ENDMDL
MODEL 3
REMARK VINA RESULT:    -3.704     10.805     12.031
REMARK INTER + INTRA:          -3.812
REMARK INTER:                  -3.812
REMARK INTRA:                   0.000
REMARK UNBOUND:                 0.000
REMARK SMILES Nc1ncnc2nc[nH]c12
REMARK SMILES IDX 8 1 7 2 6 3 5 4 4 5 3 6 2 7 10 8 9 9 1 11
REMARK H PARENT 9 10 1 12 1 13
REMARK Flexibility Score: inf
ROOT
ATOM      1  C   UNL     1     107.012 105.311 105.826  1.00  0.00     0.199 A 
ATOM      2  N   UNL     1     108.063 104.789 105.136  1.00  0.00    -0.217 NA
ATOM      3  C   UNL     1     108.690 105.892 104.693  1.00  0.00     0.182 A 
ATOM      4  N   UNL     1     109.816 105.934 103.941  1.00  0.00    -0.215 NA
ATOM      5  C   UNL     1     110.309 107.159 103.586  1.00  0.00     0.226 A 
ATOM      6  N   UNL     1     109.673 108.307 103.985  1.00  0.00    -0.217 NA
ATOM      7  C   UNL     1     108.538 108.266 104.743  1.00  0.00     0.152 A 
ATOM      8  C   UNL     1     108.048 107.012 105.097  1.00  0.00     0.127 A 
ATOM      9  N   UNL     1     106.976 106.668 105.820  1.00  0.00    -0.340 N 
ATOM     10  H   UNL     1     106.270 107.287 106.277  1.00  0.00     0.168 HD
ENDROOT
BRANCH   7  11
ATOM     11  N   UNL     1     107.893 109.475 105.147  1.00  0.00    -0.382 N 
ATOM     12  H   UNL     1     108.229 109.990 105.990  1.00  0.00     0.158 HD
ATOM     13  H   UNL     1     107.083 109.864 104.615  1.00  0.00     0.158 HD
ENDBRANCH   7  11
TORSDOF 1
ENDMDL
MODEL 4
REMARK VINA RESULT:    -3.687      2.090      2.923
REMARK INTER + INTRA:          -3.795
REMARK INTER:                  -3.795
REMARK INTRA:                   0.000
REMARK UNBOUND:                 0.000
REMARK SMILES Nc1ncnc2nc[nH]c12
REMARK SMILES IDX 8 1 7 2 6 3 5 4 4 5 3 6 2 7 10 8 9 9 1 11
REMARK H PARENT 9 10 1 12 1 13
REMARK Flexibility Score: inf
ROOT
ATOM      1  C   UNL     1     108.748 104.260  93.082  1.00  0.00     0.199 A 
ATOM      2  N   UNL     1     110.001 104.177  93.608  1.00  0.00    -0.217 NA
ATOM      3  C   UNL     1     110.439 105.443  93.504  1.00  0.00     0.182 A 
ATOM      4  N   UNL     1     111.650 105.913  93.890  1.00  0.00    -0.215 NA
ATOM      5  C   UNL     1     111.915 107.241  93.702  1.00  0.00     0.226 A 
ATOM      6  N   UNL     1     110.975 108.066  93.139  1.00  0.00    -0.217 NA
ATOM      7  C   UNL     1     109.754 107.593  92.749  1.00  0.00     0.152 A 
ATOM      8  C   UNL     1     109.498 106.239  92.946  1.00  0.00     0.127 A 
ATOM      9  N   UNL     1     108.411 105.509  92.668  1.00  0.00    -0.340 N 
ATOM     10  H   UNL     1     107.512 105.815  92.236  1.00  0.00     0.168 HD
ENDROOT
BRANCH   7  11
ATOM     11  N   UNL     1     108.791 108.472  92.164  1.00  0.00    -0.382 N 
ATOM     12  H   UNL     1     107.926 108.724  92.691  1.00  0.00     0.158 HD
ATOM     13  H   UNL     1     108.930 108.874  91.211  1.00  0.00     0.158 HD
ENDBRANCH   7  11
TORSDOF 1
ENDMDL
MODEL 5
REMARK VINA RESULT:    -3.632      1.073      2.953
REMARK INTER + INTRA:          -3.738
REMARK INTER:                  -3.738
REMARK INTRA:                   0.000
REMARK UNBOUND:                 0.000
REMARK SMILES Nc1ncnc2nc[nH]c12
REMARK SMILES IDX 8 1 7 2 6 3 5 4 4 5 3 6 2 7 10 8 9 9 1 11
REMARK H PARENT 9 10 1 12 1 13
REMARK Flexibility Score: inf
ROOT
ATOM      1  C   UNL     1     111.610 104.293  90.416  1.00  0.00     0.199 A 
ATOM      2  N   UNL     1     112.502 104.180  91.438  1.00  0.00    -0.217 NA
ATOM      3  C   UNL     1     111.704 104.221  92.519  1.00  0.00     0.182 A 
ATOM      4  N   UNL     1     112.095 104.146  93.814  1.00  0.00    -0.215 NA
ATOM      5  C   UNL     1     111.130 104.206  94.782  1.00  0.00     0.226 A 
ATOM      6  N   UNL     1     109.809 104.338  94.441  1.00  0.00    -0.217 NA
ATOM      7  C   UNL     1     109.414 104.414  93.135  1.00  0.00     0.152 A 
ATOM      8  C   UNL     1     110.407 104.352  92.161  1.00  0.00     0.127 A 
ATOM      9  N   UNL     1     110.320 104.400  90.826  1.00  0.00    -0.340 N 
ATOM     10  H   UNL     1     109.470 104.497  90.230  1.00  0.00     0.168 HD
ENDROOT
BRANCH   7  11
ATOM     11  N   UNL     1     108.031 104.552  92.805  1.00  0.00    -0.382 N 
ATOM     12  H   UNL     1     107.668 105.464  92.448  1.00  0.00     0.158 HD
ATOM     13  H   UNL     1     107.364 103.757  92.912  1.00  0.00     0.158 HD
ENDBRANCH   7  11
TORSDOF 1
ENDMDL
MODEL 6
REMARK VINA RESULT:    -3.616     20.724     21.795
REMARK INTER + INTRA:          -3.721
REMARK INTER:                  -3.721
REMARK INTRA:                   0.000
REMARK UNBOUND:                 0.000
REMARK SMILES Nc1ncnc2nc[nH]c12
REMARK SMILES IDX 8 1 7 2 6 3 5 4 4 5 3 6 2 7 10 8 9 9 1 11
REMARK H PARENT 9 10 1 12 1 13
REMARK Flexibility Score: inf
ROOT
ATOM      1  C   UNL     1     119.300 122.887 104.901  1.00  0.00     0.199 A 
ATOM      2  N   UNL     1     119.029 121.582 104.624  1.00  0.00    -0.217 NA
ATOM      3  C   UNL     1     119.303 121.506 103.311  1.00  0.00     0.182 A 
ATOM      4  N   UNL     1     119.199 120.406 102.526  1.00  0.00    -0.215 NA
ATOM      5  C   UNL     1     119.526 120.525 101.203  1.00  0.00     0.226 A 
ATOM      6  N   UNL     1     119.946 121.727 100.695  1.00  0.00    -0.217 NA
ATOM      7  C   UNL     1     120.052 122.836 101.486  1.00  0.00     0.152 A 
ATOM      8  C   UNL     1     119.716 122.700 102.830  1.00  0.00     0.127 A 
ATOM      9  N   UNL     1     119.722 123.597 103.823  1.00  0.00    -0.340 N 
ATOM     10  H   UNL     1     119.987 124.606 103.791  1.00  0.00     0.168 HD
ENDROOT
BRANCH   7  11
ATOM     11  N   UNL     1     120.493 124.078 100.934  1.00  0.00    -0.382 N 
ATOM     12  H   UNL     1     119.808 124.717 100.472  1.00  0.00     0.158 HD
ATOM     13  H   UNL     1     121.494 124.369 100.979  1.00  0.00     0.158 HD
ENDBRANCH   7  11
TORSDOF 1
ENDMDL
MODEL 7
REMARK VINA RESULT:    -3.550      2.517      3.300
REMARK INTER + INTRA:          -3.654
REMARK INTER:                  -3.654
REMARK INTRA:                   0.000
REMARK UNBOUND:                 0.000
REMARK SMILES Nc1ncnc2nc[nH]c12
REMARK SMILES IDX 8 1 7 2 6 3 5 4 4 5 3 6 2 7 10 8 9 9 1 11
REMARK H PARENT 9 10 1 12 1 13
REMARK Flexibility Score: inf
ROOT
ATOM      1  C   UNL     1     109.304 108.715  92.591  1.00  0.00     0.199 A 
ATOM      2  N   UNL     1     110.272 108.598  91.641  1.00  0.00    -0.217 NA
ATOM      3  C   UNL     1     110.303 107.272  91.427  1.00  0.00     0.182 A 
ATOM      4  N   UNL     1     111.108 106.612  90.559  1.00  0.00    -0.215 NA
ATOM      5  C   UNL     1     110.993 105.252  90.480  1.00  0.00     0.226 A 
ATOM      6  N   UNL     1     110.086 104.583  91.262  1.00  0.00    -0.217 NA
ATOM      7  C   UNL     1     109.274 105.247  92.137  1.00  0.00     0.152 A 
ATOM      8  C   UNL     1     109.402 106.631  92.207  1.00  0.00     0.127 A 
ATOM      9  N   UNL     1     108.753 107.529  92.958  1.00  0.00    -0.340 N 
ATOM     10  H   UNL     1     108.000 107.369  93.663  1.00  0.00     0.168 HD
ENDROOT
BRANCH   7  11
ATOM     11  N   UNL     1     108.337 104.529  92.942  1.00  0.00    -0.382 N 
ATOM     12  H   UNL     1     108.656 103.717  93.516  1.00  0.00     0.158 HD
ATOM     13  H   UNL     1     107.329 104.795  92.971  1.00  0.00     0.158 HD
ENDBRANCH   7  11
TORSDOF 1
ENDMDL
MODEL 8
REMARK VINA RESULT:    -3.532      9.601     11.063
REMARK INTER + INTRA:          -3.635
REMARK INTER:                  -3.635
REMARK INTRA:                   0.000
REMARK UNBOUND:                 0.000
REMARK SMILES Nc1ncnc2nc[nH]c12
REMARK SMILES IDX 8 1 7 2 6 3 5 4 4 5 3 6 2 7 10 8 9 9 1 11
REMARK H PARENT 9 10 1 12 1 13
REMARK Flexibility Score: inf
ROOT
ATOM      1  C   UNL     1     109.527 107.859 102.529  1.00  0.00     0.199 A 
ATOM      2  N   UNL     1     108.960 107.790 103.765  1.00  0.00    -0.217 NA
ATOM      3  C   UNL     1     109.331 106.568 104.181  1.00  0.00     0.182 A 
ATOM      4  N   UNL     1     109.026 105.992 105.369  1.00  0.00    -0.215 NA
ATOM      5  C   UNL     1     109.498 104.732 105.615  1.00  0.00     0.226 A 
ATOM      6  N   UNL     1     110.258 104.079 104.680  1.00  0.00    -0.217 NA
ATOM      7  C   UNL     1     110.567 104.658 103.482  1.00  0.00     0.152 A 
ATOM      8  C   UNL     1     110.079 105.941 103.246  1.00  0.00     0.127 A 
ATOM      9  N   UNL     1     110.218 106.742 102.183  1.00  0.00    -0.340 N 
ATOM     10  H   UNL     1     110.733 106.564 101.293  1.00  0.00     0.168 HD
ENDROOT
BRANCH   7  11
ATOM     11  N   UNL     1     111.361 103.958 102.523  1.00  0.00    -0.382 N 
ATOM     12  H   UNL     1     112.344 104.256 102.340  1.00  0.00     0.158 HD
ATOM     13  H   UNL     1     110.979 103.144 101.991  1.00  0.00     0.158 HD
ENDBRANCH   7  11
TORSDOF 1
ENDMDL
MODEL 9
REMARK VINA RESULT:    -3.521      1.865      2.922
REMARK INTER + INTRA:          -3.624
REMARK INTER:                  -3.624
REMARK INTRA:                   0.000
REMARK UNBOUND:                 0.000
REMARK SMILES Nc1ncnc2nc[nH]c12
REMARK SMILES IDX 8 1 7 2 6 3 5 4 4 5 3 6 2 7 10 8 9 9 1 11
REMARK H PARENT 9 10 1 12 1 13
REMARK Flexibility Score: inf
ROOT
ATOM      1  C   UNL     1     109.615 107.912  92.028  1.00  0.00     0.199 A 
ATOM      2  N   UNL     1     110.872 107.647  92.478  1.00  0.00    -0.217 NA
ATOM      3  C   UNL     1     110.755 106.387  92.928  1.00  0.00     0.182 A 
ATOM      4  N   UNL     1     111.734 105.635  93.487  1.00  0.00    -0.215 NA
ATOM      5  C   UNL     1     111.422 104.364  93.886  1.00  0.00     0.226 A 
ATOM      6  N   UNL     1     110.152 103.875  93.722  1.00  0.00    -0.217 NA
ATOM      7  C   UNL     1     109.164 104.632  93.158  1.00  0.00     0.152 A 
ATOM      8  C   UNL     1     109.497 105.923  92.757  1.00  0.00     0.127 A 
ATOM      9  N   UNL     1     108.750 106.876  92.185  1.00  0.00    -0.340 N 
ATOM     10  H   UNL     1     107.742 106.844  91.918  1.00  0.00     0.168 HD
ENDROOT
BRANCH   7  11
ATOM     11  N   UNL     1     107.848 104.101  92.997  1.00  0.00    -0.382 N 
ATOM     12  H   UNL     1     107.153 104.182  93.772  1.00  0.00     0.158 HD
ATOM     13  H   UNL     1     107.557 103.626  92.114  1.00  0.00     0.158 HD
ENDBRANCH   7  11
TORSDOF 1
ENDMDL
