MODEL 1
REMARK VINA RESULT:    -4.252      0.000      0.000
REMARK INTER + INTRA:          -5.536
REMARK INTER:                  -5.122
REMARK INTRA:                  -0.414
REMARK UNBOUND:                -0.414
REMARK SMILES O=c1c(O)c(-c2ccc(O)cc2O)oc2cc(O)cc(O)c12
REMARK SMILES IDX 5 1 3 2 2 3 1 4 22 5 20 6 19 7 17 8 16 9 15 10 14 11 6 12
REMARK SMILES IDX 8 13 7 14 9 15 11 16 12 17 10 18 13 20 4 22 21 24 18 26
REMARK H PARENT 10 19 13 21 4 23 21 25 18 27
REMARK Flexibility Score: inf
ROOT
ATOM      1  C   UNL     1      -6.567   0.456  -5.421  1.00  0.00     0.184 A 
ATOM      2  C   UNL     1      -7.700   0.170  -4.645  1.00  0.00     0.208 A 
ATOM      3  C   UNL     1      -7.536  -0.113  -3.280  1.00  0.00     0.238 A 
ATOM      4  O   UNL     1      -8.561  -0.309  -2.576  1.00  0.00    -0.285 OA
ATOM      5  C   UNL     1      -6.237  -0.134  -2.716  1.00  0.00     0.111 A 
ATOM      6  C   UNL     1      -5.948  -0.448  -1.354  1.00  0.00     0.134 A 
ATOM      7  C   UNL     1      -4.638  -0.318  -0.878  1.00  0.00     0.093 A 
ATOM      8  C   UNL     1      -3.595   0.050  -1.729  1.00  0.00     0.123 A 
ATOM      9  C   UNL     1      -3.856   0.303  -3.075  1.00  0.00     0.094 A 
ATOM     10  C   UNL     1      -5.159   0.218  -3.572  1.00  0.00     0.146 A 
ATOM     11  O   UNL     1      -5.367   0.480  -4.857  1.00  0.00    -0.451 OA
ENDROOT
BRANCH   1  12
ATOM     12  C   UNL     1      -6.678   0.739  -6.868  1.00  0.00     0.063 A 
ATOM     13  C   UNL     1      -6.537  -0.056  -9.164  1.00  0.00     0.047 A 
ATOM     14  C   UNL     1      -6.493  -0.305  -7.791  1.00  0.00     0.020 A 
ATOM     15  C   UNL     1      -6.758   1.242  -9.636  1.00  0.00     0.119 A 
ATOM     16  C   UNL     1      -6.941   2.289  -8.727  1.00  0.00     0.093 A 
ATOM     17  C   UNL     1      -6.909   2.050  -7.348  1.00  0.00     0.130 A 
BRANCH  15  18
ATOM     18  O   UNL     1      -6.797   1.504 -11.003  1.00  0.00    -0.508 OA
ATOM     19  H   UNL     1      -6.000   1.318 -11.601  1.00  0.00     0.293 HD
ENDBRANCH  15  18
BRANCH  17  20
ATOM     20  O   UNL     1      -7.134   3.127  -6.487  1.00  0.00    -0.507 OA
ATOM     21  H   UNL     1      -7.194   3.027  -5.482  1.00  0.00     0.293 HD
ENDBRANCH  17  20
ENDBRANCH   1  12
BRANCH   2  22
ATOM     22  O   UNL     1      -8.970   0.194  -5.228  1.00  0.00    -0.502 OA
ATOM     23  H   UNL     1      -9.419   1.056  -5.515  1.00  0.00     0.293 HD
ENDBRANCH   2  22
BRANCH   6  24
ATOM     24  O   UNL     1      -6.899  -0.913  -0.442  1.00  0.00    -0.507 OA
ATOM     25  H   UNL     1      -7.138  -1.883  -0.301  1.00  0.00     0.293 HD
ENDBRANCH   6  24
BRANCH   8  26
ATOM     26  O   UNL     1      -2.301   0.153  -1.224  1.00  0.00    -0.508 OA
ATOM     27  H   UNL     1      -1.581   0.670  -1.715  1.00  0.00     0.293 HD
ENDBRANCH   8  26
TORSDOF 6
ENDMDL
MODEL 2
REMARK VINA RESULT:    -4.234      5.406      6.694
REMARK INTER + INTRA:          -5.514
REMARK INTER:                  -5.138
REMARK INTRA:                  -0.376
REMARK UNBOUND:                -0.414
REMARK SMILES O=c1c(O)c(-c2ccc(O)cc2O)oc2cc(O)cc(O)c12
REMARK SMILES IDX 5 1 3 2 2 3 1 4 22 5 20 6 19 7 17 8 16 9 15 10 14 11 6 12
REMARK SMILES IDX 8 13 7 14 9 15 11 16 12 17 10 18 13 20 4 22 21 24 18 26
REMARK H PARENT 10 19 13 21 4 23 21 25 18 27
REMARK Flexibility Score: inf
ROOT
ATOM      1  C   UNL     1      -2.724   4.200  -2.078  1.00  0.00     0.184 A 
ATOM      2  C   UNL     1      -3.508   4.730  -1.042  1.00  0.00     0.208 A 
ATOM      3  C   UNL     1      -4.283   3.858  -0.260  1.00  0.00     0.238 A 
ATOM      4  O   UNL     1      -4.936   4.332   0.706  1.00  0.00    -0.285 OA
ATOM      5  C   UNL     1      -4.284   2.471  -0.544  1.00  0.00     0.111 A 
ATOM      6  C   UNL     1      -5.061   1.500   0.156  1.00  0.00     0.134 A 
ATOM      7  C   UNL     1      -4.890   0.140  -0.131  1.00  0.00     0.093 A 
ATOM      8  C   UNL     1      -4.019  -0.280  -1.137  1.00  0.00     0.123 A 
ATOM      9  C   UNL     1      -3.298   0.664  -1.868  1.00  0.00     0.094 A 
ATOM     10  C   UNL     1      -3.419   2.026  -1.580  1.00  0.00     0.146 A 
ATOM     11  O   UNL     1      -2.705   2.891  -2.290  1.00  0.00    -0.451 OA
ENDROOT
BRANCH   1  12
ATOM     12  C   UNL     1      -1.907   5.073  -2.948  1.00  0.00     0.063 A 
ATOM     13  C   UNL     1      -1.801   6.767  -4.692  1.00  0.00     0.047 A 
ATOM     14  C   UNL     1      -2.547   5.971  -3.819  1.00  0.00     0.020 A 
ATOM     15  C   UNL     1      -0.406   6.673  -4.711  1.00  0.00     0.119 A 
ATOM     16  C   UNL     1       0.241   5.782  -3.849  1.00  0.00     0.093 A 
ATOM     17  C   UNL     1      -0.495   4.985  -2.962  1.00  0.00     0.130 A 
BRANCH  15  18
ATOM     18  O   UNL     1       0.348   7.457  -5.581  1.00  0.00    -0.508 OA
ATOM     19  H   UNL     1      -0.034   7.790  -6.458  1.00  0.00     0.293 HD
ENDBRANCH  15  18
BRANCH  17  20
ATOM     20  O   UNL     1       0.206   4.139  -2.099  1.00  0.00    -0.507 OA
ATOM     21  H   UNL     1       0.096   4.162  -1.094  1.00  0.00     0.293 HD
ENDBRANCH  17  20
ENDBRANCH   1  12
BRANCH   2  22
ATOM     22  O   UNL     1      -3.490   6.104  -0.786  1.00  0.00    -0.502 OA
ATOM     23  H   UNL     1      -3.444   6.481   0.154  1.00  0.00     0.293 HD
ENDBRANCH   2  22
BRANCH   6  24
ATOM     24  O   UNL     1      -6.025   1.817   1.117  1.00  0.00    -0.507 OA
ATOM     25  H   UNL     1      -5.884   2.453   1.887  1.00  0.00     0.293 HD
ENDBRANCH   6  24
BRANCH   8  26
ATOM     26  O   UNL     1      -3.886  -1.640  -1.407  1.00  0.00    -0.508 OA
ATOM     27  H   UNL     1      -2.976  -2.077  -1.493  1.00  0.00     0.293 HD
ENDBRANCH   8  26
TORSDOF 6
ENDMDL
MODEL 3
REMARK VINA RESULT:    -4.233      4.784      7.188
REMARK INTER + INTRA:          -5.513
REMARK INTER:                  -5.169
REMARK INTRA:                  -0.344
REMARK UNBOUND:                -0.414
REMARK SMILES O=c1c(O)c(-c2ccc(O)cc2O)oc2cc(O)cc(O)c12
REMARK SMILES IDX 5 1 3 2 2 3 1 4 22 5 20 6 19 7 17 8 16 9 15 10 14 11 6 12
REMARK SMILES IDX 8 13 7 14 9 15 11 16 12 17 10 18 13 20 4 22 21 24 18 26
REMARK H PARENT 10 19 13 21 4 23 21 25 18 27
REMARK Flexibility Score: inf
ROOT
ATOM      1  C   UNL     1      -3.063   3.199  -1.551  1.00  0.00     0.184 A 
ATOM      2  C   UNL     1      -3.598   3.918  -0.472  1.00  0.00     0.208 A 
ATOM      3  C   UNL     1      -2.824   4.923   0.127  1.00  0.00     0.238 A 
ATOM      4  O   UNL     1      -3.332   5.605   1.055  1.00  0.00    -0.285 OA
ATOM      5  C   UNL     1      -1.513   5.177  -0.344  1.00  0.00     0.111 A 
ATOM      6  C   UNL     1      -0.623   6.144   0.212  1.00  0.00     0.134 A 
ATOM      7  C   UNL     1       0.605   6.395  -0.413  1.00  0.00     0.093 A 
ATOM      8  C   UNL     1       1.003   5.667  -1.535  1.00  0.00     0.123 A 
ATOM      9  C   UNL     1       0.167   4.679  -2.053  1.00  0.00     0.094 A 
ATOM     10  C   UNL     1      -1.080   4.432  -1.474  1.00  0.00     0.146 A 
ATOM     11  O   UNL     1      -1.852   3.492  -2.006  1.00  0.00    -0.451 OA
ENDROOT
BRANCH   1  12
ATOM     12  C   UNL     1      -3.825   2.114  -2.206  1.00  0.00     0.063 A 
ATOM     13  C   UNL     1      -5.761   1.415  -3.504  1.00  0.00     0.047 A 
ATOM     14  C   UNL     1      -4.993   2.426  -2.922  1.00  0.00     0.020 A 
ATOM     15  C   UNL     1      -5.378   0.077  -3.372  1.00  0.00     0.119 A 
ATOM     16  C   UNL     1      -4.219  -0.246  -2.660  1.00  0.00     0.093 A 
ATOM     17  C   UNL     1      -3.434   0.759  -2.081  1.00  0.00     0.130 A 
BRANCH  15  18
ATOM     18  O   UNL     1      -6.140  -0.940  -3.942  1.00  0.00    -0.508 OA
ATOM     19  H   UNL     1      -5.932  -1.304  -4.865  1.00  0.00     0.293 HD
ENDBRANCH  15  18
BRANCH  17  20
ATOM     20  O   UNL     1      -2.267   0.382  -1.412  1.00  0.00    -0.507 OA
ATOM     21  H   UNL     1      -1.706   1.029  -0.872  1.00  0.00     0.293 HD
ENDBRANCH  17  20
ENDBRANCH   1  12
BRANCH   2  22
ATOM     22  O   UNL     1      -4.894   3.643  -0.024  1.00  0.00    -0.502 OA
ATOM     23  H   UNL     1      -5.226   2.698   0.129  1.00  0.00     0.293 HD
ENDBRANCH   2  22
BRANCH   6  24
ATOM     24  O   UNL     1      -0.883   6.862   1.383  1.00  0.00    -0.507 OA
ATOM     25  H   UNL     1      -1.468   7.683   1.438  1.00  0.00     0.293 HD
ENDBRANCH   6  24
BRANCH   8  26
ATOM     26  O   UNL     1       2.239   5.932  -2.121  1.00  0.00    -0.508 OA
ATOM     27  H   UNL     1       3.108   5.750  -1.632  1.00  0.00     0.293 HD
ENDBRANCH   8  26
TORSDOF 6
ENDMDL
MODEL 4
REMARK VINA RESULT:    -4.118      1.023      1.648
REMARK INTER + INTRA:          -5.375
REMARK INTER:                  -4.973
REMARK INTRA:                  -0.401
REMARK UNBOUND:                -0.414
REMARK SMILES O=c1c(O)c(-c2ccc(O)cc2O)oc2cc(O)cc(O)c12
REMARK SMILES IDX 5 1 3 2 2 3 1 4 22 5 20 6 19 7 17 8 16 9 15 10 14 11 6 12
REMARK SMILES IDX 8 13 7 14 9 15 11 16 12 17 10 18 13 20 4 22 21 24 18 26
REMARK H PARENT 10 19 13 21 4 23 21 25 18 27
REMARK Flexibility Score: inf
ROOT
ATOM      1  C   UNL     1      -6.566   0.566  -5.217  1.00  0.00     0.184 A 
ATOM      2  C   UNL     1      -7.668   0.782  -4.376  1.00  0.00     0.208 A 
ATOM      3  C   UNL     1      -7.473   0.794  -2.986  1.00  0.00     0.238 A 
ATOM      4  O   UNL     1      -8.454   1.048  -2.241  1.00  0.00    -0.285 OA
ATOM      5  C   UNL     1      -6.181   0.561  -2.455  1.00  0.00     0.111 A 
ATOM      6  C   UNL     1      -5.873   0.511  -1.062  1.00  0.00     0.134 A 
ATOM      7  C   UNL     1      -4.539   0.396  -0.653  1.00  0.00     0.093 A 
ATOM      8  C   UNL     1      -3.508   0.264  -1.584  1.00  0.00     0.123 A 
ATOM      9  C   UNL     1      -3.803   0.253  -2.947  1.00  0.00     0.094 A 
ATOM     10  C   UNL     1      -5.121   0.403  -3.388  1.00  0.00     0.146 A 
ATOM     11  O   UNL     1      -5.357   0.402  -4.694  1.00  0.00    -0.451 OA
ENDROOT
BRANCH   1  12
ATOM     12  C   UNL     1      -6.716   0.520  -6.687  1.00  0.00     0.063 A 
ATOM     13  C   UNL     1      -6.755   1.699  -8.815  1.00  0.00     0.047 A 
ATOM     14  C   UNL     1      -6.564   1.702  -7.432  1.00  0.00     0.020 A 
ATOM     15  C   UNL     1      -7.107   0.516  -9.474  1.00  0.00     0.119 A 
ATOM     16  C   UNL     1      -7.263  -0.665  -8.742  1.00  0.00     0.093 A 
ATOM     17  C   UNL     1      -7.064  -0.677  -7.355  1.00  0.00     0.130 A 
BRANCH  15  18
ATOM     18  O   UNL     1      -7.307   0.502 -10.852  1.00  0.00    -0.508 OA
ATOM     19  H   UNL     1      -7.560  -0.348 -11.342  1.00  0.00     0.293 HD
ENDBRANCH  15  18
BRANCH  17  20
ATOM     20  O   UNL     1      -7.198  -1.893  -6.680  1.00  0.00    -0.507 OA
ATOM     21  H   UNL     1      -6.466  -2.287  -6.103  1.00  0.00     0.293 HD
ENDBRANCH  17  20
ENDBRANCH   1  12
BRANCH   2  22
ATOM     22  O   UNL     1      -8.933   1.005  -4.928  1.00  0.00    -0.502 OA
ATOM     23  H   UNL     1      -9.568   0.247  -5.152  1.00  0.00     0.293 HD
ENDBRANCH   2  22
BRANCH   6  24
ATOM     24  O   UNL     1      -6.835   0.543  -0.048  1.00  0.00    -0.507 OA
ATOM     25  H   UNL     1      -6.684   0.231   0.899  1.00  0.00     0.293 HD
ENDBRANCH   6  24
BRANCH   8  26
ATOM     26  O   UNL     1      -2.194   0.135  -1.140  1.00  0.00    -0.508 OA
ATOM     27  H   UNL     1      -1.980  -0.207  -0.211  1.00  0.00     0.293 HD
ENDBRANCH   8  26
TORSDOF 6
ENDMDL
MODEL 5
REMARK VINA RESULT:    -4.112      2.385      6.086
REMARK INTER + INTRA:          -5.367
REMARK INTER:                  -5.076
REMARK INTRA:                  -0.291
REMARK UNBOUND:                -0.414
REMARK SMILES O=c1c(O)c(-c2ccc(O)cc2O)oc2cc(O)cc(O)c12
REMARK SMILES IDX 5 1 3 2 2 3 1 4 22 5 20 6 19 7 17 8 16 9 15 10 14 11 6 12
REMARK SMILES IDX 8 13 7 14 9 15 11 16 12 17 10 18 13 20 4 22 21 24 18 26
REMARK H PARENT 10 19 13 21 4 23 21 25 18 27
REMARK Flexibility Score: inf
ROOT
ATOM      1  C   UNL     1      -5.326   0.455  -3.389  1.00  0.00     0.184 A 
ATOM      2  C   UNL     1      -5.803  -0.634  -2.644  1.00  0.00     0.208 A 
ATOM      3  C   UNL     1      -6.576  -1.613  -3.288  1.00  0.00     0.238 A 
ATOM      4  O   UNL     1      -6.949  -2.617  -2.628  1.00  0.00    -0.285 OA
ATOM      5  C   UNL     1      -6.886  -1.473  -4.662  1.00  0.00     0.111 A 
ATOM      6  C   UNL     1      -7.694  -2.383  -5.408  1.00  0.00     0.134 A 
ATOM      7  C   UNL     1      -7.833  -2.211  -6.791  1.00  0.00     0.093 A 
ATOM      8  C   UNL     1      -7.246  -1.126  -7.444  1.00  0.00     0.123 A 
ATOM      9  C   UNL     1      -6.502  -0.199  -6.716  1.00  0.00     0.094 A 
ATOM     10  C   UNL     1      -6.315  -0.364  -5.341  1.00  0.00     0.146 A 
ATOM     11  O   UNL     1      -5.588   0.534  -4.687  1.00  0.00    -0.451 OA
ENDROOT
BRANCH   1  12
ATOM     12  C   UNL     1      -4.526   1.528  -2.759  1.00  0.00     0.063 A 
ATOM     13  C   UNL     1      -4.283   3.878  -2.178  1.00  0.00     0.047 A 
ATOM     14  C   UNL     1      -5.039   2.835  -2.717  1.00  0.00     0.020 A 
ATOM     15  C   UNL     1      -2.999   3.631  -1.680  1.00  0.00     0.119 A 
ATOM     16  C   UNL     1      -2.479   2.334  -1.718  1.00  0.00     0.093 A 
ATOM     17  C   UNL     1      -3.231   1.277  -2.247  1.00  0.00     0.130 A 
BRANCH  15  18
ATOM     18  O   UNL     1      -2.233   4.664  -1.145  1.00  0.00    -0.508 OA
ATOM     19  H   UNL     1      -2.657   5.424  -0.627  1.00  0.00     0.293 HD
ENDBRANCH  15  18
BRANCH  17  20
ATOM     20  O   UNL     1      -2.675  -0.004  -2.227  1.00  0.00    -0.507 OA
ATOM     21  H   UNL     1      -2.481  -0.535  -3.066  1.00  0.00     0.293 HD
ENDBRANCH  17  20
ENDBRANCH   1  12
BRANCH   2  22
ATOM     22  O   UNL     1      -5.485  -0.744  -1.287  1.00  0.00    -0.502 OA
ATOM     23  H   UNL     1      -5.769  -0.050  -0.605  1.00  0.00     0.293 HD
ENDBRANCH   2  22
BRANCH   6  24
ATOM     24  O   UNL     1      -8.399  -3.448  -4.840  1.00  0.00    -0.507 OA
ATOM     25  H   UNL     1      -8.970  -4.101  -5.354  1.00  0.00     0.293 HD
ENDBRANCH   6  24
BRANCH   8  26
ATOM     26  O   UNL     1      -7.419  -0.977  -8.818  1.00  0.00    -0.508 OA
ATOM     27  H   UNL     1      -7.905  -1.674  -9.370  1.00  0.00     0.293 HD
ENDBRANCH   8  26
TORSDOF 6
ENDMDL
MODEL 6
REMARK VINA RESULT:    -4.093      4.544      6.909
REMARK INTER + INTRA:          -5.344
REMARK INTER:                  -5.039
REMARK INTRA:                  -0.305
REMARK UNBOUND:                -0.414
REMARK SMILES O=c1c(O)c(-c2ccc(O)cc2O)oc2cc(O)cc(O)c12
REMARK SMILES IDX 5 1 3 2 2 3 1 4 22 5 20 6 19 7 17 8 16 9 15 10 14 11 6 12
REMARK SMILES IDX 8 13 7 14 9 15 11 16 12 17 10 18 13 20 4 22 21 24 18 26
REMARK H PARENT 10 19 13 21 4 23 21 25 18 27
REMARK Flexibility Score: inf
ROOT
ATOM      1  C   UNL     1      -5.122  -2.389  -1.830  1.00  0.00     0.184 A 
ATOM      2  C   UNL     1      -5.931  -2.634  -2.949  1.00  0.00     0.208 A 
ATOM      3  C   UNL     1      -5.930  -3.915  -3.523  1.00  0.00     0.238 A 
ATOM      4  O   UNL     1      -6.703  -4.145  -4.489  1.00  0.00    -0.285 OA
ATOM      5  C   UNL     1      -5.096  -4.926  -2.986  1.00  0.00     0.111 A 
ATOM      6  C   UNL     1      -4.983  -6.249  -3.510  1.00  0.00     0.134 A 
ATOM      7  C   UNL     1      -4.220  -7.202  -2.824  1.00  0.00     0.093 A 
ATOM      8  C   UNL     1      -3.513  -6.863  -1.670  1.00  0.00     0.123 A 
ATOM      9  C   UNL     1      -3.570  -5.559  -1.181  1.00  0.00     0.094 A 
ATOM     10  C   UNL     1      -4.352  -4.595  -1.822  1.00  0.00     0.146 A 
ATOM     11  O   UNL     1      -4.389  -3.368  -1.316  1.00  0.00    -0.451 OA
ENDROOT
BRANCH   1  12
ATOM     12  C   UNL     1      -5.066  -1.053  -1.199  1.00  0.00     0.063 A 
ATOM     13  C   UNL     1      -6.223   0.780  -0.093  1.00  0.00     0.047 A 
ATOM     14  C   UNL     1      -6.234  -0.503  -0.646  1.00  0.00     0.020 A 
ATOM     15  C   UNL     1      -5.045   1.534  -0.091  1.00  0.00     0.119 A 
ATOM     16  C   UNL     1      -3.877   0.997  -0.640  1.00  0.00     0.093 A 
ATOM     17  C   UNL     1      -3.873  -0.292  -1.189  1.00  0.00     0.130 A 
BRANCH  15  18
ATOM     18  O   UNL     1      -5.023   2.816   0.452  1.00  0.00    -0.508 OA
ATOM     19  H   UNL     1      -5.822   3.435   0.380  1.00  0.00     0.293 HD
ENDBRANCH  15  18
BRANCH  17  20
ATOM     20  O   UNL     1      -2.669  -0.791  -1.691  1.00  0.00    -0.507 OA
ATOM     21  H   UNL     1      -2.279  -0.503  -2.579  1.00  0.00     0.293 HD
ENDBRANCH  17  20
ENDBRANCH   1  12
BRANCH   2  22
ATOM     22  O   UNL     1      -6.741  -1.616  -3.461  1.00  0.00    -0.502 OA
ATOM     23  H   UNL     1      -6.659  -1.285  -4.416  1.00  0.00     0.293 HD
ENDBRANCH   2  22
BRANCH   6  24
ATOM     24  O   UNL     1      -5.575  -6.668  -4.706  1.00  0.00    -0.507 OA
ATOM     25  H   UNL     1      -6.055  -6.062  -5.354  1.00  0.00     0.293 HD
ENDBRANCH   6  24
BRANCH   8  26
ATOM     26  O   UNL     1      -2.751  -7.833  -1.023  1.00  0.00    -0.508 OA
ATOM     27  H   UNL     1      -2.003  -8.323  -1.498  1.00  0.00     0.293 HD
ENDBRANCH   8  26
TORSDOF 6
ENDMDL
MODEL 7
REMARK VINA RESULT:    -4.076      4.316      6.652
REMARK INTER + INTRA:          -5.323
REMARK INTER:                  -4.934
REMARK INTRA:                  -0.389
REMARK UNBOUND:                -0.414
REMARK SMILES O=c1c(O)c(-c2ccc(O)cc2O)oc2cc(O)cc(O)c12
REMARK SMILES IDX 5 1 3 2 2 3 1 4 22 5 20 6 19 7 17 8 16 9 15 10 14 11 6 12
REMARK SMILES IDX 8 13 7 14 9 15 11 16 12 17 10 18 13 20 4 22 21 24 18 26
REMARK H PARENT 10 19 13 21 4 23 21 25 18 27
REMARK Flexibility Score: inf
ROOT
ATOM      1  C   UNL     1      -3.814   2.571  -1.552  1.00  0.00     0.184 A 
ATOM      2  C   UNL     1      -4.467   3.353  -0.588  1.00  0.00     0.208 A 
ATOM      3  C   UNL     1      -3.801   4.465  -0.048  1.00  0.00     0.238 A 
ATOM      4  O   UNL     1      -4.415   5.197   0.771  1.00  0.00    -0.285 OA
ATOM      5  C   UNL     1      -2.480   4.763  -0.461  1.00  0.00     0.111 A 
ATOM      6  C   UNL     1      -1.695   5.841   0.047  1.00  0.00     0.134 A 
ATOM      7  C   UNL     1      -0.445   6.116  -0.523  1.00  0.00     0.093 A 
ATOM      8  C   UNL     1       0.075   5.311  -1.537  1.00  0.00     0.123 A 
ATOM      9  C   UNL     1      -0.658   4.220  -2.002  1.00  0.00     0.094 A 
ATOM     10  C   UNL     1      -1.924   3.943  -1.479  1.00  0.00     0.146 A 
ATOM     11  O   UNL     1      -2.595   2.903  -1.959  1.00  0.00    -0.451 OA
ENDROOT
BRANCH   1  12
ATOM     12  C   UNL     1      -4.457   1.375  -2.138  1.00  0.00     0.063 A 
ATOM     13  C   UNL     1      -5.805   0.390  -3.908  1.00  0.00     0.047 A 
ATOM     14  C   UNL     1      -5.142   1.490  -3.359  1.00  0.00     0.020 A 
ATOM     15  C   UNL     1      -5.799  -0.839  -3.240  1.00  0.00     0.119 A 
ATOM     16  C   UNL     1      -5.122  -0.963  -2.023  1.00  0.00     0.093 A 
ATOM     17  C   UNL     1      -4.445   0.129  -1.467  1.00  0.00     0.130 A 
BRANCH  15  18
ATOM     18  O   UNL     1      -6.463  -1.941  -3.773  1.00  0.00    -0.508 OA
ATOM     19  H   UNL     1      -7.421  -1.877  -4.097  1.00  0.00     0.293 HD
ENDBRANCH  15  18
BRANCH  17  20
ATOM     20  O   UNL     1      -3.755  -0.062  -0.268  1.00  0.00    -0.507 OA
ATOM     21  H   UNL     1      -4.218  -0.264   0.609  1.00  0.00     0.293 HD
ENDBRANCH  17  20
ENDBRANCH   1  12
BRANCH   2  22
ATOM     22  O   UNL     1      -5.770   3.033  -0.196  1.00  0.00    -0.502 OA
ATOM     23  H   UNL     1      -6.247   2.201  -0.525  1.00  0.00     0.293 HD
ENDBRANCH   2  22
BRANCH   6  24
ATOM     24  O   UNL     1      -2.081   6.651   1.119  1.00  0.00    -0.507 OA
ATOM     25  H   UNL     1      -1.451   7.039   1.805  1.00  0.00     0.293 HD
ENDBRANCH   6  24
BRANCH   8  26
ATOM     26  O   UNL     1       1.329   5.604  -2.070  1.00  0.00    -0.508 OA
ATOM     27  H   UNL     1       2.051   6.047  -1.513  1.00  0.00     0.293 HD
ENDBRANCH   8  26
TORSDOF 6
ENDMDL
MODEL 8
REMARK VINA RESULT:    -4.060      3.879      7.668
REMARK INTER + INTRA:          -5.305
REMARK INTER:                  -4.977
REMARK INTRA:                  -0.328
REMARK UNBOUND:                -0.414
REMARK SMILES O=c1c(O)c(-c2ccc(O)cc2O)oc2cc(O)cc(O)c12
REMARK SMILES IDX 5 1 3 2 2 3 1 4 22 5 20 6 19 7 17 8 16 9 15 10 14 11 6 12
REMARK SMILES IDX 8 13 7 14 9 15 11 16 12 17 10 18 13 20 4 22 21 24 18 26
REMARK H PARENT 10 19 13 21 4 23 21 25 18 27
REMARK Flexibility Score: inf
ROOT
ATOM      1  C   UNL     1      -5.484  -3.275  -1.248  1.00  0.00     0.184 A 
ATOM      2  C   UNL     1      -6.456  -3.090  -2.243  1.00  0.00     0.208 A 
ATOM      3  C   UNL     1      -6.445  -1.903  -2.993  1.00  0.00     0.238 A 
ATOM      4  O   UNL     1      -7.281  -1.770  -3.924  1.00  0.00    -0.285 OA
ATOM      5  C   UNL     1      -5.479  -0.905  -2.717  1.00  0.00     0.111 A 
ATOM      6  C   UNL     1      -5.399   0.353  -3.386  1.00  0.00     0.134 A 
ATOM      7  C   UNL     1      -4.327   1.213  -3.115  1.00  0.00     0.093 A 
ATOM      8  C   UNL     1      -3.370   0.889  -2.153  1.00  0.00     0.123 A 
ATOM      9  C   UNL     1      -3.470  -0.312  -1.452  1.00  0.00     0.094 A 
ATOM     10  C   UNL     1      -4.508  -1.207  -1.726  1.00  0.00     0.146 A 
ATOM     11  O   UNL     1      -4.560  -2.346  -1.045  1.00  0.00    -0.451 OA
ENDROOT
BRANCH   1  12
ATOM     12  C   UNL     1      -5.461  -4.495  -0.412  1.00  0.00     0.063 A 
ATOM     13  C   UNL     1      -6.550  -5.909   1.242  1.00  0.00     0.047 A 
ATOM     14  C   UNL     1      -6.568  -4.794   0.401  1.00  0.00     0.020 A 
ATOM     15  C   UNL     1      -5.424  -6.737   1.288  1.00  0.00     0.119 A 
ATOM     16  C   UNL     1      -4.317  -6.447   0.485  1.00  0.00     0.093 A 
ATOM     17  C   UNL     1      -4.326  -5.338  -0.370  1.00  0.00     0.130 A 
BRANCH  15  18
ATOM     18  O   UNL     1      -5.393  -7.848   2.128  1.00  0.00    -0.508 OA
ATOM     19  H   UNL     1      -4.808  -7.870   2.955  1.00  0.00     0.293 HD
ENDBRANCH  15  18
BRANCH  17  20
ATOM     20  O   UNL     1      -3.206  -5.118  -1.176  1.00  0.00    -0.507 OA
ATOM     21  H   UNL     1      -2.263  -5.082  -0.813  1.00  0.00     0.293 HD
ENDBRANCH  17  20
ENDBRANCH   1  12
BRANCH   2  22
ATOM     22  O   UNL     1      -7.400  -4.091  -2.491  1.00  0.00    -0.502 OA
ATOM     23  H   UNL     1      -7.736  -4.300  -3.424  1.00  0.00     0.293 HD
ENDBRANCH   2  22
BRANCH   6  24
ATOM     24  O   UNL     1      -6.352   0.814  -4.299  1.00  0.00    -0.507 OA
ATOM     25  H   UNL     1      -6.140   1.221  -5.197  1.00  0.00     0.293 HD
ENDBRANCH   6  24
BRANCH   8  26
ATOM     26  O   UNL     1      -2.326   1.776  -1.898  1.00  0.00    -0.508 OA
ATOM     27  H   UNL     1      -2.303   2.701  -2.312  1.00  0.00     0.293 HD
ENDBRANCH   8  26
TORSDOF 6
ENDMDL
MODEL 9
REMARK VINA RESULT:    -3.998      2.972      6.266
REMARK INTER + INTRA:          -5.229
REMARK INTER:                  -4.842
REMARK INTRA:                  -0.388
REMARK UNBOUND:                -0.414
REMARK SMILES O=c1c(O)c(-c2ccc(O)cc2O)oc2cc(O)cc(O)c12
REMARK SMILES IDX 5 1 3 2 2 3 1 4 22 5 20 6 19 7 17 8 16 9 15 10 14 11 6 12
REMARK SMILES IDX 8 13 7 14 9 15 11 16 12 17 10 18 13 20 4 22 21 24 18 26
REMARK H PARENT 10 19 13 21 4 23 21 25 18 27
REMARK Flexibility Score: inf
ROOT
ATOM      1  C   UNL     1      -4.518   1.180  -2.289  1.00  0.00     0.184 A 
ATOM      2  C   UNL     1      -4.663   0.082  -1.429  1.00  0.00     0.208 A 
ATOM      3  C   UNL     1      -5.300  -1.076  -1.903  1.00  0.00     0.238 A 
ATOM      4  O   UNL     1      -5.372  -2.078  -1.146  1.00  0.00    -0.285 OA
ATOM      5  C   UNL     1      -5.810  -1.107  -3.223  1.00  0.00     0.111 A 
ATOM      6  C   UNL     1      -6.509  -2.211  -3.797  1.00  0.00     0.134 A 
ATOM      7  C   UNL     1      -6.861  -2.179  -5.152  1.00  0.00     0.093 A 
ATOM      8  C   UNL     1      -6.597  -1.056  -5.938  1.00  0.00     0.123 A 
ATOM      9  C   UNL     1      -5.966   0.052  -5.373  1.00  0.00     0.094 A 
ATOM     10  C   UNL     1      -5.570   0.035  -4.033  1.00  0.00     0.146 A 
ATOM     11  O   UNL     1      -4.960   1.105  -3.538  1.00  0.00    -0.451 OA
ENDROOT
BRANCH   1  12
ATOM     12  C   UNL     1      -3.876   2.433  -1.837  1.00  0.00     0.063 A 
ATOM     13  C   UNL     1      -1.866   3.790  -1.637  1.00  0.00     0.047 A 
ATOM     14  C   UNL     1      -2.511   2.642  -2.100  1.00  0.00     0.020 A 
ATOM     15  C   UNL     1      -2.574   4.744  -0.898  1.00  0.00     0.119 A 
ATOM     16  C   UNL     1      -3.931   4.546  -0.629  1.00  0.00     0.093 A 
ATOM     17  C   UNL     1      -4.592   3.403  -1.097  1.00  0.00     0.130 A 
BRANCH  15  18
ATOM     18  O   UNL     1      -1.939   5.890  -0.425  1.00  0.00    -0.508 OA
ATOM     19  H   UNL     1      -0.985   5.865  -0.086  1.00  0.00     0.293 HD
ENDBRANCH  15  18
BRANCH  17  20
ATOM     20  O   UNL     1      -5.957   3.275  -0.829  1.00  0.00    -0.507 OA
ATOM     21  H   UNL     1      -6.428   2.380  -0.776  1.00  0.00     0.293 HD
ENDBRANCH  17  20
ENDBRANCH   1  12
BRANCH   2  22
ATOM     22  O   UNL     1      -4.153   0.142  -0.129  1.00  0.00    -0.502 OA
ATOM     23  H   UNL     1      -4.627   0.638   0.617  1.00  0.00     0.293 HD
ENDBRANCH   2  22
BRANCH   6  24
ATOM     24  O   UNL     1      -6.902  -3.345  -3.079  1.00  0.00    -0.507 OA
ATOM     25  H   UNL     1      -7.506  -4.071  -3.434  1.00  0.00     0.293 HD
ENDBRANCH   6  24
BRANCH   8  26
ATOM     26  O   UNL     1      -6.976  -1.052  -7.278  1.00  0.00    -0.508 OA
ATOM     27  H   UNL     1      -7.913  -1.310  -7.565  1.00  0.00     0.293 HD
ENDBRANCH   8  26
TORSDOF 6
ENDMDL
