MODEL 1
REMARK VINA RESULT:    -5.266      0.000      0.000
REMARK INTER + INTRA:          -5.668
REMARK INTER:                  -5.574
REMARK INTRA:                  -0.094
REMARK UNBOUND:                -0.094
REMARK SMILES C=C(C)[C@@H]1CC=C(C)C(=O)C1
REMARK SMILES IDX 8 1 7 2 6 3 5 4 4 5 11 6 9 7 10 8 2 9 1 10 3 11
REMARK H PARENT
REMARK Flexibility Score: inf
ROOT
ATOM      1  C   UNL     1      99.370 119.789 123.508  1.00  0.00     0.048 C 
ATOM      2  C   UNL     1     100.074 118.635 124.168  1.00  0.00    -0.012 C 
ATOM      3  C   UNL     1     100.583 118.779 125.404  1.00  0.00    -0.019 C 
ATOM      4  C   UNL     1     101.281 117.652 126.116  1.00  0.00     0.036 C 
ATOM      5  C   UNL     1     102.023 116.740 125.120  1.00  0.00     0.025 C 
ATOM      6  C   UNL     1     101.053 116.234 124.036  1.00  0.00     0.089 C 
ATOM      7  C   UNL     1     100.315 117.384 123.406  1.00  0.00     0.158 C 
ATOM      8  O   UNL     1      99.871 117.260 122.233  1.00  0.00    -0.295 OA
ENDROOT
BRANCH   5   9
ATOM      9  C   UNL     1     102.727 115.589 125.826  1.00  0.00    -0.077 C 
ATOM     10  C   UNL     1     103.549 115.807 126.867  1.00  0.00     0.008 C 
ATOM     11  C   UNL     1     102.511 114.172 125.361  1.00  0.00     0.039 C 
ENDBRANCH   5   9
TORSDOF 1
ENDMDL
MODEL 2
REMARK VINA RESULT:    -5.026      1.658      2.705
REMARK INTER + INTRA:          -5.414
REMARK INTER:                  -5.317
REMARK INTRA:                  -0.096
REMARK UNBOUND:                -0.094
REMARK SMILES C=C(C)[C@@H]1CC=C(C)C(=O)C1
REMARK SMILES IDX 8 1 7 2 6 3 5 4 4 5 11 6 9 7 10 8 2 9 1 10 3 11
REMARK H PARENT
REMARK Flexibility Score: inf
ROOT
ATOM      1  C   UNL     1      99.655 118.129 120.014  1.00  0.00     0.048 C 
ATOM      2  C   UNL     1      99.909 117.930 121.483  1.00  0.00    -0.012 C 
ATOM      3  C   UNL     1      99.662 118.930 122.347  1.00  0.00    -0.019 C 
ATOM      4  C   UNL     1      99.881 118.777 123.828  1.00  0.00     0.036 C 
ATOM      5  C   UNL     1     101.061 117.830 124.120  1.00  0.00     0.025 C 
ATOM      6  C   UNL     1     100.844 116.476 123.420  1.00  0.00     0.089 C 
ATOM      7  C   UNL     1     100.546 116.676 121.959  1.00  0.00     0.158 C 
ATOM      8  O   UNL     1     100.812 115.752 121.145  1.00  0.00    -0.295 OA
ENDROOT
BRANCH   5   9
ATOM      9  C   UNL     1     101.289 117.659 125.616  1.00  0.00    -0.077 C 
ATOM     10  C   UNL     1     100.638 118.419 126.513  1.00  0.00     0.008 C 
ATOM     11  C   UNL     1     102.262 116.623 126.119  1.00  0.00     0.039 C 
ENDBRANCH   5   9
TORSDOF 1
ENDMDL
MODEL 3
REMARK VINA RESULT:    -5.024      1.560      4.423
REMARK INTER + INTRA:          -5.411
REMARK INTER:                  -5.313
REMARK INTRA:                  -0.098
REMARK UNBOUND:                -0.094
REMARK SMILES C=C(C)[C@@H]1CC=C(C)C(=O)C1
REMARK SMILES IDX 8 1 7 2 6 3 5 4 4 5 11 6 9 7 10 8 2 9 1 10 3 11
REMARK H PARENT
REMARK Flexibility Score: inf
ROOT
ATOM      1  C   UNL     1     102.864 115.592 126.571  1.00  0.00     0.048 C 
ATOM      2  C   UNL     1     102.203 116.555 125.623  1.00  0.00    -0.012 C 
ATOM      3  C   UNL     1     101.396 117.518 126.101  1.00  0.00    -0.019 C 
ATOM      4  C   UNL     1     100.725 118.518 125.199  1.00  0.00     0.036 C 
ATOM      5  C   UNL     1     100.391 117.895 123.830  1.00  0.00     0.025 C 
ATOM      6  C   UNL     1     101.658 117.293 123.194  1.00  0.00     0.089 C 
ATOM      7  C   UNL     1     102.344 116.364 124.158  1.00  0.00     0.158 C 
ATOM      8  O   UNL     1     103.071 115.439 123.707  1.00  0.00    -0.295 OA
ENDROOT
BRANCH   5   9
ATOM      9  C   UNL     1      99.719 118.898 122.902  1.00  0.00    -0.077 C 
ATOM     10  C   UNL     1      99.619 118.669 121.581  1.00  0.00     0.008 C 
ATOM     11  C   UNL     1      99.150 120.178 123.458  1.00  0.00     0.039 C 
ENDBRANCH   5   9
TORSDOF 1
ENDMDL
MODEL 4
REMARK VINA RESULT:    -4.976      1.813      3.071
REMARK INTER + INTRA:          -5.360
REMARK INTER:                  -5.262
REMARK INTRA:                  -0.098
REMARK UNBOUND:                -0.094
REMARK SMILES C=C(C)[C@@H]1CC=C(C)C(=O)C1
REMARK SMILES IDX 8 1 7 2 6 3 5 4 4 5 11 6 9 7 10 8 2 9 1 10 3 11
REMARK H PARENT
REMARK Flexibility Score: inf
ROOT
ATOM      1  C   UNL     1      99.399 118.148 119.988  1.00  0.00     0.048 C 
ATOM      2  C   UNL     1      99.968 118.118 121.380  1.00  0.00    -0.012 C 
ATOM      3  C   UNL     1     100.820 117.141 121.734  1.00  0.00    -0.019 C 
ATOM      4  C   UNL     1     101.433 117.075 123.108  1.00  0.00     0.036 C 
ATOM      5  C   UNL     1     100.467 117.627 124.173  1.00  0.00     0.025 C 
ATOM      6  C   UNL     1     100.021 119.053 123.801  1.00  0.00     0.089 C 
ATOM      7  C   UNL     1      99.492 119.093 122.393  1.00  0.00     0.158 C 
ATOM      8  O   UNL     1      98.665 119.988 122.073  1.00  0.00    -0.295 OA
ENDROOT
BRANCH   5   9
ATOM      9  C   UNL     1     101.076 117.575 125.568  1.00  0.00    -0.077 C 
ATOM     10  C   UNL     1     100.630 118.371 126.555  1.00  0.00     0.008 C 
ATOM     11  C   UNL     1     102.204 116.621 125.865  1.00  0.00     0.039 C 
ENDBRANCH   5   9
TORSDOF 1
ENDMDL
MODEL 5
REMARK VINA RESULT:    -4.862      2.333      4.643
REMARK INTER + INTRA:          -5.240
REMARK INTER:                  -5.142
REMARK INTRA:                  -0.097
REMARK UNBOUND:                -0.094
REMARK SMILES C=C(C)[C@@H]1CC=C(C)C(=O)C1
REMARK SMILES IDX 8 1 7 2 6 3 5 4 4 5 11 6 9 7 10 8 2 9 1 10 3 11
REMARK H PARENT
REMARK Flexibility Score: inf
ROOT
ATOM      1  C   UNL     1     100.975 118.486 126.228  1.00  0.00     0.048 C 
ATOM      2  C   UNL     1     100.484 118.250 124.826  1.00  0.00    -0.012 C 
ATOM      3  C   UNL     1     100.635 117.041 124.258  1.00  0.00    -0.019 C 
ATOM      4  C   UNL     1     100.145 116.746 122.866  1.00  0.00     0.036 C 
ATOM      5  C   UNL     1     100.240 117.994 121.968  1.00  0.00     0.025 C 
ATOM      6  C   UNL     1      99.489 119.173 122.613  1.00  0.00     0.089 C 
ATOM      7  C   UNL     1      99.948 119.383 124.030  1.00  0.00     0.158 C 
ATOM      8  O   UNL     1      99.840 120.526 124.549  1.00  0.00    -0.295 OA
ENDROOT
BRANCH   5   9
ATOM      9  C   UNL     1      99.740 117.713 120.558  1.00  0.00    -0.077 C 
ATOM     10  C   UNL     1      99.032 118.628 119.872  1.00  0.00     0.008 C 
ATOM     11  C   UNL     1     100.033 116.389 119.901  1.00  0.00     0.039 C 
ENDBRANCH   5   9
TORSDOF 1
ENDMDL
MODEL 6
REMARK VINA RESULT:    -4.819      2.495      3.650
REMARK INTER + INTRA:          -5.195
REMARK INTER:                  -5.103
REMARK INTRA:                  -0.092
REMARK UNBOUND:                -0.094
REMARK SMILES C=C(C)[C@@H]1CC=C(C)C(=O)C1
REMARK SMILES IDX 8 1 7 2 6 3 5 4 4 5 11 6 9 7 10 8 2 9 1 10 3 11
REMARK H PARENT
REMARK Flexibility Score: inf
ROOT
ATOM      1  C   UNL     1     101.006 118.315 126.240  1.00  0.00     0.048 C 
ATOM      2  C   UNL     1     101.295 117.263 125.205  1.00  0.00    -0.012 C 
ATOM      3  C   UNL     1     100.539 117.189 124.096  1.00  0.00    -0.019 C 
ATOM      4  C   UNL     1     100.797 116.167 123.021  1.00  0.00     0.036 C 
ATOM      5  C   UNL     1     101.351 114.860 123.619  1.00  0.00     0.025 C 
ATOM      6  C   UNL     1     102.607 115.150 124.461  1.00  0.00     0.089 C 
ATOM      7  C   UNL     1     102.331 116.234 125.468  1.00  0.00     0.158 C 
ATOM      8  O   UNL     1     103.017 116.280 126.524  1.00  0.00    -0.295 OA
ENDROOT
BRANCH   5   9
ATOM      9  C   UNL     1     101.625 113.820 122.542  1.00  0.00    -0.077 C 
ATOM     10  C   UNL     1     101.543 112.503 122.805  1.00  0.00     0.008 C 
ATOM     11  C   UNL     1     101.998 114.254 121.148  1.00  0.00     0.039 C 
ENDBRANCH   5   9
TORSDOF 1
ENDMDL
MODEL 7
REMARK VINA RESULT:    -4.817      2.221      4.308
REMARK INTER + INTRA:          -5.193
REMARK INTER:                  -5.095
REMARK INTRA:                  -0.098
REMARK UNBOUND:                -0.094
REMARK SMILES C=C(C)[C@@H]1CC=C(C)C(=O)C1
REMARK SMILES IDX 8 1 7 2 6 3 5 4 4 5 11 6 9 7 10 8 2 9 1 10 3 11
REMARK H PARENT
REMARK Flexibility Score: inf
ROOT
ATOM      1  C   UNL     1     100.621 118.374 126.488  1.00  0.00     0.048 C 
ATOM      2  C   UNL     1     100.609 118.153 125.000  1.00  0.00    -0.012 C 
ATOM      3  C   UNL     1      99.823 118.911 124.217  1.00  0.00    -0.019 C 
ATOM      4  C   UNL     1      99.786 118.743 122.722  1.00  0.00     0.036 C 
ATOM      5  C   UNL     1     100.021 117.273 122.322  1.00  0.00     0.025 C 
ATOM      6  C   UNL     1     101.335 116.757 122.935  1.00  0.00     0.089 C 
ATOM      7  C   UNL     1     101.368 117.018 124.416  1.00  0.00     0.158 C 
ATOM      8  O   UNL     1     102.077 116.283 125.154  1.00  0.00    -0.295 OA
ENDROOT
BRANCH   5   9
ATOM      9  C   UNL     1      99.995 117.089 120.811  1.00  0.00    -0.077 C 
ATOM     10  C   UNL     1     100.512 115.991 120.232  1.00  0.00     0.008 C 
ATOM     11  C   UNL     1      99.385 118.149 119.930  1.00  0.00     0.039 C 
ENDBRANCH   5   9
TORSDOF 1
ENDMDL
MODEL 8
REMARK VINA RESULT:    -4.748      2.809      4.585
REMARK INTER + INTRA:          -5.119
REMARK INTER:                  -5.023
REMARK INTRA:                  -0.097
REMARK UNBOUND:                -0.094
REMARK SMILES C=C(C)[C@@H]1CC=C(C)C(=O)C1
REMARK SMILES IDX 8 1 7 2 6 3 5 4 4 5 11 6 9 7 10 8 2 9 1 10 3 11
REMARK H PARENT
REMARK Flexibility Score: inf
ROOT
ATOM      1  C   UNL     1     101.743 112.326 121.659  1.00  0.00     0.048 C 
ATOM      2  C   UNL     1     101.845 113.232 122.854  1.00  0.00    -0.012 C 
ATOM      3  C   UNL     1     101.378 114.491 122.783  1.00  0.00    -0.019 C 
ATOM      4  C   UNL     1     101.439 115.432 123.956  1.00  0.00     0.036 C 
ATOM      5  C   UNL     1     102.684 115.160 124.823  1.00  0.00     0.025 C 
ATOM      6  C   UNL     1     102.718 113.683 125.258  1.00  0.00     0.089 C 
ATOM      7  C   UNL     1     102.571 112.776 124.066  1.00  0.00     0.158 C 
ATOM      8  O   UNL     1     103.042 111.609 124.121  1.00  0.00    -0.295 OA
ENDROOT
BRANCH   5   9
ATOM      9  C   UNL     1     102.754 116.100 126.018  1.00  0.00    -0.077 C 
ATOM     10  C   UNL     1     103.705 115.963 126.960  1.00  0.00     0.008 C 
ATOM     11  C   UNL     1     101.747 117.211 126.168  1.00  0.00     0.039 C 
ENDBRANCH   5   9
TORSDOF 1
ENDMDL
MODEL 9
REMARK VINA RESULT:    -4.691      2.106      4.704
REMARK INTER + INTRA:          -5.059
REMARK INTER:                  -4.963
REMARK INTRA:                  -0.095
REMARK UNBOUND:                -0.094
REMARK SMILES C=C(C)[C@@H]1CC=C(C)C(=O)C1
REMARK SMILES IDX 8 1 7 2 6 3 5 4 4 5 11 6 9 7 10 8 2 9 1 10 3 11
REMARK H PARENT
REMARK Flexibility Score: inf
ROOT
ATOM      1  C   UNL     1     102.883 112.910 124.627  1.00  0.00     0.048 C 
ATOM      2  C   UNL     1     102.244 114.271 124.595  1.00  0.00    -0.012 C 
ATOM      3  C   UNL     1     101.461 114.619 123.560  1.00  0.00    -0.019 C 
ATOM      4  C   UNL     1     100.783 115.961 123.487  1.00  0.00     0.036 C 
ATOM      5  C   UNL     1     101.639 117.052 124.158  1.00  0.00     0.025 C 
ATOM      6  C   UNL     1     101.980 116.649 125.604  1.00  0.00     0.089 C 
ATOM      7  C   UNL     1     102.579 115.269 125.642  1.00  0.00     0.158 C 
ATOM      8  O   UNL     1     103.343 114.957 126.594  1.00  0.00    -0.295 OA
ENDROOT
BRANCH   5   9
ATOM      9  C   UNL     1     100.961 118.415 124.100  1.00  0.00    -0.077 C 
ATOM     10  C   UNL     1     100.304 118.914 125.161  1.00  0.00     0.008 C 
ATOM     11  C   UNL     1     101.016 119.234 122.836  1.00  0.00     0.039 C 
ENDBRANCH   5   9
TORSDOF 1
ENDMDL
