MODEL 1
REMARK VINA RESULT:    -4.878      0.000      0.000
REMARK INTER + INTRA:          -5.928
REMARK INTER:                  -5.590
REMARK INTRA:                  -0.337
REMARK UNBOUND:                -0.337
REMARK SMILES COc1ccc(C(C)=O)c(O)c1
REMARK SMILES IDX 6 1 10 2 12 3 3 4 4 5 5 6 7 7 8 8 9 9 11 10 2 12 1 13
REMARK H PARENT 11 11
REMARK Flexibility Score: inf
ROOT
ATOM      1  C   UNL     1      45.752   6.667  16.224  1.00  0.00     0.059 A 
ATOM      2  C   UNL     1      46.806   6.404  17.130  1.00  0.00     0.130 A 
ATOM      3  C   UNL     1      46.804   6.993  18.403  1.00  0.00     0.093 A 
ATOM      4  C   UNL     1      45.766   7.839  18.800  1.00  0.00     0.122 A 
ATOM      5  C   UNL     1      44.716   8.101  17.906  1.00  0.00     0.047 A 
ATOM      6  C   UNL     1      44.710   7.522  16.635  1.00  0.00     0.019 A 
ENDROOT
BRANCH   1   7
ATOM      7  C   UNL     1      45.734   6.064  14.860  1.00  0.00     0.163 C 
ATOM      8  C   UNL     1      44.476   5.517  14.256  1.00  0.00     0.093 C 
ATOM      9  O   UNL     1      46.789   6.030  14.169  1.00  0.00    -0.294 OA
ENDBRANCH   1   7
BRANCH   2  10
ATOM     10  O   UNL     1      47.852   5.551  16.775  1.00  0.00    -0.507 OA
ATOM     11  H   UNL     1      48.744   5.570  17.257  1.00  0.00     0.293 HD
ENDBRANCH   2  10
BRANCH   4  12
ATOM     12  O   UNL     1      45.817   8.397  20.086  1.00  0.00    -0.497 OA
ATOM     13  C   UNL     1      46.542   7.837  21.177  1.00  0.00     0.278 C 
ENDBRANCH   4  12
TORSDOF 3
ENDMDL
MODEL 2
REMARK VINA RESULT:    -4.706      1.951      5.263
REMARK INTER + INTRA:          -5.731
REMARK INTER:                  -5.387
REMARK INTRA:                  -0.344
REMARK UNBOUND:                -0.337
REMARK SMILES COc1ccc(C(C)=O)c(O)c1
REMARK SMILES IDX 6 1 10 2 12 3 3 4 4 5 5 6 7 7 8 8 9 9 11 10 2 12 1 13
REMARK H PARENT 11 11
REMARK Flexibility Score: inf
ROOT
ATOM      1  C   UNL     1      46.064   8.193  20.653  1.00  0.00     0.059 A 
ATOM      2  C   UNL     1      46.640   7.006  20.143  1.00  0.00     0.130 A 
ATOM      3  C   UNL     1      46.739   6.811  18.757  1.00  0.00     0.093 A 
ATOM      4  C   UNL     1      46.278   7.779  17.862  1.00  0.00     0.122 A 
ATOM      5  C   UNL     1      45.708   8.960  18.363  1.00  0.00     0.047 A 
ATOM      6  C   UNL     1      45.603   9.163  19.741  1.00  0.00     0.019 A 
ENDROOT
BRANCH   1   7
ATOM      7  C   UNL     1      45.935   8.423  22.121  1.00  0.00     0.163 C 
ATOM      8  C   UNL     1      44.606   8.678  22.766  1.00  0.00     0.093 C 
ATOM      9  O   UNL     1      46.956   8.378  22.861  1.00  0.00    -0.294 OA
ENDBRANCH   1   7
BRANCH   2  10
ATOM     10  O   UNL     1      47.125   6.023  21.006  1.00  0.00    -0.507 OA
ATOM     11  H   UNL     1      47.460   6.247  21.937  1.00  0.00     0.293 HD
ENDBRANCH   2  10
BRANCH   4  12
ATOM     12  O   UNL     1      46.405   7.528  16.487  1.00  0.00    -0.497 OA
ATOM     13  C   UNL     1      46.981   6.348  15.935  1.00  0.00     0.278 C 
ENDBRANCH   4  12
TORSDOF 3
ENDMDL
MODEL 3
REMARK VINA RESULT:    -4.617      1.851      2.532
REMARK INTER + INTRA:          -5.629
REMARK INTER:                  -5.316
REMARK INTRA:                  -0.313
REMARK UNBOUND:                -0.337
REMARK SMILES COc1ccc(C(C)=O)c(O)c1
REMARK SMILES IDX 6 1 10 2 12 3 3 4 4 5 5 6 7 7 8 8 9 9 11 10 2 12 1 13
REMARK H PARENT 11 11
REMARK Flexibility Score: inf
ROOT
ATOM      1  C   UNL     1      45.214   7.353  16.739  1.00  0.00     0.059 A 
ATOM      2  C   UNL     1      44.497   8.276  17.535  1.00  0.00     0.130 A 
ATOM      3  C   UNL     1      44.907   8.536  18.852  1.00  0.00     0.093 A 
ATOM      4  C   UNL     1      46.024   7.898  19.395  1.00  0.00     0.122 A 
ATOM      5  C   UNL     1      46.740   6.982  18.608  1.00  0.00     0.047 A 
ATOM      6  C   UNL     1      46.339   6.714  17.297  1.00  0.00     0.019 A 
ENDROOT
BRANCH   1   7
ATOM      7  C   UNL     1      44.795   7.048  15.340  1.00  0.00     0.163 C 
ATOM      8  C   UNL     1      45.666   7.381  14.166  1.00  0.00     0.093 C 
ATOM      9  O   UNL     1      43.696   6.470  15.120  1.00  0.00    -0.294 OA
ENDBRANCH   1   7
BRANCH   2  10
ATOM     10  O   UNL     1      43.385   8.946  17.023  1.00  0.00    -0.507 OA
ATOM     11  H   UNL     1      43.470   9.839  16.550  1.00  0.00     0.293 HD
ENDBRANCH   2  10
BRANCH   4  12
ATOM     12  O   UNL     1      46.386   8.200  20.717  1.00  0.00    -0.497 OA
ATOM     13  C   UNL     1      47.173   7.353  21.548  1.00  0.00     0.278 C 
ENDBRANCH   4  12
TORSDOF 3
ENDMDL
MODEL 4
REMARK VINA RESULT:    -4.605      3.679      7.989
REMARK INTER + INTRA:          -5.616
REMARK INTER:                  -5.302
REMARK INTRA:                  -0.313
REMARK UNBOUND:                -0.337
REMARK SMILES COc1ccc(C(C)=O)c(O)c1
REMARK SMILES IDX 6 1 10 2 12 3 3 4 4 5 5 6 7 7 8 8 9 9 11 10 2 12 1 13
REMARK H PARENT 11 11
REMARK Flexibility Score: inf
ROOT
ATOM      1  C   UNL     1      45.191   9.181  24.063  1.00  0.00     0.059 A 
ATOM      2  C   UNL     1      44.083   8.959  23.212  1.00  0.00     0.130 A 
ATOM      3  C   UNL     1      44.286   8.599  21.872  1.00  0.00     0.093 A 
ATOM      4  C   UNL     1      45.576   8.449  21.357  1.00  0.00     0.122 A 
ATOM      5  C   UNL     1      46.679   8.666  22.198  1.00  0.00     0.047 A 
ATOM      6  C   UNL     1      46.487   9.027  23.533  1.00  0.00     0.019 A 
ENDROOT
BRANCH   1   7
ATOM      7  C   UNL     1      45.005   9.576  25.489  1.00  0.00     0.163 C 
ATOM      8  C   UNL     1      45.389  10.937  25.987  1.00  0.00     0.093 C 
ATOM      9  O   UNL     1      44.487   8.769  26.308  1.00  0.00    -0.294 OA
ENDBRANCH   1   7
BRANCH   2  10
ATOM     10  O   UNL     1      42.779   9.084  23.694  1.00  0.00    -0.507 OA
ATOM     11  H   UNL     1      42.576   9.552  24.570  1.00  0.00     0.293 HD
ENDBRANCH   2  10
BRANCH   4  12
ATOM     12  O   UNL     1      45.717   8.085  20.009  1.00  0.00    -0.497 OA
ATOM     13  C   UNL     1      46.664   7.138  19.526  1.00  0.00     0.278 C 
ENDBRANCH   4  12
TORSDOF 3
ENDMDL
MODEL 5
REMARK VINA RESULT:    -4.600      1.756      2.250
REMARK INTER + INTRA:          -5.609
REMARK INTER:                  -5.294
REMARK INTRA:                  -0.315
REMARK UNBOUND:                -0.337
REMARK SMILES COc1ccc(C(C)=O)c(O)c1
REMARK SMILES IDX 6 1 10 2 12 3 3 4 4 5 5 6 7 7 8 8 9 9 11 10 2 12 1 13
REMARK H PARENT 11 11
REMARK Flexibility Score: inf
ROOT
ATOM      1  C   UNL     1      45.412   7.759  17.937  1.00  0.00     0.059 A 
ATOM      2  C   UNL     1      46.453   6.964  18.472  1.00  0.00     0.130 A 
ATOM      3  C   UNL     1      46.832   7.112  19.815  1.00  0.00     0.093 A 
ATOM      4  C   UNL     1      46.190   8.035  20.643  1.00  0.00     0.122 A 
ATOM      5  C   UNL     1      45.156   8.825  20.118  1.00  0.00     0.047 A 
ATOM      6  C   UNL     1      44.772   8.687  18.781  1.00  0.00     0.019 A 
ENDROOT
BRANCH   1   7
ATOM      7  C   UNL     1      44.996   7.631  16.510  1.00  0.00     0.163 C 
ATOM      8  C   UNL     1      45.254   8.720  15.513  1.00  0.00     0.093 C 
ATOM      9  O   UNL     1      44.436   6.576  16.106  1.00  0.00    -0.294 OA
ENDBRANCH   1   7
BRANCH   2  10
ATOM     10  O   UNL     1      47.106   6.019  17.680  1.00  0.00    -0.507 OA
ATOM     11  H   UNL     1      47.189   6.130  16.675  1.00  0.00     0.293 HD
ENDBRANCH   2  10
BRANCH   4  12
ATOM     12  O   UNL     1      46.612   8.137  21.978  1.00  0.00    -0.497 OA
ATOM     13  C   UNL     1      47.852   7.639  22.469  1.00  0.00     0.278 C 
ENDBRANCH   4  12
TORSDOF 3
ENDMDL
MODEL 6
REMARK VINA RESULT:    -4.519      2.067      5.439
REMARK INTER + INTRA:          -5.517
REMARK INTER:                  -5.254
REMARK INTRA:                  -0.262
REMARK UNBOUND:                -0.337
REMARK SMILES COc1ccc(C(C)=O)c(O)c1
REMARK SMILES IDX 6 1 10 2 12 3 3 4 4 5 5 6 7 7 8 8 9 9 11 10 2 12 1 13
REMARK H PARENT 11 11
REMARK Flexibility Score: inf
ROOT
ATOM      1  C   UNL     1      46.286   7.803  20.319  1.00  0.00     0.059 A 
ATOM      2  C   UNL     1      45.111   8.563  20.109  1.00  0.00     0.130 A 
ATOM      3  C   UNL     1      44.506   8.588  18.843  1.00  0.00     0.093 A 
ATOM      4  C   UNL     1      45.044   7.863  17.777  1.00  0.00     0.122 A 
ATOM      5  C   UNL     1      46.207   7.105  17.981  1.00  0.00     0.047 A 
ATOM      6  C   UNL     1      46.820   7.077  19.237  1.00  0.00     0.019 A 
ENDROOT
BRANCH   1   7
ATOM      7  C   UNL     1      46.957   7.768  21.650  1.00  0.00     0.163 C 
ATOM      8  C   UNL     1      47.871   6.647  22.044  1.00  0.00     0.093 C 
ATOM      9  O   UNL     1      46.787   8.712  22.470  1.00  0.00    -0.294 OA
ENDBRANCH   1   7
BRANCH   2  10
ATOM     10  O   UNL     1      44.536   9.287  21.154  1.00  0.00    -0.507 OA
ATOM     11  H   UNL     1      44.842  10.225  21.386  1.00  0.00     0.293 HD
ENDBRANCH   2  10
BRANCH   4  12
ATOM     12  O   UNL     1      44.393   7.925  16.535  1.00  0.00    -0.497 OA
ATOM     13  C   UNL     1      44.284   6.831  15.630  1.00  0.00     0.278 C 
ENDBRANCH   4  12
TORSDOF 3
ENDMDL
MODEL 7
REMARK VINA RESULT:    -4.514      1.670      4.996
REMARK INTER + INTRA:          -5.511
REMARK INTER:                  -5.169
REMARK INTRA:                  -0.342
REMARK UNBOUND:                -0.337
REMARK SMILES COc1ccc(C(C)=O)c(O)c1
REMARK SMILES IDX 6 1 10 2 12 3 3 4 4 5 5 6 7 7 8 8 9 9 11 10 2 12 1 13
REMARK H PARENT 11 11
REMARK Flexibility Score: inf
ROOT
ATOM      1  C   UNL     1      45.253   8.229  18.754  1.00  0.00     0.059 A 
ATOM      2  C   UNL     1      44.494   8.243  17.560  1.00  0.00     0.130 A 
ATOM      3  C   UNL     1      44.885   7.455  16.468  1.00  0.00     0.093 A 
ATOM      4  C   UNL     1      46.019   6.643  16.539  1.00  0.00     0.122 A 
ATOM      5  C   UNL     1      46.774   6.622  17.722  1.00  0.00     0.047 A 
ATOM      6  C   UNL     1      46.395   7.406  18.815  1.00  0.00     0.019 A 
ENDROOT
BRANCH   1   7
ATOM      7  C   UNL     1      44.868   9.066  19.927  1.00  0.00     0.163 C 
ATOM      8  C   UNL     1      44.820   8.504  21.316  1.00  0.00     0.093 C 
ATOM      9  O   UNL     1      44.598  10.288  19.771  1.00  0.00    -0.294 OA
ENDBRANCH   1   7
BRANCH   2  10
ATOM     10  O   UNL     1      43.346   9.030  17.457  1.00  0.00    -0.507 OA
ATOM     11  H   UNL     1      43.397  10.037  17.345  1.00  0.00     0.293 HD
ENDBRANCH   2  10
BRANCH   4  12
ATOM     12  O   UNL     1      46.359   5.875  15.415  1.00  0.00    -0.497 OA
ATOM     13  C   UNL     1      47.614   5.225  15.235  1.00  0.00     0.278 C 
ENDBRANCH   4  12
TORSDOF 3
ENDMDL
MODEL 8
REMARK VINA RESULT:    -4.150      5.167      6.814
REMARK INTER + INTRA:          -5.094
REMARK INTER:                  -4.803
REMARK INTRA:                  -0.292
REMARK UNBOUND:                -0.337
REMARK SMILES COc1ccc(C(C)=O)c(O)c1
REMARK SMILES IDX 6 1 10 2 12 3 3 4 4 5 5 6 7 7 8 8 9 9 11 10 2 12 1 13
REMARK H PARENT 11 11
REMARK Flexibility Score: inf
ROOT
ATOM      1  C   UNL     1      45.818   8.513  22.612  1.00  0.00     0.059 A 
ATOM      2  C   UNL     1      44.831   9.277  21.946  1.00  0.00     0.130 A 
ATOM      3  C   UNL     1      43.813   9.904  22.680  1.00  0.00     0.093 A 
ATOM      4  C   UNL     1      43.759   9.793  24.071  1.00  0.00     0.122 A 
ATOM      5  C   UNL     1      44.738   9.038  24.737  1.00  0.00     0.047 A 
ATOM      6  C   UNL     1      45.754   8.407  24.015  1.00  0.00     0.019 A 
ENDROOT
BRANCH   1   7
ATOM      7  C   UNL     1      46.904   7.825  21.856  1.00  0.00     0.163 C 
ATOM      8  C   UNL     1      48.227   7.510  22.487  1.00  0.00     0.093 C 
ATOM      9  O   UNL     1      46.715   7.464  20.662  1.00  0.00    -0.294 OA
ENDBRANCH   1   7
BRANCH   2  10
ATOM     10  O   UNL     1      44.860   9.424  20.559  1.00  0.00    -0.507 OA
ATOM     11  H   UNL     1      44.053   9.750  20.039  1.00  0.00     0.293 HD
ENDBRANCH   2  10
BRANCH   4  12
ATOM     12  O   UNL     1      42.719  10.445  24.751  1.00  0.00    -0.497 OA
ATOM     13  C   UNL     1      41.517   9.812  25.178  1.00  0.00     0.278 C 
ENDBRANCH   4  12
TORSDOF 3
ENDMDL
