MODEL 1
REMARK VINA RESULT:    -4.128      0.000      0.000
REMARK INTER + INTRA:          -9.931
REMARK INTER:                  -7.990
REMARK INTRA:                  -1.941
REMARK UNBOUND:                -1.941
REMARK SMILES CCCCCCCCCCCCCCCCCC(=O)[O-]
REMARK SMILES IDX 10 1 11 2 12 3 13 4 14 5 15 6 16 7 17 8 18 9 19 10 20 11
REMARK SMILES IDX 9 12 8 13 7 14 6 15 5 16 4 17 3 18 2 19 1 20
REMARK H PARENT
REMARK Flexibility Score: inf
ROOT
ATOM      1  C   UNL     1      -4.543  14.009 -15.965  1.00  0.00     0.000 C 
ENDROOT
BRANCH   1   2
ATOM      2  C   UNL     1      -3.081  13.721 -15.581  1.00  0.00     0.000 C 
BRANCH   2   3
ATOM      3  C   UNL     1      -2.074  14.576 -16.373  1.00  0.00     0.000 C 
BRANCH   3   4
ATOM      4  C   UNL     1      -2.319  14.625 -17.892  1.00  0.00     0.000 C 
BRANCH   4   5
ATOM      5  C   UNL     1      -1.552  15.764 -18.585  1.00  0.00     0.000 C 
BRANCH   5   6
ATOM      6  C   UNL     1      -0.128  15.937 -18.033  1.00  0.00     0.000 C 
BRANCH   6   7
ATOM      7  C   UNL     1       0.670  17.011 -18.788  1.00  0.00     0.006 C 
BRANCH   7   8
ATOM      8  C   UNL     1      -0.218  18.210 -19.132  1.00  0.00     0.053 C 
BRANCH   8   9
ATOM      9  C   UNL     1       0.015  19.331 -18.170  1.00  0.00     0.041 C 
ATOM     10  O   UNL     1       1.186  19.625 -17.813  1.00  0.00    -0.550 OA
ATOM     11  O   UNL     1      -1.063  20.023 -17.633  1.00  0.00    -0.550 OA
ENDBRANCH   8   9
ENDBRANCH   7   8
ENDBRANCH   6   7
ENDBRANCH   5   6
ENDBRANCH   4   5
ENDBRANCH   3   4
ENDBRANCH   2   3
ENDBRANCH   1   2
BRANCH   1  12
ATOM     12  C   UNL     1      -5.538  13.134 -15.185  1.00  0.00     0.000 C 
BRANCH  12  13
ATOM     13  C   UNL     1      -6.497  12.366 -16.111  1.00  0.00    -0.000 C 
BRANCH  13  14
ATOM     14  C   UNL     1      -6.369  12.796 -17.581  1.00  0.00    -0.000 C 
BRANCH  14  15
ATOM     15  C   UNL     1      -5.926  11.645 -18.501  1.00  0.00    -0.000 C 
BRANCH  15  16
ATOM     16  C   UNL     1      -4.631  11.974 -19.272  1.00  0.00    -0.000 C 
BRANCH  16  17
ATOM     17  C   UNL     1      -3.361  11.351 -18.659  1.00  0.00    -0.000 C 
BRANCH  17  18
ATOM     18  C   UNL     1      -3.610  10.552 -17.361  1.00  0.00    -0.000 C 
BRANCH  18  19
ATOM     19  C   UNL     1      -3.457   9.030 -17.528  1.00  0.00    -0.003 C 
ATOM     20  C   UNL     1      -3.217   8.621 -18.982  1.00  0.00     0.004 C 
ENDBRANCH  18  19
ENDBRANCH  17  18
ENDBRANCH  16  17
ENDBRANCH  15  16
ENDBRANCH  14  15
ENDBRANCH  13  14
ENDBRANCH  12  13
ENDBRANCH   1  12
TORSDOF 16
ENDMDL
MODEL 2
REMARK VINA RESULT:    -4.045      1.000      2.079
REMARK INTER + INTRA:          -9.770
REMARK INTER:                  -7.784
REMARK INTRA:                  -1.986
REMARK UNBOUND:                -1.941
REMARK SMILES CCCCCCCCCCCCCCCCCC(=O)[O-]
REMARK SMILES IDX 10 1 11 2 12 3 13 4 14 5 15 6 16 7 17 8 18 9 19 10 20 11
REMARK SMILES IDX 9 12 8 13 7 14 6 15 5 16 4 17 3 18 2 19 1 20
REMARK H PARENT
REMARK Flexibility Score: inf
ROOT
ATOM      1  C   UNL     1      -3.572  13.536 -15.088  1.00  0.00     0.000 C 
ENDROOT
BRANCH   1   2
ATOM      2  C   UNL     1      -2.426  14.101 -15.946  1.00  0.00     0.000 C 
BRANCH   2   3
ATOM      3  C   UNL     1      -2.888  14.536 -17.349  1.00  0.00     0.000 C 
BRANCH   3   4
ATOM      4  C   UNL     1      -1.751  14.799 -18.353  1.00  0.00     0.000 C 
BRANCH   4   5
ATOM      5  C   UNL     1      -0.967  16.086 -18.046  1.00  0.00     0.000 C 
BRANCH   5   6
ATOM      6  C   UNL     1       0.487  16.024 -18.543  1.00  0.00     0.000 C 
BRANCH   6   7
ATOM      7  C   UNL     1       1.086  17.418 -18.785  1.00  0.00     0.006 C 
BRANCH   7   8
ATOM      8  C   UNL     1      -0.009  18.431 -19.132  1.00  0.00     0.053 C 
BRANCH   8   9
ATOM      9  C   UNL     1      -0.031  19.543 -18.132  1.00  0.00     0.041 C 
ATOM     10  O   UNL     1      -1.126  20.049 -17.772  1.00  0.00    -0.550 OA
ATOM     11  O   UNL     1       1.160  20.051 -17.629  1.00  0.00    -0.550 OA
ENDBRANCH   8   9
ENDBRANCH   7   8
ENDBRANCH   6   7
ENDBRANCH   5   6
ENDBRANCH   4   5
ENDBRANCH   3   4
ENDBRANCH   2   3
ENDBRANCH   1   2
BRANCH   1  12
ATOM     12  C   UNL     1      -4.941  13.665 -15.779  1.00  0.00     0.000 C 
BRANCH  12  13
ATOM     13  C   UNL     1      -5.935  12.585 -15.319  1.00  0.00    -0.000 C 
BRANCH  13  14
ATOM     14  C   UNL     1      -6.026  11.409 -16.304  1.00  0.00    -0.000 C 
BRANCH  14  15
ATOM     15  C   UNL     1      -5.050  10.270 -15.962  1.00  0.00    -0.000 C 
BRANCH  15  16
ATOM     16  C   UNL     1      -4.173   9.867 -17.165  1.00  0.00    -0.000 C 
BRANCH  16  17
ATOM     17  C   UNL     1      -3.512  11.059 -17.886  1.00  0.00    -0.000 C 
BRANCH  17  18
ATOM     18  C   UNL     1      -3.938  11.222 -19.362  1.00  0.00    -0.000 C 
BRANCH  18  19
ATOM     19  C   UNL     1      -4.821  12.456 -19.622  1.00  0.00    -0.003 C 
ATOM     20  C   UNL     1      -6.292  12.092 -19.820  1.00  0.00     0.004 C 
ENDBRANCH  18  19
ENDBRANCH  17  18
ENDBRANCH  16  17
ENDBRANCH  15  16
ENDBRANCH  14  15
ENDBRANCH  13  14
ENDBRANCH  12  13
ENDBRANCH   1  12
TORSDOF 16
ENDMDL
MODEL 3
REMARK VINA RESULT:    -3.969      3.638      7.597
REMARK INTER + INTRA:          -9.623
REMARK INTER:                  -7.975
REMARK INTRA:                  -1.649
REMARK UNBOUND:                -1.941
REMARK SMILES CCCCCCCCCCCCCCCCCC(=O)[O-]
REMARK SMILES IDX 10 1 11 2 12 3 13 4 14 5 15 6 16 7 17 8 18 9 19 10 20 11
REMARK SMILES IDX 9 12 8 13 7 14 6 15 5 16 4 17 3 18 2 19 1 20
REMARK H PARENT
REMARK Flexibility Score: inf
ROOT
ATOM      1  C   UNL     1      -3.224  13.349 -15.536  1.00  0.00     0.000 C 
ENDROOT
BRANCH   1   2
ATOM      2  C   UNL     1      -4.720  13.615 -15.294  1.00  0.00     0.000 C 
BRANCH   2   3
ATOM      3  C   UNL     1      -5.631  12.576 -15.976  1.00  0.00     0.000 C 
BRANCH   3   4
ATOM      4  C   UNL     1      -6.295  13.052 -17.280  1.00  0.00     0.000 C 
BRANCH   4   5
ATOM      5  C   UNL     1      -6.252  11.993 -18.394  1.00  0.00     0.000 C 
BRANCH   5   6
ATOM      6  C   UNL     1      -5.188  12.301 -19.461  1.00  0.00     0.000 C 
BRANCH   6   7
ATOM      7  C   UNL     1      -4.191  11.148 -19.649  1.00  0.00     0.006 C 
BRANCH   7   8
ATOM      8  C   UNL     1      -3.308  10.982 -18.409  1.00  0.00     0.053 C 
BRANCH   8   9
ATOM      9  C   UNL     1      -3.570   9.666 -17.749  1.00  0.00     0.041 C 
ATOM     10  O   UNL     1      -3.214   8.595 -18.306  1.00  0.00    -0.550 OA
ATOM     11  O   UNL     1      -4.248   9.618 -16.536  1.00  0.00    -0.550 OA
ENDBRANCH   8   9
ENDBRANCH   7   8
ENDBRANCH   6   7
ENDBRANCH   5   6
ENDBRANCH   4   5
ENDBRANCH   3   4
ENDBRANCH   2   3
ENDBRANCH   1   2
BRANCH   1  12
ATOM     12  C   UNL     1      -2.556  14.461 -16.362  1.00  0.00     0.000 C 
BRANCH  12  13
ATOM     13  C   UNL     1      -2.675  14.221 -17.877  1.00  0.00    -0.000 C 
BRANCH  13  14
ATOM     14  C   UNL     1      -1.806  15.186 -18.698  1.00  0.00    -0.000 C 
BRANCH  14  15
ATOM     15  C   UNL     1      -0.705  15.855 -17.858  1.00  0.00    -0.000 C 
BRANCH  15  16
ATOM     16  C   UNL     1       0.618  16.008 -18.637  1.00  0.00    -0.000 C 
BRANCH  16  17
ATOM     17  C   UNL     1       1.212  17.431 -18.592  1.00  0.00    -0.000 C 
BRANCH  17  18
ATOM     18  C   UNL     1       0.608  18.403 -19.629  1.00  0.00    -0.000 C 
BRANCH  18  19
ATOM     19  C   UNL     1      -0.414  19.389 -19.036  1.00  0.00    -0.003 C 
ATOM     20  C   UNL     1      -0.089  19.773 -17.592  1.00  0.00     0.004 C 
ENDBRANCH  18  19
ENDBRANCH  17  18
ENDBRANCH  16  17
ENDBRANCH  15  16
ENDBRANCH  14  15
ENDBRANCH  13  14
ENDBRANCH  12  13
ENDBRANCH   1  12
TORSDOF 16
ENDMDL
MODEL 4
REMARK VINA RESULT:    -3.880      0.924      1.866
REMARK INTER + INTRA:          -9.450
REMARK INTER:                  -8.185
REMARK INTRA:                  -1.265
REMARK UNBOUND:                -1.941
REMARK SMILES CCCCCCCCCCCCCCCCCC(=O)[O-]
REMARK SMILES IDX 10 1 11 2 12 3 13 4 14 5 15 6 16 7 17 8 18 9 19 10 20 11
REMARK SMILES IDX 9 12 8 13 7 14 6 15 5 16 4 17 3 18 2 19 1 20
REMARK H PARENT
REMARK Flexibility Score: inf
ROOT
ATOM      1  C   UNL     1      -3.292  14.076 -16.813  1.00  0.00     0.000 C 
ENDROOT
BRANCH   1   2
ATOM      2  C   UNL     1      -1.962  14.850 -16.793  1.00  0.00     0.000 C 
BRANCH   2   3
ATOM      3  C   UNL     1      -1.476  15.241 -18.202  1.00  0.00     0.000 C 
BRANCH   3   4
ATOM      4  C   UNL     1      -0.478  16.412 -18.242  1.00  0.00     0.000 C 
BRANCH   4   5
ATOM      5  C   UNL     1       0.936  15.978 -18.664  1.00  0.00     0.000 C 
BRANCH   5   6
ATOM      6  C   UNL     1       1.830  17.169 -19.045  1.00  0.00     0.000 C 
BRANCH   6   7
ATOM      7  C   UNL     1       1.071  18.244 -19.838  1.00  0.00     0.006 C 
BRANCH   7   8
ATOM      8  C   UNL     1       1.479  19.649 -19.384  1.00  0.00     0.053 C 
BRANCH   8   9
ATOM      9  C   UNL     1       1.056  19.887 -17.969  1.00  0.00     0.041 C 
ATOM     10  O   UNL     1       1.919  20.087 -17.075  1.00  0.00    -0.550 OA
ATOM     11  O   UNL     1      -0.291  19.845 -17.629  1.00  0.00    -0.550 OA
ENDBRANCH   8   9
ENDBRANCH   7   8
ENDBRANCH   6   7
ENDBRANCH   5   6
ENDBRANCH   4   5
ENDBRANCH   3   4
ENDBRANCH   2   3
ENDBRANCH   1   2
BRANCH   1  12
ATOM     12  C   UNL     1      -3.586  13.380 -15.473  1.00  0.00     0.000 C 
BRANCH  12  13
ATOM     13  C   UNL     1      -5.059  13.519 -15.050  1.00  0.00    -0.000 C 
BRANCH  13  14
ATOM     14  C   UNL     1      -5.963  12.464 -15.707  1.00  0.00    -0.000 C 
BRANCH  14  15
ATOM     15  C   UNL     1      -6.359  12.835 -17.147  1.00  0.00    -0.000 C 
BRANCH  15  16
ATOM     16  C   UNL     1      -6.032  11.712 -18.153  1.00  0.00    -0.000 C 
BRANCH  16  17
ATOM     17  C   UNL     1      -4.964  12.096 -19.197  1.00  0.00    -0.000 C 
BRANCH  17  18
ATOM     18  C   UNL     1      -3.578  11.462 -18.946  1.00  0.00    -0.000 C 
BRANCH  18  19
ATOM     19  C   UNL     1      -3.547  10.485 -17.758  1.00  0.00    -0.003 C 
ATOM     20  C   UNL     1      -3.284   9.042 -18.193  1.00  0.00     0.004 C 
ENDBRANCH  18  19
ENDBRANCH  17  18
ENDBRANCH  16  17
ENDBRANCH  15  16
ENDBRANCH  14  15
ENDBRANCH  13  14
ENDBRANCH  12  13
ENDBRANCH   1  12
TORSDOF 16
ENDMDL
MODEL 5
REMARK VINA RESULT:    -3.817      3.293      7.974
REMARK INTER + INTRA:          -9.328
REMARK INTER:                  -8.047
REMARK INTRA:                  -1.280
REMARK UNBOUND:                -1.941
REMARK SMILES CCCCCCCCCCCCCCCCCC(=O)[O-]
REMARK SMILES IDX 10 1 11 2 12 3 13 4 14 5 15 6 16 7 17 8 18 9 19 10 20 11
REMARK SMILES IDX 9 12 8 13 7 14 6 15 5 16 4 17 3 18 2 19 1 20
REMARK H PARENT
REMARK Flexibility Score: inf
ROOT
ATOM      1  C   UNL     1      -3.124  13.864 -17.379  1.00  0.00     0.000 C 
ENDROOT
BRANCH   1   2
ATOM      2  C   UNL     1      -3.022  13.222 -18.775  1.00  0.00     0.000 C 
BRANCH   2   3
ATOM      3  C   UNL     1      -4.339  12.564 -19.229  1.00  0.00     0.000 C 
BRANCH   3   4
ATOM      4  C   UNL     1      -4.295  11.029 -19.332  1.00  0.00     0.000 C 
BRANCH   4   5
ATOM      5  C   UNL     1      -3.262  10.395 -18.385  1.00  0.00     0.000 C 
BRANCH   5   6
ATOM      6  C   UNL     1      -3.864  10.022 -17.021  1.00  0.00     0.000 C 
BRANCH   6   7
ATOM      7  C   UNL     1      -5.214  10.709 -16.765  1.00  0.00     0.006 C 
BRANCH   7   8
ATOM      8  C   UNL     1      -5.171  11.537 -15.477  1.00  0.00     0.053 C 
BRANCH   8   9
ATOM      9  C   UNL     1      -6.090  12.712 -15.575  1.00  0.00     0.041 C 
ATOM     10  O   UNL     1      -6.374  13.382 -14.548  1.00  0.00    -0.550 OA
ATOM     11  O   UNL     1      -6.668  13.043 -16.795  1.00  0.00    -0.550 OA
ENDBRANCH   8   9
ENDBRANCH   7   8
ENDBRANCH   6   7
ENDBRANCH   5   6
ENDBRANCH   4   5
ENDBRANCH   3   4
ENDBRANCH   2   3
ENDBRANCH   1   2
BRANCH   1  12
ATOM     12  C   UNL     1      -1.989  14.865 -17.109  1.00  0.00     0.000 C 
BRANCH  12  13
ATOM     13  C   UNL     1      -1.307  15.345 -18.402  1.00  0.00    -0.000 C 
BRANCH  13  14
ATOM     14  C   UNL     1      -0.178  16.351 -18.136  1.00  0.00    -0.000 C 
BRANCH  14  15
ATOM     15  C   UNL     1       1.132  15.979 -18.854  1.00  0.00    -0.000 C 
BRANCH  15  16
ATOM     16  C   UNL     1       1.982  17.217 -19.204  1.00  0.00    -0.000 C 
BRANCH  16  17
ATOM     17  C   UNL     1       1.313  18.174 -20.212  1.00  0.00    -0.000 C 
BRANCH  17  18
ATOM     18  C   UNL     1       1.114  19.612 -19.684  1.00  0.00    -0.000 C 
BRANCH  18  19
ATOM     19  C   UNL     1      -0.288  19.875 -19.107  1.00  0.00    -0.003 C 
ATOM     20  C   UNL     1      -0.277  20.028 -17.586  1.00  0.00     0.004 C 
ENDBRANCH  18  19
ENDBRANCH  17  18
ENDBRANCH  16  17
ENDBRANCH  15  16
ENDBRANCH  14  15
ENDBRANCH  13  14
ENDBRANCH  12  13
ENDBRANCH   1  12
TORSDOF 16
ENDMDL
MODEL 6
REMARK VINA RESULT:    -3.756      0.958      2.628
REMARK INTER + INTRA:          -9.210
REMARK INTER:                  -7.697
REMARK INTRA:                  -1.513
REMARK UNBOUND:                -1.941
REMARK SMILES CCCCCCCCCCCCCCCCCC(=O)[O-]
REMARK SMILES IDX 10 1 11 2 12 3 13 4 14 5 15 6 16 7 17 8 18 9 19 10 20 11
REMARK SMILES IDX 9 12 8 13 7 14 6 15 5 16 4 17 3 18 2 19 1 20
REMARK H PARENT
REMARK Flexibility Score: inf
ROOT
ATOM      1  C   UNL     1      -2.678  14.273 -17.958  1.00  0.00     0.000 C 
ENDROOT
BRANCH   1   2
ATOM      2  C   UNL     1      -1.867  15.310 -18.754  1.00  0.00     0.000 C 
BRANCH   2   3
ATOM      3  C   UNL     1      -0.803  16.022 -17.898  1.00  0.00     0.000 C 
BRANCH   3   4
ATOM      4  C   UNL     1       0.630  15.957 -18.456  1.00  0.00     0.000 C 
BRANCH   4   5
ATOM      5  C   UNL     1       1.266  17.345 -18.639  1.00  0.00     0.000 C 
BRANCH   5   6
ATOM      6  C   UNL     1       0.691  18.103 -19.847  1.00  0.00     0.000 C 
BRANCH   6   7
ATOM      7  C   UNL     1       0.638  19.621 -19.619  1.00  0.00     0.006 C 
BRANCH   7   8
ATOM      8  C   UNL     1       0.896  19.962 -18.149  1.00  0.00     0.053 C 
BRANCH   8   9
ATOM      9  C   UNL     1      -0.395  20.089 -17.404  1.00  0.00     0.041 C 
ATOM     10  O   UNL     1      -0.400  20.124 -16.146  1.00  0.00    -0.550 OA
ATOM     11  O   UNL     1      -1.598  20.123 -18.099  1.00  0.00    -0.550 OA
ENDBRANCH   8   9
ENDBRANCH   7   8
ENDBRANCH   6   7
ENDBRANCH   5   6
ENDBRANCH   4   5
ENDBRANCH   3   4
ENDBRANCH   2   3
ENDBRANCH   1   2
BRANCH   1  12
ATOM     12  C   UNL     1      -2.513  14.440 -16.438  1.00  0.00     0.000 C 
BRANCH  12  13
ATOM     13  C   UNL     1      -3.422  13.489 -15.640  1.00  0.00    -0.000 C 
BRANCH  13  14
ATOM     14  C   UNL     1      -4.905  13.883 -15.722  1.00  0.00    -0.000 C 
BRANCH  14  15
ATOM     15  C   UNL     1      -5.850  12.694 -15.472  1.00  0.00    -0.000 C 
BRANCH  15  16
ATOM     16  C   UNL     1      -5.515  11.480 -16.362  1.00  0.00    -0.000 C 
BRANCH  16  17
ATOM     17  C   UNL     1      -5.537  11.784 -17.874  1.00  0.00    -0.000 C 
BRANCH  17  18
ATOM     18  C   UNL     1      -4.422  11.081 -18.678  1.00  0.00    -0.000 C 
BRANCH  18  19
ATOM     19  C   UNL     1      -3.400  10.334 -17.803  1.00  0.00    -0.003 C 
ATOM     20  C   UNL     1      -3.125   8.916 -18.305  1.00  0.00     0.004 C 
ENDBRANCH  18  19
ENDBRANCH  17  18
ENDBRANCH  16  17
ENDBRANCH  15  16
ENDBRANCH  14  15
ENDBRANCH  13  14
ENDBRANCH  12  13
ENDBRANCH   1  12
TORSDOF 16
ENDMDL
MODEL 7
REMARK VINA RESULT:    -3.716      3.463      7.876
REMARK INTER + INTRA:          -9.134
REMARK INTER:                  -7.357
REMARK INTRA:                  -1.777
REMARK UNBOUND:                -1.941
REMARK SMILES CCCCCCCCCCCCCCCCCC(=O)[O-]
REMARK SMILES IDX 10 1 11 2 12 3 13 4 14 5 15 6 16 7 17 8 18 9 19 10 20 11
REMARK SMILES IDX 9 12 8 13 7 14 6 15 5 16 4 17 3 18 2 19 1 20
REMARK H PARENT
REMARK Flexibility Score: inf
ROOT
ATOM      1  C   UNL     1      -2.062  14.554 -16.295  1.00  0.00     0.000 C 
ENDROOT
BRANCH   1   2
ATOM      2  C   UNL     1      -2.961  13.704 -15.379  1.00  0.00     0.000 C 
BRANCH   2   3
ATOM      3  C   UNL     1      -4.460  13.870 -15.691  1.00  0.00     0.000 C 
BRANCH   3   4
ATOM      4  C   UNL     1      -5.361  12.738 -15.167  1.00  0.00     0.000 C 
BRANCH   4   5
ATOM      5  C   UNL     1      -6.556  12.448 -16.090  1.00  0.00     0.000 C 
BRANCH   5   6
ATOM      6  C   UNL     1      -6.221  12.668 -17.575  1.00  0.00     0.000 C 
BRANCH   6   7
ATOM      7  C   UNL     1      -5.760  11.379 -18.272  1.00  0.00     0.006 C 
BRANCH   7   8
ATOM      8  C   UNL     1      -4.239  11.371 -18.455  1.00  0.00     0.053 C 
BRANCH   8   9
ATOM      9  C   UNL     1      -3.625  10.236 -17.700  1.00  0.00     0.041 C 
ATOM     10  O   UNL     1      -2.562   9.702 -18.112  1.00  0.00    -0.550 OA
ATOM     11  O   UNL     1      -4.249   9.738 -16.563  1.00  0.00    -0.550 OA
ENDBRANCH   8   9
ENDBRANCH   7   8
ENDBRANCH   6   7
ENDBRANCH   5   6
ENDBRANCH   4   5
ENDBRANCH   3   4
ENDBRANCH   2   3
ENDBRANCH   1   2
BRANCH   1  12
ATOM     12  C   UNL     1      -2.470  14.455 -17.774  1.00  0.00     0.000 C 
BRANCH  12  13
ATOM     13  C   UNL     1      -1.662  15.407 -18.672  1.00  0.00    -0.000 C 
BRANCH  13  14
ATOM     14  C   UNL     1      -0.361  15.884 -18.007  1.00  0.00    -0.000 C 
BRANCH  14  15
ATOM     15  C   UNL     1       0.863  15.745 -18.929  1.00  0.00    -0.000 C 
BRANCH  15  16
ATOM     16  C   UNL     1       2.069  16.569 -18.432  1.00  0.00    -0.000 C 
BRANCH  16  17
ATOM     17  C   UNL     1       1.867  18.095 -18.527  1.00  0.00    -0.000 C 
BRANCH  17  18
ATOM     18  C   UNL     1       1.267  18.572 -19.867  1.00  0.00    -0.000 C 
BRANCH  18  19
ATOM     19  C   UNL     1       0.066  19.521 -19.709  1.00  0.00    -0.003 C 
ATOM     20  C   UNL     1      -0.484  19.537 -18.282  1.00  0.00     0.004 C 
ENDBRANCH  18  19
ENDBRANCH  17  18
ENDBRANCH  16  17
ENDBRANCH  15  16
ENDBRANCH  14  15
ENDBRANCH  13  14
ENDBRANCH  12  13
ENDBRANCH   1  12
TORSDOF 16
ENDMDL
MODEL 8
REMARK VINA RESULT:    -3.684      1.310      3.278
REMARK INTER + INTRA:          -9.071
REMARK INTER:                  -7.599
REMARK INTRA:                  -1.472
REMARK UNBOUND:                -1.941
REMARK SMILES CCCCCCCCCCCCCCCCCC(=O)[O-]
REMARK SMILES IDX 10 1 11 2 12 3 13 4 14 5 15 6 16 7 17 8 18 9 19 10 20 11
REMARK SMILES IDX 9 12 8 13 7 14 6 15 5 16 4 17 3 18 2 19 1 20
REMARK H PARENT
REMARK Flexibility Score: inf
ROOT
ATOM      1  C   UNL     1      -2.276  14.492 -18.906  1.00  0.00     0.000 C 
ENDROOT
BRANCH   1   2
ATOM      2  C   UNL     1      -1.605  15.323 -17.798  1.00  0.00     0.000 C 
BRANCH   2   3
ATOM      3  C   UNL     1      -0.693  16.434 -18.352  1.00  0.00     0.000 C 
BRANCH   3   4
ATOM      4  C   UNL     1       0.787  16.041 -18.504  1.00  0.00     0.000 C 
BRANCH   4   5
ATOM      5  C   UNL     1       1.707  17.253 -18.733  1.00  0.00     0.000 C 
BRANCH   5   6
ATOM      6  C   UNL     1       1.451  17.940 -20.084  1.00  0.00     0.000 C 
BRANCH   6   7
ATOM      7  C   UNL     1       0.911  19.369 -19.925  1.00  0.00     0.006 C 
BRANCH   7   8
ATOM      8  C   UNL     1       1.173  19.899 -18.512  1.00  0.00     0.053 C 
BRANCH   8   9
ATOM      9  C   UNL     1      -0.112  20.068 -17.767  1.00  0.00     0.041 C 
ATOM     10  O   UNL     1      -0.113  20.121 -16.509  1.00  0.00    -0.550 OA
ATOM     11  O   UNL     1      -1.316  20.125 -18.459  1.00  0.00    -0.550 OA
ENDBRANCH   8   9
ENDBRANCH   7   8
ENDBRANCH   6   7
ENDBRANCH   5   6
ENDBRANCH   4   5
ENDBRANCH   3   4
ENDBRANCH   2   3
ENDBRANCH   1   2
BRANCH   1  12
ATOM     12  C   UNL     1      -3.126  13.340 -18.344  1.00  0.00     0.000 C 
BRANCH  12  13
ATOM     13  C   UNL     1      -4.182  12.845 -19.348  1.00  0.00    -0.000 C 
BRANCH  13  14
ATOM     14  C   UNL     1      -4.520  11.357 -19.164  1.00  0.00    -0.000 C 
BRANCH  14  15
ATOM     15  C   UNL     1      -3.376  10.565 -18.506  1.00  0.00    -0.000 C 
BRANCH  15  16
ATOM     16  C   UNL     1      -3.832   9.824 -17.233  1.00  0.00    -0.000 C 
BRANCH  16  17
ATOM     17  C   UNL     1      -4.952  10.543 -16.455  1.00  0.00    -0.000 C 
BRANCH  17  18
ATOM     18  C   UNL     1      -4.460  11.710 -15.571  1.00  0.00    -0.000 C 
BRANCH  18  19
ATOM     19  C   UNL     1      -5.521  12.799 -15.331  1.00  0.00    -0.003 C 
ATOM     20  C   UNL     1      -6.520  12.908 -16.483  1.00  0.00     0.004 C 
ENDBRANCH  18  19
ENDBRANCH  17  18
ENDBRANCH  16  17
ENDBRANCH  15  16
ENDBRANCH  14  15
ENDBRANCH  13  14
ENDBRANCH  12  13
ENDBRANCH   1  12
TORSDOF 16
ENDMDL
MODEL 9
REMARK VINA RESULT:    -3.582      2.839      3.681
REMARK INTER + INTRA:          -8.873
REMARK INTER:                  -7.347
REMARK INTRA:                  -1.525
REMARK UNBOUND:                -1.941
REMARK SMILES CCCCCCCCCCCCCCCCCC(=O)[O-]
REMARK SMILES IDX 10 1 11 2 12 3 13 4 14 5 15 6 16 7 17 8 18 9 19 10 20 11
REMARK SMILES IDX 9 12 8 13 7 14 6 15 5 16 4 17 3 18 2 19 1 20
REMARK H PARENT
REMARK Flexibility Score: inf
ROOT
ATOM      1  C   UNL     1      -2.967  14.448 -17.172  1.00  0.00     0.000 C 
ENDROOT
BRANCH   1   2
ATOM      2  C   UNL     1      -1.624  15.145 -16.891  1.00  0.00     0.000 C 
BRANCH   2   3
ATOM      3  C   UNL     1      -0.875  15.540 -18.178  1.00  0.00     0.000 C 
BRANCH   3   4
ATOM      4  C   UNL     1      -0.732  17.056 -18.406  1.00  0.00     0.000 C 
BRANCH   4   5
ATOM      5  C   UNL     1       0.711  17.480 -18.722  1.00  0.00     0.000 C 
BRANCH   5   6
ATOM      6  C   UNL     1       1.674  16.284 -18.799  1.00  0.00     0.000 C 
BRANCH   6   7
ATOM      7  C   UNL     1       2.024  15.902 -20.245  1.00  0.00     0.006 C 
BRANCH   7   8
ATOM      8  C   UNL     1       2.085  14.381 -20.409  1.00  0.00     0.053 C 
BRANCH   8   9
ATOM      9  C   UNL     1       2.065  14.007 -21.857  1.00  0.00     0.041 C 
ATOM     10  O   UNL     1       2.034  12.796 -22.198  1.00  0.00    -0.550 OA
ATOM     11  O   UNL     1       2.124  14.996 -22.832  1.00  0.00    -0.550 OA
ENDBRANCH   8   9
ENDBRANCH   7   8
ENDBRANCH   6   7
ENDBRANCH   5   6
ENDBRANCH   4   5
ENDBRANCH   3   4
ENDBRANCH   2   3
ENDBRANCH   1   2
BRANCH   1  12
ATOM     12  C   UNL     1      -3.347  13.440 -16.073  1.00  0.00     0.000 C 
BRANCH  12  13
ATOM     13  C   UNL     1      -4.736  13.720 -15.474  1.00  0.00    -0.000 C 
BRANCH  13  14
ATOM     14  C   UNL     1      -5.773  12.655 -15.866  1.00  0.00    -0.000 C 
BRANCH  14  15
ATOM     15  C   UNL     1      -6.467  12.966 -17.204  1.00  0.00    -0.000 C 
BRANCH  15  16
ATOM     16  C   UNL     1      -6.149  11.915 -18.288  1.00  0.00    -0.000 C 
BRANCH  16  17
ATOM     17  C   UNL     1      -4.981  12.304 -19.216  1.00  0.00    -0.000 C 
BRANCH  17  18
ATOM     18  C   UNL     1      -3.837  11.268 -19.262  1.00  0.00    -0.000 C 
BRANCH  18  19
ATOM     19  C   UNL     1      -3.746  10.385 -18.005  1.00  0.00    -0.003 C 
ATOM     20  C   UNL     1      -2.774   9.217 -18.178  1.00  0.00     0.004 C 
ENDBRANCH  18  19
ENDBRANCH  17  18
ENDBRANCH  16  17
ENDBRANCH  15  16
ENDBRANCH  14  15
ENDBRANCH  13  14
ENDBRANCH  12  13
ENDBRANCH   1  12
TORSDOF 16
ENDMDL
