MODEL 1
REMARK VINA RESULT:    -4.118      0.000      0.000
REMARK INTER + INTRA:          -6.579
REMARK INTER:                  -5.682
REMARK INTRA:                  -0.897
REMARK UNBOUND:                -0.897
REMARK SMILES C=C(CC[C@H](C(=O)[O-])[C@@H]1CC[C@@]2(C)C3=C(CC[C@@]12C)[C@@]1(C)CC[C@H](O)C(C)(C)[C@H]1CC3)C(C)C
REMARK SMILES IDX 4 1 5 2 6 3 7 4 8 5 9 6 10 7 18 8 11 9 12 10 17 11 19 12
REMARK SMILES IDX 13 13 14 14 16 15 15 16 31 17 20 18 30 19 29 20 22 21 21 22
REMARK SMILES IDX 26 23 23 24 24 25 27 26 28 27 25 28 3 30 2 31 1 32 32 33
REMARK SMILES IDX 33 34 34 35
REMARK H PARENT 25 29
REMARK Flexibility Score: inf
ROOT
ATOM      1  C   UNL     1      90.496 110.575 107.723  1.00  0.00     0.014 C 
ENDROOT
BRANCH   1   2
ATOM      2  C   UNL     1      91.465 111.786 107.863  1.00  0.00     0.039 C 
BRANCH   2   3
ATOM      3  C   UNL     1      90.650 112.999 107.477  1.00  0.00     0.045 C 
ATOM      4  O   UNL     1      89.850 113.524 108.299  1.00  0.00    -0.550 OA
ATOM      5  O   UNL     1      90.836 113.589 106.232  1.00  0.00    -0.550 OA
ENDBRANCH   2   3
BRANCH   2   6
ATOM      6  C   UNL     1      92.774 111.675 106.986  1.00  0.00     0.004 C 
ATOM      7  C   UNL     1      92.957 110.267 106.382  1.00  0.00     0.006 C 
ATOM      8  C   UNL     1      94.175 112.015 107.665  1.00  0.00    -0.020 C 
ATOM      9  C   UNL     1      94.438 109.954 106.407  1.00  0.00     0.012 C 
ATOM     10  C   UNL     1      94.977 110.664 107.652  1.00  0.00    -0.006 C 
ATOM     11  C   UNL     1      94.897 113.044 106.751  1.00  0.00     0.012 C 
ATOM     12  C   UNL     1      94.107 112.622 109.102  1.00  0.00     0.012 C 
ATOM     13  C   UNL     1      94.634 109.802 108.911  1.00  0.00     0.017 C 
ATOM     14  C   UNL     1      96.512 110.817 107.532  1.00  0.00    -0.064 C 
ATOM     15  C   UNL     1      96.334 113.301 107.182  1.00  0.00     0.032 C 
ATOM     16  C   UNL     1      97.136 112.024 107.364  1.00  0.00    -0.064 C 
ATOM     17  C   UNL     1      97.369 109.568 107.556  1.00  0.00     0.032 C 
ATOM     18  C   UNL     1      98.688 112.097 107.349  1.00  0.00    -0.008 C 
ATOM     19  C   UNL     1      98.505 109.734 108.552  1.00  0.00     0.009 C 
ATOM     20  C   UNL     1      99.321 111.059 108.388  1.00  0.00     0.007 C 
ATOM     21  C   UNL     1      99.202 113.551 107.650  1.00  0.00     0.014 C 
ATOM     22  C   UNL     1      99.162 111.773 105.902  1.00  0.00     0.016 C 
ATOM     23  C   UNL     1      99.728 111.699 109.785  1.00  0.00    -0.006 C 
ATOM     24  C   UNL     1     100.633 113.556 108.175  1.00  0.00     0.033 C 
ATOM     25  C   UNL     1     100.726 112.916 109.570  1.00  0.00     0.120 C 
ATOM     26  C   UNL     1     100.419 110.631 110.684  1.00  0.00     0.014 C 
ATOM     27  C   UNL     1      98.476 112.188 110.570  1.00  0.00     0.014 C 
BRANCH  25  28
ATOM     28  O   UNL     1     102.070 112.533 109.753  1.00  0.00    -0.393 OA
ATOM     29  H   UNL     1     102.209 111.689 109.255  1.00  0.00     0.210 HD
ENDBRANCH  25  28
ENDBRANCH   2   6
ENDBRANCH   1   2
BRANCH   1  30
ATOM     30  C   UNL     1      89.538 110.614 106.516  1.00  0.00     0.031 C 
BRANCH  30  31
ATOM     31  C   UNL     1      89.024 109.226 106.196  1.00  0.00    -0.075 C 
ATOM     32  C   UNL     1      89.895 108.243 105.884  1.00  0.00     0.008 C 
BRANCH  31  33
ATOM     33  C   UNL     1      87.532 108.947 106.326  1.00  0.00     0.008 C 
ATOM     34  C   UNL     1      87.192 107.502 105.932  1.00  0.00     0.012 C 
ATOM     35  C   UNL     1      87.028 109.271 107.738  1.00  0.00     0.012 C 
ENDBRANCH  31  33
ENDBRANCH  30  31
ENDBRANCH   1  30
TORSDOF 7
ENDMDL
MODEL 2
REMARK VINA RESULT:    -2.984      4.130      7.881
REMARK INTER + INTRA:          -5.015
REMARK INTER:                  -4.767
REMARK INTRA:                  -0.248
REMARK UNBOUND:                -0.897
REMARK SMILES C=C(CC[C@H](C(=O)[O-])[C@@H]1CC[C@@]2(C)C3=C(CC[C@@]12C)[C@@]1(C)CC[C@H](O)C(C)(C)[C@H]1CC3)C(C)C
REMARK SMILES IDX 4 1 5 2 6 3 7 4 8 5 9 6 10 7 18 8 11 9 12 10 17 11 19 12
REMARK SMILES IDX 13 13 14 14 16 15 15 16 31 17 20 18 30 19 29 20 22 21 21 22
REMARK SMILES IDX 26 23 23 24 24 25 27 26 28 27 25 28 3 30 2 31 1 32 32 33
REMARK SMILES IDX 33 34 34 35
REMARK H PARENT 25 29
REMARK Flexibility Score: inf
ROOT
ATOM      1  C   UNL     1      98.504 105.914 107.303  1.00  0.00     0.014 C 
ENDROOT
BRANCH   1   2
ATOM      2  C   UNL     1      96.969 106.068 107.085  1.00  0.00     0.039 C 
BRANCH   2   3
ATOM      3  C   UNL     1      96.551 104.851 106.292  1.00  0.00     0.045 C 
ATOM      4  O   UNL     1      95.349 104.692 105.945  1.00  0.00    -0.550 OA
ATOM      5  O   UNL     1      97.510 103.934 105.877  1.00  0.00    -0.550 OA
ENDBRANCH   2   3
BRANCH   2   6
ATOM      6  C   UNL     1      96.550 107.401 106.349  1.00  0.00     0.004 C 
ATOM      7  C   UNL     1      97.769 108.218 105.875  1.00  0.00     0.006 C 
ATOM      8  C   UNL     1      95.635 108.446 107.131  1.00  0.00    -0.020 C 
ATOM      9  C   UNL     1      97.435 109.682 106.066  1.00  0.00     0.012 C 
ATOM     10  C   UNL     1      96.528 109.729 107.298  1.00  0.00    -0.006 C 
ATOM     11  C   UNL     1      94.427 108.783 106.214  1.00  0.00     0.012 C 
ATOM     12  C   UNL     1      95.070 107.964 108.504  1.00  0.00     0.012 C 
ATOM     13  C   UNL     1      97.416 109.623 108.581  1.00  0.00     0.017 C 
ATOM     14  C   UNL     1      95.751 111.066 107.315  1.00  0.00    -0.064 C 
ATOM     15  C   UNL     1      93.580 109.925 106.760  1.00  0.00     0.032 C 
ATOM     16  C   UNL     1      94.399 111.154 107.116  1.00  0.00    -0.064 C 
ATOM     17  C   UNL     1      96.526 112.352 107.517  1.00  0.00     0.032 C 
ATOM     18  C   UNL     1      93.685 112.528 107.244  1.00  0.00    -0.008 C 
ATOM     19  C   UNL     1      95.871 113.191 108.602  1.00  0.00     0.009 C 
ATOM     20  C   UNL     1      94.332 113.403 108.416  1.00  0.00     0.007 C 
ATOM     21  C   UNL     1      92.141 112.357 107.480  1.00  0.00     0.014 C 
ATOM     22  C   UNL     1      93.825 113.262 105.878  1.00  0.00     0.016 C 
ATOM     23  C   UNL     1      93.539 113.341 109.792  1.00  0.00    -0.006 C 
ATOM     24  C   UNL     1      91.523 113.585 108.138  1.00  0.00     0.033 C 
ATOM     25  C   UNL     1      92.023 113.767 109.581  1.00  0.00     0.120 C 
ATOM     26  C   UNL     1      94.193 114.298 110.832  1.00  0.00     0.014 C 
ATOM     27  C   UNL     1      93.595 111.914 110.414  1.00  0.00     0.014 C 
BRANCH  25  28
ATOM     28  O   UNL     1      91.805 115.117 109.921  1.00  0.00    -0.393 OA
ATOM     29  H   UNL     1      92.410 115.337 110.672  1.00  0.00     0.210 HD
ENDBRANCH  25  28
ENDBRANCH   2   6
ENDBRANCH   1   2
BRANCH   1  30
ATOM     30  C   UNL     1      98.931 105.161 108.578  1.00  0.00     0.031 C 
BRANCH  30  31
ATOM     31  C   UNL     1      99.191 103.700 108.274  1.00  0.00    -0.075 C 
ATOM     32  C   UNL     1      99.955 103.359 107.215  1.00  0.00     0.008 C 
BRANCH  31  33
ATOM     33  C   UNL     1      98.655 102.644 109.233  1.00  0.00     0.008 C 
ATOM     34  C   UNL     1      98.608 103.166 110.677  1.00  0.00     0.012 C 
ATOM     35  C   UNL     1      97.282 102.130 108.783  1.00  0.00     0.012 C 
ENDBRANCH  31  33
ENDBRANCH  30  31
ENDBRANCH   1  30
TORSDOF 7
ENDMDL
MODEL 3
REMARK VINA RESULT:    -2.624      1.984      8.912
REMARK INTER + INTRA:          -4.518
REMARK INTER:                  -5.216
REMARK INTRA:                   0.698
REMARK UNBOUND:                -0.897
REMARK SMILES C=C(CC[C@H](C(=O)[O-])[C@@H]1CC[C@@]2(C)C3=C(CC[C@@]12C)[C@@]1(C)CC[C@H](O)C(C)(C)[C@H]1CC3)C(C)C
REMARK SMILES IDX 4 1 5 2 6 3 7 4 8 5 9 6 10 7 18 8 11 9 12 10 17 11 19 12
REMARK SMILES IDX 13 13 14 14 16 15 15 16 31 17 20 18 30 19 29 20 22 21 21 22
REMARK SMILES IDX 26 23 23 24 24 25 27 26 28 27 25 28 3 30 2 31 1 32 32 33
REMARK SMILES IDX 33 34 34 35
REMARK H PARENT 25 29
REMARK Flexibility Score: inf
ROOT
ATOM      1  C   UNL     1      98.939 111.920 111.192  1.00  0.00     0.014 C 
ENDROOT
BRANCH   1   2
ATOM      2  C   UNL     1      99.651 111.141 110.047  1.00  0.00     0.039 C 
BRANCH   2   3
ATOM      3  C   UNL     1     100.618 112.126 109.431  1.00  0.00     0.045 C 
ATOM      4  O   UNL     1     100.232 113.277 109.089  1.00  0.00    -0.550 OA
ATOM      5  O   UNL     1     101.961 111.790 109.307  1.00  0.00    -0.550 OA
ENDBRANCH   2   3
BRANCH   2   6
ATOM      6  C   UNL     1      98.671 110.547 108.960  1.00  0.00     0.004 C 
ATOM      7  C   UNL     1      99.116 110.886 107.522  1.00  0.00     0.006 C 
ATOM      8  C   UNL     1      97.131 110.956 109.019  1.00  0.00    -0.020 C 
ATOM      9  C   UNL     1      97.865 111.149 106.711  1.00  0.00     0.012 C 
ATOM     10  C   UNL     1      96.870 111.766 107.698  1.00  0.00    -0.006 C 
ATOM     11  C   UNL     1      96.301 109.643 108.984  1.00  0.00     0.012 C 
ATOM     12  C   UNL     1      96.690 111.764 110.280  1.00  0.00     0.012 C 
ATOM     13  C   UNL     1      97.226 113.276 107.894  1.00  0.00     0.017 C 
ATOM     14  C   UNL     1      95.437 111.641 107.130  1.00  0.00    -0.064 C 
ATOM     15  C   UNL     1      94.808 109.901 108.833  1.00  0.00     0.032 C 
ATOM     16  C   UNL     1      94.480 110.827 107.674  1.00  0.00    -0.064 C 
ATOM     17  C   UNL     1      95.081 112.424 105.883  1.00  0.00     0.032 C 
ATOM     18  C   UNL     1      93.038 110.834 107.097  1.00  0.00    -0.008 C 
ATOM     19  C   UNL     1      93.780 113.181 106.095  1.00  0.00     0.009 C 
ATOM     20  C   UNL     1      92.607 112.308 106.650  1.00  0.00     0.007 C 
ATOM     21  C   UNL     1      92.001 110.250 108.123  1.00  0.00     0.014 C 
ATOM     22  C   UNL     1      93.012 109.868 105.875  1.00  0.00     0.016 C 
ATOM     23  C   UNL     1      91.726 113.084 107.723  1.00  0.00    -0.006 C 
ATOM     24  C   UNL     1      90.582 110.730 107.840  1.00  0.00     0.033 C 
ATOM     25  C   UNL     1      90.434 112.239 108.098  1.00  0.00     0.120 C 
ATOM     26  C   UNL     1      91.281 114.463 107.154  1.00  0.00     0.014 C 
ATOM     27  C   UNL     1      92.542 113.385 109.014  1.00  0.00     0.014 C 
BRANCH  25  28
ATOM     28  O   UNL     1      89.300 112.666 107.378  1.00  0.00    -0.393 OA
ATOM     29  H   UNL     1      88.932 111.876 106.908  1.00  0.00     0.210 HD
ENDBRANCH  25  28
ENDBRANCH   2   6
ENDBRANCH   1   2
BRANCH   1  30
ATOM     30  C   UNL     1      99.723 112.043 112.513  1.00  0.00     0.031 C 
BRANCH  30  31
ATOM     31  C   UNL     1      98.777 112.081 113.695  1.00  0.00    -0.075 C 
ATOM     32  C   UNL     1      97.451 112.231 113.489  1.00  0.00     0.008 C 
BRANCH  31  33
ATOM     33  C   UNL     1      99.338 111.854 115.093  1.00  0.00     0.008 C 
ATOM     34  C   UNL     1      99.509 110.358 115.396  1.00  0.00     0.012 C 
ATOM     35  C   UNL     1     100.655 112.615 115.293  1.00  0.00     0.012 C 
ENDBRANCH  31  33
ENDBRANCH  30  31
ENDBRANCH   1  30
TORSDOF 7
ENDMDL
MODEL 4
REMARK VINA RESULT:    -2.449      2.989      9.272
REMARK INTER + INTRA:          -4.276
REMARK INTER:                  -4.636
REMARK INTRA:                   0.360
REMARK UNBOUND:                -0.897
REMARK SMILES C=C(CC[C@H](C(=O)[O-])[C@@H]1CC[C@@]2(C)C3=C(CC[C@@]12C)[C@@]1(C)CC[C@H](O)C(C)(C)[C@H]1CC3)C(C)C
REMARK SMILES IDX 4 1 5 2 6 3 7 4 8 5 9 6 10 7 18 8 11 9 12 10 17 11 19 12
REMARK SMILES IDX 13 13 14 14 16 15 15 16 31 17 20 18 30 19 29 20 22 21 21 22
REMARK SMILES IDX 26 23 23 24 24 25 27 26 28 27 25 28 3 30 2 31 1 32 32 33
REMARK SMILES IDX 33 34 34 35
REMARK H PARENT 25 29
REMARK Flexibility Score: inf
ROOT
ATOM      1  C   UNL     1      99.375 111.776 112.277  1.00  0.00     0.014 C 
ENDROOT
BRANCH   1   2
ATOM      2  C   UNL     1      97.965 112.218 111.784  1.00  0.00     0.039 C 
BRANCH   2   3
ATOM      3  C   UNL     1      97.068 112.127 112.996  1.00  0.00     0.045 C 
ATOM      4  O   UNL     1      96.603 111.015 113.370  1.00  0.00    -0.550 OA
ATOM      5  O   UNL     1      96.811 113.265 113.753  1.00  0.00    -0.550 OA
ENDBRANCH   2   3
BRANCH   2   6
ATOM      6  C   UNL     1      97.398 111.356 110.588  1.00  0.00     0.004 C 
ATOM      7  C   UNL     1      98.259 111.482 109.314  1.00  0.00     0.006 C 
ATOM      8  C   UNL     1      95.903 111.623 110.100  1.00  0.00    -0.020 C 
ATOM      9  C   UNL     1      97.316 111.482 108.129  1.00  0.00     0.012 C 
ATOM     10  C   UNL     1      96.041 112.165 108.631  1.00  0.00    -0.006 C 
ATOM     11  C   UNL     1      95.173 110.252 110.071  1.00  0.00     0.012 C 
ATOM     12  C   UNL     1      95.060 112.592 110.987  1.00  0.00     0.012 C 
ATOM     13  C   UNL     1      96.264 113.713 108.630  1.00  0.00     0.017 C 
ATOM     14  C   UNL     1      94.864 111.810 107.693  1.00  0.00    -0.064 C 
ATOM     15  C   UNL     1      93.795 110.339 109.429  1.00  0.00     0.032 C 
ATOM     16  C   UNL     1      93.815 111.016 108.069  1.00  0.00    -0.064 C 
ATOM     17  C   UNL     1      94.891 112.329 106.270  1.00  0.00     0.032 C 
ATOM     18  C   UNL     1      92.626 110.789 107.094  1.00  0.00    -0.008 C 
ATOM     19  C   UNL     1      93.563 112.986 105.929  1.00  0.00     0.009 C 
ATOM     20  C   UNL     1      92.306 112.116 106.263  1.00  0.00     0.007 C 
ATOM     21  C   UNL     1      91.342 110.296 107.853  1.00  0.00     0.014 C 
ATOM     22  C   UNL     1      93.020 109.628 106.133  1.00  0.00     0.016 C 
ATOM     23  C   UNL     1      91.106 112.980 106.848  1.00  0.00    -0.006 C 
ATOM     24  C   UNL     1      90.067 110.585 107.068  1.00  0.00     0.033 C 
ATOM     25  C   UNL     1      89.792 112.096 106.972  1.00  0.00     0.120 C 
ATOM     26  C   UNL     1      90.814 114.193 105.916  1.00  0.00     0.014 C 
ATOM     27  C   UNL     1      91.465 113.575 108.242  1.00  0.00     0.014 C 
BRANCH  25  28
ATOM     28  O   UNL     1      88.927 112.283 105.875  1.00  0.00    -0.393 OA
ATOM     29  H   UNL     1      89.358 111.875 105.083  1.00  0.00     0.210 HD
ENDBRANCH  25  28
ENDBRANCH   2   6
ENDBRANCH   1   2
BRANCH   1  30
ATOM     30  C   UNL     1      99.912 112.506 113.524  1.00  0.00     0.031 C 
BRANCH  30  31
ATOM     31  C   UNL     1      99.925 111.578 114.721  1.00  0.00    -0.075 C 
ATOM     32  C   UNL     1      99.554 110.289 114.577  1.00  0.00     0.008 C 
BRANCH  31  33
ATOM     33  C   UNL     1     100.451 112.104 116.051  1.00  0.00     0.008 C 
ATOM     34  C   UNL     1     100.490 113.639 116.075  1.00  0.00     0.012 C 
ATOM     35  C   UNL     1      99.636 111.551 117.228  1.00  0.00     0.012 C 
ENDBRANCH  31  33
ENDBRANCH  30  31
ENDBRANCH   1  30
TORSDOF 7
ENDMDL
MODEL 5
REMARK VINA RESULT:    -1.455      4.465     10.297
REMARK INTER + INTRA:          -2.905
REMARK INTER:                  -2.205
REMARK INTRA:                  -0.701
REMARK UNBOUND:                -0.897
REMARK SMILES C=C(CC[C@H](C(=O)[O-])[C@@H]1CC[C@@]2(C)C3=C(CC[C@@]12C)[C@@]1(C)CC[C@H](O)C(C)(C)[C@H]1CC3)C(C)C
REMARK SMILES IDX 4 1 5 2 6 3 7 4 8 5 9 6 10 7 18 8 11 9 12 10 17 11 19 12
REMARK SMILES IDX 13 13 14 14 16 15 15 16 31 17 20 18 30 19 29 20 22 21 21 22
REMARK SMILES IDX 26 23 23 24 24 25 27 26 28 27 25 28 3 30 2 31 1 32 32 33
REMARK SMILES IDX 33 34 34 35
REMARK H PARENT 25 29
REMARK Flexibility Score: inf
ROOT
ATOM      1  C   UNL     1     100.178 113.158 115.549  1.00  0.00     0.014 C 
ENDROOT
BRANCH   1   2
ATOM      2  C   UNL     1      98.894 112.307 115.777  1.00  0.00     0.039 C 
BRANCH   2   3
ATOM      3  C   UNL     1      99.120 111.580 117.082  1.00  0.00     0.045 C 
ATOM      4  O   UNL     1      98.995 112.183 118.184  1.00  0.00    -0.550 OA
ATOM      5  O   UNL     1      99.394 110.217 117.076  1.00  0.00    -0.550 OA
ENDBRANCH   2   3
BRANCH   2   6
ATOM      6  C   UNL     1      98.571 111.294 114.608  1.00  0.00     0.004 C 
ATOM      7  C   UNL     1      99.847 110.679 113.997  1.00  0.00     0.006 C 
ATOM      8  C   UNL     1      97.730 111.817 113.359  1.00  0.00    -0.020 C 
ATOM      9  C   UNL     1      99.616 110.545 112.507  1.00  0.00     0.012 C 
ATOM     10  C   UNL     1      98.710 111.722 112.134  1.00  0.00    -0.006 C 
ATOM     11  C   UNL     1      96.552 110.826 113.146  1.00  0.00     0.012 C 
ATOM     12  C   UNL     1      97.127 113.251 113.496  1.00  0.00     0.012 C 
ATOM     13  C   UNL     1      99.584 113.014 112.022  1.00  0.00     0.017 C 
ATOM     14  C   UNL     1      98.029 111.437 110.775  1.00  0.00    -0.064 C 
ATOM     15  C   UNL     1      95.786 111.100 111.859  1.00  0.00     0.032 C 
ATOM     16  C   UNL     1      96.688 111.199 110.641  1.00  0.00    -0.064 C 
ATOM     17  C   UNL     1      98.892 111.373 109.532  1.00  0.00     0.032 C 
ATOM     18  C   UNL     1      96.071 111.016 109.226  1.00  0.00    -0.008 C 
ATOM     19  C   UNL     1      98.294 112.240 108.436  1.00  0.00     0.009 C 
ATOM     20  C   UNL     1      96.775 111.985 108.166  1.00  0.00     0.007 C 
ATOM     21  C   UNL     1      94.518 111.255 109.237  1.00  0.00     0.014 C 
ATOM     22  C   UNL     1      96.267 109.527 108.815  1.00  0.00     0.016 C 
ATOM     23  C   UNL     1      95.974 113.327 107.876  1.00  0.00    -0.006 C 
ATOM     24  C   UNL     1      93.986 111.622 107.857  1.00  0.00     0.033 C 
ATOM     25  C   UNL     1      94.492 113.001 107.403  1.00  0.00     0.120 C 
ATOM     26  C   UNL     1      96.690 114.150 106.764  1.00  0.00     0.014 C 
ATOM     27  C   UNL     1      95.928 114.241 109.136  1.00  0.00     0.014 C 
BRANCH  25  28
ATOM     28  O   UNL     1      94.368 113.040 106.000  1.00  0.00    -0.393 OA
ATOM     29  H   UNL     1      95.236 112.757 105.617  1.00  0.00     0.210 HD
ENDBRANCH  25  28
ENDBRANCH   2   6
ENDBRANCH   1   2
BRANCH   1  30
ATOM     30  C   UNL     1     100.353 114.375 116.478  1.00  0.00     0.031 C 
BRANCH  30  31
ATOM     31  C   UNL     1     100.919 115.554 115.714  1.00  0.00    -0.075 C 
ATOM     32  C   UNL     1     100.133 116.238 114.857  1.00  0.00     0.008 C 
BRANCH  31  33
ATOM     33  C   UNL     1     102.347 116.000 116.003  1.00  0.00     0.008 C 
ATOM     34  C   UNL     1     102.408 117.490 116.372  1.00  0.00     0.012 C 
ATOM     35  C   UNL     1     102.990 115.132 117.091  1.00  0.00     0.012 C 
ENDBRANCH  31  33
ENDBRANCH  30  31
ENDBRANCH   1  30
TORSDOF 7
ENDMDL
