MODEL 1
REMARK VINA RESULT:    -3.975      0.000      0.000
REMARK INTER + INTRA:          -4.453
REMARK INTER:                  -4.672
REMARK INTRA:                   0.219
REMARK UNBOUND:                 0.219
REMARK SMILES CCCCC(=O)[O-]
REMARK SMILES IDX 4 1 5 2 6 3 7 4 3 5 2 6 1 7
REMARK H PARENT
REMARK Flexibility Score: inf
ROOT
ATOM      1  C   UNL     1     -23.968  69.307  80.087  1.00  0.00     0.053 C 
ENDROOT
BRANCH   1   2
ATOM      2  C   UNL     1     -23.492  70.727  80.136  1.00  0.00     0.041 C 
ATOM      3  O   UNL     1     -23.573  71.386  81.206  1.00  0.00    -0.550 OA
ATOM      4  O   UNL     1     -22.929  71.312  79.008  1.00  0.00    -0.550 OA
ENDBRANCH   1   2
BRANCH   1   5
ATOM      5  C   UNL     1     -22.813  68.322  79.843  1.00  0.00     0.006 C 
BRANCH   5   6
ATOM      6  C   UNL     1     -21.515  68.674  80.593  1.00  0.00    -0.003 C 
ATOM      7  C   UNL     1     -21.712  68.777  82.105  1.00  0.00     0.004 C 
ENDBRANCH   5   6
ENDBRANCH   1   5
TORSDOF 3
ENDMDL
MODEL 2
REMARK VINA RESULT:    -3.836      9.109      9.715
REMARK INTER + INTRA:          -4.290
REMARK INTER:                  -4.186
REMARK INTRA:                  -0.104
REMARK UNBOUND:                 0.219
REMARK SMILES CCCCC(=O)[O-]
REMARK SMILES IDX 4 1 5 2 6 3 7 4 3 5 2 6 1 7
REMARK H PARENT
REMARK Flexibility Score: inf
ROOT
ATOM      1  C   UNL     1     -30.640  66.039  85.845  1.00  0.00     0.053 C 
ENDROOT
BRANCH   1   2
ATOM      2  C   UNL     1     -31.035  67.340  86.476  1.00  0.00     0.041 C 
ATOM      3  O   UNL     1     -32.199  67.497  86.929  1.00  0.00    -0.550 OA
ATOM      4  O   UNL     1     -30.106  68.367  86.592  1.00  0.00    -0.550 OA
ENDBRANCH   1   2
BRANCH   1   5
ATOM      5  C   UNL     1     -29.370  65.453  86.482  1.00  0.00     0.006 C 
BRANCH   5   6
ATOM      6  C   UNL     1     -28.225  65.200  85.485  1.00  0.00    -0.003 C 
ATOM      7  C   UNL     1     -27.460  66.473  85.123  1.00  0.00     0.004 C 
ENDBRANCH   5   6
ENDBRANCH   1   5
TORSDOF 3
ENDMDL
MODEL 3
REMARK VINA RESULT:    -3.811      7.389      8.282
REMARK INTER + INTRA:          -4.260
REMARK INTER:                  -4.154
REMARK INTRA:                  -0.106
REMARK UNBOUND:                 0.219
REMARK SMILES CCCCC(=O)[O-]
REMARK SMILES IDX 4 1 5 2 6 3 7 4 3 5 2 6 1 7
REMARK H PARENT
REMARK Flexibility Score: inf
ROOT
ATOM      1  C   UNL     1     -27.989  66.965  84.674  1.00  0.00     0.053 C 
ENDROOT
BRANCH   1   2
ATOM      2  C   UNL     1     -27.699  68.072  85.641  1.00  0.00     0.041 C 
ATOM      3  O   UNL     1     -28.601  68.492  86.412  1.00  0.00    -0.550 OA
ATOM      4  O   UNL     1     -26.423  68.617  85.713  1.00  0.00    -0.550 OA
ENDBRANCH   1   2
BRANCH   1   5
ATOM      5  C   UNL     1     -29.211  67.275  83.795  1.00  0.00     0.006 C 
BRANCH   5   6
ATOM      6  C   UNL     1     -30.343  66.236  83.900  1.00  0.00    -0.003 C 
ATOM      7  C   UNL     1     -31.184  66.400  85.165  1.00  0.00     0.004 C 
ENDBRANCH   5   6
ENDBRANCH   1   5
TORSDOF 3
ENDMDL
MODEL 4
REMARK VINA RESULT:    -3.784      8.586      9.359
REMARK INTER + INTRA:          -4.229
REMARK INTER:                  -4.120
REMARK INTRA:                  -0.109
REMARK UNBOUND:                 0.219
REMARK SMILES CCCCC(=O)[O-]
REMARK SMILES IDX 4 1 5 2 6 3 7 4 3 5 2 6 1 7
REMARK H PARENT
REMARK Flexibility Score: inf
ROOT
ATOM      1  C   UNL     1     -30.530  66.405  85.447  1.00  0.00     0.053 C 
ENDROOT
BRANCH   1   2
ATOM      2  C   UNL     1     -30.896  67.504  86.396  1.00  0.00     0.041 C 
ATOM      3  O   UNL     1     -32.066  67.582  86.855  1.00  0.00    -0.550 OA
ATOM      4  O   UNL     1     -29.936  68.423  86.799  1.00  0.00    -0.550 OA
ENDBRANCH   1   2
BRANCH   1   5
ATOM      5  C   UNL     1     -30.387  66.914  84.004  1.00  0.00     0.006 C 
BRANCH   5   6
ATOM      6  C   UNL     1     -28.940  67.235  83.589  1.00  0.00    -0.003 C 
ATOM      7  C   UNL     1     -27.905  66.419  84.363  1.00  0.00     0.004 C 
ENDBRANCH   5   6
ENDBRANCH   1   5
TORSDOF 3
ENDMDL
MODEL 5
REMARK VINA RESULT:    -3.762      8.720      9.532
REMARK INTER + INTRA:          -4.204
REMARK INTER:                  -4.068
REMARK INTRA:                  -0.135
REMARK UNBOUND:                 0.219
REMARK SMILES CCCCC(=O)[O-]
REMARK SMILES IDX 4 1 5 2 6 3 7 4 3 5 2 6 1 7
REMARK H PARENT
REMARK Flexibility Score: inf
ROOT
ATOM      1  C   UNL     1     -30.946  66.257  85.316  1.00  0.00     0.053 C 
ENDROOT
BRANCH   1   2
ATOM      2  C   UNL     1     -30.100  65.101  85.755  1.00  0.00     0.041 C 
ATOM      3  O   UNL     1     -29.384  65.194  86.786  1.00  0.00    -0.550 OA
ATOM      4  O   UNL     1     -30.128  63.908  85.042  1.00  0.00    -0.550 OA
ENDBRANCH   1   2
BRANCH   1   5
ATOM      5  C   UNL     1     -30.511  66.799  83.945  1.00  0.00     0.006 C 
BRANCH   5   6
ATOM      6  C   UNL     1     -29.005  67.099  83.834  1.00  0.00    -0.003 C 
ATOM      7  C   UNL     1     -28.340  66.377  82.663  1.00  0.00     0.004 C 
ENDBRANCH   5   6
ENDBRANCH   1   5
TORSDOF 3
ENDMDL
MODEL 6
REMARK VINA RESULT:    -3.753      7.744      8.258
REMARK INTER + INTRA:          -4.193
REMARK INTER:                  -4.090
REMARK INTRA:                  -0.103
REMARK UNBOUND:                 0.219
REMARK SMILES CCCCC(=O)[O-]
REMARK SMILES IDX 4 1 5 2 6 3 7 4 3 5 2 6 1 7
REMARK H PARENT
REMARK Flexibility Score: inf
ROOT
ATOM      1  C   UNL     1     -28.361  66.739  83.787  1.00  0.00     0.053 C 
ENDROOT
BRANCH   1   2
ATOM      2  C   UNL     1     -28.671  65.687  82.766  1.00  0.00     0.041 C 
ATOM      3  O   UNL     1     -29.593  64.855  82.973  1.00  0.00    -0.550 OA
ATOM      4  O   UNL     1     -27.963  65.647  81.572  1.00  0.00    -0.550 OA
ENDBRANCH   1   2
BRANCH   1   5
ATOM      5  C   UNL     1     -27.621  66.160  85.003  1.00  0.00     0.006 C 
BRANCH   5   6
ATOM      6  C   UNL     1     -28.401  66.267  86.326  1.00  0.00    -0.003 C 
ATOM      7  C   UNL     1     -29.449  65.166  86.488  1.00  0.00     0.004 C 
ENDBRANCH   5   6
ENDBRANCH   1   5
TORSDOF 3
ENDMDL
MODEL 7
REMARK VINA RESULT:    -3.730      8.050      8.844
REMARK INTER + INTRA:          -4.166
REMARK INTER:                  -4.066
REMARK INTRA:                  -0.100
REMARK UNBOUND:                 0.219
REMARK SMILES CCCCC(=O)[O-]
REMARK SMILES IDX 4 1 5 2 6 3 7 4 3 5 2 6 1 7
REMARK H PARENT
REMARK Flexibility Score: inf
ROOT
ATOM      1  C   UNL     1     -28.040  66.625  85.349  1.00  0.00     0.053 C 
ENDROOT
BRANCH   1   2
ATOM      2  C   UNL     1     -27.819  68.007  85.884  1.00  0.00     0.041 C 
ATOM      3  O   UNL     1     -26.725  68.597  85.682  1.00  0.00    -0.550 OA
ATOM      4  O   UNL     1     -28.833  68.655  86.577  1.00  0.00    -0.550 OA
ENDBRANCH   1   2
BRANCH   1   5
ATOM      5  C   UNL     1     -28.603  65.677  86.420  1.00  0.00     0.006 C 
BRANCH   5   6
ATOM      6  C   UNL     1     -29.946  65.025  86.042  1.00  0.00    -0.003 C 
ATOM      7  C   UNL     1     -30.880  65.978  85.297  1.00  0.00     0.004 C 
ENDBRANCH   5   6
ENDBRANCH   1   5
TORSDOF 3
ENDMDL
MODEL 8
REMARK VINA RESULT:    -3.716      8.217      8.980
REMARK INTER + INTRA:          -4.149
REMARK INTER:                  -4.008
REMARK INTRA:                  -0.141
REMARK UNBOUND:                 0.219
REMARK SMILES CCCCC(=O)[O-]
REMARK SMILES IDX 4 1 5 2 6 3 7 4 3 5 2 6 1 7
REMARK H PARENT
REMARK Flexibility Score: inf
ROOT
ATOM      1  C   UNL     1     -28.199  65.639  86.038  1.00  0.00     0.053 C 
ENDROOT
BRANCH   1   2
ATOM      2  C   UNL     1     -29.243  64.697  85.522  1.00  0.00     0.041 C 
ATOM      3  O   UNL     1     -30.449  64.842  85.857  1.00  0.00    -0.550 OA
ATOM      4  O   UNL     1     -28.890  63.679  84.645  1.00  0.00    -0.550 OA
ENDBRANCH   1   2
BRANCH   1   5
ATOM      5  C   UNL     1     -27.506  66.408  84.903  1.00  0.00     0.006 C 
BRANCH   5   6
ATOM      6  C   UNL     1     -28.474  67.160  83.970  1.00  0.00    -0.003 C 
ATOM      7  C   UNL     1     -28.356  66.718  82.511  1.00  0.00     0.004 C 
ENDBRANCH   5   6
ENDBRANCH   1   5
TORSDOF 3
ENDMDL
MODEL 9
REMARK VINA RESULT:    -3.690      8.921      9.538
REMARK INTER + INTRA:          -4.119
REMARK INTER:                  -3.998
REMARK INTRA:                  -0.121
REMARK UNBOUND:                 0.219
REMARK SMILES CCCCC(=O)[O-]
REMARK SMILES IDX 4 1 5 2 6 3 7 4 3 5 2 6 1 7
REMARK H PARENT
REMARK Flexibility Score: inf
ROOT
ATOM      1  C   UNL     1     -28.628  67.139  86.323  1.00  0.00     0.053 C 
ENDROOT
BRANCH   1   2
ATOM      2  C   UNL     1     -29.924  67.631  85.754  1.00  0.00     0.041 C 
ATOM      3  O   UNL     1     -30.801  68.126  86.510  1.00  0.00    -0.550 OA
ATOM      4  O   UNL     1     -30.149  67.572  84.385  1.00  0.00    -0.550 OA
ENDBRANCH   1   2
BRANCH   1   5
ATOM      5  C   UNL     1     -28.460  65.622  86.143  1.00  0.00     0.006 C 
BRANCH   5   6
ATOM      6  C   UNL     1     -29.700  64.798  86.537  1.00  0.00    -0.003 C 
ATOM      7  C   UNL     1     -30.094  63.772  85.475  1.00  0.00     0.004 C 
ENDBRANCH   5   6
ENDBRANCH   1   5
TORSDOF 3
ENDMDL
