MODEL 1
REMARK VINA RESULT:    -3.460      0.000      0.000
REMARK INTER + INTRA:          -4.392
REMARK INTER:                  -4.168
REMARK INTRA:                  -0.224
REMARK UNBOUND:                -0.224
REMARK SMILES OCC(O)CO
REMARK SMILES IDX 3 1 5 2 6 3 2 5 1 6 4 8
REMARK H PARENT 6 4 1 7 4 9
REMARK Flexibility Score: inf
ROOT
ATOM      1  C   UNL     1     111.371 107.670 123.895  1.00  0.00     0.165 C 
ENDROOT
BRANCH   1   2
ATOM      2  C   UNL     1     110.942 109.141 123.777  1.00  0.00     0.190 C 
BRANCH   2   3
ATOM      3  O   UNL     1     110.219 109.535 124.912  1.00  0.00    -0.394 OA
ATOM      4  H   UNL     1     110.847 110.051 125.484  1.00  0.00     0.210 HD
ENDBRANCH   2   3
ENDBRANCH   1   2
BRANCH   1   5
ATOM      5  C   UNL     1     110.206 106.788 124.365  1.00  0.00     0.190 C 
BRANCH   5   6
ATOM      6  O   UNL     1     109.035 107.151 123.687  1.00  0.00    -0.394 OA
ATOM      7  H   UNL     1     109.018 108.144 123.680  1.00  0.00     0.210 HD
ENDBRANCH   5   6
ENDBRANCH   1   5
BRANCH   1   8
ATOM      8  O   UNL     1     112.472 107.541 124.762  1.00  0.00    -0.388 OA
ATOM      9  H   UNL     1     112.977 108.397 124.735  1.00  0.00     0.211 HD
ENDBRANCH   1   8
TORSDOF 5
ENDMDL
MODEL 2
REMARK VINA RESULT:    -3.339      0.797      2.370
REMARK INTER + INTRA:          -4.246
REMARK INTER:                  -4.022
REMARK INTRA:                  -0.224
REMARK UNBOUND:                -0.224
REMARK SMILES OCC(O)CO
REMARK SMILES IDX 3 1 5 2 6 3 2 5 1 6 4 8
REMARK H PARENT 6 4 1 7 4 9
REMARK Flexibility Score: inf
ROOT
ATOM      1  C   UNL     1     111.360 107.398 124.034  1.00  0.00     0.165 C 
ENDROOT
BRANCH   1   2
ATOM      2  C   UNL     1     110.141 106.481 124.222  1.00  0.00     0.190 C 
BRANCH   2   3
ATOM      3  O   UNL     1     108.985 107.091 123.714  1.00  0.00    -0.394 OA
ATOM      4  H   UNL     1     108.326 106.364 123.559  1.00  0.00     0.210 HD
ENDBRANCH   2   3
ENDBRANCH   1   2
BRANCH   1   5
ATOM      5  C   UNL     1     110.929 108.832 123.696  1.00  0.00     0.190 C 
BRANCH   5   6
ATOM      6  O   UNL     1     110.339 109.425 124.819  1.00  0.00    -0.394 OA
ATOM      7  H   UNL     1     109.441 109.012 124.909  1.00  0.00     0.210 HD
ENDBRANCH   5   6
ENDBRANCH   1   5
BRANCH   1   8
ATOM      8  O   UNL     1     112.216 106.889 123.040  1.00  0.00    -0.388 OA
ATOM      9  H   UNL     1     113.065 106.622 123.482  1.00  0.00     0.211 HD
ENDBRANCH   1   8
TORSDOF 5
ENDMDL
MODEL 3
REMARK VINA RESULT:    -3.229      0.953      2.508
REMARK INTER + INTRA:          -4.114
REMARK INTER:                  -3.923
REMARK INTRA:                  -0.191
REMARK UNBOUND:                -0.224
REMARK SMILES OCC(O)CO
REMARK SMILES IDX 3 1 5 2 6 3 2 5 1 6 4 8
REMARK H PARENT 6 4 1 7 4 9
REMARK Flexibility Score: inf
ROOT
ATOM      1  C   UNL     1     110.849 107.499 124.024  1.00  0.00     0.165 C 
ENDROOT
BRANCH   1   2
ATOM      2  C   UNL     1     112.308 107.078 124.266  1.00  0.00     0.190 C 
BRANCH   2   3
ATOM      3  O   UNL     1     112.974 108.039 125.039  1.00  0.00    -0.394 OA
ATOM      4  H   UNL     1     112.324 108.358 125.718  1.00  0.00     0.210 HD
ENDBRANCH   2   3
ENDBRANCH   1   2
BRANCH   1   5
ATOM      5  C   UNL     1     110.748 109.000 123.719  1.00  0.00     0.190 C 
BRANCH   5   6
ATOM      6  O   UNL     1     110.315 109.686 124.861  1.00  0.00    -0.394 OA
ATOM      7  H   UNL     1     109.523 109.191 125.197  1.00  0.00     0.210 HD
ENDBRANCH   5   6
ENDBRANCH   1   5
BRANCH   1   8
ATOM      8  O   UNL     1     110.045 107.161 125.128  1.00  0.00    -0.388 OA
ATOM      9  H   UNL     1     109.392 106.475 124.826  1.00  0.00     0.211 HD
ENDBRANCH   1   8
TORSDOF 5
ENDMDL
MODEL 4
REMARK VINA RESULT:    -3.212      1.356      1.837
REMARK INTER + INTRA:          -4.093
REMARK INTER:                  -4.060
REMARK INTRA:                  -0.033
REMARK UNBOUND:                -0.224
REMARK SMILES OCC(O)CO
REMARK SMILES IDX 3 1 5 2 6 3 2 5 1 6 4 8
REMARK H PARENT 6 4 1 7 4 9
REMARK Flexibility Score: inf
ROOT
ATOM      1  C   UNL     1     111.035 108.919 123.932  1.00  0.00     0.165 C 
ENDROOT
BRANCH   1   2
ATOM      2  C   UNL     1     111.010 109.779 122.657  1.00  0.00     0.190 C 
BRANCH   2   3
ATOM      3  O   UNL     1     109.802 110.486 122.566  1.00  0.00    -0.394 OA
ATOM      4  H   UNL     1     110.041 111.446 122.485  1.00  0.00     0.210 HD
ENDBRANCH   2   3
ENDBRANCH   1   2
BRANCH   1   5
ATOM      5  C   UNL     1     110.665 107.461 123.625  1.00  0.00     0.190 C 
BRANCH   5   6
ATOM      6  O   UNL     1     109.321 107.236 123.949  1.00  0.00    -0.394 OA
ATOM      7  H   UNL     1     108.790 107.630 123.209  1.00  0.00     0.210 HD
ENDBRANCH   5   6
ENDBRANCH   1   5
BRANCH   1   8
ATOM      8  O   UNL     1     110.176 109.454 124.909  1.00  0.00    -0.388 OA
ATOM      9  H   UNL     1     109.684 108.697 125.324  1.00  0.00     0.211 HD
ENDBRANCH   1   8
TORSDOF 5
ENDMDL
MODEL 5
REMARK VINA RESULT:    -3.179      1.420      2.283
REMARK INTER + INTRA:          -4.054
REMARK INTER:                  -3.835
REMARK INTRA:                  -0.219
REMARK UNBOUND:                -0.224
REMARK SMILES OCC(O)CO
REMARK SMILES IDX 3 1 5 2 6 3 2 5 1 6 4 8
REMARK H PARENT 6 4 1 7 4 9
REMARK Flexibility Score: inf
ROOT
ATOM      1  C   UNL     1     111.314 107.501 123.845  1.00  0.00     0.165 C 
ENDROOT
BRANCH   1   2
ATOM      2  C   UNL     1     110.100 106.601 124.126  1.00  0.00     0.190 C 
BRANCH   2   3
ATOM      3  O   UNL     1     108.935 107.165 123.587  1.00  0.00    -0.394 OA
ATOM      4  H   UNL     1     108.471 106.439 123.092  1.00  0.00     0.210 HD
ENDBRANCH   2   3
ENDBRANCH   1   2
BRANCH   1   5
ATOM      5  C   UNL     1     111.843 107.290 122.420  1.00  0.00     0.190 C 
BRANCH   5   6
ATOM      6  O   UNL     1     110.967 106.459 121.709  1.00  0.00    -0.394 OA
ATOM      7  H   UNL     1     110.399 107.062 121.162  1.00  0.00     0.210 HD
ENDBRANCH   5   6
ENDBRANCH   1   5
BRANCH   1   8
ATOM      8  O   UNL     1     112.331 107.275 124.791  1.00  0.00    -0.388 OA
ATOM      9  H   UNL     1     112.228 107.953 125.510  1.00  0.00     0.211 HD
ENDBRANCH   1   8
TORSDOF 5
ENDMDL
MODEL 6
REMARK VINA RESULT:    -3.176      1.216      3.086
REMARK INTER + INTRA:          -4.049
REMARK INTER:                  -4.047
REMARK INTRA:                  -0.002
REMARK UNBOUND:                -0.224
REMARK SMILES OCC(O)CO
REMARK SMILES IDX 3 1 5 2 6 3 2 5 1 6 4 8
REMARK H PARENT 6 4 1 7 4 9
REMARK Flexibility Score: inf
ROOT
ATOM      1  C   UNL     1     110.851 108.995 123.799  1.00  0.00     0.165 C 
ENDROOT
BRANCH   1   2
ATOM      2  C   UNL     1     110.641 107.473 123.851  1.00  0.00     0.190 C 
BRANCH   2   3
ATOM      3  O   UNL     1     109.274 107.167 123.893  1.00  0.00    -0.394 OA
ATOM      4  H   UNL     1     108.808 107.989 124.199  1.00  0.00     0.210 HD
ENDBRANCH   2   3
ENDBRANCH   1   2
BRANCH   1   5
ATOM      5  C   UNL     1     112.339 109.354 123.916  1.00  0.00     0.190 C 
BRANCH   5   6
ATOM      6  O   UNL     1     112.533 110.214 125.005  1.00  0.00    -0.394 OA
ATOM      7  H   UNL     1     112.277 111.119 124.690  1.00  0.00     0.210 HD
ENDBRANCH   5   6
ENDBRANCH   1   5
BRANCH   1   8
ATOM      8  O   UNL     1     110.105 109.634 124.807  1.00  0.00    -0.388 OA
ATOM      9  H   UNL     1     110.697 110.304 125.240  1.00  0.00     0.211 HD
ENDBRANCH   1   8
TORSDOF 5
ENDMDL
MODEL 7
REMARK VINA RESULT:    -3.156      1.539      2.157
REMARK INTER + INTRA:          -4.025
REMARK INTER:                  -3.808
REMARK INTRA:                  -0.218
REMARK UNBOUND:                -0.224
REMARK SMILES OCC(O)CO
REMARK SMILES IDX 3 1 5 2 6 3 2 5 1 6 4 8
REMARK H PARENT 6 4 1 7 4 9
REMARK Flexibility Score: inf
ROOT
ATOM      1  C   UNL     1     111.514 106.712 123.927  1.00  0.00     0.165 C 
ENDROOT
BRANCH   1   2
ATOM      2  C   UNL     1     111.466 107.270 122.495  1.00  0.00     0.190 C 
BRANCH   2   3
ATOM      3  O   UNL     1     110.867 106.346 121.628  1.00  0.00    -0.394 OA
ATOM      4  H   UNL     1     111.234 105.454 121.866  1.00  0.00     0.210 HD
ENDBRANCH   2   3
ENDBRANCH   1   2
BRANCH   1   5
ATOM      5  C   UNL     1     110.101 106.510 124.492  1.00  0.00     0.190 C 
BRANCH   5   6
ATOM      6  O   UNL     1     109.181 107.250 123.738  1.00  0.00    -0.394 OA
ATOM      7  H   UNL     1     109.711 107.732 123.052  1.00  0.00     0.210 HD
ENDBRANCH   5   6
ENDBRANCH   1   5
BRANCH   1   8
ATOM      8  O   UNL     1     112.268 107.556 124.764  1.00  0.00    -0.388 OA
ATOM      9  H   UNL     1     111.761 107.669 125.612  1.00  0.00     0.211 HD
ENDBRANCH   1   8
TORSDOF 5
ENDMDL
MODEL 8
REMARK VINA RESULT:    -3.077      1.562      2.322
REMARK INTER + INTRA:          -3.930
REMARK INTER:                  -3.719
REMARK INTRA:                  -0.211
REMARK UNBOUND:                -0.224
REMARK SMILES OCC(O)CO
REMARK SMILES IDX 3 1 5 2 6 3 2 5 1 6 4 8
REMARK H PARENT 6 4 1 7 4 9
REMARK Flexibility Score: inf
ROOT
ATOM      1  C   UNL     1     111.128 107.139 123.154  1.00  0.00     0.165 C 
ENDROOT
BRANCH   1   2
ATOM      2  C   UNL     1     112.572 107.050 123.673  1.00  0.00     0.190 C 
BRANCH   2   3
ATOM      3  O   UNL     1     112.786 107.990 124.692  1.00  0.00    -0.394 OA
ATOM      4  H   UNL     1     113.651 107.753 125.119  1.00  0.00     0.210 HD
ENDBRANCH   2   3
ENDBRANCH   1   2
BRANCH   1   5
ATOM      5  C   UNL     1     110.137 106.553 124.169  1.00  0.00     0.190 C 
BRANCH   5   6
ATOM      6  O   UNL     1     110.127 107.339 125.328  1.00  0.00    -0.394 OA
ATOM      7  H   UNL     1     110.358 108.260 125.038  1.00  0.00     0.210 HD
ENDBRANCH   5   6
ENDBRANCH   1   5
BRANCH   1   8
ATOM      8  O   UNL     1     111.006 106.492 121.910  1.00  0.00    -0.388 OA
ATOM      9  H   UNL     1     110.926 105.517 122.085  1.00  0.00     0.211 HD
ENDBRANCH   1   8
TORSDOF 5
ENDMDL
MODEL 9
REMARK VINA RESULT:    -2.895      5.544      5.859
REMARK INTER + INTRA:          -3.711
REMARK INTER:                  -3.507
REMARK INTRA:                  -0.204
REMARK UNBOUND:                -0.224
REMARK SMILES OCC(O)CO
REMARK SMILES IDX 3 1 5 2 6 3 2 5 1 6 4 8
REMARK H PARENT 6 4 1 7 4 9
REMARK Flexibility Score: inf
ROOT
ATOM      1  C   UNL     1     112.057 107.295 119.617  1.00  0.00     0.165 C 
ENDROOT
BRANCH   1   2
ATOM      2  C   UNL     1     111.715 107.991 118.289  1.00  0.00     0.190 C 
BRANCH   2   3
ATOM      3  O   UNL     1     112.885 108.306 117.584  1.00  0.00    -0.394 OA
ATOM      4  H   UNL     1     112.670 109.089 117.013  1.00  0.00     0.210 HD
ENDBRANCH   2   3
ENDBRANCH   1   2
BRANCH   1   5
ATOM      5  C   UNL     1     112.041 105.768 119.463  1.00  0.00     0.190 C 
BRANCH   5   6
ATOM      6  O   UNL     1     113.025 105.375 118.546  1.00  0.00    -0.394 OA
ATOM      7  H   UNL     1     113.733 106.069 118.588  1.00  0.00     0.210 HD
ENDBRANCH   5   6
ENDBRANCH   1   5
BRANCH   1   8
ATOM      8  O   UNL     1     111.173 107.702 120.633  1.00  0.00    -0.388 OA
ATOM      9  H   UNL     1     110.296 107.896 120.209  1.00  0.00     0.211 HD
ENDBRANCH   1   8
TORSDOF 5
ENDMDL
