MODEL 1
REMARK VINA RESULT:    -7.427      0.000      0.000
REMARK INTER + INTRA:          -8.115
REMARK INTER:                  -7.861
REMARK INTRA:                  -0.254
REMARK UNBOUND:                -0.254
REMARK SMILES O=c1cc(-c2ccccc2)oc2ccccc12
REMARK SMILES IDX 4 1 3 2 2 3 1 4 17 5 16 6 15 7 14 8 13 9 12 10 11 11 5 12
REMARK SMILES IDX 8 13 7 14 9 15 6 16 10 17
REMARK H PARENT
REMARK Flexibility Score: inf
ROOT
ATOM      1  C   UNL     1       5.269   6.882 -22.273  1.00  0.00     0.138 A 
ATOM      2  C   UNL     1       6.500   7.544 -22.081  1.00  0.00     0.100 A 
ATOM      3  C   UNL     1       6.624   8.886 -22.445  1.00  0.00     0.193 A 
ATOM      4  O   UNL     1       7.725   9.477 -22.274  1.00  0.00    -0.289 OA
ATOM      5  C   UNL     1       5.524   9.558 -22.996  1.00  0.00     0.065 A 
ATOM      6  C   UNL     1       5.582  10.909 -23.383  1.00  0.00     0.016 A 
ATOM      7  C   UNL     1       4.453  11.530 -23.928  1.00  0.00     0.001 A 
ATOM      8  C   UNL     1       3.264  10.812 -24.089  1.00  0.00     0.004 A 
ATOM      9  C   UNL     1       3.198   9.469 -23.707  1.00  0.00     0.048 A 
ATOM     10  C   UNL     1       4.321   8.838 -23.161  1.00  0.00     0.138 A 
ATOM     11  O   UNL     1       4.248   7.561 -22.800  1.00  0.00    -0.456 OA
ENDROOT
BRANCH   1  12
ATOM     12  C   UNL     1       5.051   5.448 -21.911  1.00  0.00     0.017 A 
ATOM     13  C   UNL     1       4.733   2.722 -21.250  1.00  0.00     0.000 A 
ATOM     14  C   UNL     1       5.968   3.194 -21.693  1.00  0.00     0.001 A 
ATOM     15  C   UNL     1       3.654   3.599 -21.135  1.00  0.00     0.001 A 
ATOM     16  C   UNL     1       6.128   4.543 -22.021  1.00  0.00     0.012 A 
ATOM     17  C   UNL     1       3.806   4.951 -21.461  1.00  0.00     0.012 A 
ENDBRANCH   1  12
TORSDOF 1
ENDMDL
MODEL 2
REMARK VINA RESULT:    -7.224      5.645     10.126
REMARK INTER + INTRA:          -7.900
REMARK INTER:                  -7.642
REMARK INTRA:                  -0.258
REMARK UNBOUND:                -0.254
REMARK SMILES O=c1cc(-c2ccccc2)oc2ccccc12
REMARK SMILES IDX 4 1 3 2 2 3 1 4 17 5 16 6 15 7 14 8 13 9 12 10 11 11 5 12
REMARK SMILES IDX 8 13 7 14 9 15 6 16 10 17
REMARK H PARENT
REMARK Flexibility Score: inf
ROOT
ATOM      1  C   UNL     1       4.664  -0.240 -22.468  1.00  0.00     0.138 A 
ATOM      2  C   UNL     1       5.059  -0.862 -23.672  1.00  0.00     0.100 A 
ATOM      3  C   UNL     1       4.723  -2.198 -23.898  1.00  0.00     0.193 A 
ATOM      4  O   UNL     1       5.077  -2.754 -24.973  1.00  0.00    -0.289 OA
ATOM      5  C   UNL     1       4.000  -2.903 -22.926  1.00  0.00     0.065 A 
ATOM      6  C   UNL     1       3.630  -4.251 -23.091  1.00  0.00     0.016 A 
ATOM      7  C   UNL     1       2.908  -4.906 -22.089  1.00  0.00     0.001 A 
ATOM      8  C   UNL     1       2.550  -4.226 -20.921  1.00  0.00     0.004 A 
ATOM      9  C   UNL     1       2.913  -2.888 -20.748  1.00  0.00     0.048 A 
ATOM     10  C   UNL     1       3.636  -2.222 -21.744  1.00  0.00     0.138 A 
ATOM     11  O   UNL     1       3.976  -0.949 -21.572  1.00  0.00    -0.456 OA
ENDROOT
BRANCH   1  12
ATOM     12  C   UNL     1       4.981   1.185 -22.147  1.00  0.00     0.017 A 
ATOM     13  C   UNL     1       5.501   3.880 -21.481  1.00  0.00     0.000 A 
ATOM     14  C   UNL     1       4.399   3.225 -20.932  1.00  0.00     0.001 A 
ATOM     15  C   UNL     1       6.345   3.202 -22.361  1.00  0.00     0.001 A 
ATOM     16  C   UNL     1       4.140   1.891 -21.260  1.00  0.00     0.012 A 
ATOM     17  C   UNL     1       6.093   1.867 -22.694  1.00  0.00     0.012 A 
ENDBRANCH   1  12
TORSDOF 1
ENDMDL
MODEL 3
REMARK VINA RESULT:    -7.191      1.106      2.366
REMARK INTER + INTRA:          -7.865
REMARK INTER:                  -7.614
REMARK INTRA:                  -0.251
REMARK UNBOUND:                -0.254
REMARK SMILES O=c1cc(-c2ccccc2)oc2ccccc12
REMARK SMILES IDX 4 1 3 2 2 3 1 4 17 5 16 6 15 7 14 8 13 9 12 10 11 11 5 12
REMARK SMILES IDX 8 13 7 14 9 15 6 16 10 17
REMARK H PARENT
REMARK Flexibility Score: inf
ROOT
ATOM      1  C   UNL     1       4.896   6.881 -22.604  1.00  0.00     0.138 A 
ATOM      2  C   UNL     1       3.787   7.511 -23.208  1.00  0.00     0.100 A 
ATOM      3  C   UNL     1       3.897   8.835 -23.638  1.00  0.00     0.193 A 
ATOM      4  O   UNL     1       2.905   9.398 -24.177  1.00  0.00    -0.289 OA
ATOM      5  C   UNL     1       5.108   9.520 -23.463  1.00  0.00     0.065 A 
ATOM      6  C   UNL     1       5.285  10.855 -23.873  1.00  0.00     0.016 A 
ATOM      7  C   UNL     1       6.515  11.490 -23.674  1.00  0.00     0.001 A 
ATOM      8  C   UNL     1       7.572  10.803 -23.069  1.00  0.00     0.004 A 
ATOM      9  C   UNL     1       7.405   9.478 -22.659  1.00  0.00     0.048 A 
ATOM     10  C   UNL     1       6.178   8.832 -22.852  1.00  0.00     0.138 A 
ATOM     11  O   UNL     1       6.029   7.571 -22.459  1.00  0.00    -0.456 OA
ENDROOT
BRANCH   1  12
ATOM     12  C   UNL     1       4.863   5.468 -22.117  1.00  0.00     0.017 A 
ATOM     13  C   UNL     1       4.895   2.789 -21.227  1.00  0.00     0.000 A 
ATOM     14  C   UNL     1       6.025   3.337 -21.832  1.00  0.00     0.001 A 
ATOM     15  C   UNL     1       3.748   3.567 -21.063  1.00  0.00     0.001 A 
ATOM     16  C   UNL     1       6.013   4.664 -22.273  1.00  0.00     0.012 A 
ATOM     17  C   UNL     1       3.727   4.895 -21.501  1.00  0.00     0.012 A 
ENDBRANCH   1  12
TORSDOF 1
ENDMDL
MODEL 4
REMARK VINA RESULT:    -6.974      1.655      2.423
REMARK INTER + INTRA:          -7.636
REMARK INTER:                  -7.382
REMARK INTRA:                  -0.254
REMARK UNBOUND:                -0.254
REMARK SMILES O=c1cc(-c2ccccc2)oc2ccccc12
REMARK SMILES IDX 4 1 3 2 2 3 1 4 17 5 16 6 15 7 14 8 13 9 12 10 11 11 5 12
REMARK SMILES IDX 8 13 7 14 9 15 6 16 10 17
REMARK H PARENT
REMARK Flexibility Score: inf
ROOT
ATOM      1  C   UNL     1       4.960   8.046 -22.658  1.00  0.00     0.138 A 
ATOM      2  C   UNL     1       4.033   8.996 -22.181  1.00  0.00     0.100 A 
ATOM      3  C   UNL     1       4.117  10.320 -22.618  1.00  0.00     0.193 A 
ATOM      4  O   UNL     1       3.288  11.169 -22.190  1.00  0.00    -0.289 OA
ATOM      5  C   UNL     1       5.121  10.686 -23.524  1.00  0.00     0.065 A 
ATOM      6  C   UNL     1       5.261  12.002 -24.003  1.00  0.00     0.016 A 
ATOM      7  C   UNL     1       6.282  12.312 -24.907  1.00  0.00     0.001 A 
ATOM      8  C   UNL     1       7.166  11.319 -25.338  1.00  0.00     0.004 A 
ATOM      9  C   UNL     1       7.035  10.009 -24.867  1.00  0.00     0.048 A 
ATOM     10  C   UNL     1       6.017   9.687 -23.962  1.00  0.00     0.138 A 
ATOM     11  O   UNL     1       5.899   8.439 -23.521  1.00  0.00    -0.456 OA
ENDROOT
BRANCH   1  12
ATOM     12  C   UNL     1       4.941   6.610 -22.243  1.00  0.00     0.017 A 
ATOM     13  C   UNL     1       5.003   3.897 -21.464  1.00  0.00     0.000 A 
ATOM     14  C   UNL     1       6.191   4.570 -21.747  1.00  0.00     0.001 A 
ATOM     15  C   UNL     1       3.784   4.567 -21.567  1.00  0.00     0.001 A 
ATOM     16  C   UNL     1       6.164   5.913 -22.132  1.00  0.00     0.012 A 
ATOM     17  C   UNL     1       3.747   5.911 -21.952  1.00  0.00     0.012 A 
ENDBRANCH   1  12
TORSDOF 1
ENDMDL
MODEL 5
REMARK VINA RESULT:    -6.953      2.322      6.443
REMARK INTER + INTRA:          -7.613
REMARK INTER:                  -7.393
REMARK INTRA:                  -0.221
REMARK UNBOUND:                -0.254
REMARK SMILES O=c1cc(-c2ccccc2)oc2ccccc12
REMARK SMILES IDX 4 1 3 2 2 3 1 4 17 5 16 6 15 7 14 8 13 9 12 10 11 11 5 12
REMARK SMILES IDX 8 13 7 14 9 15 6 16 10 17
REMARK H PARENT
REMARK Flexibility Score: inf
ROOT
ATOM      1  C   UNL     1       6.118  10.373 -24.207  1.00  0.00     0.138 A 
ATOM      2  C   UNL     1       7.027   9.954 -23.213  1.00  0.00     0.100 A 
ATOM      3  C   UNL     1       6.748   8.811 -22.462  1.00  0.00     0.193 A 
ATOM      4  O   UNL     1       7.561   8.437 -21.573  1.00  0.00    -0.289 OA
ATOM      5  C   UNL     1       5.567   8.095 -22.705  1.00  0.00     0.065 A 
ATOM      6  C   UNL     1       5.226   6.936 -21.984  1.00  0.00     0.016 A 
ATOM      7  C   UNL     1       4.035   6.261 -22.269  1.00  0.00     0.001 A 
ATOM      8  C   UNL     1       3.180   6.733 -23.269  1.00  0.00     0.004 A 
ATOM      9  C   UNL     1       3.511   7.883 -23.990  1.00  0.00     0.048 A 
ATOM     10  C   UNL     1       4.700   8.568 -23.714  1.00  0.00     0.138 A 
ATOM     11  O   UNL     1       5.007   9.661 -24.405  1.00  0.00    -0.456 OA
ENDROOT
BRANCH   1  12
ATOM     12  C   UNL     1       6.340  11.583 -25.056  1.00  0.00     0.017 A 
ATOM     13  C   UNL     1       6.814  13.814 -26.720  1.00  0.00     0.000 A 
ATOM     14  C   UNL     1       7.364  12.574 -27.041  1.00  0.00     0.001 A 
ATOM     15  C   UNL     1       6.030  13.951 -25.574  1.00  0.00     0.001 A 
ATOM     16  C   UNL     1       7.131  11.468 -26.220  1.00  0.00     0.012 A 
ATOM     17  C   UNL     1       5.791  12.849 -24.746  1.00  0.00     0.012 A 
ENDBRANCH   1  12
TORSDOF 1
ENDMDL
MODEL 6
REMARK VINA RESULT:    -6.946      4.897      9.288
REMARK INTER + INTRA:          -7.606
REMARK INTER:                  -7.358
REMARK INTRA:                  -0.248
REMARK UNBOUND:                -0.254
REMARK SMILES O=c1cc(-c2ccccc2)oc2ccccc12
REMARK SMILES IDX 4 1 3 2 2 3 1 4 17 5 16 6 15 7 14 8 13 9 12 10 11 11 5 12
REMARK SMILES IDX 8 13 7 14 9 15 6 16 10 17
REMARK H PARENT
REMARK Flexibility Score: inf
ROOT
ATOM      1  C   UNL     1       4.420   0.984 -23.298  1.00  0.00     0.138 A 
ATOM      2  C   UNL     1       3.613   0.712 -24.423  1.00  0.00     0.100 A 
ATOM      3  C   UNL     1       3.407  -0.611 -24.818  1.00  0.00     0.193 A 
ATOM      4  O   UNL     1       2.686  -0.854 -25.825  1.00  0.00    -0.289 OA
ATOM      5  C   UNL     1       4.004  -1.651 -24.092  1.00  0.00     0.065 A 
ATOM      6  C   UNL     1       3.836  -3.005 -24.437  1.00  0.00     0.016 A 
ATOM      7  C   UNL     1       4.455  -4.002 -23.677  1.00  0.00     0.001 A 
ATOM      8  C   UNL     1       5.242  -3.659 -22.573  1.00  0.00     0.004 A 
ATOM      9  C   UNL     1       5.414  -2.317 -22.223  1.00  0.00     0.048 A 
ATOM     10  C   UNL     1       4.799  -1.310 -22.976  1.00  0.00     0.138 A 
ATOM     11  O   UNL     1       4.968  -0.037 -22.636  1.00  0.00    -0.456 OA
ENDROOT
BRANCH   1  12
ATOM     12  C   UNL     1       4.692   2.369 -22.807  1.00  0.00     0.017 A 
ATOM     13  C   UNL     1       5.299   4.961 -21.866  1.00  0.00     0.000 A 
ATOM     14  C   UNL     1       6.293   3.984 -21.912  1.00  0.00     0.001 A 
ATOM     15  C   UNL     1       4.004   4.655 -22.284  1.00  0.00     0.001 A 
ATOM     16  C   UNL     1       5.995   2.700 -22.378  1.00  0.00     0.012 A 
ATOM     17  C   UNL     1       3.697   3.373 -22.752  1.00  0.00     0.012 A 
ENDBRANCH   1  12
TORSDOF 1
ENDMDL
MODEL 7
REMARK VINA RESULT:    -6.812      4.802      9.117
REMARK INTER + INTRA:          -7.464
REMARK INTER:                  -7.235
REMARK INTRA:                  -0.230
REMARK UNBOUND:                -0.254
REMARK SMILES O=c1cc(-c2ccccc2)oc2ccccc12
REMARK SMILES IDX 4 1 3 2 2 3 1 4 17 5 16 6 15 7 14 8 13 9 12 10 11 11 5 12
REMARK SMILES IDX 8 13 7 14 9 15 6 16 10 17
REMARK H PARENT
REMARK Flexibility Score: inf
ROOT
ATOM      1  C   UNL     1       4.809   0.928 -22.369  1.00  0.00     0.138 A 
ATOM      2  C   UNL     1       4.438   0.031 -21.345  1.00  0.00     0.100 A 
ATOM      3  C   UNL     1       4.290  -1.326 -21.639  1.00  0.00     0.193 A 
ATOM      4  O   UNL     1       3.958  -2.128 -20.724  1.00  0.00    -0.289 OA
ATOM      5  C   UNL     1       4.512  -1.778 -22.948  1.00  0.00     0.065 A 
ATOM      6  C   UNL     1       4.379  -3.131 -23.310  1.00  0.00     0.016 A 
ATOM      7  C   UNL     1       4.613  -3.527 -24.631  1.00  0.00     0.001 A 
ATOM      8  C   UNL     1       4.978  -2.583 -25.595  1.00  0.00     0.004 A 
ATOM      9  C   UNL     1       5.112  -1.237 -25.243  1.00  0.00     0.048 A 
ATOM     10  C   UNL     1       4.880  -0.829 -23.925  1.00  0.00     0.138 A 
ATOM     11  O   UNL     1       5.011   0.454 -23.600  1.00  0.00    -0.456 OA
ENDROOT
BRANCH   1  12
ATOM     12  C   UNL     1       4.989   2.394 -22.140  1.00  0.00     0.017 A 
ATOM     13  C   UNL     1       5.233   5.170 -21.687  1.00  0.00     0.000 A 
ATOM     14  C   UNL     1       3.994   4.547 -21.550  1.00  0.00     0.001 A 
ATOM     15  C   UNL     1       6.352   4.420 -22.049  1.00  0.00     0.001 A 
ATOM     16  C   UNL     1       3.870   3.172 -21.774  1.00  0.00     0.012 A 
ATOM     17  C   UNL     1       6.237   3.044 -22.274  1.00  0.00     0.012 A 
ENDBRANCH   1  12
TORSDOF 1
ENDMDL
MODEL 8
REMARK VINA RESULT:    -6.804      5.407      8.313
REMARK INTER + INTRA:          -7.455
REMARK INTER:                  -7.191
REMARK INTRA:                  -0.264
REMARK UNBOUND:                -0.254
REMARK SMILES O=c1cc(-c2ccccc2)oc2ccccc12
REMARK SMILES IDX 4 1 3 2 2 3 1 4 17 5 16 6 15 7 14 8 13 9 12 10 11 11 5 12
REMARK SMILES IDX 8 13 7 14 9 15 6 16 10 17
REMARK H PARENT
REMARK Flexibility Score: inf
ROOT
ATOM      1  C   UNL     1       4.277  -1.177 -22.790  1.00  0.00     0.138 A 
ATOM      2  C   UNL     1       4.794  -0.891 -24.071  1.00  0.00     0.100 A 
ATOM      3  C   UNL     1       5.238   0.400 -24.362  1.00  0.00     0.193 A 
ATOM      4  O   UNL     1       5.700   0.655 -25.508  1.00  0.00    -0.289 OA
ATOM      5  C   UNL     1       5.164   1.395 -23.377  1.00  0.00     0.065 A 
ATOM      6  C   UNL     1       5.593   2.716 -23.606  1.00  0.00     0.016 A 
ATOM      7  C   UNL     1       5.496   3.668 -22.587  1.00  0.00     0.001 A 
ATOM      8  C   UNL     1       4.973   3.315 -21.339  1.00  0.00     0.004 A 
ATOM      9  C   UNL     1       4.544   2.006 -21.104  1.00  0.00     0.048 A 
ATOM     10  C   UNL     1       4.636   1.043 -22.116  1.00  0.00     0.138 A 
ATOM     11  O   UNL     1       4.226  -0.199 -21.883  1.00  0.00    -0.456 OA
ENDROOT
BRANCH   1  12
ATOM     12  C   UNL     1       3.781  -2.531 -22.395  1.00  0.00     0.017 A 
ATOM     13  C   UNL     1       2.806  -5.048 -21.569  1.00  0.00     0.000 A 
ATOM     14  C   UNL     1       2.581  -3.920 -20.782  1.00  0.00     0.001 A 
ATOM     15  C   UNL     1       3.514  -4.931 -22.766  1.00  0.00     0.001 A 
ATOM     16  C   UNL     1       3.063  -2.672 -21.188  1.00  0.00     0.012 A 
ATOM     17  C   UNL     1       3.999  -3.686 -23.180  1.00  0.00     0.012 A 
ENDBRANCH   1  12
TORSDOF 1
ENDMDL
MODEL 9
REMARK VINA RESULT:    -6.704      2.978      5.088
REMARK INTER + INTRA:          -7.349
REMARK INTER:                  -7.084
REMARK INTRA:                  -0.265
REMARK UNBOUND:                -0.254
REMARK SMILES O=c1cc(-c2ccccc2)oc2ccccc12
REMARK SMILES IDX 4 1 3 2 2 3 1 4 17 5 16 6 15 7 14 8 13 9 12 10 11 11 5 12
REMARK SMILES IDX 8 13 7 14 9 15 6 16 10 17
REMARK H PARENT
REMARK Flexibility Score: inf
ROOT
ATOM      1  C   UNL     1       4.491   2.361 -23.086  1.00  0.00     0.138 A 
ATOM      2  C   UNL     1       3.588   2.714 -24.111  1.00  0.00     0.100 A 
ATOM      3  C   UNL     1       3.349   4.062 -24.385  1.00  0.00     0.193 A 
ATOM      4  O   UNL     1       2.541   4.376 -25.301  1.00  0.00    -0.289 OA
ATOM      5  C   UNL     1       4.010   5.047 -23.637  1.00  0.00     0.065 A 
ATOM      6  C   UNL     1       3.815   6.422 -23.862  1.00  0.00     0.016 A 
ATOM      7  C   UNL     1       4.500   7.361 -23.087  1.00  0.00     0.001 A 
ATOM      8  C   UNL     1       5.382   6.940 -22.086  1.00  0.00     0.004 A 
ATOM      9  C   UNL     1       5.582   5.576 -21.856  1.00  0.00     0.048 A 
ATOM     10  C   UNL     1       4.901   4.627 -22.626  1.00  0.00     0.138 A 
ATOM     11  O   UNL     1       5.098   3.332 -22.400  1.00  0.00    -0.456 OA
ENDROOT
BRANCH   1  12
ATOM     12  C   UNL     1       4.803   0.944 -22.728  1.00  0.00     0.017 A 
ATOM     13  C   UNL     1       5.442  -1.701 -21.973  1.00  0.00     0.000 A 
ATOM     14  C   UNL     1       5.877  -0.628 -21.195  1.00  0.00     0.001 A 
ATOM     15  C   UNL     1       4.692  -1.465 -23.125  1.00  0.00     0.001 A 
ATOM     16  C   UNL     1       5.561   0.682 -21.566  1.00  0.00     0.012 A 
ATOM     17  C   UNL     1       4.372  -0.157 -23.504  1.00  0.00     0.012 A 
ENDBRANCH   1  12
TORSDOF 1
ENDMDL
