MODEL 1
REMARK VINA RESULT:    -5.502      0.000      0.000
REMARK INTER + INTRA:          -5.858
REMARK INTER:                  -5.824
REMARK INTRA:                  -0.034
REMARK UNBOUND:                -0.034
REMARK SMILES COc1ccc2ccc(=O)oc2c1
REMARK SMILES IDX 3 1 13 2 12 3 6 4 5 5 4 6 7 7 8 8 9 9 10 10 11 11 2 12 1 13
REMARK H PARENT
REMARK Flexibility Score: inf
ROOT
ATOM      1  C   UNL     1       9.467 -16.215   7.498  1.00  0.00     0.122 A 
ATOM      2  C   UNL     1      10.363 -15.126   7.511  1.00  0.00     0.094 A 
ATOM      3  C   UNL     1      11.744 -15.350   7.506  1.00  0.00     0.142 A 
ATOM      4  C   UNL     1      12.241 -16.671   7.488  1.00  0.00     0.018 A 
ATOM      5  C   UNL     1      11.351 -17.752   7.476  1.00  0.00     0.016 A 
ATOM      6  C   UNL     1       9.973 -17.521   7.481  1.00  0.00     0.047 A 
ATOM      7  C   UNL     1      13.627 -16.862   7.483  1.00  0.00     0.019 A 
ATOM      8  C   UNL     1      14.471 -15.752   7.497  1.00  0.00     0.094 A 
ATOM      9  C   UNL     1      13.906 -14.471   7.514  1.00  0.00     0.336 A 
ATOM     10  O   UNL     1      14.651 -13.457   7.527  1.00  0.00    -0.246 OA
ATOM     11  O   UNL     1      12.584 -14.318   7.518  1.00  0.00    -0.423 OA
ENDROOT
BRANCH   1  12
ATOM     12  O   UNL     1       8.074 -16.041   7.503  1.00  0.00    -0.497 OA
ATOM     13  C   UNL     1       7.242 -16.241   8.642  1.00  0.00     0.278 C 
ENDBRANCH   1  12
TORSDOF 1
ENDMDL
MODEL 2
REMARK VINA RESULT:    -5.053      1.252      4.809
REMARK INTER + INTRA:          -5.382
REMARK INTER:                  -5.348
REMARK INTRA:                  -0.034
REMARK UNBOUND:                -0.034
REMARK SMILES COc1ccc2ccc(=O)oc2c1
REMARK SMILES IDX 3 1 13 2 12 3 6 4 5 5 4 6 7 7 8 8 9 9 10 10 11 11 2 12 1 13
REMARK H PARENT
REMARK Flexibility Score: inf
ROOT
ATOM      1  C   UNL     1      13.016 -15.965   7.609  1.00  0.00     0.122 A 
ATOM      2  C   UNL     1      11.811 -15.461   8.141  1.00  0.00     0.094 A 
ATOM      3  C   UNL     1      10.615 -16.167   7.968  1.00  0.00     0.142 A 
ATOM      4  C   UNL     1      10.616 -17.388   7.259  1.00  0.00     0.018 A 
ATOM      5  C   UNL     1      11.812 -17.887   6.730  1.00  0.00     0.016 A 
ATOM      6  C   UNL     1      13.003 -17.177   6.907  1.00  0.00     0.047 A 
ATOM      7  C   UNL     1       9.404 -18.069   7.104  1.00  0.00     0.019 A 
ATOM      8  C   UNL     1       8.240 -17.529   7.649  1.00  0.00     0.094 A 
ATOM      9  C   UNL     1       8.316 -16.314   8.340  1.00  0.00     0.336 A 
ATOM     10  O   UNL     1       7.276 -15.810   8.839  1.00  0.00    -0.246 OA
ATOM     11  O   UNL     1       9.481 -15.686   8.473  1.00  0.00    -0.423 OA
ENDROOT
BRANCH   1  12
ATOM     12  O   UNL     1      14.239 -15.294   7.755  1.00  0.00    -0.497 OA
ATOM     13  C   UNL     1      14.524 -14.011   7.207  1.00  0.00     0.278 C 
ENDBRANCH   1  12
TORSDOF 1
ENDMDL
MODEL 3
REMARK VINA RESULT:    -4.619      1.858      2.449
REMARK INTER + INTRA:          -4.923
REMARK INTER:                  -4.887
REMARK INTRA:                  -0.036
REMARK UNBOUND:                -0.034
REMARK SMILES COc1ccc2ccc(=O)oc2c1
REMARK SMILES IDX 3 1 13 2 12 3 6 4 5 5 4 6 7 7 8 8 9 9 10 10 11 11 2 12 1 13
REMARK H PARENT
REMARK Flexibility Score: inf
ROOT
ATOM      1  C   UNL     1       9.091 -17.187   7.702  1.00  0.00     0.122 A 
ATOM      2  C   UNL     1      10.280 -17.927   7.541  1.00  0.00     0.094 A 
ATOM      3  C   UNL     1      11.516 -17.272   7.492  1.00  0.00     0.142 A 
ATOM      4  C   UNL     1      11.571 -15.866   7.604  1.00  0.00     0.018 A 
ATOM      5  C   UNL     1      10.389 -15.131   7.763  1.00  0.00     0.016 A 
ATOM      6  C   UNL     1       9.159 -15.792   7.812  1.00  0.00     0.047 A 
ATOM      7  C   UNL     1      12.821 -15.241   7.551  1.00  0.00     0.019 A 
ATOM      8  C   UNL     1      13.968 -16.017   7.389  1.00  0.00     0.094 A 
ATOM      9  C   UNL     1      13.837 -17.407   7.286  1.00  0.00     0.336 A 
ATOM     10  O   UNL     1      14.860 -18.125   7.140  1.00  0.00    -0.246 OA
ATOM     11  O   UNL     1      12.635 -17.976   7.340  1.00  0.00    -0.423 OA
ENDROOT
BRANCH   1  12
ATOM     12  O   UNL     1       7.828 -17.798   7.757  1.00  0.00    -0.497 OA
ATOM     13  C   UNL     1       6.791 -17.424   8.659  1.00  0.00     0.278 C 
ENDBRANCH   1  12
TORSDOF 1
ENDMDL
MODEL 4
REMARK VINA RESULT:    -4.311      1.108      4.789
REMARK INTER + INTRA:          -4.597
REMARK INTER:                  -4.558
REMARK INTRA:                  -0.038
REMARK UNBOUND:                -0.034
REMARK SMILES COc1ccc2ccc(=O)oc2c1
REMARK SMILES IDX 3 1 13 2 12 3 6 4 5 5 4 6 7 7 8 8 9 9 10 10 11 11 2 12 1 13
REMARK H PARENT
REMARK Flexibility Score: inf
ROOT
ATOM      1  C   UNL     1      13.074 -14.761   7.630  1.00  0.00     0.122 A 
ATOM      2  C   UNL     1      11.690 -14.766   7.897  1.00  0.00     0.094 A 
ATOM      3  C   UNL     1      10.915 -15.888   7.582  1.00  0.00     0.142 A 
ATOM      4  C   UNL     1      11.523 -17.019   6.995  1.00  0.00     0.018 A 
ATOM      5  C   UNL     1      12.898 -17.014   6.730  1.00  0.00     0.016 A 
ATOM      6  C   UNL     1      13.665 -15.890   7.047  1.00  0.00     0.047 A 
ATOM      7  C   UNL     1      10.722 -18.125   6.692  1.00  0.00     0.019 A 
ATOM      8  C   UNL     1       9.357 -18.080   6.976  1.00  0.00     0.094 A 
ATOM      9  C   UNL     1       8.824 -16.924   7.558  1.00  0.00     0.336 A 
ATOM     10  O   UNL     1       7.595 -16.865   7.822  1.00  0.00    -0.246 OA
ATOM     11  O   UNL     1       9.609 -15.886   7.837  1.00  0.00    -0.423 OA
ENDROOT
BRANCH   1  12
ATOM     12  O   UNL     1      13.892 -13.660   7.927  1.00  0.00    -0.497 OA
ATOM     13  C   UNL     1      15.125 -13.374   7.275  1.00  0.00     0.278 C 
ENDBRANCH   1  12
TORSDOF 1
ENDMDL
MODEL 5
REMARK VINA RESULT:    -4.190      2.080      5.584
REMARK INTER + INTRA:          -4.469
REMARK INTER:                  -4.430
REMARK INTRA:                  -0.038
REMARK UNBOUND:                -0.034
REMARK SMILES COc1ccc2ccc(=O)oc2c1
REMARK SMILES IDX 3 1 13 2 12 3 6 4 5 5 4 6 7 7 8 8 9 9 10 10 11 11 2 12 1 13
REMARK H PARENT
REMARK Flexibility Score: inf
ROOT
ATOM      1  C   UNL     1      11.723 -17.347   7.357  1.00  0.00     0.122 A 
ATOM      2  C   UNL     1      10.480 -17.970   7.120  1.00  0.00     0.094 A 
ATOM      3  C   UNL     1       9.303 -17.411   7.631  1.00  0.00     0.142 A 
ATOM      4  C   UNL     1       9.361 -16.220   8.385  1.00  0.00     0.018 A 
ATOM      5  C   UNL     1      10.595 -15.601   8.621  1.00  0.00     0.016 A 
ATOM      6  C   UNL     1      11.766 -16.165   8.108  1.00  0.00     0.047 A 
ATOM      7  C   UNL     1       8.167 -15.687   8.881  1.00  0.00     0.019 A 
ATOM      8  C   UNL     1       6.963 -16.342   8.620  1.00  0.00     0.094 A 
ATOM      9  C   UNL     1       6.984 -17.519   7.864  1.00  0.00     0.336 A 
ATOM     10  O   UNL     1       5.908 -18.125   7.616  1.00  0.00    -0.246 OA
ATOM     11  O   UNL     1       8.134 -18.005   7.403  1.00  0.00    -0.423 OA
ENDROOT
BRANCH   1  12
ATOM     12  O   UNL     1      12.930 -17.868   6.867  1.00  0.00    -0.497 OA
ATOM     13  C   UNL     1      14.104 -17.097   6.633  1.00  0.00     0.278 C 
ENDBRANCH   1  12
TORSDOF 1
ENDMDL
MODEL 6
REMARK VINA RESULT:    -4.048      2.321      3.429
REMARK INTER + INTRA:          -4.318
REMARK INTER:                  -4.278
REMARK INTRA:                  -0.040
REMARK UNBOUND:                -0.034
REMARK SMILES COc1ccc2ccc(=O)oc2c1
REMARK SMILES IDX 3 1 13 2 12 3 6 4 5 5 4 6 7 7 8 8 9 9 10 10 11 11 2 12 1 13
REMARK H PARENT
REMARK Flexibility Score: inf
ROOT
ATOM      1  C   UNL     1       7.202 -17.489   8.227  1.00  0.00     0.122 A 
ATOM      2  C   UNL     1       8.327 -18.122   7.660  1.00  0.00     0.094 A 
ATOM      3  C   UNL     1       9.550 -17.447   7.582  1.00  0.00     0.142 A 
ATOM      4  C   UNL     1       9.657 -16.127   8.071  1.00  0.00     0.018 A 
ATOM      5  C   UNL     1       8.539 -15.498   8.633  1.00  0.00     0.016 A 
ATOM      6  C   UNL     1       7.321 -16.179   8.709  1.00  0.00     0.047 A 
ATOM      7  C   UNL     1      10.892 -15.479   7.978  1.00  0.00     0.019 A 
ATOM      8  C   UNL     1      11.976 -16.148   7.408  1.00  0.00     0.094 A 
ATOM      9  C   UNL     1      11.795 -17.456   6.945  1.00  0.00     0.336 A 
ATOM     10  O   UNL     1      12.761 -18.077   6.428  1.00  0.00    -0.246 OA
ATOM     11  O   UNL     1      10.608 -18.050   7.046  1.00  0.00    -0.423 OA
ENDROOT
BRANCH   1  12
ATOM     12  O   UNL     1       5.955 -18.125   8.328  1.00  0.00    -0.497 OA
ATOM     13  C   UNL     1       4.829 -17.584   9.012  1.00  0.00     0.278 C 
ENDBRANCH   1  12
TORSDOF 1
ENDMDL
MODEL 7
REMARK VINA RESULT:    -4.038      1.725      5.308
REMARK INTER + INTRA:          -4.308
REMARK INTER:                  -4.277
REMARK INTRA:                  -0.031
REMARK UNBOUND:                -0.034
REMARK SMILES COc1ccc2ccc(=O)oc2c1
REMARK SMILES IDX 3 1 13 2 12 3 6 4 5 5 4 6 7 7 8 8 9 9 10 10 11 11 2 12 1 13
REMARK H PARENT
REMARK Flexibility Score: inf
ROOT
ATOM      1  C   UNL     1      12.260 -15.510   8.626  1.00  0.00     0.122 A 
ATOM      2  C   UNL     1      11.262 -16.373   9.123  1.00  0.00     0.094 A 
ATOM      3  C   UNL     1      10.006 -16.426   8.508  1.00  0.00     0.142 A 
ATOM      4  C   UNL     1       9.738 -15.612   7.387  1.00  0.00     0.018 A 
ATOM      5  C   UNL     1      10.729 -14.754   6.893  1.00  0.00     0.016 A 
ATOM      6  C   UNL     1      11.981 -14.708   7.512  1.00  0.00     0.047 A 
ATOM      7  C   UNL     1       8.473 -15.688   6.795  1.00  0.00     0.019 A 
ATOM      8  C   UNL     1       7.520 -16.557   7.325  1.00  0.00     0.094 A 
ATOM      9  C   UNL     1       7.857 -17.334   8.439  1.00  0.00     0.336 A 
ATOM     10  O   UNL     1       7.011 -18.125   8.932  1.00  0.00    -0.246 OA
ATOM     11  O   UNL     1       9.068 -17.243   8.983  1.00  0.00    -0.423 OA
ENDROOT
BRANCH   1  12
ATOM     12  O   UNL     1      13.534 -15.422   9.208  1.00  0.00    -0.497 OA
ATOM     13  C   UNL     1      14.728 -15.917   8.611  1.00  0.00     0.278 C 
ENDBRANCH   1  12
TORSDOF 1
ENDMDL
MODEL 8
REMARK VINA RESULT:    -3.363      1.853      2.836
REMARK INTER + INTRA:          -3.594
REMARK INTER:                  -3.557
REMARK INTRA:                  -0.036
REMARK UNBOUND:                -0.034
REMARK SMILES COc1ccc2ccc(=O)oc2c1
REMARK SMILES IDX 3 1 13 2 12 3 6 4 5 5 4 6 7 7 8 8 9 9 10 10 11 11 2 12 1 13
REMARK H PARENT
REMARK Flexibility Score: inf
ROOT
ATOM      1  C   UNL     1       7.037 -17.180   8.224  1.00  0.00     0.122 A 
ATOM      2  C   UNL     1       7.694 -16.059   7.675  1.00  0.00     0.094 A 
ATOM      3  C   UNL     1       9.073 -15.895   7.849  1.00  0.00     0.142 A 
ATOM      4  C   UNL     1       9.808 -16.855   8.577  1.00  0.00     0.018 A 
ATOM      5  C   UNL     1       9.155 -17.968   9.123  1.00  0.00     0.016 A 
ATOM      6  C   UNL     1       7.778 -18.125   8.944  1.00  0.00     0.047 A 
ATOM      7  C   UNL     1      11.184 -16.663   8.734  1.00  0.00     0.019 A 
ATOM      8  C   UNL     1      11.787 -15.538   8.172  1.00  0.00     0.094 A 
ATOM      9  C   UNL     1      10.994 -14.628   7.462  1.00  0.00     0.336 A 
ATOM     10  O   UNL     1      11.520 -13.607   6.947  1.00  0.00    -0.246 OA
ATOM     11  O   UNL     1       9.686 -14.835   7.328  1.00  0.00    -0.423 OA
ENDROOT
BRANCH   1  12
ATOM     12  O   UNL     1       5.657 -17.387   8.076  1.00  0.00    -0.497 OA
ATOM     13  C   UNL     1       4.811 -17.919   9.090  1.00  0.00     0.278 C 
ENDBRANCH   1  12
TORSDOF 1
ENDMDL
