MODEL 1
REMARK VINA RESULT:    -2.244      0.000      0.000
REMARK INTER + INTRA:          -7.347
REMARK INTER:                  -5.917
REMARK INTRA:                  -1.430
REMARK UNBOUND:                -1.430
REMARK SMILES CCCCCCCCCCCCCCCCCCCCCCCCCCCCCC(=O)[O-]
REMARK SMILES IDX 16 1 17 2 18 3 19 4 20 5 21 6 22 7 23 8 24 9 25 10 26 11
REMARK SMILES IDX 27 12 28 13 29 14 30 15 31 16 32 17 15 18 14 19 13 20 12 21
REMARK SMILES IDX 11 22 10 23 9 24 8 25 7 26 6 27 5 28 4 29 3 30 2 31 1 32
REMARK H PARENT
REMARK Flexibility Score: inf
ROOT
ATOM      1  C   UNL     1     107.722 106.498 112.958  1.00  0.00     0.000 C 
ENDROOT
BRANCH   1   2
ATOM      2  C   UNL     1     107.954 107.090 111.558  1.00  0.00     0.000 C 
BRANCH   2   3
ATOM      3  C   UNL     1     109.085 106.394 110.769  1.00  0.00     0.000 C 
BRANCH   3   4
ATOM      4  C   UNL     1     108.859 104.877 110.637  1.00  0.00     0.000 C 
BRANCH   4   5
ATOM      5  C   UNL     1     109.981 104.061 111.314  1.00  0.00     0.000 C 
BRANCH   5   6
ATOM      6  C   UNL     1     110.374 102.800 110.531  1.00  0.00     0.000 C 
BRANCH   6   7
ATOM      7  C   UNL     1     111.182 101.802 111.372  1.00  0.00     0.000 C 
BRANCH   7   8
ATOM      8  C   UNL     1     112.262 102.524 112.183  1.00  0.00     0.000 C 
BRANCH   8   9
ATOM      9  C   UNL     1     113.671 102.043 111.794  1.00  0.00     0.000 C 
BRANCH   9  10
ATOM     10  C   UNL     1     114.482 103.135 111.078  1.00  0.00     0.000 C 
BRANCH  10  11
ATOM     11  C   UNL     1     114.426 104.489 111.802  1.00  0.00     0.000 C 
BRANCH  11  12
ATOM     12  C   UNL     1     114.907 104.408 113.261  1.00  0.00     0.000 C 
BRANCH  12  13
ATOM     13  C   UNL     1     116.224 105.151 113.552  1.00  0.00     0.006 C 
BRANCH  13  14
ATOM     14  C   UNL     1     117.381 104.691 112.656  1.00  0.00     0.053 C 
BRANCH  14  15
ATOM     15  C   UNL     1     118.690 104.807 113.373  1.00  0.00     0.041 C 
ATOM     16  O   UNL     1     119.053 103.914 114.183  1.00  0.00    -0.550 OA
ATOM     17  O   UNL     1     119.497 105.919 113.167  1.00  0.00    -0.550 OA
ENDBRANCH  14  15
ENDBRANCH  13  14
ENDBRANCH  12  13
ENDBRANCH  11  12
ENDBRANCH  10  11
ENDBRANCH   9  10
ENDBRANCH   8   9
ENDBRANCH   7   8
ENDBRANCH   6   7
ENDBRANCH   5   6
ENDBRANCH   4   5
ENDBRANCH   3   4
ENDBRANCH   2   3
ENDBRANCH   1   2
BRANCH   1  18
ATOM     18  C   UNL     1     106.302 105.939 113.144  1.00  0.00     0.000 C 
BRANCH  18  19
ATOM     19  C   UNL     1     105.370 107.002 113.746  1.00  0.00     0.000 C 
BRANCH  19  20
ATOM     20  C   UNL     1     104.019 106.421 114.193  1.00  0.00     0.000 C 
BRANCH  20  21
ATOM     21  C   UNL     1     103.148 105.859 113.053  1.00  0.00     0.000 C 
BRANCH  21  22
ATOM     22  C   UNL     1     102.308 106.929 112.326  1.00  0.00     0.000 C 
BRANCH  22  23
ATOM     23  C   UNL     1     100.913 106.414 111.928  1.00  0.00     0.000 C 
BRANCH  23  24
ATOM     24  C   UNL     1     100.623 106.616 110.424  1.00  0.00    -0.000 C 
BRANCH  24  25
ATOM     25  C   UNL     1     101.009 108.012 109.906  1.00  0.00    -0.000 C 
BRANCH  25  26
ATOM     26  C   UNL     1     101.568 107.984 108.476  1.00  0.00    -0.000 C 
BRANCH  26  27
ATOM     27  C   UNL     1     101.619 109.390 107.844  1.00  0.00    -0.000 C 
BRANCH  27  28
ATOM     28  C   UNL     1     102.843 109.608 106.925  1.00  0.00    -0.000 C 
BRANCH  28  29
ATOM     29  C   UNL     1     102.459 110.075 105.504  1.00  0.00    -0.000 C 
BRANCH  29  30
ATOM     30  C   UNL     1     103.292 109.380 104.412  1.00  0.00    -0.000 C 
BRANCH  30  31
ATOM     31  C   UNL     1     102.681 109.545 103.008  1.00  0.00    -0.003 C 
ATOM     32  C   UNL     1     101.497 110.517 103.000  1.00  0.00     0.004 C 
ENDBRANCH  30  31
ENDBRANCH  29  30
ENDBRANCH  28  29
ENDBRANCH  27  28
ENDBRANCH  26  27
ENDBRANCH  25  26
ENDBRANCH  24  25
ENDBRANCH  23  24
ENDBRANCH  22  23
ENDBRANCH  21  22
ENDBRANCH  20  21
ENDBRANCH  19  20
ENDBRANCH  18  19
ENDBRANCH   1  18
TORSDOF 28
ENDMDL
MODEL 2
REMARK VINA RESULT:    -1.823      0.780      1.816
REMARK INTER + INTRA:          -6.236
REMARK INTER:                  -4.498
REMARK INTRA:                  -1.738
REMARK UNBOUND:                -1.430
REMARK SMILES CCCCCCCCCCCCCCCCCCCCCCCCCCCCCC(=O)[O-]
REMARK SMILES IDX 16 1 17 2 18 3 19 4 20 5 21 6 22 7 23 8 24 9 25 10 26 11
REMARK SMILES IDX 27 12 28 13 29 14 30 15 31 16 32 17 15 18 14 19 13 20 12 21
REMARK SMILES IDX 11 22 10 23 9 24 8 25 7 26 6 27 5 28 4 29 3 30 2 31 1 32
REMARK H PARENT
REMARK Flexibility Score: inf
ROOT
ATOM      1  C   UNL     1     108.520 107.098 111.031  1.00  0.00     0.000 C 
ENDROOT
BRANCH   1   2
ATOM      2  C   UNL     1     108.652 105.716 111.692  1.00  0.00     0.000 C 
BRANCH   2   3
ATOM      3  C   UNL     1     109.040 104.592 110.706  1.00  0.00     0.000 C 
BRANCH   3   4
ATOM      4  C   UNL     1     110.313 103.845 111.141  1.00  0.00     0.000 C 
BRANCH   4   5
ATOM      5  C   UNL     1     110.318 102.377 110.661  1.00  0.00     0.000 C 
BRANCH   5   6
ATOM      6  C   UNL     1     111.554 101.591 111.121  1.00  0.00     0.000 C 
BRANCH   6   7
ATOM      7  C   UNL     1     112.219 102.197 112.364  1.00  0.00     0.000 C 
BRANCH   7   8
ATOM      8  C   UNL     1     113.744 102.102 112.267  1.00  0.00     0.000 C 
BRANCH   8   9
ATOM      9  C   UNL     1     114.311 103.149 111.292  1.00  0.00     0.000 C 
BRANCH   9  10
ATOM     10  C   UNL     1     114.481 104.527 111.953  1.00  0.00     0.000 C 
BRANCH  10  11
ATOM     11  C   UNL     1     114.952 104.434 113.412  1.00  0.00     0.000 C 
BRANCH  11  12
ATOM     12  C   UNL     1     115.836 105.622 113.832  1.00  0.00     0.000 C 
BRANCH  12  13
ATOM     13  C   UNL     1     117.163 105.747 113.061  1.00  0.00     0.006 C 
BRANCH  13  14
ATOM     14  C   UNL     1     118.024 104.480 113.141  1.00  0.00     0.053 C 
BRANCH  14  15
ATOM     15  C   UNL     1     119.054 104.601 114.220  1.00  0.00     0.041 C 
ATOM     16  O   UNL     1     119.965 105.466 114.135  1.00  0.00    -0.550 OA
ATOM     17  O   UNL     1     119.024 103.738 115.308  1.00  0.00    -0.550 OA
ENDBRANCH  14  15
ENDBRANCH  13  14
ENDBRANCH  12  13
ENDBRANCH  11  12
ENDBRANCH  10  11
ENDBRANCH   9  10
ENDBRANCH   8   9
ENDBRANCH   7   8
ENDBRANCH   6   7
ENDBRANCH   5   6
ENDBRANCH   4   5
ENDBRANCH   3   4
ENDBRANCH   2   3
ENDBRANCH   1   2
BRANCH   1  18
ATOM     18  C   UNL     1     107.342 107.916 111.583  1.00  0.00     0.000 C 
BRANCH  18  19
ATOM     19  C   UNL     1     106.779 107.274 112.860  1.00  0.00     0.000 C 
BRANCH  19  20
ATOM     20  C   UNL     1     105.242 107.296 112.907  1.00  0.00     0.000 C 
BRANCH  20  21
ATOM     21  C   UNL     1     104.620 106.501 114.071  1.00  0.00     0.000 C 
BRANCH  21  22
ATOM     22  C   UNL     1     103.161 106.068 113.819  1.00  0.00     0.000 C 
BRANCH  22  23
ATOM     23  C   UNL     1     102.653 106.492 112.428  1.00  0.00     0.000 C 
BRANCH  23  24
ATOM     24  C   UNL     1     101.114 106.408 112.318  1.00  0.00    -0.000 C 
BRANCH  24  25
ATOM     25  C   UNL     1     100.576 106.774 110.925  1.00  0.00    -0.000 C 
BRANCH  25  26
ATOM     26  C   UNL     1     101.363 107.914 110.261  1.00  0.00    -0.000 C 
BRANCH  26  27
ATOM     27  C   UNL     1     101.228 107.896 108.725  1.00  0.00    -0.000 C 
BRANCH  27  28
ATOM     28  C   UNL     1     101.765 109.177 108.045  1.00  0.00    -0.000 C 
BRANCH  28  29
ATOM     29  C   UNL     1     102.864 108.893 106.997  1.00  0.00    -0.000 C 
BRANCH  29  30
ATOM     30  C   UNL     1     102.801 109.863 105.803  1.00  0.00    -0.000 C 
BRANCH  30  31
ATOM     31  C   UNL     1     103.739 109.447 104.655  1.00  0.00    -0.003 C 
ATOM     32  C   UNL     1     102.978 109.158 103.358  1.00  0.00     0.004 C 
ENDBRANCH  30  31
ENDBRANCH  29  30
ENDBRANCH  28  29
ENDBRANCH  27  28
ENDBRANCH  26  27
ENDBRANCH  25  26
ENDBRANCH  24  25
ENDBRANCH  23  24
ENDBRANCH  22  23
ENDBRANCH  21  22
ENDBRANCH  20  21
ENDBRANCH  19  20
ENDBRANCH  18  19
ENDBRANCH   1  18
TORSDOF 28
ENDMDL
MODEL 3
REMARK VINA RESULT:    -1.602      4.782     13.427
REMARK INTER + INTRA:          -5.655
REMARK INTER:                  -4.057
REMARK INTRA:                  -1.598
REMARK UNBOUND:                -1.430
REMARK SMILES CCCCCCCCCCCCCCCCCCCCCCCCCCCCCC(=O)[O-]
REMARK SMILES IDX 16 1 17 2 18 3 19 4 20 5 21 6 22 7 23 8 24 9 25 10 26 11
REMARK SMILES IDX 27 12 28 13 29 14 30 15 31 16 32 17 15 18 14 19 13 20 12 21
REMARK SMILES IDX 11 22 10 23 9 24 8 25 7 26 6 27 5 28 4 29 3 30 2 31 1 32
REMARK H PARENT
REMARK Flexibility Score: inf
ROOT
ATOM      1  C   UNL     1     107.258 106.348 112.857  1.00  0.00     0.000 C 
ENDROOT
BRANCH   1   2
ATOM      2  C   UNL     1     106.034 107.225 113.170  1.00  0.00     0.000 C 
BRANCH   2   3
ATOM      3  C   UNL     1     105.031 106.565 114.141  1.00  0.00     0.000 C 
BRANCH   3   4
ATOM      4  C   UNL     1     103.941 105.766 113.404  1.00  0.00     0.000 C 
BRANCH   4   5
ATOM      5  C   UNL     1     102.863 106.684 112.789  1.00  0.00     0.000 C 
BRANCH   5   6
ATOM      6  C   UNL     1     101.554 105.950 112.460  1.00  0.00     0.000 C 
BRANCH   6   7
ATOM      7  C   UNL     1     100.483 106.877 111.868  1.00  0.00     0.000 C 
BRANCH   7   8
ATOM      8  C   UNL     1      99.876 106.266 110.602  1.00  0.00     0.000 C 
BRANCH   8   9
ATOM      9  C   UNL     1     100.676 106.662 109.349  1.00  0.00     0.000 C 
BRANCH   9  10
ATOM     10  C   UNL     1     101.214 108.099 109.431  1.00  0.00     0.000 C 
BRANCH  10  11
ATOM     11  C   UNL     1     101.981 108.522 108.168  1.00  0.00     0.000 C 
BRANCH  11  12
ATOM     12  C   UNL     1     101.491 109.862 107.591  1.00  0.00     0.000 C 
BRANCH  12  13
ATOM     13  C   UNL     1     101.910 110.132 106.135  1.00  0.00     0.006 C 
BRANCH  13  14
ATOM     14  C   UNL     1     103.269 109.516 105.778  1.00  0.00     0.053 C 
BRANCH  14  15
ATOM     15  C   UNL     1     103.489 109.529 104.298  1.00  0.00     0.041 C 
ATOM     16  O   UNL     1     102.561 109.874 103.520  1.00  0.00    -0.550 OA
ATOM     17  O   UNL     1     104.713 109.130 103.775  1.00  0.00    -0.550 OA
ENDBRANCH  14  15
ENDBRANCH  13  14
ENDBRANCH  12  13
ENDBRANCH  11  12
ENDBRANCH  10  11
ENDBRANCH   9  10
ENDBRANCH   8   9
ENDBRANCH   7   8
ENDBRANCH   6   7
ENDBRANCH   5   6
ENDBRANCH   4   5
ENDBRANCH   3   4
ENDBRANCH   2   3
ENDBRANCH   1   2
BRANCH   1  18
ATOM     18  C   UNL     1     108.011 106.797 111.595  1.00  0.00     0.000 C 
BRANCH  18  19
ATOM     19  C   UNL     1     109.151 105.823 111.261  1.00  0.00     0.000 C 
BRANCH  19  20
ATOM     20  C   UNL     1     108.688 104.645 110.389  1.00  0.00     0.000 C 
BRANCH  20  21
ATOM     21  C   UNL     1     109.710 103.500 110.254  1.00  0.00     0.000 C 
BRANCH  21  22
ATOM     22  C   UNL     1     110.457 103.174 111.563  1.00  0.00     0.000 C 
BRANCH  22  23
ATOM     23  C   UNL     1     111.550 102.108 111.368  1.00  0.00     0.000 C 
BRANCH  23  24
ATOM     24  C   UNL     1     112.839 102.444 112.152  1.00  0.00    -0.000 C 
BRANCH  24  25
ATOM     25  C   UNL     1     114.033 102.799 111.250  1.00  0.00    -0.000 C 
BRANCH  25  26
ATOM     26  C   UNL     1     114.541 104.231 111.469  1.00  0.00    -0.000 C 
BRANCH  26  27
ATOM     27  C   UNL     1     114.532 104.630 112.958  1.00  0.00    -0.000 C 
BRANCH  27  28
ATOM     28  C   UNL     1     115.926 105.030 113.497  1.00  0.00    -0.000 C 
BRANCH  28  29
ATOM     29  C   UNL     1     117.088 104.405 112.694  1.00  0.00    -0.000 C 
BRANCH  29  30
ATOM     30  C   UNL     1     118.395 104.344 113.505  1.00  0.00    -0.000 C 
BRANCH  30  31
ATOM     31  C   UNL     1     119.233 105.629 113.373  1.00  0.00    -0.003 C 
ATOM     32  C   UNL     1     119.073 106.289 112.000  1.00  0.00     0.004 C 
ENDBRANCH  30  31
ENDBRANCH  29  30
ENDBRANCH  28  29
ENDBRANCH  27  28
ENDBRANCH  26  27
ENDBRANCH  25  26
ENDBRANCH  24  25
ENDBRANCH  23  24
ENDBRANCH  22  23
ENDBRANCH  21  22
ENDBRANCH  20  21
ENDBRANCH  19  20
ENDBRANCH  18  19
ENDBRANCH   1  18
TORSDOF 28
ENDMDL
MODEL 4
REMARK VINA RESULT:    -1.570      4.471     13.203
REMARK INTER + INTRA:          -5.570
REMARK INTER:                  -3.601
REMARK INTRA:                  -1.969
REMARK UNBOUND:                -1.430
REMARK SMILES CCCCCCCCCCCCCCCCCCCCCCCCCCCCCC(=O)[O-]
REMARK SMILES IDX 16 1 17 2 18 3 19 4 20 5 21 6 22 7 23 8 24 9 25 10 26 11
REMARK SMILES IDX 27 12 28 13 29 14 30 15 31 16 32 17 15 18 14 19 13 20 12 21
REMARK SMILES IDX 11 22 10 23 9 24 8 25 7 26 6 27 5 28 4 29 3 30 2 31 1 32
REMARK H PARENT
REMARK Flexibility Score: inf
ROOT
ATOM      1  C   UNL     1     108.519 107.347 110.896  1.00  0.00     0.000 C 
ENDROOT
BRANCH   1   2
ATOM      2  C   UNL     1     107.251 107.389 111.765  1.00  0.00     0.000 C 
BRANCH   2   3
ATOM      3  C   UNL     1     107.333 106.500 113.025  1.00  0.00     0.000 C 
BRANCH   3   4
ATOM      4  C   UNL     1     105.990 105.821 113.352  1.00  0.00     0.000 C 
BRANCH   4   5
ATOM      5  C   UNL     1     104.929 106.835 113.833  1.00  0.00     0.000 C 
BRANCH   5   6
ATOM      6  C   UNL     1     103.499 106.274 113.812  1.00  0.00     0.000 C 
BRANCH   6   7
ATOM      7  C   UNL     1     102.734 106.639 112.533  1.00  0.00     0.000 C 
BRANCH   7   8
ATOM      8  C   UNL     1     101.288 106.140 112.602  1.00  0.00     0.000 C 
BRANCH   8   9
ATOM      9  C   UNL     1     100.386 106.891 111.607  1.00  0.00     0.000 C 
BRANCH   9  10
ATOM     10  C   UNL     1     100.031 106.035 110.382  1.00  0.00     0.000 C 
BRANCH  10  11
ATOM     11  C   UNL     1     100.542 106.638 109.065  1.00  0.00     0.000 C 
BRANCH  11  12
ATOM     12  C   UNL     1     101.283 107.972 109.266  1.00  0.00     0.000 C 
BRANCH  12  13
ATOM     13  C   UNL     1     101.820 108.616 107.975  1.00  0.00     0.006 C 
BRANCH  13  14
ATOM     14  C   UNL     1     103.341 108.489 107.830  1.00  0.00     0.053 C 
BRANCH  14  15
ATOM     15  C   UNL     1     103.720 108.188 106.414  1.00  0.00     0.041 C 
ATOM     16  O   UNL     1     104.348 107.134 106.133  1.00  0.00    -0.550 OA
ATOM     17  O   UNL     1     103.402 109.089 105.405  1.00  0.00    -0.550 OA
ENDBRANCH  14  15
ENDBRANCH  13  14
ENDBRANCH  12  13
ENDBRANCH  11  12
ENDBRANCH  10  11
ENDBRANCH   9  10
ENDBRANCH   8   9
ENDBRANCH   7   8
ENDBRANCH   6   7
ENDBRANCH   5   6
ENDBRANCH   4   5
ENDBRANCH   3   4
ENDBRANCH   2   3
ENDBRANCH   1   2
BRANCH   1  18
ATOM     18  C   UNL     1     109.366 106.087 111.132  1.00  0.00     0.000 C 
BRANCH  18  19
ATOM     19  C   UNL     1     108.863 104.919 110.271  1.00  0.00     0.000 C 
BRANCH  19  20
ATOM     20  C   UNL     1     109.221 103.547 110.865  1.00  0.00     0.000 C 
BRANCH  20  21
ATOM     21  C   UNL     1     110.731 103.279 111.010  1.00  0.00     0.000 C 
BRANCH  21  22
ATOM     22  C   UNL     1     111.072 101.819 111.373  1.00  0.00     0.000 C 
BRANCH  22  23
ATOM     23  C   UNL     1     112.587 101.588 111.523  1.00  0.00     0.000 C 
BRANCH  23  24
ATOM     24  C   UNL     1     113.340 102.883 111.903  1.00  0.00    -0.000 C 
BRANCH  24  25
ATOM     25  C   UNL     1     114.411 103.295 110.880  1.00  0.00    -0.000 C 
BRANCH  25  26
ATOM     26  C   UNL     1     115.637 103.951 111.530  1.00  0.00    -0.000 C 
BRANCH  26  27
ATOM     27  C   UNL     1     115.266 104.748 112.798  1.00  0.00    -0.000 C 
BRANCH  27  28
ATOM     28  C   UNL     1     116.478 105.057 113.708  1.00  0.00    -0.000 C 
BRANCH  28  29
ATOM     29  C   UNL     1     117.770 104.337 113.261  1.00  0.00    -0.000 C 
BRANCH  29  30
ATOM     30  C   UNL     1     119.041 105.081 113.709  1.00  0.00    -0.000 C 
BRANCH  30  31
ATOM     31  C   UNL     1     119.288 106.367 112.898  1.00  0.00    -0.003 C 
ATOM     32  C   UNL     1     119.300 106.109 111.388  1.00  0.00     0.004 C 
ENDBRANCH  30  31
ENDBRANCH  29  30
ENDBRANCH  28  29
ENDBRANCH  27  28
ENDBRANCH  26  27
ENDBRANCH  25  26
ENDBRANCH  24  25
ENDBRANCH  23  24
ENDBRANCH  22  23
ENDBRANCH  21  22
ENDBRANCH  20  21
ENDBRANCH  19  20
ENDBRANCH  18  19
ENDBRANCH   1  18
TORSDOF 28
ENDMDL
MODEL 5
REMARK VINA RESULT:    -1.346      1.574      3.333
REMARK INTER + INTRA:          -4.980
REMARK INTER:                  -2.895
REMARK INTRA:                  -2.086
REMARK UNBOUND:                -1.430
REMARK SMILES CCCCCCCCCCCCCCCCCCCCCCCCCCCCCC(=O)[O-]
REMARK SMILES IDX 16 1 17 2 18 3 19 4 20 5 21 6 22 7 23 8 24 9 25 10 26 11
REMARK SMILES IDX 27 12 28 13 29 14 30 15 31 16 32 17 15 18 14 19 13 20 12 21
REMARK SMILES IDX 11 22 10 23 9 24 8 25 7 26 6 27 5 28 4 29 3 30 2 31 1 32
REMARK H PARENT
REMARK Flexibility Score: inf
ROOT
ATOM      1  C   UNL     1     108.735 104.984 110.365  1.00  0.00     0.000 C 
ENDROOT
BRANCH   1   2
ATOM      2  C   UNL     1     110.157 104.765 110.906  1.00  0.00     0.000 C 
BRANCH   2   3
ATOM      3  C   UNL     1     110.321 103.454 111.705  1.00  0.00     0.000 C 
BRANCH   3   4
ATOM      4  C   UNL     1     110.540 102.234 110.792  1.00  0.00     0.000 C 
BRANCH   4   5
ATOM      5  C   UNL     1     111.800 101.434 111.184  1.00  0.00     0.000 C 
BRANCH   5   6
ATOM      6  C   UNL     1     112.473 101.948 112.466  1.00  0.00     0.000 C 
BRANCH   6   7
ATOM      7  C   UNL     1     113.999 102.054 112.338  1.00  0.00     0.000 C 
BRANCH   7   8
ATOM      8  C   UNL     1     114.386 103.117 111.306  1.00  0.00     0.000 C 
BRANCH   8   9
ATOM      9  C   UNL     1     114.499 104.510 111.951  1.00  0.00     0.000 C 
BRANCH   9  10
ATOM     10  C   UNL     1     115.082 104.448 113.372  1.00  0.00     0.000 C 
BRANCH  10  11
ATOM     11  C   UNL     1     116.391 105.239 113.514  1.00  0.00     0.000 C 
BRANCH  11  12
ATOM     12  C   UNL     1     117.424 104.884 112.429  1.00  0.00     0.000 C 
BRANCH  12  13
ATOM     13  C   UNL     1     118.741 104.288 112.958  1.00  0.00     0.006 C 
BRANCH  13  14
ATOM     14  C   UNL     1     119.351 105.106 114.103  1.00  0.00     0.053 C 
BRANCH  14  15
ATOM     15  C   UNL     1     119.360 104.320 115.376  1.00  0.00     0.041 C 
ATOM     16  O   UNL     1     119.703 104.865 116.459  1.00  0.00    -0.550 OA
ATOM     17  O   UNL     1     119.017 102.973 115.362  1.00  0.00    -0.550 OA
ENDBRANCH  14  15
ENDBRANCH  13  14
ENDBRANCH  12  13
ENDBRANCH  11  12
ENDBRANCH  10  11
ENDBRANCH   9  10
ENDBRANCH   8   9
ENDBRANCH   7   8
ENDBRANCH   6   7
ENDBRANCH   5   6
ENDBRANCH   4   5
ENDBRANCH   3   4
ENDBRANCH   2   3
ENDBRANCH   1   2
BRANCH   1  18
ATOM     18  C   UNL     1     108.150 106.352 110.751  1.00  0.00     0.000 C 
BRANCH  18  19
ATOM     19  C   UNL     1     108.476 106.694 112.213  1.00  0.00     0.000 C 
BRANCH  19  20
ATOM     20  C   UNL     1     107.250 107.196 112.992  1.00  0.00     0.000 C 
BRANCH  20  21
ATOM     21  C   UNL     1     106.240 106.100 113.385  1.00  0.00     0.000 C 
BRANCH  21  22
ATOM     22  C   UNL     1     104.912 106.650 113.945  1.00  0.00     0.000 C 
BRANCH  22  23
ATOM     23  C   UNL     1     103.693 105.830 113.480  1.00  0.00     0.000 C 
BRANCH  23  24
ATOM     24  C   UNL     1     102.544 106.731 112.973  1.00  0.00    -0.000 C 
BRANCH  24  25
ATOM     25  C   UNL     1     101.419 105.954 112.270  1.00  0.00    -0.000 C 
BRANCH  25  26
ATOM     26  C   UNL     1     100.488 106.862 111.452  1.00  0.00    -0.000 C 
BRANCH  26  27
ATOM     27  C   UNL     1      99.975 106.168 110.174  1.00  0.00    -0.000 C 
BRANCH  27  28
ATOM     28  C   UNL     1     100.452 106.850 108.870  1.00  0.00    -0.000 C 
BRANCH  28  29
ATOM     29  C   UNL     1     101.443 108.007 109.119  1.00  0.00    -0.000 C 
BRANCH  29  30
ATOM     30  C   UNL     1     101.393 109.072 108.008  1.00  0.00    -0.000 C 
BRANCH  30  31
ATOM     31  C   UNL     1     102.766 109.306 107.351  1.00  0.00    -0.003 C 
ATOM     32  C   UNL     1     103.569 108.009 107.208  1.00  0.00     0.004 C 
ENDBRANCH  30  31
ENDBRANCH  29  30
ENDBRANCH  28  29
ENDBRANCH  27  28
ENDBRANCH  26  27
ENDBRANCH  25  26
ENDBRANCH  24  25
ENDBRANCH  23  24
ENDBRANCH  22  23
ENDBRANCH  21  22
ENDBRANCH  20  21
ENDBRANCH  19  20
ENDBRANCH  18  19
ENDBRANCH   1  18
TORSDOF 28
ENDMDL
MODEL 6
REMARK VINA RESULT:    -0.622      1.203      3.590
REMARK INTER + INTRA:          -3.069
REMARK INTER:                  -1.462
REMARK INTRA:                  -1.607
REMARK UNBOUND:                -1.430
REMARK SMILES CCCCCCCCCCCCCCCCCCCCCCCCCCCCCC(=O)[O-]
REMARK SMILES IDX 16 1 17 2 18 3 19 4 20 5 21 6 22 7 23 8 24 9 25 10 26 11
REMARK SMILES IDX 27 12 28 13 29 14 30 15 31 16 32 17 15 18 14 19 13 20 12 21
REMARK SMILES IDX 11 22 10 23 9 24 8 25 7 26 6 27 5 28 4 29 3 30 2 31 1 32
REMARK H PARENT
REMARK Flexibility Score: inf
ROOT
ATOM      1  C   UNL     1     103.502 106.137 113.610  1.00  0.00     0.000 C 
ENDROOT
BRANCH   1   2
ATOM      2  C   UNL     1     104.888 106.802 113.639  1.00  0.00     0.000 C 
BRANCH   2   3
ATOM      3  C   UNL     1     106.054 105.818 113.396  1.00  0.00     0.000 C 
BRANCH   3   4
ATOM      4  C   UNL     1     107.366 106.540 113.042  1.00  0.00     0.000 C 
BRANCH   4   5
ATOM      5  C   UNL     1     107.293 107.236 111.666  1.00  0.00     0.000 C 
BRANCH   5   6
ATOM      6  C   UNL     1     108.641 107.274 110.931  1.00  0.00     0.000 C 
BRANCH   6   7
ATOM      7  C   UNL     1     109.475 106.004 111.147  1.00  0.00     0.000 C 
BRANCH   7   8
ATOM      8  C   UNL     1     108.749 104.775 110.592  1.00  0.00     0.000 C 
BRANCH   8   9
ATOM      9  C   UNL     1     109.738 103.647 110.249  1.00  0.00     0.000 C 
BRANCH   9  10
ATOM     10  C   UNL     1     110.476 103.122 111.491  1.00  0.00     0.000 C 
BRANCH  10  11
ATOM     11  C   UNL     1     111.693 102.253 111.137  1.00  0.00     0.000 C 
BRANCH  11  12
ATOM     12  C   UNL     1     112.779 102.273 112.228  1.00  0.00     0.000 C 
BRANCH  12  13
ATOM     13  C   UNL     1     114.058 103.044 111.855  1.00  0.00     0.006 C 
BRANCH  13  14
ATOM     14  C   UNL     1     114.415 104.138 112.869  1.00  0.00     0.053 C 
BRANCH  14  15
ATOM     15  C   UNL     1     115.889 104.395 112.881  1.00  0.00     0.041 C 
ATOM     16  O   UNL     1     116.403 105.113 113.780  1.00  0.00    -0.550 OA
ATOM     17  O   UNL     1     116.694 103.863 111.881  1.00  0.00    -0.550 OA
ENDBRANCH  14  15
ENDBRANCH  13  14
ENDBRANCH  12  13
ENDBRANCH  11  12
ENDBRANCH  10  11
ENDBRANCH   9  10
ENDBRANCH   8   9
ENDBRANCH   7   8
ENDBRANCH   6   7
ENDBRANCH   5   6
ENDBRANCH   4   5
ENDBRANCH   3   4
ENDBRANCH   2   3
ENDBRANCH   1   2
BRANCH   1  18
ATOM     18  C   UNL     1     102.661 106.556 112.394  1.00  0.00     0.000 C 
BRANCH  18  19
ATOM     19  C   UNL     1     101.163 106.356 112.669  1.00  0.00     0.000 C 
BRANCH  19  20
ATOM     20  C   UNL     1     100.274 106.934 111.556  1.00  0.00     0.000 C 
BRANCH  20  21
ATOM     21  C   UNL     1     100.192 106.074 110.280  1.00  0.00     0.000 C 
BRANCH  21  22
ATOM     22  C   UNL     1     100.469 106.860 108.982  1.00  0.00     0.000 C 
BRANCH  22  23
ATOM     23  C   UNL     1     101.408 108.060 109.209  1.00  0.00     0.000 C 
BRANCH  23  24
ATOM     24  C   UNL     1     101.449 109.007 107.988  1.00  0.00    -0.000 C 
BRANCH  24  25
ATOM     25  C   UNL     1     102.869 109.258 107.453  1.00  0.00    -0.000 C 
BRANCH  25  26
ATOM     26  C   UNL     1     103.475 108.024 106.768  1.00  0.00    -0.000 C 
BRANCH  26  27
ATOM     27  C   UNL     1     104.017 108.348 105.361  1.00  0.00    -0.000 C 
BRANCH  27  28
ATOM     28  C   UNL     1     103.447 109.657 104.768  1.00  0.00    -0.000 C 
BRANCH  28  29
ATOM     29  C   UNL     1     103.379 109.644 103.224  1.00  0.00    -0.000 C 
BRANCH  29  30
ATOM     30  C   UNL     1     101.983 109.257 102.702  1.00  0.00    -0.000 C 
BRANCH  30  31
ATOM     31  C   UNL     1     100.944 110.373 102.914  1.00  0.00    -0.003 C 
ATOM     32  C   UNL     1     101.456 111.741 102.452  1.00  0.00     0.004 C 
ENDBRANCH  30  31
ENDBRANCH  29  30
ENDBRANCH  28  29
ENDBRANCH  27  28
ENDBRANCH  26  27
ENDBRANCH  25  26
ENDBRANCH  24  25
ENDBRANCH  23  24
ENDBRANCH  22  23
ENDBRANCH  21  22
ENDBRANCH  20  21
ENDBRANCH  19  20
ENDBRANCH  18  19
ENDBRANCH   1  18
TORSDOF 28
ENDMDL
MODEL 7
REMARK VINA RESULT:    -0.339      5.752     13.182
REMARK INTER + INTRA:          -2.323
REMARK INTER:                  -0.582
REMARK INTRA:                  -1.741
REMARK UNBOUND:                -1.430
REMARK SMILES CCCCCCCCCCCCCCCCCCCCCCCCCCCCCC(=O)[O-]
REMARK SMILES IDX 16 1 17 2 18 3 19 4 20 5 21 6 22 7 23 8 24 9 25 10 26 11
REMARK SMILES IDX 27 12 28 13 29 14 30 15 31 16 32 17 15 18 14 19 13 20 12 21
REMARK SMILES IDX 11 22 10 23 9 24 8 25 7 26 6 27 5 28 4 29 3 30 2 31 1 32
REMARK H PARENT
REMARK Flexibility Score: inf
ROOT
ATOM      1  C   UNL     1     102.206 105.995 112.225  1.00  0.00     0.000 C 
ENDROOT
BRANCH   1   2
ATOM      2  C   UNL     1     101.080 106.895 111.691  1.00  0.00     0.000 C 
BRANCH   2   3
ATOM      3  C   UNL     1     100.207 106.221 110.610  1.00  0.00     0.000 C 
BRANCH   3   4
ATOM      4  C   UNL     1     100.275 106.955 109.259  1.00  0.00     0.000 C 
BRANCH   4   5
ATOM      5  C   UNL     1     101.508 107.879 109.162  1.00  0.00     0.000 C 
BRANCH   5   6
ATOM      6  C   UNL     1     101.336 109.018 108.145  1.00  0.00     0.000 C 
BRANCH   6   7
ATOM      7  C   UNL     1     102.644 109.380 107.428  1.00  0.00     0.000 C 
BRANCH   7   8
ATOM      8  C   UNL     1     103.455 108.123 107.106  1.00  0.00     0.000 C 
BRANCH   8   9
ATOM      9  C   UNL     1     104.048 108.186 105.686  1.00  0.00     0.000 C 
BRANCH   9  10
ATOM     10  C   UNL     1     103.602 109.444 104.925  1.00  0.00     0.000 C 
BRANCH  10  11
ATOM     11  C   UNL     1     103.635 109.260 103.400  1.00  0.00     0.000 C 
BRANCH  11  12
ATOM     12  C   UNL     1     102.258 109.469 102.743  1.00  0.00     0.000 C 
BRANCH  12  13
ATOM     13  C   UNL     1     101.481 110.699 103.245  1.00  0.00     0.006 C 
BRANCH  13  14
ATOM     14  C   UNL     1     100.855 111.517 102.108  1.00  0.00     0.053 C 
BRANCH  14  15
ATOM     15  C   UNL     1     101.387 112.915 102.099  1.00  0.00     0.041 C 
ATOM     16  O   UNL     1     101.412 113.593 103.160  1.00  0.00    -0.550 OA
ATOM     17  O   UNL     1     101.832 113.481 100.910  1.00  0.00    -0.550 OA
ENDBRANCH  14  15
ENDBRANCH  13  14
ENDBRANCH  12  13
ENDBRANCH  11  12
ENDBRANCH  10  11
ENDBRANCH   9  10
ENDBRANCH   8   9
ENDBRANCH   7   8
ENDBRANCH   6   7
ENDBRANCH   5   6
ENDBRANCH   4   5
ENDBRANCH   3   4
ENDBRANCH   2   3
ENDBRANCH   1   2
BRANCH   1  18
ATOM     18  C   UNL     1     102.782 106.485 113.563  1.00  0.00     0.000 C 
BRANCH  18  19
ATOM     19  C   UNL     1     104.172 105.882 113.815  1.00  0.00     0.000 C 
BRANCH  19  20
ATOM     20  C   UNL     1     105.273 106.951 113.914  1.00  0.00     0.000 C 
BRANCH  20  21
ATOM     21  C   UNL     1     106.144 107.102 112.652  1.00  0.00     0.000 C 
BRANCH  21  22
ATOM     22  C   UNL     1     107.546 106.472 112.784  1.00  0.00     0.000 C 
BRANCH  22  23
ATOM     23  C   UNL     1     108.514 106.957 111.689  1.00  0.00     0.000 C 
BRANCH  23  24
ATOM     24  C   UNL     1     108.652 105.935 110.538  1.00  0.00    -0.000 C 
BRANCH  24  25
ATOM     25  C   UNL     1     109.031 104.522 111.013  1.00  0.00    -0.000 C 
BRANCH  25  26
ATOM     26  C   UNL     1     110.549 104.316 111.122  1.00  0.00    -0.000 C 
BRANCH  26  27
ATOM     27  C   UNL     1     110.932 102.822 111.145  1.00  0.00    -0.000 C 
BRANCH  27  28
ATOM     28  C   UNL     1     111.559 102.367 112.484  1.00  0.00    -0.000 C 
BRANCH  28  29
ATOM     29  C   UNL     1     113.059 102.019 112.364  1.00  0.00    -0.000 C 
BRANCH  29  30
ATOM     30  C   UNL     1     113.715 102.667 111.132  1.00  0.00    -0.000 C 
BRANCH  30  31
ATOM     31  C   UNL     1     114.943 103.521 111.497  1.00  0.00    -0.003 C 
ATOM     32  C   UNL     1     114.573 104.731 112.361  1.00  0.00     0.004 C 
ENDBRANCH  30  31
ENDBRANCH  29  30
ENDBRANCH  28  29
ENDBRANCH  27  28
ENDBRANCH  26  27
ENDBRANCH  25  26
ENDBRANCH  24  25
ENDBRANCH  23  24
ENDBRANCH  22  23
ENDBRANCH  21  22
ENDBRANCH  20  21
ENDBRANCH  19  20
ENDBRANCH  18  19
ENDBRANCH   1  18
TORSDOF 28
ENDMDL
MODEL 8
REMARK VINA RESULT:    -0.335      4.685     13.912
REMARK INTER + INTRA:          -2.314
REMARK INTER:                  -1.246
REMARK INTRA:                  -1.068
REMARK UNBOUND:                -1.430
REMARK SMILES CCCCCCCCCCCCCCCCCCCCCCCCCCCCCC(=O)[O-]
REMARK SMILES IDX 16 1 17 2 18 3 19 4 20 5 21 6 22 7 23 8 24 9 25 10 26 11
REMARK SMILES IDX 27 12 28 13 29 14 30 15 31 16 32 17 15 18 14 19 13 20 12 21
REMARK SMILES IDX 11 22 10 23 9 24 8 25 7 26 6 27 5 28 4 29 3 30 2 31 1 32
REMARK H PARENT
REMARK Flexibility Score: inf
ROOT
ATOM      1  C   UNL     1     110.526 104.107 111.577  1.00  0.00     0.000 C 
ENDROOT
BRANCH   1   2
ATOM      2  C   UNL     1     109.233 104.007 110.750  1.00  0.00     0.000 C 
BRANCH   2   3
ATOM      3  C   UNL     1     108.669 105.377 110.313  1.00  0.00     0.000 C 
BRANCH   3   4
ATOM      4  C   UNL     1     109.100 106.516 111.255  1.00  0.00     0.000 C 
BRANCH   4   5
ATOM      5  C   UNL     1     107.891 107.295 111.814  1.00  0.00     0.000 C 
BRANCH   5   6
ATOM      6  C   UNL     1     107.036 106.474 112.791  1.00  0.00     0.000 C 
BRANCH   6   7
ATOM      7  C   UNL     1     105.651 107.088 113.036  1.00  0.00     0.000 C 
BRANCH   7   8
ATOM      8  C   UNL     1     104.881 106.292 114.092  1.00  0.00     0.000 C 
BRANCH   8   9
ATOM      9  C   UNL     1     103.366 106.546 113.993  1.00  0.00     0.000 C 
BRANCH   9  10
ATOM     10  C   UNL     1     102.777 106.041 112.666  1.00  0.00     0.000 C 
BRANCH  10  11
ATOM     11  C   UNL     1     101.341 106.532 112.428  1.00  0.00     0.000 C 
BRANCH  11  12
ATOM     12  C   UNL     1     100.967 106.585 110.935  1.00  0.00     0.000 C 
BRANCH  12  13
ATOM     13  C   UNL     1     101.298 107.913 110.231  1.00  0.00     0.006 C 
BRANCH  13  14
ATOM     14  C   UNL     1     101.008 107.881 108.725  1.00  0.00     0.053 C 
BRANCH  14  15
ATOM     15  C   UNL     1     101.991 108.723 107.974  1.00  0.00     0.041 C 
ATOM     16  O   UNL     1     101.654 109.855 107.536  1.00  0.00    -0.550 OA
ATOM     17  O   UNL     1     103.273 108.245 107.733  1.00  0.00    -0.550 OA
ENDBRANCH  14  15
ENDBRANCH  13  14
ENDBRANCH  12  13
ENDBRANCH  11  12
ENDBRANCH  10  11
ENDBRANCH   9  10
ENDBRANCH   8   9
ENDBRANCH   7   8
ENDBRANCH   6   7
ENDBRANCH   5   6
ENDBRANCH   4   5
ENDBRANCH   3   4
ENDBRANCH   2   3
ENDBRANCH   1   2
BRANCH   1  18
ATOM     18  C   UNL     1     110.805 102.845 112.408  1.00  0.00     0.000 C 
BRANCH  18  19
ATOM     19  C   UNL     1     110.945 101.612 111.502  1.00  0.00     0.000 C 
BRANCH  19  20
ATOM     20  C   UNL     1     112.404 101.322 111.116  1.00  0.00     0.000 C 
BRANCH  20  21
ATOM     21  C   UNL     1     113.457 102.073 111.954  1.00  0.00     0.000 C 
BRANCH  21  22
ATOM     22  C   UNL     1     114.317 103.057 111.135  1.00  0.00     0.000 C 
BRANCH  22  23
ATOM     23  C   UNL     1     114.210 104.503 111.651  1.00  0.00     0.000 C 
BRANCH  23  24
ATOM     24  C   UNL     1     114.467 104.600 113.173  1.00  0.00    -0.000 C 
BRANCH  24  25
ATOM     25  C   UNL     1     115.589 105.583 113.545  1.00  0.00    -0.000 C 
BRANCH  25  26
ATOM     26  C   UNL     1     116.975 104.922 113.579  1.00  0.00    -0.000 C 
BRANCH  26  27
ATOM     27  C   UNL     1     117.831 105.303 112.354  1.00  0.00    -0.000 C 
BRANCH  27  28
ATOM     28  C   UNL     1     119.150 106.021 112.724  1.00  0.00    -0.000 C 
BRANCH  28  29
ATOM     29  C   UNL     1     119.793 105.478 114.019  1.00  0.00    -0.000 C 
BRANCH  29  30
ATOM     30  C   UNL     1     119.351 104.038 114.334  1.00  0.00    -0.000 C 
BRANCH  30  31
ATOM     31  C   UNL     1     119.238 103.772 115.847  1.00  0.00    -0.003 C 
ATOM     32  C   UNL     1     119.685 104.975 116.683  1.00  0.00     0.004 C 
ENDBRANCH  30  31
ENDBRANCH  29  30
ENDBRANCH  28  29
ENDBRANCH  27  28
ENDBRANCH  26  27
ENDBRANCH  25  26
ENDBRANCH  24  25
ENDBRANCH  23  24
ENDBRANCH  22  23
ENDBRANCH  21  22
ENDBRANCH  20  21
ENDBRANCH  19  20
ENDBRANCH  18  19
ENDBRANCH   1  18
TORSDOF 28
ENDMDL
MODEL 9
REMARK VINA RESULT:    -0.308      5.732     13.551
REMARK INTER + INTRA:          -2.243
REMARK INTER:                  -0.896
REMARK INTRA:                  -1.348
REMARK UNBOUND:                -1.430
REMARK SMILES CCCCCCCCCCCCCCCCCCCCCCCCCCCCCC(=O)[O-]
REMARK SMILES IDX 16 1 17 2 18 3 19 4 20 5 21 6 22 7 23 8 24 9 25 10 26 11
REMARK SMILES IDX 27 12 28 13 29 14 30 15 31 16 32 17 15 18 14 19 13 20 12 21
REMARK SMILES IDX 11 22 10 23 9 24 8 25 7 26 6 27 5 28 4 29 3 30 2 31 1 32
REMARK H PARENT
REMARK Flexibility Score: inf
ROOT
ATOM      1  C   UNL     1     109.944 103.640 111.851  1.00  0.00     0.000 C 
ENDROOT
BRANCH   1   2
ATOM      2  C   UNL     1     109.353 103.857 110.448  1.00  0.00     0.000 C 
BRANCH   2   3
ATOM      3  C   UNL     1     108.774 105.272 110.232  1.00  0.00     0.000 C 
BRANCH   3   4
ATOM      4  C   UNL     1     109.705 106.375 110.766  1.00  0.00     0.000 C 
BRANCH   4   5
ATOM      5  C   UNL     1     108.938 107.674 111.094  1.00  0.00     0.000 C 
BRANCH   5   6
ATOM      6  C   UNL     1     107.550 107.423 111.703  1.00  0.00     0.000 C 
BRANCH   6   7
ATOM      7  C   UNL     1     107.590 106.471 112.906  1.00  0.00     0.000 C 
BRANCH   7   8
ATOM      8  C   UNL     1     106.174 106.077 113.335  1.00  0.00     0.000 C 
BRANCH   8   9
ATOM      9  C   UNL     1     105.169 107.210 113.062  1.00  0.00     0.000 C 
BRANCH   9  10
ATOM     10  C   UNL     1     104.001 107.205 114.061  1.00  0.00     0.000 C 
BRANCH  10  11
ATOM     11  C   UNL     1     102.996 106.073 113.796  1.00  0.00     0.000 C 
BRANCH  11  12
ATOM     12  C   UNL     1     102.434 106.096 112.363  1.00  0.00     0.000 C 
BRANCH  12  13
ATOM     13  C   UNL     1     101.155 106.934 112.182  1.00  0.00     0.006 C 
BRANCH  13  14
ATOM     14  C   UNL     1     100.012 106.149 111.526  1.00  0.00     0.053 C 
BRANCH  14  15
ATOM     15  C   UNL     1     100.204 106.064 110.045  1.00  0.00     0.041 C 
ATOM     16  O   UNL     1     100.635 107.057 109.401  1.00  0.00    -0.550 OA
ATOM     17  O   UNL     1      99.878 104.895 109.369  1.00  0.00    -0.550 OA
ENDBRANCH  14  15
ENDBRANCH  13  14
ENDBRANCH  12  13
ENDBRANCH  11  12
ENDBRANCH  10  11
ENDBRANCH   9  10
ENDBRANCH   8   9
ENDBRANCH   7   8
ENDBRANCH   6   7
ENDBRANCH   5   6
ENDBRANCH   4   5
ENDBRANCH   3   4
ENDBRANCH   2   3
ENDBRANCH   1   2
BRANCH   1  18
ATOM     18  C   UNL     1     110.209 102.160 112.168  1.00  0.00     0.000 C 
BRANCH  18  19
ATOM     19  C   UNL     1     111.152 101.537 111.128  1.00  0.00     0.000 C 
BRANCH  19  20
ATOM     20  C   UNL     1     112.535 102.208 111.105  1.00  0.00     0.000 C 
BRANCH  20  21
ATOM     21  C   UNL     1     113.618 101.489 111.933  1.00  0.00     0.000 C 
BRANCH  21  22
ATOM     22  C   UNL     1     114.277 102.382 113.004  1.00  0.00     0.000 C 
BRANCH  22  23
ATOM     23  C   UNL     1     113.726 103.819 112.993  1.00  0.00     0.000 C 
BRANCH  23  24
ATOM     24  C   UNL     1     114.615 104.779 112.170  1.00  0.00    -0.000 C 
BRANCH  24  25
ATOM     25  C   UNL     1     115.466 104.067 111.106  1.00  0.00    -0.000 C 
BRANCH  25  26
ATOM     26  C   UNL     1     116.916 103.836 111.558  1.00  0.00    -0.000 C 
BRANCH  26  27
ATOM     27  C   UNL     1     117.152 104.296 113.011  1.00  0.00    -0.000 C 
BRANCH  27  28
ATOM     28  C   UNL     1     118.552 103.927 113.553  1.00  0.00    -0.000 C 
BRANCH  28  29
ATOM     29  C   UNL     1     119.181 105.042 114.417  1.00  0.00    -0.000 C 
BRANCH  29  30
ATOM     30  C   UNL     1     119.960 106.068 113.574  1.00  0.00    -0.000 C 
BRANCH  30  31
ATOM     31  C   UNL     1     119.120 106.643 112.419  1.00  0.00    -0.003 C 
ATOM     32  C   UNL     1     119.778 106.422 111.054  1.00  0.00     0.004 C 
ENDBRANCH  30  31
ENDBRANCH  29  30
ENDBRANCH  28  29
ENDBRANCH  27  28
ENDBRANCH  26  27
ENDBRANCH  25  26
ENDBRANCH  24  25
ENDBRANCH  23  24
ENDBRANCH  22  23
ENDBRANCH  21  22
ENDBRANCH  20  21
ENDBRANCH  19  20
ENDBRANCH  18  19
ENDBRANCH   1  18
TORSDOF 28
ENDMDL
