MODEL 1
REMARK VINA RESULT:    13.938      0.000      0.000
REMARK INTER + INTRA:          24.547
REMARK INTER:                  25.346
REMARK INTRA:                  -0.799
REMARK UNBOUND:                -0.799
REMARK SMILES CCCCCCCCCCCCCCCC(=O)[O-]
REMARK SMILES IDX 9 1 10 2 11 3 12 4 13 5 14 6 15 7 16 8 17 9 18 10 8 11 7 12
REMARK SMILES IDX 6 13 5 14 4 15 3 16 2 17 1 18
REMARK H PARENT
REMARK Flexibility Score: inf
ROOT
ATOM      1  C   UNL     1      -5.818  11.068 -23.659  1.00  0.00     0.000 C 
ENDROOT
BRANCH   1   2
ATOM      2  C   UNL     1      -6.510  12.430 -23.841  1.00  0.00     0.000 C 
BRANCH   2   3
ATOM      3  C   UNL     1      -6.340  12.992 -25.262  1.00  0.00     0.000 C 
BRANCH   3   4
ATOM      4  C   UNL     1      -5.241  14.065 -25.344  1.00  0.00     0.000 C 
BRANCH   4   5
ATOM      5  C   UNL     1      -5.259  14.831 -26.677  1.00  0.00     0.000 C 
BRANCH   5   6
ATOM      6  C   UNL     1      -5.134  16.353 -26.489  1.00  0.00     0.006 C 
BRANCH   6   7
ATOM      7  C   UNL     1      -4.573  16.720 -25.108  1.00  0.00     0.053 C 
BRANCH   7   8
ATOM      8  C   UNL     1      -5.248  17.927 -24.536  1.00  0.00     0.041 C 
ATOM      9  O   UNL     1      -5.724  18.809 -25.298  1.00  0.00    -0.550 OA
ATOM     10  O   UNL     1      -5.326  18.092 -23.159  1.00  0.00    -0.550 OA
ENDBRANCH   7   8
ENDBRANCH   6   7
ENDBRANCH   5   6
ENDBRANCH   4   5
ENDBRANCH   3   4
ENDBRANCH   2   3
ENDBRANCH   1   2
BRANCH   1  11
ATOM     11  C   UNL     1      -5.799  10.229 -24.950  1.00  0.00     0.000 C 
BRANCH  11  12
ATOM     12  C   UNL     1      -4.947   8.948 -24.883  1.00  0.00    -0.000 C 
BRANCH  12  13
ATOM     13  C   UNL     1      -3.441   9.223 -25.005  1.00  0.00    -0.000 C 
BRANCH  13  14
ATOM     14  C   UNL     1      -2.661   8.520 -23.887  1.00  0.00    -0.000 C 
BRANCH  14  15
ATOM     15  C   UNL     1      -1.167   8.875 -23.949  1.00  0.00    -0.000 C 
BRANCH  15  16
ATOM     16  C   UNL     1      -0.781   9.543 -25.285  1.00  0.00    -0.000 C 
BRANCH  16  17
ATOM     17  C   UNL     1       0.164   8.691 -26.149  1.00  0.00    -0.003 C 
ATOM     18  C   UNL     1       1.047   9.527 -27.073  1.00  0.00     0.004 C 
ENDBRANCH  16  17
ENDBRANCH  15  16
ENDBRANCH  14  15
ENDBRANCH  13  14
ENDBRANCH  12  13
ENDBRANCH  11  12
ENDBRANCH   1  11
TORSDOF 14
ENDMDL
MODEL 2
REMARK VINA RESULT:    14.396      4.023      8.164
REMARK INTER + INTRA:          25.380
REMARK INTER:                  26.178
REMARK INTRA:                  -0.797
REMARK UNBOUND:                -0.799
REMARK SMILES CCCCCCCCCCCCCCCC(=O)[O-]
REMARK SMILES IDX 9 1 10 2 11 3 12 4 13 5 14 6 15 7 16 8 17 9 18 10 8 11 7 12
REMARK SMILES IDX 6 13 5 14 4 15 3 16 2 17 1 18
REMARK H PARENT
REMARK Flexibility Score: inf
ROOT
ATOM      1  C   UNL     1      -5.698  11.120 -23.865  1.00  0.00     0.000 C 
ENDROOT
BRANCH   1   2
ATOM      2  C   UNL     1      -5.888  10.137 -25.032  1.00  0.00     0.000 C 
BRANCH   2   3
ATOM      3  C   UNL     1      -4.932   8.935 -24.950  1.00  0.00     0.000 C 
BRANCH   3   4
ATOM      4  C   UNL     1      -3.457   9.361 -24.845  1.00  0.00     0.000 C 
BRANCH   4   5
ATOM      5  C   UNL     1      -2.625   8.403 -23.977  1.00  0.00     0.000 C 
BRANCH   5   6
ATOM      6  C   UNL     1      -1.114   8.680 -24.070  1.00  0.00     0.006 C 
BRANCH   6   7
ATOM      7  C   UNL     1      -0.745   9.448 -25.347  1.00  0.00     0.053 C 
BRANCH   7   8
ATOM      8  C   UNL     1       0.374   8.786 -26.090  1.00  0.00     0.041 C 
ATOM      9  O   UNL     1       0.941   9.380 -27.043  1.00  0.00    -0.550 OA
ATOM     10  O   UNL     1       0.771   7.500 -25.746  1.00  0.00    -0.550 OA
ENDBRANCH   7   8
ENDBRANCH   6   7
ENDBRANCH   5   6
ENDBRANCH   4   5
ENDBRANCH   3   4
ENDBRANCH   2   3
ENDBRANCH   1   2
BRANCH   1  11
ATOM     11  C   UNL     1      -6.474  12.436 -24.057  1.00  0.00     0.000 C 
BRANCH  11  12
ATOM     12  C   UNL     1      -6.193  13.173 -25.380  1.00  0.00    -0.000 C 
BRANCH  12  13
ATOM     13  C   UNL     1      -5.276  14.392 -25.204  1.00  0.00    -0.000 C 
BRANCH  13  14
ATOM     14  C   UNL     1      -5.141  15.172 -26.517  1.00  0.00    -0.000 C 
BRANCH  14  15
ATOM     15  C   UNL     1      -4.699  16.621 -26.256  1.00  0.00    -0.000 C 
BRANCH  15  16
ATOM     16  C   UNL     1      -5.893  17.546 -25.938  1.00  0.00    -0.000 C 
BRANCH  16  17
ATOM     17  C   UNL     1      -5.635  18.502 -24.762  1.00  0.00    -0.003 C 
ATOM     18  C   UNL     1      -5.274  17.775 -23.467  1.00  0.00     0.004 C 
ENDBRANCH  16  17
ENDBRANCH  15  16
ENDBRANCH  14  15
ENDBRANCH  13  14
ENDBRANCH  12  13
ENDBRANCH  11  12
ENDBRANCH   1  11
TORSDOF 14
ENDMDL
MODEL 3
REMARK VINA RESULT:    15.427      1.615      2.916
REMARK INTER + INTRA:          27.255
REMARK INTER:                  28.019
REMARK INTRA:                  -0.764
REMARK UNBOUND:                -0.799
REMARK SMILES CCCCCCCCCCCCCCCC(=O)[O-]
REMARK SMILES IDX 9 1 10 2 11 3 12 4 13 5 14 6 15 7 16 8 17 9 18 10 8 11 7 12
REMARK SMILES IDX 6 13 5 14 4 15 3 16 2 17 1 18
REMARK H PARENT
REMARK Flexibility Score: inf
ROOT
ATOM      1  C   UNL     1      -5.681  11.087 -23.776  1.00  0.00     0.000 C 
ENDROOT
BRANCH   1   2
ATOM      2  C   UNL     1      -6.492  12.382 -23.958  1.00  0.00     0.000 C 
BRANCH   2   3
ATOM      3  C   UNL     1      -6.231  13.054 -25.316  1.00  0.00     0.000 C 
BRANCH   3   4
ATOM      4  C   UNL     1      -5.312  14.283 -25.199  1.00  0.00     0.000 C 
BRANCH   4   5
ATOM      5  C   UNL     1      -5.338  15.164 -26.458  1.00  0.00     0.000 C 
BRANCH   5   6
ATOM      6  C   UNL     1      -4.603  16.501 -26.261  1.00  0.00     0.006 C 
BRANCH   6   7
ATOM      7  C   UNL     1      -5.568  17.649 -25.938  1.00  0.00     0.053 C 
BRANCH   7   8
ATOM      8  C   UNL     1      -5.433  18.108 -24.519  1.00  0.00     0.041 C 
ATOM      9  O   UNL     1      -4.613  17.547 -23.746  1.00  0.00    -0.550 OA
ATOM     10  O   UNL     1      -6.234  19.138 -24.043  1.00  0.00    -0.550 OA
ENDBRANCH   7   8
ENDBRANCH   6   7
ENDBRANCH   5   6
ENDBRANCH   4   5
ENDBRANCH   3   4
ENDBRANCH   2   3
ENDBRANCH   1   2
BRANCH   1  11
ATOM     11  C   UNL     1      -5.894  10.081 -24.922  1.00  0.00     0.000 C 
BRANCH  11  12
ATOM     12  C   UNL     1      -4.642   9.283 -25.331  1.00  0.00    -0.000 C 
BRANCH  12  13
ATOM     13  C   UNL     1      -3.969   8.574 -24.146  1.00  0.00    -0.000 C 
BRANCH  13  14
ATOM     14  C   UNL     1      -2.452   8.800 -24.160  1.00  0.00    -0.000 C 
BRANCH  14  15
ATOM     15  C   UNL     1      -1.773   8.055 -23.000  1.00  0.00    -0.000 C 
BRANCH  15  16
ATOM     16  C   UNL     1      -2.796   7.375 -22.066  1.00  0.00    -0.000 C 
BRANCH  16  17
ATOM     17  C   UNL     1      -2.311   7.246 -20.612  1.00  0.00    -0.003 C 
ATOM     18  C   UNL     1      -3.406   7.534 -19.588  1.00  0.00     0.004 C 
ENDBRANCH  16  17
ENDBRANCH  15  16
ENDBRANCH  14  15
ENDBRANCH  13  14
ENDBRANCH  12  13
ENDBRANCH  11  12
ENDBRANCH   1  11
TORSDOF 14
ENDMDL
MODEL 4
REMARK VINA RESULT:    16.557      4.050      7.520
REMARK INTER + INTRA:          29.310
REMARK INTER:                  29.974
REMARK INTRA:                  -0.665
REMARK UNBOUND:                -0.799
REMARK SMILES CCCCCCCCCCCCCCCC(=O)[O-]
REMARK SMILES IDX 9 1 10 2 11 3 12 4 13 5 14 6 15 7 16 8 17 9 18 10 8 11 7 12
REMARK SMILES IDX 6 13 5 14 4 15 3 16 2 17 1 18
REMARK H PARENT
REMARK Flexibility Score: inf
ROOT
ATOM      1  C   UNL     1      -6.569  12.517 -23.142  1.00  0.00     0.000 C 
ENDROOT
BRANCH   1   2
ATOM      2  C   UNL     1      -6.403  12.017 -24.587  1.00  0.00     0.000 C 
BRANCH   2   3
ATOM      3  C   UNL     1      -6.455  13.159 -25.615  1.00  0.00     0.000 C 
BRANCH   3   4
ATOM      4  C   UNL     1      -5.216  14.070 -25.548  1.00  0.00     0.000 C 
BRANCH   4   5
ATOM      5  C   UNL     1      -5.305  15.262 -26.514  1.00  0.00     0.000 C 
BRANCH   5   6
ATOM      6  C   UNL     1      -4.475  16.470 -26.044  1.00  0.00     0.006 C 
BRANCH   6   7
ATOM      7  C   UNL     1      -5.324  17.742 -25.922  1.00  0.00     0.053 C 
BRANCH   7   8
ATOM      8  C   UNL     1      -5.473  18.177 -24.497  1.00  0.00     0.041 C 
ATOM      9  O   UNL     1      -6.341  19.032 -24.181  1.00  0.00    -0.550 OA
ATOM     10  O   UNL     1      -4.632  17.657 -23.520  1.00  0.00    -0.550 OA
ENDBRANCH   7   8
ENDBRANCH   6   7
ENDBRANCH   5   6
ENDBRANCH   4   5
ENDBRANCH   3   4
ENDBRANCH   2   3
ENDBRANCH   1   2
BRANCH   1  11
ATOM     11  C   UNL     1      -8.034  12.500 -22.667  1.00  0.00     0.000 C 
BRANCH  11  12
ATOM     12  C   UNL     1      -8.226  12.521 -21.139  1.00  0.00    -0.000 C 
BRANCH  12  13
ATOM     13  C   UNL     1      -9.076  13.707 -20.658  1.00  0.00    -0.000 C 
BRANCH  13  14
ATOM     14  C   UNL     1      -8.409  14.414 -19.471  1.00  0.00    -0.000 C 
BRANCH  14  15
ATOM     15  C   UNL     1      -9.129  14.080 -18.155  1.00  0.00    -0.000 C 
BRANCH  15  16
ATOM     16  C   UNL     1      -9.461  15.344 -17.335  1.00  0.00    -0.000 C 
BRANCH  16  17
ATOM     17  C   UNL     1      -9.980  16.513 -18.189  1.00  0.00    -0.003 C 
ATOM     18  C   UNL     1      -9.639  17.881 -17.602  1.00  0.00     0.004 C 
ENDBRANCH  16  17
ENDBRANCH  15  16
ENDBRANCH  14  15
ENDBRANCH  13  14
ENDBRANCH  12  13
ENDBRANCH  11  12
ENDBRANCH   1  11
TORSDOF 14
ENDMDL
