MODEL 1
REMARK VINA RESULT:    -4.512      0.000      0.000
REMARK INTER + INTRA:          -4.512
REMARK INTER:                  -4.512
REMARK INTRA:                   0.000
REMARK UNBOUND:                 0.000
REMARK SMILES CC1=CC(=O)[C@@H]2C[C@H]1C2(C)C
REMARK SMILES IDX 1 1 2 2 3 3 4 4 5 5 6 6 7 7 8 8 9 9 10 10 11 11
REMARK H PARENT
REMARK Flexibility Score: inf
ROOT
ATOM      1  C   UNL     1      98.534 135.340 125.263  1.00  0.00     0.040 C 
ATOM      2  C   UNL     1      99.966 134.906 125.232  1.00  0.00    -0.066 C 
ATOM      3  C   UNL     1     100.356 133.712 125.758  1.00  0.00     0.047 C 
ATOM      4  C   UNL     1     101.812 133.378 125.637  1.00  0.00     0.159 C 
ATOM      5  O   UNL     1     102.289 132.289 126.049  1.00  0.00    -0.295 OA
ATOM      6  C   UNL     1     102.678 134.454 124.979  1.00  0.00     0.067 C 
ATOM      7  C   UNL     1     102.224 135.768 125.650  1.00  0.00     0.021 C 
ATOM      8  C   UNL     1     101.071 135.794 124.622  1.00  0.00     0.022 C 
ATOM      9  C   UNL     1     101.966 134.936 123.682  1.00  0.00    -0.019 C 
ATOM     10  C   UNL     1     101.277 133.873 122.779  1.00  0.00     0.012 C 
ATOM     11  C   UNL     1     102.890 135.803 122.791  1.00  0.00     0.012 C 
ENDROOT
TORSDOF 0
ENDMDL
MODEL 2
REMARK VINA RESULT:    -4.507      1.833      3.271
REMARK INTER + INTRA:          -4.507
REMARK INTER:                  -4.507
REMARK INTRA:                   0.000
REMARK UNBOUND:                 0.000
REMARK SMILES CC1=CC(=O)[C@@H]2C[C@H]1C2(C)C
REMARK SMILES IDX 1 1 2 2 3 3 4 4 5 5 6 6 7 7 8 8 9 9 10 10 11 11
REMARK H PARENT
REMARK Flexibility Score: inf
ROOT
ATOM      1  C   UNL     1     102.791 135.871 122.361  1.00  0.00     0.040 C 
ATOM      2  C   UNL     1     101.959 135.565 123.567  1.00  0.00    -0.066 C 
ATOM      3  C   UNL     1     100.726 136.114 123.735  1.00  0.00     0.047 C 
ATOM      4  C   UNL     1      99.979 135.704 124.968  1.00  0.00     0.159 C 
ATOM      5  O   UNL     1      98.815 136.112 125.217  1.00  0.00    -0.295 OA
ATOM      6  C   UNL     1     100.731 134.755 125.903  1.00  0.00     0.067 C 
ATOM      7  C   UNL     1     102.146 135.366 126.004  1.00  0.00     0.021 C 
ATOM      8  C   UNL     1     102.465 134.628 124.685  1.00  0.00     0.022 C 
ATOM      9  C   UNL     1     101.348 133.609 125.051  1.00  0.00    -0.019 C 
ATOM     10  C   UNL     1     100.496 133.005 123.898  1.00  0.00     0.012 C 
ATOM     11  C   UNL     1     101.875 132.444 125.926  1.00  0.00     0.012 C 
ENDROOT
TORSDOF 0
ENDMDL
MODEL 3
REMARK VINA RESULT:    -4.411     12.147     13.258
REMARK INTER + INTRA:          -4.411
REMARK INTER:                  -4.411
REMARK INTRA:                   0.000
REMARK UNBOUND:                 0.000
REMARK SMILES CC1=CC(=O)[C@@H]2C[C@H]1C2(C)C
REMARK SMILES IDX 1 1 2 2 3 3 4 4 5 5 6 6 7 7 8 8 9 9 10 10 11 11
REMARK H PARENT
REMARK Flexibility Score: inf
ROOT
ATOM      1  C   UNL     1      96.414 138.416 135.635  1.00  0.00     0.040 C 
ATOM      2  C   UNL     1      96.903 139.810 135.398  1.00  0.00    -0.066 C 
ATOM      3  C   UNL     1      96.173 140.892 135.783  1.00  0.00     0.047 C 
ATOM      4  C   UNL     1      96.785 142.234 135.518  1.00  0.00     0.159 C 
ATOM      5  O   UNL     1      96.227 143.308 135.862  1.00  0.00    -0.295 OA
ATOM      6  C   UNL     1      98.136 142.207 134.801  1.00  0.00     0.067 C 
ATOM      7  C   UNL     1      97.935 141.193 133.654  1.00  0.00     0.021 C 
ATOM      8  C   UNL     1      98.246 140.090 134.691  1.00  0.00     0.022 C 
ATOM      9  C   UNL     1      99.044 141.154 135.499  1.00  0.00    -0.019 C 
ATOM     10  C   UNL     1      99.020 141.070 137.051  1.00  0.00     0.012 C 
ATOM     11  C   UNL     1     100.521 141.257 135.042  1.00  0.00     0.012 C 
ENDROOT
TORSDOF 0
ENDMDL
MODEL 4
REMARK VINA RESULT:    -4.299      1.820      3.004
REMARK INTER + INTRA:          -4.299
REMARK INTER:                  -4.299
REMARK INTRA:                   0.000
REMARK UNBOUND:                 0.000
REMARK SMILES CC1=CC(=O)[C@@H]2C[C@H]1C2(C)C
REMARK SMILES IDX 1 1 2 2 3 3 4 4 5 5 6 6 7 7 8 8 9 9 10 10 11 11
REMARK H PARENT
REMARK Flexibility Score: inf
ROOT
ATOM      1  C   UNL     1     101.091 131.544 126.981  1.00  0.00     0.040 C 
ATOM      2  C   UNL     1     101.133 132.351 125.722  1.00  0.00    -0.066 C 
ATOM      3  C   UNL     1     100.593 131.884 124.563  1.00  0.00     0.047 C 
ATOM      4  C   UNL     1     100.670 132.800 123.379  1.00  0.00     0.159 C 
ATOM      5  O   UNL     1     100.173 132.499 122.262  1.00  0.00    -0.295 OA
ATOM      6  C   UNL     1     101.396 134.124 123.622  1.00  0.00     0.067 C 
ATOM      7  C   UNL     1     102.672 133.721 124.391  1.00  0.00     0.021 C 
ATOM      8  C   UNL     1     101.804 133.740 125.669  1.00  0.00     0.022 C 
ATOM      9  C   UNL     1     100.862 134.744 124.945  1.00  0.00    -0.019 C 
ATOM     10  C   UNL     1      99.336 134.661 125.237  1.00  0.00     0.012 C 
ATOM     11  C   UNL     1     101.312 136.215 125.130  1.00  0.00     0.012 C 
ENDROOT
TORSDOF 0
ENDMDL
MODEL 5
REMARK VINA RESULT:    -4.243      2.560      4.050
REMARK INTER + INTRA:          -4.243
REMARK INTER:                  -4.243
REMARK INTRA:                   0.000
REMARK UNBOUND:                 0.000
REMARK SMILES CC1=CC(=O)[C@@H]2C[C@H]1C2(C)C
REMARK SMILES IDX 1 1 2 2 3 3 4 4 5 5 6 6 7 7 8 8 9 9 10 10 11 11
REMARK H PARENT
REMARK Flexibility Score: inf
ROOT
ATOM      1  C   UNL     1      99.413 130.253 123.389  1.00  0.00     0.040 C 
ATOM      2  C   UNL     1     100.283 131.286 124.034  1.00  0.00    -0.066 C 
ATOM      3  C   UNL     1      99.832 132.549 124.265  1.00  0.00     0.047 C 
ATOM      4  C   UNL     1     100.787 133.481 124.946  1.00  0.00     0.159 C 
ATOM      5  O   UNL     1     100.474 134.662 125.249  1.00  0.00    -0.295 OA
ATOM      6  C   UNL     1     102.169 132.898 125.246  1.00  0.00     0.067 C 
ATOM      7  C   UNL     1     102.567 132.177 123.940  1.00  0.00     0.021 C 
ATOM      8  C   UNL     1     101.737 130.977 124.451  1.00  0.00     0.022 C 
ATOM      9  C   UNL     1     101.982 131.497 125.897  1.00  0.00    -0.019 C 
ATOM     10  C   UNL     1     100.849 131.314 126.946  1.00  0.00     0.012 C 
ATOM     11  C   UNL     1     103.298 130.951 126.505  1.00  0.00     0.012 C 
ENDROOT
TORSDOF 0
ENDMDL
MODEL 6
REMARK VINA RESULT:    -4.201     12.201     13.409
REMARK INTER + INTRA:          -4.201
REMARK INTER:                  -4.201
REMARK INTRA:                   0.000
REMARK UNBOUND:                 0.000
REMARK SMILES CC1=CC(=O)[C@@H]2C[C@H]1C2(C)C
REMARK SMILES IDX 1 1 2 2 3 3 4 4 5 5 6 6 7 7 8 8 9 9 10 10 11 11
REMARK H PARENT
REMARK Flexibility Score: inf
ROOT
ATOM      1  C   UNL     1      96.491 138.664 135.674  1.00  0.00     0.040 C 
ATOM      2  C   UNL     1      97.211 139.968 135.813  1.00  0.00    -0.066 C 
ATOM      3  C   UNL     1      98.522 140.018 136.176  1.00  0.00     0.047 C 
ATOM      4  C   UNL     1      99.139 141.382 136.250  1.00  0.00     0.159 C 
ATOM      5  O   UNL     1     100.352 141.557 136.536  1.00  0.00    -0.295 OA
ATOM      6  C   UNL     1      98.191 142.545 135.955  1.00  0.00     0.067 C 
ATOM      7  C   UNL     1      96.918 142.211 136.762  1.00  0.00     0.021 C 
ATOM      8  C   UNL     1      96.502 141.317 135.572  1.00  0.00     0.022 C 
ATOM      9  C   UNL     1      97.391 142.214 134.662  1.00  0.00    -0.019 C 
ATOM     10  C   UNL     1      98.144 141.543 133.478  1.00  0.00     0.012 C 
ATOM     11  C   UNL     1      96.623 143.443 134.114  1.00  0.00     0.012 C 
ENDROOT
TORSDOF 0
ENDMDL
MODEL 7
REMARK VINA RESULT:    -4.085      0.855      3.159
REMARK INTER + INTRA:          -4.085
REMARK INTER:                  -4.085
REMARK INTRA:                   0.000
REMARK UNBOUND:                 0.000
REMARK SMILES CC1=CC(=O)[C@@H]2C[C@H]1C2(C)C
REMARK SMILES IDX 1 1 2 2 3 3 4 4 5 5 6 6 7 7 8 8 9 9 10 10 11 11
REMARK H PARENT
REMARK Flexibility Score: inf
ROOT
ATOM      1  C   UNL     1     103.493 135.415 122.494  1.00  0.00     0.040 C 
ATOM      2  C   UNL     1     102.651 134.633 123.452  1.00  0.00    -0.066 C 
ATOM      3  C   UNL     1     103.194 133.681 124.259  1.00  0.00     0.047 C 
ATOM      4  C   UNL     1     102.252 132.990 125.198  1.00  0.00     0.159 C 
ATOM      5  O   UNL     1     102.639 132.120 126.020  1.00  0.00    -0.295 OA
ATOM      6  C   UNL     1     100.787 133.417 125.086  1.00  0.00     0.067 C 
ATOM      7  C   UNL     1     100.514 133.435 123.567  1.00  0.00     0.021 C 
ATOM      8  C   UNL     1     101.127 134.853 123.561  1.00  0.00     0.022 C 
ATOM      9  C   UNL     1     100.726 134.971 125.060  1.00  0.00    -0.019 C 
ATOM     10  C   UNL     1     101.666 135.764 126.012  1.00  0.00     0.012 C 
ATOM     11  C   UNL     1      99.284 135.506 125.245  1.00  0.00     0.012 C 
ENDROOT
TORSDOF 0
ENDMDL
MODEL 8
REMARK VINA RESULT:    -4.084      1.650      3.168
REMARK INTER + INTRA:          -4.084
REMARK INTER:                  -4.084
REMARK INTRA:                   0.000
REMARK UNBOUND:                 0.000
REMARK SMILES CC1=CC(=O)[C@@H]2C[C@H]1C2(C)C
REMARK SMILES IDX 1 1 2 2 3 3 4 4 5 5 6 6 7 7 8 8 9 9 10 10 11 11
REMARK H PARENT
REMARK Flexibility Score: inf
ROOT
ATOM      1  C   UNL     1     102.224 131.683 126.402  1.00  0.00     0.040 C 
ATOM      2  C   UNL     1     101.946 132.941 125.641  1.00  0.00    -0.066 C 
ATOM      3  C   UNL     1     102.629 133.248 124.504  1.00  0.00     0.047 C 
ATOM      4  C   UNL     1     102.235 134.520 123.817  1.00  0.00     0.159 C 
ATOM      5  O   UNL     1     102.765 134.893 122.738  1.00  0.00    -0.295 OA
ATOM      6  C   UNL     1     101.145 135.333 124.518  1.00  0.00     0.067 C 
ATOM      7  C   UNL     1     101.573 135.338 126.001  1.00  0.00     0.021 C 
ATOM      8  C   UNL     1     100.886 133.959 126.115  1.00  0.00     0.022 C 
ATOM      9  C   UNL     1      99.989 134.370 124.913  1.00  0.00    -0.019 C 
ATOM     10  C   UNL     1      99.566 133.268 123.899  1.00  0.00     0.012 C 
ATOM     11  C   UNL     1      98.716 135.132 125.359  1.00  0.00     0.012 C 
ENDROOT
TORSDOF 0
ENDMDL
MODEL 9
REMARK VINA RESULT:    -4.051      2.317      3.533
REMARK INTER + INTRA:          -4.051
REMARK INTER:                  -4.051
REMARK INTRA:                   0.000
REMARK UNBOUND:                 0.000
REMARK SMILES CC1=CC(=O)[C@@H]2C[C@H]1C2(C)C
REMARK SMILES IDX 1 1 2 2 3 3 4 4 5 5 6 6 7 7 8 8 9 9 10 10 11 11
REMARK H PARENT
REMARK Flexibility Score: inf
ROOT
ATOM      1  C   UNL     1      99.510 130.250 123.353  1.00  0.00     0.040 C 
ATOM      2  C   UNL     1     100.591 130.996 124.070  1.00  0.00    -0.066 C 
ATOM      3  C   UNL     1     101.900 130.854 123.725  1.00  0.00     0.047 C 
ATOM      4  C   UNL     1     102.883 131.679 124.498  1.00  0.00     0.159 C 
ATOM      5  O   UNL     1     104.117 131.666 124.247  1.00  0.00    -0.295 OA
ATOM      6  C   UNL     1     102.284 132.538 125.612  1.00  0.00     0.067 C 
ATOM      7  C   UNL     1     101.309 131.588 126.340  1.00  0.00     0.021 C 
ATOM      8  C   UNL     1     100.278 131.946 125.246  1.00  0.00     0.022 C 
ATOM      9  C   UNL     1     101.043 133.287 125.045  1.00  0.00    -0.019 C 
ATOM     10  C   UNL     1     101.129 133.877 123.609  1.00  0.00     0.012 C 
ATOM     11  C   UNL     1     100.542 134.401 125.998  1.00  0.00     0.012 C 
ENDROOT
TORSDOF 0
ENDMDL
