MODEL 1
REMARK VINA RESULT:    -3.960      0.000      0.000
REMARK INTER + INTRA:          -5.832
REMARK INTER:                  -6.043
REMARK INTRA:                   0.211
REMARK UNBOUND:                 0.211
REMARK SMILES CC1=CCC[C@H](C)C(=O)C[C@@H](C(C)C)C(=O)C1
REMARK SMILES IDX 8 1 9 2 6 3 7 4 5 5 4 6 3 7 2 8 1 9 10 11 11 12 15 13 16 14
REMARK SMILES IDX 17 15 12 17 13 18 14 19
REMARK H PARENT
REMARK Flexibility Score: 70.00
ROOT
ATOM      1  C   UNL     1       2.509  31.395 -24.401  1.00  0.00     0.136 C 
ATOM      2  O   UNL     1       2.918  32.545 -24.477  1.00  0.00    -0.299 OA
ENDROOT
BRANCH   1   3
ATOM      3  C   UNL     1       3.091  30.459 -23.367  1.00  0.00     0.053 C 
ATOM      4  C   UNL     1       3.386  31.194 -22.054  1.00  0.00     0.016 C 
BRANCH   3   5
ATOM      5  C   UNL     1       2.116  29.276 -23.149  1.00  0.00     0.015 C 
BRANCH   5   6
ATOM      6  C   UNL     1       0.940  29.541 -22.189  1.00  0.00     0.028 C 
BRANCH   6   7
ATOM      7  C   UNL     1      -0.444  29.170 -22.677  1.00  0.00    -0.028 C 
ATOM      8  C   UNL     1      -1.388  30.011 -23.165  1.00  0.00    -0.070 CG0
ATOM      9  C   UNL     1      -2.739  29.428 -23.498  1.00  0.00     0.039 C 
ATOM     10  G   UNL     1      -1.148  31.479 -23.467  1.00  0.00     0.000 G0
ENDBRANCH   6   7
ENDBRANCH   5   6
ENDBRANCH   3   5
ENDBRANCH   1   3
BRANCH   1  11
ATOM     11  C   UNL     1       1.367  30.956 -25.286  1.00  0.00     0.087 C 
BRANCH  11  12
ATOM     12  C   UNL     1       0.353  32.111 -25.557  1.00  0.00     0.066 C 
BRANCH  12  13
ATOM     13  C   UNL     1      -0.994  31.750 -24.942  1.00  0.00     0.140 C 
ATOM     14  O   UNL     1      -1.983  31.723 -25.664  1.00  0.00    -0.299 OA
BRANCH  13  15
ATOM     15  C   UNL     1      -1.164  31.501 -23.458  1.00  0.00     0.106 CG0
ATOM     16  G   UNL     1      -1.397  30.027 -23.177  1.00  0.00     0.000 G0
ENDBRANCH  13  15
ENDBRANCH  12  13
BRANCH  12  17
ATOM     17  C   UNL     1       0.207  32.421 -27.084  1.00  0.00    -0.006 C 
ATOM     18  C   UNL     1      -0.376  33.826 -27.337  1.00  0.00     0.008 C 
ATOM     19  C   UNL     1       1.561  32.324 -27.817  1.00  0.00     0.008 C 
ENDBRANCH  12  17
ENDBRANCH  11  12
ENDBRANCH   1  11
TORSDOF 1
ENDMDL
MODEL 2
REMARK VINA RESULT:    -3.892     15.049     16.481
REMARK INTER + INTRA:          -5.729
REMARK INTER:                  -5.355
REMARK INTRA:                  -0.374
REMARK UNBOUND:                 0.211
REMARK SMILES CC1=CCC[C@H](C)C(=O)C[C@@H](C(C)C)C(=O)C1
REMARK SMILES IDX 8 1 9 2 6 3 7 4 5 5 4 6 3 7 2 8 1 9 10 11 11 12 15 13 16 14
REMARK SMILES IDX 17 15 12 17 13 18 14 19
REMARK H PARENT
REMARK Flexibility Score: 70.00
ROOT
ATOM      1  C   UNL     1       8.371  31.240  -9.744  1.00  0.00     0.136 C 
ATOM      2  O   UNL     1       7.308  31.696  -9.346  1.00  0.00    -0.299 OA
ENDROOT
BRANCH   1   3
ATOM      3  C   UNL     1       8.447  29.801 -10.201  1.00  0.00     0.053 C 
ATOM      4  C   UNL     1       7.822  28.857  -9.168  1.00  0.00     0.016 C 
BRANCH   3   5
ATOM      5  C   UNL     1       7.757  29.671 -11.581  1.00  0.00     0.015 C 
BRANCH   5   6
ATOM      6  C   UNL     1       8.665  29.235 -12.747  1.00  0.00     0.028 C 
BRANCH   6   7
ATOM      7  C   UNL     1      10.125  28.989 -12.427  1.00  0.00    -0.028 C 
ATOM      8  C   UNL     1      11.158  29.842 -12.632  1.00  0.00    -0.070 CG0
ATOM      9  C   UNL     1      12.549  29.341 -12.329  1.00  0.00     0.039 C 
ATOM     10  G   UNL     1      10.997  31.286 -13.073  1.00  0.00     0.000 G0
ENDBRANCH   6   7
ENDBRANCH   5   6
ENDBRANCH   3   5
ENDBRANCH   1   3
BRANCH   1  11
ATOM     11  C   UNL     1       9.573  32.149  -9.851  1.00  0.00     0.087 C 
BRANCH  11  12
ATOM     12  C   UNL     1       9.728  32.753 -11.281  1.00  0.00     0.066 C 
BRANCH  12  13
ATOM     13  C   UNL     1      11.018  32.235 -11.908  1.00  0.00     0.140 C 
ATOM     14  O   UNL     1      12.088  32.647 -11.480  1.00  0.00    -0.299 OA
BRANCH  13  15
ATOM     15  C   UNL     1      11.017  31.288 -13.091  1.00  0.00     0.106 CG0
ATOM     16  G   UNL     1      11.162  29.847 -12.634  1.00  0.00     0.000 G0
ENDBRANCH  13  15
ENDBRANCH  12  13
BRANCH  12  17
ATOM     17  C   UNL     1       9.703  34.318 -11.266  1.00  0.00    -0.006 C 
ATOM     18  C   UNL     1       9.589  34.910 -12.686  1.00  0.00     0.008 C 
ATOM     19  C   UNL     1       8.528  34.860 -10.425  1.00  0.00     0.008 C 
ENDBRANCH  12  17
ENDBRANCH  11  12
ENDBRANCH   1  11
TORSDOF 1
ENDMDL
MODEL 3
REMARK VINA RESULT:    -3.654      2.320      4.714
REMARK INTER + INTRA:          -5.365
REMARK INTER:                  -5.385
REMARK INTRA:                   0.019
REMARK UNBOUND:                 0.211
REMARK SMILES CC1=CCC[C@H](C)C(=O)C[C@@H](C(C)C)C(=O)C1
REMARK SMILES IDX 8 1 9 2 6 3 7 4 5 5 4 6 3 7 2 8 1 9 10 11 11 12 15 13 16 14
REMARK SMILES IDX 17 15 12 17 13 18 14 19
REMARK H PARENT
REMARK Flexibility Score: 70.00
ROOT
ATOM      1  C   UNL     1       3.842  30.586 -26.214  1.00  0.00     0.136 C 
ATOM      2  O   UNL     1       4.361  29.628 -25.659  1.00  0.00    -0.299 OA
ENDROOT
BRANCH   1   3
ATOM      3  C   UNL     1       3.984  30.754 -27.710  1.00  0.00     0.053 C 
ATOM      4  C   UNL     1       4.937  29.708 -28.299  1.00  0.00     0.016 C 
BRANCH   3   5
ATOM      5  C   UNL     1       2.583  30.679 -28.363  1.00  0.00     0.015 C 
BRANCH   5   6
ATOM      6  C   UNL     1       1.999  32.017 -28.858  1.00  0.00     0.028 C 
BRANCH   6   7
ATOM      7  C   UNL     1       0.510  32.227 -28.676  1.00  0.00    -0.028 C 
ATOM      8  C   UNL     1      -0.135  32.517 -27.520  1.00  0.00    -0.070 CG0
ATOM      9  C   UNL     1      -1.642  32.582 -27.558  1.00  0.00     0.039 C 
ATOM     10  G   UNL     1       0.563  32.854 -26.215  1.00  0.00     0.000 G0
ENDBRANCH   6   7
ENDBRANCH   5   6
ENDBRANCH   3   5
ENDBRANCH   1   3
BRANCH   1  11
ATOM     11  C   UNL     1       2.996  31.540 -25.406  1.00  0.00     0.087 C 
BRANCH  11  12
ATOM     12  C   UNL     1       1.705  30.860 -24.854  1.00  0.00     0.066 C 
BRANCH  12  13
ATOM     13  C   UNL     1       0.490  31.696 -25.243  1.00  0.00     0.140 C 
ATOM     14  O   UNL     1      -0.608  31.379 -24.805  1.00  0.00    -0.299 OA
BRANCH  13  15
ATOM     15  C   UNL     1       0.585  32.857 -26.212  1.00  0.00     0.106 CG0
ATOM     16  G   UNL     1      -0.123  32.536 -27.516  1.00  0.00     0.000 G0
ENDBRANCH  13  15
ENDBRANCH  12  13
BRANCH  12  17
ATOM     17  C   UNL     1       1.766  30.650 -23.304  1.00  0.00    -0.006 C 
ATOM     18  C   UNL     1       2.148  29.203 -22.930  1.00  0.00     0.008 C 
ATOM     19  C   UNL     1       2.783  31.601 -22.640  1.00  0.00     0.008 C 
ENDBRANCH  12  17
ENDBRANCH  11  12
ENDBRANCH   1  11
TORSDOF 1
ENDMDL
MODEL 4
REMARK VINA RESULT:    -3.621     15.451     16.725
REMARK INTER + INTRA:          -5.315
REMARK INTER:                  -5.366
REMARK INTRA:                   0.051
REMARK UNBOUND:                 0.211
REMARK SMILES CC1=CCC[C@H](C)C(=O)C[C@@H](C(C)C)C(=O)C1
REMARK SMILES IDX 8 1 9 2 6 3 7 4 5 5 4 6 3 7 2 8 1 9 10 11 11 12 15 13 16 14
REMARK SMILES IDX 17 15 12 17 13 18 14 19
REMARK H PARENT
REMARK Flexibility Score: 70.00
ROOT
ATOM      1  C   UNL     1      10.833  31.396 -13.112  1.00  0.00     0.136 C 
ATOM      2  O   UNL     1      10.203  31.763 -14.093  1.00  0.00    -0.299 OA
ENDROOT
BRANCH   1   3
ATOM      3  C   UNL     1      12.328  31.611 -13.055  1.00  0.00     0.053 C 
ATOM      4  C   UNL     1      13.078  30.503 -13.804  1.00  0.00     0.016 C 
BRANCH   3   5
ATOM      5  C   UNL     1      12.660  33.010 -13.629  1.00  0.00     0.015 C 
BRANCH   5   6
ATOM      6  C   UNL     1      12.432  34.199 -12.675  1.00  0.00     0.028 C 
BRANCH   6   7
ATOM      7  C   UNL     1      11.081  34.881 -12.739  1.00  0.00    -0.028 C 
ATOM      8  C   UNL     1      10.109  34.852 -11.795  1.00  0.00    -0.070 CG0
ATOM      9  C   UNL     1       8.799  35.525 -12.120  1.00  0.00     0.039 C 
ATOM     10  G   UNL     1      10.283  34.254 -10.410  1.00  0.00     0.000 G0
ENDBRANCH   6   7
ENDBRANCH   5   6
ENDBRANCH   3   5
ENDBRANCH   1   3
BRANCH   1  11
ATOM     11  C   UNL     1      10.092  30.808 -11.934  1.00  0.00     0.087 C 
BRANCH  11  12
ATOM     12  C   UNL     1       9.360  31.900 -11.095  1.00  0.00     0.066 C 
BRANCH  12  13
ATOM     13  C   UNL     1      10.394  32.788 -10.413  1.00  0.00     0.140 C 
ATOM     14  O   UNL     1      11.318  32.259  -9.809  1.00  0.00    -0.299 OA
BRANCH  13  15
ATOM     15  C   UNL     1      10.276  34.298 -10.394  1.00  0.00     0.106 CG0
ATOM     16  G   UNL     1      10.102  34.848 -11.799  1.00  0.00     0.000 G0
ENDBRANCH  13  15
ENDBRANCH  12  13
BRANCH  12  17
ATOM     17  C   UNL     1       8.379  31.277 -10.046  1.00  0.00    -0.006 C 
ATOM     18  C   UNL     1       7.315  32.290  -9.574  1.00  0.00     0.008 C 
ATOM     19  C   UNL     1       7.647  30.043 -10.613  1.00  0.00     0.008 C 
ENDBRANCH  12  17
ENDBRANCH  11  12
ENDBRANCH   1  11
TORSDOF 1
ENDMDL
MODEL 5
REMARK VINA RESULT:    -3.583     12.019     14.313
REMARK INTER + INTRA:          -5.258
REMARK INTER:                  -5.003
REMARK INTRA:                  -0.254
REMARK UNBOUND:                 0.211
REMARK SMILES CC1=CCC[C@H](C)C(=O)C[C@@H](C(C)C)C(=O)C1
REMARK SMILES IDX 8 1 9 2 6 3 7 4 5 5 4 6 3 7 2 8 1 9 10 11 11 12 15 13 16 14
REMARK SMILES IDX 17 15 12 17 13 18 14 19
REMARK H PARENT
REMARK Flexibility Score: 70.00
ROOT
ATOM      1  C   UNL     1      -3.763  25.632 -14.676  1.00  0.00     0.136 C 
ATOM      2  O   UNL     1      -4.713  26.127 -15.264  1.00  0.00    -0.299 OA
ENDROOT
BRANCH   1   3
ATOM      3  C   UNL     1      -2.597  26.502 -14.266  1.00  0.00     0.053 C 
ATOM      4  C   UNL     1      -2.722  26.947 -12.804  1.00  0.00     0.016 C 
BRANCH   3   5
ATOM      5  C   UNL     1      -1.277  25.732 -14.516  1.00  0.00     0.015 C 
BRANCH   5   6
ATOM      6  C   UNL     1      -0.390  25.500 -13.278  1.00  0.00     0.028 C 
BRANCH   6   7
ATOM      7  C   UNL     1       0.042  24.075 -12.999  1.00  0.00    -0.028 C 
ATOM      8  C   UNL     1      -0.540  23.201 -12.143  1.00  0.00    -0.070 CG0
ATOM      9  C   UNL     1       0.127  21.861 -11.950  1.00  0.00     0.039 C 
ATOM     10  G   UNL     1      -1.855  23.455 -11.428  1.00  0.00     0.000 G0
ENDBRANCH   6   7
ENDBRANCH   5   6
ENDBRANCH   3   5
ENDBRANCH   1   3
BRANCH   1  11
ATOM     11  C   UNL     1      -3.809  24.171 -14.293  1.00  0.00     0.087 C 
BRANCH  11  12
ATOM     12  C   UNL     1      -4.080  23.970 -12.770  1.00  0.00     0.066 C 
BRANCH  12  13
ATOM     13  C   UNL     1      -3.058  22.991 -12.203  1.00  0.00     0.140 C 
ATOM     14  O   UNL     1      -3.249  21.790 -12.349  1.00  0.00    -0.299 OA
BRANCH  13  15
ATOM     15  C   UNL     1      -1.858  23.450 -11.402  1.00  0.00     0.106 CG0
ATOM     16  G   UNL     1      -0.568  23.201 -12.163  1.00  0.00     0.000 G0
ENDBRANCH  13  15
ENDBRANCH  12  13
BRANCH  12  17
ATOM     17  C   UNL     1      -5.540  23.480 -12.491  1.00  0.00    -0.006 C 
ATOM     18  C   UNL     1      -6.392  24.561 -11.796  1.00  0.00     0.008 C 
ATOM     19  C   UNL     1      -6.259  23.065 -13.791  1.00  0.00     0.008 C 
ENDBRANCH  12  17
ENDBRANCH  11  12
ENDBRANCH   1  11
TORSDOF 1
ENDMDL
MODEL 6
REMARK VINA RESULT:    -3.541     14.978     16.014
REMARK INTER + INTRA:          -5.193
REMARK INTER:                  -4.863
REMARK INTRA:                  -0.330
REMARK UNBOUND:                 0.211
REMARK SMILES CC1=CCC[C@H](C)C(=O)C[C@@H](C(C)C)C(=O)C1
REMARK SMILES IDX 8 1 9 2 6 3 7 4 5 5 4 6 3 7 2 8 1 9 10 11 11 12 15 13 16 14
REMARK SMILES IDX 17 15 12 17 13 18 14 19
REMARK H PARENT
REMARK Flexibility Score: 70.00
ROOT
ATOM      1  C   UNL     1      10.917  32.501 -14.156  1.00  0.00     0.136 C 
ATOM      2  O   UNL     1      11.473  33.204 -14.988  1.00  0.00    -0.299 OA
ENDROOT
BRANCH   1   3
ATOM      3  C   UNL     1      11.389  31.082 -13.939  1.00  0.00     0.053 C 
ATOM      4  C   UNL     1      12.533  31.026 -12.920  1.00  0.00     0.016 C 
BRANCH   3   5
ATOM      5  C   UNL     1      10.188  30.211 -13.494  1.00  0.00     0.015 C 
BRANCH   5   6
ATOM      6  C   UNL     1      10.233  29.696 -12.042  1.00  0.00     0.028 C 
BRANCH   6   7
ATOM      7  C   UNL     1       9.048  30.027 -11.159  1.00  0.00    -0.028 C 
ATOM      8  C   UNL     1       8.966  31.025 -10.246  1.00  0.00    -0.070 CG0
ATOM      9  C   UNL     1       7.717  31.103  -9.404  1.00  0.00     0.039 C 
ATOM     10  G   UNL     1      10.015  32.109 -10.073  1.00  0.00     0.000 G0
ENDBRANCH   6   7
ENDBRANCH   5   6
ENDBRANCH   3   5
ENDBRANCH   1   3
BRANCH   1  11
ATOM     11  C   UNL     1       9.822  33.092 -13.300  1.00  0.00     0.087 C 
BRANCH  11  12
ATOM     12  C   UNL     1      10.388  33.836 -12.051  1.00  0.00     0.066 C 
BRANCH  12  13
ATOM     13  C   UNL     1       9.637  33.374 -10.807  1.00  0.00     0.140 C 
ATOM     14  O   UNL     1       8.742  34.081 -10.364  1.00  0.00    -0.299 OA
BRANCH  13  15
ATOM     15  C   UNL     1      10.012  32.111 -10.060  1.00  0.00     0.106 CG0
ATOM     16  G   UNL     1       8.952  31.039 -10.238  1.00  0.00     0.000 G0
ENDBRANCH  13  15
ENDBRANCH  12  13
BRANCH  12  17
ATOM     17  C   UNL     1      10.310  35.392 -12.207  1.00  0.00    -0.006 C 
ATOM     18  C   UNL     1      11.704  36.028 -12.380  1.00  0.00     0.008 C 
ATOM     19  C   UNL     1       9.442  35.800 -13.416  1.00  0.00     0.008 C 
ENDBRANCH  12  17
ENDBRANCH  11  12
ENDBRANCH   1  11
TORSDOF 1
ENDMDL
MODEL 7
REMARK VINA RESULT:    -3.477      1.756      3.944
REMARK INTER + INTRA:          -5.095
REMARK INTER:                  -5.163
REMARK INTRA:                   0.068
REMARK UNBOUND:                 0.211
REMARK SMILES CC1=CCC[C@H](C)C(=O)C[C@@H](C(C)C)C(=O)C1
REMARK SMILES IDX 8 1 9 2 6 3 7 4 5 5 4 6 3 7 2 8 1 9 10 11 11 12 15 13 16 14
REMARK SMILES IDX 17 15 12 17 13 18 14 19
REMARK H PARENT
REMARK Flexibility Score: 70.00
ROOT
ATOM      1  C   UNL     1      -1.443  31.427 -24.691  1.00  0.00     0.136 C 
ATOM      2  O   UNL     1      -2.353  31.465 -25.508  1.00  0.00    -0.299 OA
ENDROOT
BRANCH   1   3
ATOM      3  C   UNL     1      -1.576  30.560 -23.460  1.00  0.00     0.053 C 
ATOM      4  C   UNL     1      -2.938  29.858 -23.419  1.00  0.00     0.016 C 
BRANCH   3   5
ATOM      5  C   UNL     1      -0.410  29.541 -23.430  1.00  0.00     0.015 C 
BRANCH   5   6
ATOM      6  C   UNL     1       0.843  29.977 -22.645  1.00  0.00     0.028 C 
BRANCH   6   7
ATOM      7  C   UNL     1       2.184  29.531 -23.189  1.00  0.00    -0.028 C 
ATOM      8  C   UNL     1       2.920  30.147 -24.145  1.00  0.00    -0.070 CG0
ATOM      9  C   UNL     1       4.184  29.462 -24.603  1.00  0.00     0.039 C 
ATOM     10  G   UNL     1       2.593  31.511 -24.727  1.00  0.00     0.000 G0
ENDBRANCH   6   7
ENDBRANCH   5   6
ENDBRANCH   3   5
ENDBRANCH   1   3
BRANCH   1  11
ATOM     11  C   UNL     1      -0.166  32.182 -24.970  1.00  0.00     0.087 C 
BRANCH  11  12
ATOM     12  C   UNL     1       0.481  31.765 -26.327  1.00  0.00     0.066 C 
BRANCH  12  13
ATOM     13  C   UNL     1       1.943  31.401 -26.096  1.00  0.00     0.140 C 
ATOM     14  O   UNL     1       2.589  30.940 -27.028  1.00  0.00    -0.299 OA
BRANCH  13  15
ATOM     15  C   UNL     1       2.600  31.519 -24.737  1.00  0.00     0.106 CG0
ATOM     16  G   UNL     1       2.910  30.148 -24.162  1.00  0.00     0.000 G0
ENDBRANCH  13  15
ENDBRANCH  12  13
BRANCH  12  17
ATOM     17  C   UNL     1       0.348  32.885 -27.412  1.00  0.00    -0.006 C 
ATOM     18  C   UNL     1      -0.340  32.372 -28.694  1.00  0.00     0.008 C 
ATOM     19  C   UNL     1      -0.456  34.094 -26.888  1.00  0.00     0.008 C 
ENDBRANCH  12  17
ENDBRANCH  11  12
ENDBRANCH   1  11
TORSDOF 1
ENDMDL
MODEL 8
REMARK VINA RESULT:    -3.396     14.773     16.231
REMARK INTER + INTRA:          -4.971
REMARK INTER:                  -4.785
REMARK INTRA:                  -0.186
REMARK UNBOUND:                 0.211
REMARK SMILES CC1=CCC[C@H](C)C(=O)C[C@@H](C(C)C)C(=O)C1
REMARK SMILES IDX 8 1 9 2 6 3 7 4 5 5 4 6 3 7 2 8 1 9 10 11 11 12 15 13 16 14
REMARK SMILES IDX 17 15 12 17 13 18 14 19
REMARK H PARENT
REMARK Flexibility Score: 70.00
ROOT
ATOM      1  C   UNL     1       9.326  30.235 -13.149  1.00  0.00     0.136 C 
ATOM      2  O   UNL     1       9.580  29.274 -13.861  1.00  0.00    -0.299 OA
ENDROOT
BRANCH   1   3
ATOM      3  C   UNL     1       8.476  30.050 -11.913  1.00  0.00     0.053 C 
ATOM      4  C   UNL     1       7.587  28.806 -12.031  1.00  0.00     0.016 C 
BRANCH   3   5
ATOM      5  C   UNL     1       9.397  29.974 -10.671  1.00  0.00     0.015 C 
BRANCH   5   6
ATOM      6  C   UNL     1       9.193  31.079  -9.615  1.00  0.00     0.028 C 
BRANCH   6   7
ATOM      7  C   UNL     1       8.637  32.401 -10.102  1.00  0.00    -0.028 C 
ATOM      8  C   UNL     1       9.345  33.490 -10.486  1.00  0.00    -0.070 CG0
ATOM      9  C   UNL     1       8.573  34.738 -10.838  1.00  0.00     0.039 C 
ATOM     10  G   UNL     1      10.854  33.511 -10.654  1.00  0.00     0.000 G0
ENDBRANCH   6   7
ENDBRANCH   5   6
ENDBRANCH   3   5
ENDBRANCH   1   3
BRANCH   1  11
ATOM     11  C   UNL     1       9.939  31.577 -13.471  1.00  0.00     0.087 C 
BRANCH  11  12
ATOM     12  C   UNL     1      11.256  31.830 -12.673  1.00  0.00     0.066 C 
BRANCH  12  13
ATOM     13  C   UNL     1      11.235  33.245 -12.106  1.00  0.00     0.140 C 
ATOM     14  O   UNL     1      11.602  34.171 -12.818  1.00  0.00    -0.299 OA
BRANCH  13  15
ATOM     15  C   UNL     1      10.850  33.534 -10.670  1.00  0.00     0.106 CG0
ATOM     16  G   UNL     1       9.343  33.481 -10.490  1.00  0.00     0.000 G0
ENDBRANCH  13  15
ENDBRANCH  12  13
BRANCH  12  17
ATOM     17  C   UNL     1      12.530  31.597 -13.551  1.00  0.00    -0.006 C 
ATOM     18  C   UNL     1      13.103  30.176 -13.376  1.00  0.00     0.008 C 
ATOM     19  C   UNL     1      12.237  31.816 -15.050  1.00  0.00     0.008 C 
ENDBRANCH  12  17
ENDBRANCH  11  12
ENDBRANCH   1  11
TORSDOF 1
ENDMDL
MODEL 9
REMARK VINA RESULT:    -3.256     15.533     16.990
REMARK INTER + INTRA:          -4.758
REMARK INTER:                  -5.339
REMARK INTRA:                   0.581
REMARK UNBOUND:                 0.211
REMARK SMILES CC1=CCC[C@H](C)C(=O)C[C@@H](C(C)C)C(=O)C1
REMARK SMILES IDX 8 1 9 2 6 3 7 4 5 5 4 6 3 7 2 8 1 9 10 11 11 12 15 13 16 14
REMARK SMILES IDX 17 15 12 17 13 18 14 19
REMARK H PARENT
REMARK Flexibility Score: 70.00
ROOT
ATOM      1  C   UNL     1      10.045  33.713 -10.805  1.00  0.00     0.136 C 
ATOM      2  O   UNL     1       9.273  34.465 -10.226  1.00  0.00    -0.299 OA
ENDROOT
BRANCH   1   3
ATOM      3  C   UNL     1      10.255  33.855 -12.295  1.00  0.00     0.053 C 
ATOM      4  C   UNL     1       9.420  35.006 -12.867  1.00  0.00     0.016 C 
BRANCH   3   5
ATOM      5  C   UNL     1      11.765  34.053 -12.577  1.00  0.00     0.015 C 
BRANCH   5   6
ATOM      6  C   UNL     1      12.484  32.868 -13.251  1.00  0.00     0.028 C 
BRANCH   6   7
ATOM      7  C   UNL     1      11.647  31.646 -13.567  1.00  0.00    -0.028 C 
ATOM      8  C   UNL     1      11.485  30.547 -12.791  1.00  0.00    -0.070 CG0
ATOM      9  C   UNL     1      10.683  29.402 -13.358  1.00  0.00     0.039 C 
ATOM     10  G   UNL     1      11.995  30.427 -11.366  1.00  0.00     0.000 G0
ENDBRANCH   6   7
ENDBRANCH   5   6
ENDBRANCH   3   5
ENDBRANCH   1   3
BRANCH   1  11
ATOM     11  C   UNL     1      10.839  32.709 -10.004  1.00  0.00     0.087 C 
BRANCH  11  12
ATOM     12  C   UNL     1      10.055  31.378  -9.784  1.00  0.00     0.066 C 
BRANCH  12  13
ATOM     13  C   UNL     1      10.858  30.219 -10.364  1.00  0.00     0.140 C 
ATOM     14  O   UNL     1      10.618  29.084  -9.976  1.00  0.00    -0.299 OA
BRANCH  13  15
ATOM     15  C   UNL     1      11.991  30.434 -11.347  1.00  0.00     0.106 CG0
ATOM     16  G   UNL     1      11.465  30.550 -12.767  1.00  0.00     0.000 G0
ENDBRANCH  13  15
ENDBRANCH  12  13
BRANCH  12  17
ATOM     17  C   UNL     1       8.620  31.431 -10.404  1.00  0.00    -0.006 C 
ATOM     18  C   UNL     1       8.353  30.243 -11.352  1.00  0.00     0.008 C 
ATOM     19  C   UNL     1       7.528  31.428  -9.314  1.00  0.00     0.008 C 
ENDBRANCH  12  17
ENDBRANCH  11  12
ENDBRANCH   1  11
TORSDOF 1
ENDMDL
