MODEL 1
REMARK VINA RESULT:    -2.571      0.000      0.000
REMARK INTER + INTRA:          -2.880
REMARK INTER:                  -2.871
REMARK INTRA:                  -0.008
REMARK UNBOUND:                -0.008
REMARK SMILES CCCC(=O)[O-]
REMARK SMILES IDX 3 1 4 2 5 3 6 4 2 5 1 6
REMARK H PARENT
REMARK Flexibility Score: inf
ROOT
ATOM      1  C   UNL     1      60.329  21.845  20.999  1.00  0.00     0.052 C 
ENDROOT
BRANCH   1   2
ATOM      2  C   UNL     1      59.666  22.625  22.090  1.00  0.00     0.041 C 
ATOM      3  O   UNL     1      58.432  22.493  22.302  1.00  0.00    -0.550 OA
ATOM      4  O   UNL     1      60.400  23.534  22.840  1.00  0.00    -0.550 OA
ENDBRANCH   1   2
BRANCH   1   5
ATOM      5  C   UNL     1      61.510  22.631  20.421  1.00  0.00     0.003 C 
ATOM      6  C   UNL     1      61.827  22.182  18.997  1.00  0.00     0.004 C 
ENDBRANCH   1   5
TORSDOF 2
ENDMDL
MODEL 2
REMARK VINA RESULT:    -2.561      0.079      1.323
REMARK INTER + INTRA:          -2.868
REMARK INTER:                  -2.858
REMARK INTRA:                  -0.010
REMARK UNBOUND:                -0.008
REMARK SMILES CCCC(=O)[O-]
REMARK SMILES IDX 3 1 4 2 5 3 6 4 2 5 1 6
REMARK H PARENT
REMARK Flexibility Score: inf
ROOT
ATOM      1  C   UNL     1      60.315  21.893  21.000  1.00  0.00     0.052 C 
ENDROOT
BRANCH   1   2
ATOM      2  C   UNL     1      59.667  22.674  22.100  1.00  0.00     0.041 C 
ATOM      3  O   UNL     1      60.352  23.461  22.806  1.00  0.00    -0.550 OA
ATOM      4  O   UNL     1      58.319  22.496  22.377  1.00  0.00    -0.550 OA
ENDBRANCH   1   2
BRANCH   1   5
ATOM      5  C   UNL     1      61.537  22.642  20.460  1.00  0.00     0.003 C 
ATOM      6  C   UNL     1      61.855  22.217  19.029  1.00  0.00     0.004 C 
ENDBRANCH   1   5
TORSDOF 2
ENDMDL
MODEL 3
REMARK VINA RESULT:    -2.522      3.865      5.317
REMARK INTER + INTRA:          -2.825
REMARK INTER:                  -2.812
REMARK INTRA:                  -0.013
REMARK UNBOUND:                -0.008
REMARK SMILES CCCC(=O)[O-]
REMARK SMILES IDX 3 1 4 2 5 3 6 4 2 5 1 6
REMARK H PARENT
REMARK Flexibility Score: inf
ROOT
ATOM      1  C   UNL     1      56.457  21.496  23.256  1.00  0.00     0.052 C 
ENDROOT
BRANCH   1   2
ATOM      2  C   UNL     1      57.571  22.450  23.552  1.00  0.00     0.041 C 
ATOM      3  O   UNL     1      57.590  23.083  24.640  1.00  0.00    -0.550 OA
ATOM      4  O   UNL     1      58.560  22.679  22.605  1.00  0.00    -0.550 OA
ENDBRANCH   1   2
BRANCH   1   5
ATOM      5  C   UNL     1      55.119  22.239  23.189  1.00  0.00     0.003 C 
ATOM      6  C   UNL     1      53.960  21.322  23.569  1.00  0.00     0.004 C 
ENDBRANCH   1   5
TORSDOF 2
ENDMDL
MODEL 4
REMARK VINA RESULT:    -2.507      2.989      3.856
REMARK INTER + INTRA:          -2.809
REMARK INTER:                  -2.802
REMARK INTRA:                  -0.007
REMARK UNBOUND:                -0.008
REMARK SMILES CCCC(=O)[O-]
REMARK SMILES IDX 3 1 4 2 5 3 6 4 2 5 1 6
REMARK H PARENT
REMARK Flexibility Score: inf
ROOT
ATOM      1  C   UNL     1      61.545  22.697  20.487  1.00  0.00     0.052 C 
ENDROOT
BRANCH   1   2
ATOM      2  C   UNL     1      62.541  21.975  19.636  1.00  0.00     0.041 C 
ATOM      3  O   UNL     1      62.734  22.334  18.445  1.00  0.00    -0.550 OA
ATOM      4  O   UNL     1      63.220  20.875  20.142  1.00  0.00    -0.550 OA
ENDBRANCH   1   2
BRANCH   1   5
ATOM      5  C   UNL     1      60.413  21.754  20.905  1.00  0.00     0.003 C 
ATOM      6  C   UNL     1      59.505  22.408  21.943  1.00  0.00     0.004 C 
ENDBRANCH   1   5
TORSDOF 2
ENDMDL
MODEL 5
REMARK VINA RESULT:    -2.390      3.140      4.186
REMARK INTER + INTRA:          -2.678
REMARK INTER:                  -2.656
REMARK INTRA:                  -0.022
REMARK UNBOUND:                -0.008
REMARK SMILES CCCC(=O)[O-]
REMARK SMILES IDX 3 1 4 2 5 3 6 4 2 5 1 6
REMARK H PARENT
REMARK Flexibility Score: inf
ROOT
ATOM      1  C   UNL     1      57.242  20.978  22.998  1.00  0.00     0.052 C 
ENDROOT
BRANCH   1   2
ATOM      2  C   UNL     1      55.929  21.685  23.116  1.00  0.00     0.041 C 
ATOM      3  O   UNL     1      54.918  21.076  23.554  1.00  0.00    -0.550 OA
ATOM      4  O   UNL     1      55.809  23.003  22.695  1.00  0.00    -0.550 OA
ENDBRANCH   1   2
BRANCH   1   5
ATOM      5  C   UNL     1      58.381  21.877  23.486  1.00  0.00     0.003 C 
ATOM      6  C   UNL     1      59.208  22.403  22.316  1.00  0.00     0.004 C 
ENDBRANCH   1   5
TORSDOF 2
ENDMDL
MODEL 6
REMARK VINA RESULT:    -2.345      3.848      4.774
REMARK INTER + INTRA:          -2.627
REMARK INTER:                  -2.586
REMARK INTRA:                  -0.041
REMARK UNBOUND:                -0.008
REMARK SMILES CCCC(=O)[O-]
REMARK SMILES IDX 3 1 4 2 5 3 6 4 2 5 1 6
REMARK H PARENT
REMARK Flexibility Score: inf
ROOT
ATOM      1  C   UNL     1      57.046  21.111  23.144  1.00  0.00     0.052 C 
ENDROOT
BRANCH   1   2
ATOM      2  C   UNL     1      55.802  21.928  22.984  1.00  0.00     0.041 C 
ATOM      3  O   UNL     1      55.845  23.034  22.386  1.00  0.00    -0.550 OA
ATOM      4  O   UNL     1      54.607  21.490  23.539  1.00  0.00    -0.550 OA
ENDBRANCH   1   2
BRANCH   1   5
ATOM      5  C   UNL     1      58.282  22.015  23.164  1.00  0.00     0.003 C 
ATOM      6  C   UNL     1      58.707  22.337  24.593  1.00  0.00     0.004 C 
ENDBRANCH   1   5
TORSDOF 2
ENDMDL
MODEL 7
REMARK VINA RESULT:    -2.324      2.593      4.114
REMARK INTER + INTRA:          -2.605
REMARK INTER:                  -2.578
REMARK INTRA:                  -0.027
REMARK UNBOUND:                -0.008
REMARK SMILES CCCC(=O)[O-]
REMARK SMILES IDX 3 1 4 2 5 3 6 4 2 5 1 6
REMARK H PARENT
REMARK Flexibility Score: inf
ROOT
ATOM      1  C   UNL     1      58.351  21.817  23.531  1.00  0.00     0.052 C 
ENDROOT
BRANCH   1   2
ATOM      2  C   UNL     1      59.327  22.705  22.825  1.00  0.00     0.041 C 
ATOM      3  O   UNL     1      59.811  23.707  23.414  1.00  0.00    -0.550 OA
ATOM      4  O   UNL     1      59.663  22.455  21.501  1.00  0.00    -0.550 OA
ENDBRANCH   1   2
BRANCH   1   5
ATOM      5  C   UNL     1      57.075  22.591  23.876  1.00  0.00     0.003 C 
ATOM      6  C   UNL     1      55.915  22.167  22.981  1.00  0.00     0.004 C 
ENDBRANCH   1   5
TORSDOF 2
ENDMDL
MODEL 8
REMARK VINA RESULT:    -2.311      1.913      2.392
REMARK INTER + INTRA:          -2.589
REMARK INTER:                  -2.571
REMARK INTRA:                  -0.018
REMARK UNBOUND:                -0.008
REMARK SMILES CCCC(=O)[O-]
REMARK SMILES IDX 3 1 4 2 5 3 6 4 2 5 1 6
REMARK H PARENT
REMARK Flexibility Score: inf
ROOT
ATOM      1  C   UNL     1      59.047  22.545  22.329  1.00  0.00     0.052 C 
ENDROOT
BRANCH   1   2
ATOM      2  C   UNL     1      57.796  22.019  22.959  1.00  0.00     0.041 C 
ATOM      3  O   UNL     1      57.324  20.909  22.598  1.00  0.00    -0.550 OA
ATOM      4  O   UNL     1      57.124  22.776  23.908  1.00  0.00    -0.550 OA
ENDBRANCH   1   2
BRANCH   1   5
ATOM      5  C   UNL     1      59.834  21.409  21.671  1.00  0.00     0.003 C 
ATOM      6  C   UNL     1      60.673  21.923  20.504  1.00  0.00     0.004 C 
ENDBRANCH   1   5
TORSDOF 2
ENDMDL
MODEL 9
REMARK VINA RESULT:    -2.277      2.101      3.462
REMARK INTER + INTRA:          -2.552
REMARK INTER:                  -2.543
REMARK INTRA:                  -0.009
REMARK UNBOUND:                -0.008
REMARK SMILES CCCC(=O)[O-]
REMARK SMILES IDX 3 1 4 2 5 3 6 4 2 5 1 6
REMARK H PARENT
REMARK Flexibility Score: inf
ROOT
ATOM      1  C   UNL     1      60.171  21.503  21.258  1.00  0.00     0.052 C 
ENDROOT
BRANCH   1   2
ATOM      2  C   UNL     1      61.198  22.276  20.491  1.00  0.00     0.041 C 
ATOM      3  O   UNL     1      61.857  23.187  21.058  1.00  0.00    -0.550 OA
ATOM      4  O   UNL     1      61.391  22.025  19.140  1.00  0.00    -0.550 OA
ENDBRANCH   1   2
BRANCH   1   5
ATOM      5  C   UNL     1      59.298  22.448  22.087  1.00  0.00     0.003 C 
ATOM      6  C   UNL     1      58.299  21.670  22.939  1.00  0.00     0.004 C 
ENDBRANCH   1   5
TORSDOF 2
ENDMDL
