MODEL 1
REMARK VINA RESULT:    -6.883      0.000      0.000
REMARK INTER + INTRA:          -8.353
REMARK INTER:                  -8.090
REMARK INTRA:                  -0.263
REMARK UNBOUND:                -0.263
REMARK SMILES O=c1cc(-c2ccc(O)c(O)c2)oc2cc(O)cc(O)c12
REMARK SMILES IDX 4 1 3 2 2 3 1 4 21 5 19 6 18 7 16 8 15 9 14 10 13 11 5 12
REMARK SMILES IDX 6 13 7 14 8 15 12 16 10 17 9 18 11 20 20 22 17 24
REMARK H PARENT 9 19 11 21 20 23 17 25
REMARK Flexibility Score: inf
ROOT
ATOM      1  C   UNL     1       6.504  11.080  46.681  1.00  0.00     0.138 A 
ATOM      2  C   UNL     1       7.243  12.165  46.187  1.00  0.00     0.100 A 
ATOM      3  C   UNL     1       8.499  11.944  45.622  1.00  0.00     0.197 A 
ATOM      4  O   UNL     1       9.165  12.943  45.245  1.00  0.00    -0.289 OA
ATOM      5  C   UNL     1       9.005  10.625  45.525  1.00  0.00     0.107 A 
ATOM      6  C   UNL     1      10.256  10.277  44.933  1.00  0.00     0.134 A 
ATOM      7  C   UNL     1      10.704   8.952  44.998  1.00  0.00     0.093 A 
ATOM      8  C   UNL     1       9.923   7.953  45.579  1.00  0.00     0.123 A 
ATOM      9  C   UNL     1       8.675   8.274  46.114  1.00  0.00     0.094 A 
ATOM     10  C   UNL     1       8.213   9.593  46.095  1.00  0.00     0.146 A 
ATOM     11  O   UNL     1       7.025   9.858  46.627  1.00  0.00    -0.456 OA
ENDROOT
BRANCH   1  12
ATOM     12  C   UNL     1       5.162  11.258  47.289  1.00  0.00     0.021 A 
ATOM     13  C   UNL     1       4.034  10.720  46.645  1.00  0.00     0.016 A 
ATOM     14  C   UNL     1       2.759  10.880  47.194  1.00  0.00     0.051 A 
ATOM     15  C   UNL     1       2.585  11.586  48.387  1.00  0.00     0.157 A 
ATOM     16  C   UNL     1       4.980  11.981  48.485  1.00  0.00     0.062 A 
ATOM     17  C   UNL     1       3.700  12.143  49.034  1.00  0.00     0.158 A 
BRANCH  15  18
ATOM     18  O   UNL     1       1.301  11.727  48.909  1.00  0.00    -0.504 OA
ATOM     19  H   UNL     1       1.104  12.331  49.698  1.00  0.00     0.293 HD
ENDBRANCH  15  18
BRANCH  17  20
ATOM     20  O   UNL     1       3.531  12.859  50.219  1.00  0.00    -0.504 OA
ATOM     21  H   UNL     1       3.140  13.793  50.224  1.00  0.00     0.293 HD
ENDBRANCH  17  20
ENDBRANCH   1  12
BRANCH   6  22
ATOM     22  O   UNL     1      11.077  11.180  44.252  1.00  0.00    -0.507 OA
ATOM     23  H   UNL     1      11.021  11.378  43.265  1.00  0.00     0.293 HD
ENDBRANCH   6  22
BRANCH   8  24
ATOM     24  O   UNL     1      10.395   6.644  45.613  1.00  0.00    -0.508 OA
ATOM     25  H   UNL     1       9.828   5.885  45.973  1.00  0.00     0.293 HD
ENDBRANCH   8  24
TORSDOF 5
ENDMDL
MODEL 2
REMARK VINA RESULT:    -6.818      1.326      7.154
REMARK INTER + INTRA:          -8.276
REMARK INTER:                  -8.013
REMARK INTRA:                  -0.264
REMARK UNBOUND:                -0.263
REMARK SMILES O=c1cc(-c2ccc(O)c(O)c2)oc2cc(O)cc(O)c12
REMARK SMILES IDX 4 1 3 2 2 3 1 4 21 5 19 6 18 7 16 8 15 9 14 10 13 11 5 12
REMARK SMILES IDX 6 13 7 14 8 15 12 16 10 17 9 18 11 20 20 22 17 24
REMARK H PARENT 9 19 11 21 20 23 17 25
REMARK Flexibility Score: inf
ROOT
ATOM      1  C   UNL     1       6.001  10.921  47.131  1.00  0.00     0.138 A 
ATOM      2  C   UNL     1       6.023  11.791  48.231  1.00  0.00     0.100 A 
ATOM      3  C   UNL     1       4.828  12.139  48.860  1.00  0.00     0.197 A 
ATOM      4  O   UNL     1       4.873  12.970  49.804  1.00  0.00    -0.289 OA
ATOM      5  C   UNL     1       3.606  11.587  48.404  1.00  0.00     0.107 A 
ATOM      6  C   UNL     1       2.331  11.840  48.993  1.00  0.00     0.134 A 
ATOM      7  C   UNL     1       1.178  11.331  48.383  1.00  0.00     0.093 A 
ATOM      8  C   UNL     1       1.256  10.532  47.243  1.00  0.00     0.123 A 
ATOM      9  C   UNL     1       2.502  10.235  46.690  1.00  0.00     0.094 A 
ATOM     10  C   UNL     1       3.670  10.756  47.254  1.00  0.00     0.146 A 
ATOM     11  O   UNL     1       4.835  10.461  46.688  1.00  0.00    -0.456 OA
ENDROOT
BRANCH   1  12
ATOM     12  C   UNL     1       7.244  10.517  46.427  1.00  0.00     0.021 A 
ATOM     13  C   UNL     1       7.745   9.215  46.601  1.00  0.00     0.016 A 
ATOM     14  C   UNL     1       8.915   8.812  45.954  1.00  0.00     0.051 A 
ATOM     15  C   UNL     1       9.612   9.702  45.132  1.00  0.00     0.157 A 
ATOM     16  C   UNL     1       7.956  11.414  45.607  1.00  0.00     0.062 A 
ATOM     17  C   UNL     1       9.133  11.010  44.960  1.00  0.00     0.158 A 
BRANCH  15  18
ATOM     18  O   UNL     1      10.777   9.270  44.500  1.00  0.00    -0.504 OA
ATOM     19  H   UNL     1      11.269   9.846  43.828  1.00  0.00     0.293 HD
ENDBRANCH  15  18
BRANCH  17  20
ATOM     20  O   UNL     1       9.829  11.906  44.150  1.00  0.00    -0.504 OA
ATOM     21  H   UNL     1      10.173  11.638  43.235  1.00  0.00     0.293 HD
ENDBRANCH  17  20
ENDBRANCH   1  12
BRANCH   6  22
ATOM     22  O   UNL     1       2.146  12.555  50.179  1.00  0.00    -0.507 OA
ATOM     23  H   UNL     1       2.730  13.316  50.490  1.00  0.00     0.293 HD
ENDBRANCH   6  22
BRANCH   8  24
ATOM     24  O   UNL     1       0.088  10.032  46.673  1.00  0.00    -0.508 OA
ATOM     25  H   UNL     1      -0.530  10.621  46.128  1.00  0.00     0.293 HD
ENDBRANCH   8  24
TORSDOF 5
ENDMDL
MODEL 3
REMARK VINA RESULT:    -6.805      8.176     11.191
REMARK INTER + INTRA:          -8.261
REMARK INTER:                  -7.996
REMARK INTRA:                  -0.265
REMARK UNBOUND:                -0.263
REMARK SMILES O=c1cc(-c2ccc(O)c(O)c2)oc2cc(O)cc(O)c12
REMARK SMILES IDX 4 1 3 2 2 3 1 4 21 5 19 6 18 7 16 8 15 9 14 10 13 11 5 12
REMARK SMILES IDX 6 13 7 14 8 15 12 16 10 17 9 18 11 20 20 22 17 24
REMARK H PARENT 9 19 11 21 20 23 17 25
REMARK Flexibility Score: inf
ROOT
ATOM      1  C   UNL     1      10.932   4.095  51.583  1.00  0.00     0.138 A 
ATOM      2  C   UNL     1      12.139   3.815  52.240  1.00  0.00     0.100 A 
ATOM      3  C   UNL     1      12.116   3.220  53.501  1.00  0.00     0.197 A 
ATOM      4  O   UNL     1      13.212   3.039  54.093  1.00  0.00    -0.289 OA
ATOM      5  C   UNL     1      10.877   2.876  54.094  1.00  0.00     0.107 A 
ATOM      6  C   UNL     1      10.734   2.229  55.358  1.00  0.00     0.134 A 
ATOM      7  C   UNL     1       9.455   2.043  55.897  1.00  0.00     0.093 A 
ATOM      8  C   UNL     1       8.313   2.425  55.193  1.00  0.00     0.123 A 
ATOM      9  C   UNL     1       8.440   3.009  53.932  1.00  0.00     0.094 A 
ATOM     10  C   UNL     1       9.704   3.240  53.382  1.00  0.00     0.146 A 
ATOM     11  O   UNL     1       9.781   3.812  52.185  1.00  0.00    -0.456 OA
ENDROOT
BRANCH   1  12
ATOM     12  C   UNL     1      10.899   4.725  50.239  1.00  0.00     0.021 A 
ATOM     13  C   UNL     1      10.331   6.002  50.089  1.00  0.00     0.016 A 
ATOM     14  C   UNL     1      10.281   6.614  48.834  1.00  0.00     0.051 A 
ATOM     15  C   UNL     1      10.786   5.960  47.707  1.00  0.00     0.157 A 
ATOM     16  C   UNL     1      11.394   4.064  49.098  1.00  0.00     0.062 A 
ATOM     17  C   UNL     1      11.342   4.677  47.838  1.00  0.00     0.158 A 
BRANCH  15  18
ATOM     18  O   UNL     1      10.723   6.597  46.468  1.00  0.00    -0.504 OA
ATOM     19  H   UNL     1       9.866   6.645  45.931  1.00  0.00     0.293 HD
ENDBRANCH  15  18
BRANCH  17  20
ATOM     20  O   UNL     1      11.838   4.015  46.716  1.00  0.00    -0.504 OA
ATOM     21  H   UNL     1      12.777   4.180  46.373  1.00  0.00     0.293 HD
ENDBRANCH  17  20
ENDBRANCH   1  12
BRANCH   6  22
ATOM     22  O   UNL     1      11.804   1.732  56.108  1.00  0.00    -0.507 OA
ATOM     23  H   UNL     1      12.672   2.221  56.269  1.00  0.00     0.293 HD
ENDBRANCH   6  22
BRANCH   8  24
ATOM     24  O   UNL     1       7.056   2.210  55.753  1.00  0.00    -0.508 OA
ATOM     25  H   UNL     1       6.309   2.886  55.652  1.00  0.00     0.293 HD
ENDBRANCH   8  24
TORSDOF 5
ENDMDL
MODEL 4
REMARK VINA RESULT:    -6.416      1.802      6.851
REMARK INTER + INTRA:          -7.804
REMARK INTER:                  -7.512
REMARK INTRA:                  -0.292
REMARK UNBOUND:                -0.263
REMARK SMILES O=c1cc(-c2ccc(O)c(O)c2)oc2cc(O)cc(O)c12
REMARK SMILES IDX 4 1 3 2 2 3 1 4 21 5 19 6 18 7 16 8 15 9 14 10 13 11 5 12
REMARK SMILES IDX 6 13 7 14 8 15 12 16 10 17 9 18 11 20 20 22 17 24
REMARK H PARENT 9 19 11 21 20 23 17 25
REMARK Flexibility Score: inf
ROOT
ATOM      1  C   UNL     1       7.166  10.032  46.752  1.00  0.00     0.138 A 
ATOM      2  C   UNL     1       7.084  10.904  45.657  1.00  0.00     0.100 A 
ATOM      3  C   UNL     1       6.114  11.906  45.643  1.00  0.00     0.197 A 
ATOM      4  O   UNL     1       6.024  12.633  44.620  1.00  0.00    -0.289 OA
ATOM      5  C   UNL     1       5.240  12.054  46.747  1.00  0.00     0.107 A 
ATOM      6  C   UNL     1       4.238  13.065  46.860  1.00  0.00     0.134 A 
ATOM      7  C   UNL     1       3.355  13.042  47.946  1.00  0.00     0.093 A 
ATOM      8  C   UNL     1       3.473  12.083  48.953  1.00  0.00     0.123 A 
ATOM      9  C   UNL     1       4.483  11.123  48.879  1.00  0.00     0.094 A 
ATOM     10  C   UNL     1       5.359  11.098  47.791  1.00  0.00     0.146 A 
ATOM     11  O   UNL     1       6.297  10.158  47.751  1.00  0.00    -0.456 OA
ENDROOT
BRANCH   1  12
ATOM     12  C   UNL     1       8.180   8.950  46.820  1.00  0.00     0.021 A 
ATOM     13  C   UNL     1       8.531   8.409  48.068  1.00  0.00     0.016 A 
ATOM     14  C   UNL     1       9.488   7.395  48.159  1.00  0.00     0.051 A 
ATOM     15  C   UNL     1      10.118   6.911  47.009  1.00  0.00     0.157 A 
ATOM     16  C   UNL     1       8.827   8.469  45.665  1.00  0.00     0.062 A 
ATOM     17  C   UNL     1       9.789   7.452  45.756  1.00  0.00     0.158 A 
BRANCH  15  18
ATOM     18  O   UNL     1      11.067   5.898  47.132  1.00  0.00    -0.504 OA
ATOM     19  H   UNL     1      11.976   5.956  46.689  1.00  0.00     0.293 HD
ENDBRANCH  15  18
BRANCH  17  20
ATOM     20  O   UNL     1      10.422   6.982  44.606  1.00  0.00    -0.504 OA
ATOM     21  H   UNL     1      11.299   7.373  44.285  1.00  0.00     0.293 HD
ENDBRANCH  17  20
ENDBRANCH   1  12
BRANCH   6  22
ATOM     22  O   UNL     1       4.086  14.119  45.955  1.00  0.00    -0.507 OA
ATOM     23  H   UNL     1       4.219  15.094  46.178  1.00  0.00     0.293 HD
ENDBRANCH   6  22
BRANCH   8  24
ATOM     24  O   UNL     1       2.586  12.100  50.026  1.00  0.00    -0.508 OA
ATOM     25  H   UNL     1       2.131  11.255  50.351  1.00  0.00     0.293 HD
ENDBRANCH   8  24
TORSDOF 5
ENDMDL
MODEL 5
REMARK VINA RESULT:    -6.402      7.125      9.557
REMARK INTER + INTRA:          -7.788
REMARK INTER:                  -7.524
REMARK INTRA:                  -0.264
REMARK UNBOUND:                -0.263
REMARK SMILES O=c1cc(-c2ccc(O)c(O)c2)oc2cc(O)cc(O)c12
REMARK SMILES IDX 4 1 3 2 2 3 1 4 21 5 19 6 18 7 16 8 15 9 14 10 13 11 5 12
REMARK SMILES IDX 6 13 7 14 8 15 12 16 10 17 9 18 11 20 20 22 17 24
REMARK H PARENT 9 19 11 21 20 23 17 25
REMARK Flexibility Score: inf
ROOT
ATOM      1  C   UNL     1       9.736   5.195  50.885  1.00  0.00     0.138 A 
ATOM      2  C   UNL     1      11.033   4.697  51.072  1.00  0.00     0.100 A 
ATOM      3  C   UNL     1      11.280   3.782  52.097  1.00  0.00     0.197 A 
ATOM      4  O   UNL     1      12.465   3.400  52.280  1.00  0.00    -0.289 OA
ATOM      5  C   UNL     1      10.214   3.342  52.918  1.00  0.00     0.107 A 
ATOM      6  C   UNL     1      10.341   2.383  53.967  1.00  0.00     0.134 A 
ATOM      7  C   UNL     1       9.241   2.112  54.790  1.00  0.00     0.093 A 
ATOM      8  C   UNL     1       8.005   2.719  54.566  1.00  0.00     0.123 A 
ATOM      9  C   UNL     1       7.857   3.618  53.509  1.00  0.00     0.094 A 
ATOM     10  C   UNL     1       8.944   3.936  52.691  1.00  0.00     0.146 A 
ATOM     11  O   UNL     1       8.765   4.808  51.705  1.00  0.00    -0.456 OA
ENDROOT
BRANCH   1  12
ATOM     12  C   UNL     1       9.418   6.168  49.810  1.00  0.00     0.021 A 
ATOM     13  C   UNL     1       9.566   7.544  50.056  1.00  0.00     0.016 A 
ATOM     14  C   UNL     1       9.266   8.480  49.064  1.00  0.00     0.051 A 
ATOM     15  C   UNL     1       8.805   8.062  47.812  1.00  0.00     0.157 A 
ATOM     16  C   UNL     1       8.941   5.752  48.551  1.00  0.00     0.062 A 
ATOM     17  C   UNL     1       8.638   6.692  47.555  1.00  0.00     0.158 A 
BRANCH  15  18
ATOM     18  O   UNL     1       8.516   9.019  46.842  1.00  0.00    -0.504 OA
ATOM     19  H   UNL     1       8.120   9.921  47.077  1.00  0.00     0.293 HD
ENDBRANCH  15  18
BRANCH  17  20
ATOM     20  O   UNL     1       8.168   6.268  46.313  1.00  0.00    -0.504 OA
ATOM     21  H   UNL     1       7.222   6.466  46.007  1.00  0.00     0.293 HD
ENDBRANCH  17  20
ENDBRANCH   1  12
BRANCH   6  22
ATOM     22  O   UNL     1      11.506   1.656  54.226  1.00  0.00    -0.507 OA
ATOM     23  H   UNL     1      12.149   1.847  54.980  1.00  0.00     0.293 HD
ENDBRANCH   6  22
BRANCH   8  24
ATOM     24  O   UNL     1       6.929   2.414  55.396  1.00  0.00    -0.508 OA
ATOM     25  H   UNL     1       6.086   1.982  55.034  1.00  0.00     0.293 HD
ENDBRANCH   8  24
TORSDOF 5
ENDMDL
MODEL 6
REMARK VINA RESULT:    -6.347      2.098      2.972
REMARK INTER + INTRA:          -7.723
REMARK INTER:                  -7.428
REMARK INTRA:                  -0.296
REMARK UNBOUND:                -0.263
REMARK SMILES O=c1cc(-c2ccc(O)c(O)c2)oc2cc(O)cc(O)c12
REMARK SMILES IDX 4 1 3 2 2 3 1 4 21 5 19 6 18 7 16 8 15 9 14 10 13 11 5 12
REMARK SMILES IDX 6 13 7 14 8 15 12 16 10 17 9 18 11 20 20 22 17 24
REMARK H PARENT 9 19 11 21 20 23 17 25
REMARK Flexibility Score: inf
ROOT
ATOM      1  C   UNL     1       7.001  10.293  48.256  1.00  0.00     0.138 A 
ATOM      2  C   UNL     1       7.638   9.965  49.461  1.00  0.00     0.100 A 
ATOM      3  C   UNL     1       8.726   9.091  49.451  1.00  0.00     0.197 A 
ATOM      4  O   UNL     1       9.238   8.766  50.553  1.00  0.00    -0.289 OA
ATOM      5  C   UNL     1       9.195   8.567  48.222  1.00  0.00     0.107 A 
ATOM      6  C   UNL     1      10.319   7.699  48.087  1.00  0.00     0.134 A 
ATOM      7  C   UNL     1      10.620   7.150  46.834  1.00  0.00     0.093 A 
ATOM      8  C   UNL     1       9.876   7.484  45.702  1.00  0.00     0.123 A 
ATOM      9  C   UNL     1       8.807   8.374  45.814  1.00  0.00     0.094 A 
ATOM     10  C   UNL     1       8.460   8.912  47.057  1.00  0.00     0.146 A 
ATOM     11  O   UNL     1       7.427   9.744  47.123  1.00  0.00    -0.456 OA
ENDROOT
BRANCH   1  12
ATOM     12  C   UNL     1       5.841  11.219  48.210  1.00  0.00     0.021 A 
ATOM     13  C   UNL     1       5.366  11.670  46.966  1.00  0.00     0.016 A 
ATOM     14  C   UNL     1       4.281  12.547  46.896  1.00  0.00     0.051 A 
ATOM     15  C   UNL     1       3.658  12.998  48.063  1.00  0.00     0.157 A 
ATOM     16  C   UNL     1       5.219  11.687  49.384  1.00  0.00     0.062 A 
ATOM     17  C   UNL     1       4.131  12.570  49.314  1.00  0.00     0.158 A 
BRANCH  15  18
ATOM     18  O   UNL     1       2.577  13.872  47.960  1.00  0.00    -0.504 OA
ATOM     19  H   UNL     1       2.145  14.090  47.071  1.00  0.00     0.293 HD
ENDBRANCH  15  18
BRANCH  17  20
ATOM     20  O   UNL     1       3.522  13.025  50.482  1.00  0.00    -0.504 OA
ATOM     21  H   UNL     1       2.840  13.774  50.468  1.00  0.00     0.293 HD
ENDBRANCH  17  20
ENDBRANCH   1  12
BRANCH   6  22
ATOM     22  O   UNL     1      11.181   7.366  49.135  1.00  0.00    -0.507 OA
ATOM     23  H   UNL     1      11.894   7.974  49.510  1.00  0.00     0.293 HD
ENDBRANCH   6  22
BRANCH   8  24
ATOM     24  O   UNL     1      10.213   6.931  44.470  1.00  0.00    -0.508 OA
ATOM     25  H   UNL     1       9.728   6.120  44.102  1.00  0.00     0.293 HD
ENDBRANCH   8  24
TORSDOF 5
ENDMDL
MODEL 7
REMARK VINA RESULT:    -6.282      7.747     10.664
REMARK INTER + INTRA:          -7.647
REMARK INTER:                  -7.380
REMARK INTRA:                  -0.267
REMARK UNBOUND:                -0.263
REMARK SMILES O=c1cc(-c2ccc(O)c(O)c2)oc2cc(O)cc(O)c12
REMARK SMILES IDX 4 1 3 2 2 3 1 4 21 5 19 6 18 7 16 8 15 9 14 10 13 11 5 12
REMARK SMILES IDX 6 13 7 14 8 15 12 16 10 17 9 18 11 20 20 22 17 24
REMARK H PARENT 9 19 11 21 20 23 17 25
REMARK Flexibility Score: inf
ROOT
ATOM      1  C   UNL     1       9.709   4.710  51.340  1.00  0.00     0.138 A 
ATOM      2  C   UNL     1       8.329   4.709  51.584  1.00  0.00     0.100 A 
ATOM      3  C   UNL     1       7.829   4.071  52.720  1.00  0.00     0.197 A 
ATOM      4  O   UNL     1       6.582   4.033  52.879  1.00  0.00    -0.289 OA
ATOM      5  C   UNL     1       8.722   3.458  53.631  1.00  0.00     0.107 A 
ATOM      6  C   UNL     1       8.329   2.812  54.842  1.00  0.00     0.134 A 
ATOM      7  C   UNL     1       9.289   2.139  55.607  1.00  0.00     0.093 A 
ATOM      8  C   UNL     1      10.634   2.137  55.239  1.00  0.00     0.123 A 
ATOM      9  C   UNL     1      11.037   2.810  54.084  1.00  0.00     0.094 A 
ATOM     10  C   UNL     1      10.098   3.463  53.281  1.00  0.00     0.146 A 
ATOM     11  O   UNL     1      10.521   4.079  52.183  1.00  0.00    -0.456 OA
ENDROOT
BRANCH   1  12
ATOM     12  C   UNL     1      10.294   5.375  50.148  1.00  0.00     0.021 A 
ATOM     13  C   UNL     1      10.462   6.771  50.148  1.00  0.00     0.016 A 
ATOM     14  C   UNL     1      11.003   7.421  49.037  1.00  0.00     0.051 A 
ATOM     15  C   UNL     1      11.376   6.694  47.903  1.00  0.00     0.157 A 
ATOM     16  C   UNL     1      10.659   4.648  48.998  1.00  0.00     0.062 A 
ATOM     17  C   UNL     1      11.200   5.302  47.881  1.00  0.00     0.158 A 
BRANCH  15  18
ATOM     18  O   UNL     1      11.915   7.372  46.811  1.00  0.00    -0.504 OA
ATOM     19  H   UNL     1      11.977   8.382  46.782  1.00  0.00     0.293 HD
ENDBRANCH  15  18
BRANCH  17  20
ATOM     20  O   UNL     1      11.560   4.571  46.749  1.00  0.00    -0.504 OA
ATOM     21  H   UNL     1      11.864   5.028  45.897  1.00  0.00     0.293 HD
ENDBRANCH  17  20
ENDBRANCH   1  12
BRANCH   6  22
ATOM     22  O   UNL     1       7.026   2.825  55.348  1.00  0.00    -0.507 OA
ATOM     23  H   UNL     1       6.515   2.007  55.645  1.00  0.00     0.293 HD
ENDBRANCH   6  22
BRANCH   8  24
ATOM     24  O   UNL     1      11.563   1.468  56.032  1.00  0.00    -0.508 OA
ATOM     25  H   UNL     1      11.776   1.777  56.973  1.00  0.00     0.293 HD
ENDBRANCH   8  24
TORSDOF 5
ENDMDL
MODEL 8
REMARK VINA RESULT:    -6.278      1.191      2.724
REMARK INTER + INTRA:          -7.642
REMARK INTER:                  -7.376
REMARK INTRA:                  -0.267
REMARK UNBOUND:                -0.263
REMARK SMILES O=c1cc(-c2ccc(O)c(O)c2)oc2cc(O)cc(O)c12
REMARK SMILES IDX 4 1 3 2 2 3 1 4 21 5 19 6 18 7 16 8 15 9 14 10 13 11 5 12
REMARK SMILES IDX 6 13 7 14 8 15 12 16 10 17 9 18 11 20 20 22 17 24
REMARK H PARENT 9 19 11 21 20 23 17 25
REMARK Flexibility Score: inf
ROOT
ATOM      1  C   UNL     1       7.105  10.415  46.714  1.00  0.00     0.138 A 
ATOM      2  C   UNL     1       7.508   9.073  46.769  1.00  0.00     0.100 A 
ATOM      3  C   UNL     1       8.751   8.703  46.255  1.00  0.00     0.197 A 
ATOM      4  O   UNL     1       9.058   7.483  46.261  1.00  0.00    -0.289 OA
ATOM      5  C   UNL     1       9.608   9.690  45.711  1.00  0.00     0.107 A 
ATOM      6  C   UNL     1      10.914   9.436  45.194  1.00  0.00     0.134 A 
ATOM      7  C   UNL     1      11.624  10.471  44.574  1.00  0.00     0.093 A 
ATOM      8  C   UNL     1      11.103  11.764  44.505  1.00  0.00     0.123 A 
ATOM      9  C   UNL     1       9.850  12.035  45.055  1.00  0.00     0.094 A 
ATOM     10  C   UNL     1       9.101  11.016  45.650  1.00  0.00     0.146 A 
ATOM     11  O   UNL     1       7.906  11.312  46.148  1.00  0.00    -0.456 OA
ENDROOT
BRANCH   1  12
ATOM     12  C   UNL     1       5.795  10.862  47.249  1.00  0.00     0.021 A 
ATOM     13  C   UNL     1       4.635  10.682  46.475  1.00  0.00     0.016 A 
ATOM     14  C   UNL     1       3.391  11.101  46.952  1.00  0.00     0.051 A 
ATOM     15  C   UNL     1       3.282  11.716  48.202  1.00  0.00     0.157 A 
ATOM     16  C   UNL     1       5.682  11.494  48.503  1.00  0.00     0.062 A 
ATOM     17  C   UNL     1       4.433  11.917  48.981  1.00  0.00     0.158 A 
BRANCH  15  18
ATOM     18  O   UNL     1       2.026  12.121  48.651  1.00  0.00    -0.504 OA
ATOM     19  H   UNL     1       1.345  11.463  49.009  1.00  0.00     0.293 HD
ENDBRANCH  15  18
BRANCH  17  20
ATOM     20  O   UNL     1       4.333  12.539  50.225  1.00  0.00    -0.504 OA
ATOM     21  H   UNL     1       5.152  12.873  50.718  1.00  0.00     0.293 HD
ENDBRANCH  17  20
ENDBRANCH   1  12
BRANCH   6  22
ATOM     22  O   UNL     1      11.564   8.202  45.285  1.00  0.00    -0.507 OA
ATOM     23  H   UNL     1      12.563   8.072  45.231  1.00  0.00     0.293 HD
ENDBRANCH   6  22
BRANCH   8  24
ATOM     24  O   UNL     1      11.844  12.772  43.894  1.00  0.00    -0.508 OA
ATOM     25  H   UNL     1      11.880  12.867  42.886  1.00  0.00     0.293 HD
ENDBRANCH   8  24
TORSDOF 5
ENDMDL
MODEL 9
REMARK VINA RESULT:    -6.175      9.842     12.799
REMARK INTER + INTRA:          -7.521
REMARK INTER:                  -7.225
REMARK INTRA:                  -0.297
REMARK UNBOUND:                -0.263
REMARK SMILES O=c1cc(-c2ccc(O)c(O)c2)oc2cc(O)cc(O)c12
REMARK SMILES IDX 4 1 3 2 2 3 1 4 21 5 19 6 18 7 16 8 15 9 14 10 13 11 5 12
REMARK SMILES IDX 6 13 7 14 8 15 12 16 10 17 9 18 11 20 20 22 17 24
REMARK H PARENT 9 19 11 21 20 23 17 25
REMARK Flexibility Score: inf
ROOT
ATOM      1  C   UNL     1      11.048   3.603  54.379  1.00  0.00     0.138 A 
ATOM      2  C   UNL     1      10.560   2.290  54.453  1.00  0.00     0.100 A 
ATOM      3  C   UNL     1       9.210   2.041  54.207  1.00  0.00     0.197 A 
ATOM      4  O   UNL     1       8.789   0.862  54.341  1.00  0.00    -0.289 OA
ATOM      5  C   UNL     1       8.350   3.109  53.855  1.00  0.00     0.107 A 
ATOM      6  C   UNL     1       6.964   2.967  53.544  1.00  0.00     0.134 A 
ATOM      7  C   UNL     1       6.186   4.110  53.324  1.00  0.00     0.093 A 
ATOM      8  C   UNL     1       6.754   5.385  53.344  1.00  0.00     0.123 A 
ATOM      9  C   UNL     1       8.119   5.530  53.595  1.00  0.00     0.094 A 
ATOM     10  C   UNL     1       8.916   4.412  53.852  1.00  0.00     0.146 A 
ATOM     11  O   UNL     1      10.208   4.595  54.101  1.00  0.00    -0.456 OA
ENDROOT
BRANCH   1  12
ATOM     12  C   UNL     1      12.475   3.924  54.629  1.00  0.00     0.021 A 
ATOM     13  C   UNL     1      13.155   3.281  55.677  1.00  0.00     0.016 A 
ATOM     14  C   UNL     1      14.496   3.570  55.938  1.00  0.00     0.051 A 
ATOM     15  C   UNL     1      15.180   4.513  55.165  1.00  0.00     0.157 A 
ATOM     16  C   UNL     1      13.165   4.883  53.861  1.00  0.00     0.062 A 
ATOM     17  C   UNL     1      14.511   5.176  54.124  1.00  0.00     0.158 A 
BRANCH  15  18
ATOM     18  O   UNL     1      16.518   4.780  55.449  1.00  0.00    -0.504 OA
ATOM     19  H   UNL     1      17.222   4.833  54.722  1.00  0.00     0.293 HD
ENDBRANCH  15  18
BRANCH  17  20
ATOM     20  O   UNL     1      15.184   6.126  53.357  1.00  0.00    -0.504 OA
ATOM     21  H   UNL     1      15.941   5.867  52.736  1.00  0.00     0.293 HD
ENDBRANCH  17  20
ENDBRANCH   1  12
BRANCH   6  22
ATOM     22  O   UNL     1       6.314   1.737  53.414  1.00  0.00    -0.507 OA
ATOM     23  H   UNL     1       6.172   1.078  54.165  1.00  0.00     0.293 HD
ENDBRANCH   6  22
BRANCH   8  24
ATOM     24  O   UNL     1       5.952   6.498  53.106  1.00  0.00    -0.508 OA
ATOM     25  H   UNL     1       4.945   6.456  53.205  1.00  0.00     0.293 HD
ENDBRANCH   8  24
TORSDOF 5
ENDMDL
