MODEL 1
REMARK VINA RESULT:    -5.190      0.000      0.000
REMARK INTER + INTRA:          -6.277
REMARK INTER:                  -5.948
REMARK INTRA:                  -0.329
REMARK UNBOUND:                -0.329
REMARK SMILES COc1ccc(C(C)=O)c(O)c1
REMARK SMILES IDX 6 1 10 2 12 3 3 4 4 5 5 6 7 7 8 8 9 9 11 10 2 12 1 13
REMARK H PARENT 11 11
REMARK Flexibility Score: inf
ROOT
ATOM      1  C   UNL     1       3.507  10.884   8.970  1.00  0.00     0.059 A 
ATOM      2  C   UNL     1       3.842   9.754   8.182  1.00  0.00     0.130 A 
ATOM      3  C   UNL     1       5.001   9.773   7.397  1.00  0.00     0.093 A 
ATOM      4  C   UNL     1       5.823  10.901   7.350  1.00  0.00     0.122 A 
ATOM      5  C   UNL     1       5.476  12.032   8.108  1.00  0.00     0.047 A 
ATOM      6  C   UNL     1       4.332  12.021   8.908  1.00  0.00     0.019 A 
ENDROOT
BRANCH   1   7
ATOM      7  C   UNL     1       2.340  10.887   9.882  1.00  0.00     0.163 C 
ATOM      8  C   UNL     1       1.362  12.021   9.882  1.00  0.00     0.093 C 
ATOM      9  O   UNL     1       2.204   9.967  10.732  1.00  0.00    -0.294 OA
ENDBRANCH   1   7
BRANCH   2  10
ATOM     10  O   UNL     1       3.035   8.614   8.129  1.00  0.00    -0.507 OA
ATOM     11  H   UNL     1       2.052   8.617   8.365  1.00  0.00     0.293 HD
ENDBRANCH   2  10
BRANCH   4  12
ATOM     12  O   UNL     1       6.966  10.860   6.539  1.00  0.00    -0.497 OA
ATOM     13  C   UNL     1       6.960  10.524   5.155  1.00  0.00     0.278 C 
ENDBRANCH   4  12
TORSDOF 3
ENDMDL
MODEL 2
REMARK VINA RESULT:    -4.985      1.171      4.996
REMARK INTER + INTRA:          -6.043
REMARK INTER:                  -5.726
REMARK INTRA:                  -0.317
REMARK UNBOUND:                -0.329
REMARK SMILES COc1ccc(C(C)=O)c(O)c1
REMARK SMILES IDX 6 1 10 2 12 3 3 4 4 5 5 6 7 7 8 8 9 9 11 10 2 12 1 13
REMARK H PARENT 11 11
REMARK Flexibility Score: inf
ROOT
ATOM      1  C   UNL     1       5.748  10.916   7.123  1.00  0.00     0.059 A 
ATOM      2  C   UNL     1       5.910  11.378   8.452  1.00  0.00     0.130 A 
ATOM      3  C   UNL     1       4.838  11.305   9.349  1.00  0.00     0.093 A 
ATOM      4  C   UNL     1       3.594  10.811   8.949  1.00  0.00     0.122 A 
ATOM      5  C   UNL     1       3.424  10.379   7.623  1.00  0.00     0.047 A 
ATOM      6  C   UNL     1       4.490  10.431   6.723  1.00  0.00     0.019 A 
ENDROOT
BRANCH   1   7
ATOM      7  C   UNL     1       6.871  10.891   6.157  1.00  0.00     0.163 C 
ATOM      8  C   UNL     1       6.622  10.877   4.681  1.00  0.00     0.093 C 
ATOM      9  O   UNL     1       8.057  10.799   6.574  1.00  0.00    -0.294 OA
ENDBRANCH   1   7
BRANCH   2  10
ATOM     10  O   UNL     1       7.104  11.944   8.907  1.00  0.00    -0.507 OA
ATOM     11  H   UNL     1       8.017  11.643   8.595  1.00  0.00     0.293 HD
ENDBRANCH   2  10
BRANCH   4  12
ATOM     12  O   UNL     1       2.557  10.770   9.893  1.00  0.00    -0.497 OA
ATOM     13  C   UNL     1       1.453  11.669   9.915  1.00  0.00     0.278 C 
ENDBRANCH   4  12
TORSDOF 3
ENDMDL
MODEL 3
REMARK VINA RESULT:    -4.982      1.673      3.074
REMARK INTER + INTRA:          -6.039
REMARK INTER:                  -5.871
REMARK INTRA:                  -0.168
REMARK UNBOUND:                -0.329
REMARK SMILES COc1ccc(C(C)=O)c(O)c1
REMARK SMILES IDX 6 1 10 2 12 3 3 4 4 5 5 6 7 7 8 8 9 9 11 10 2 12 1 13
REMARK H PARENT 11 11
REMARK Flexibility Score: inf
ROOT
ATOM      1  C   UNL     1       4.974  10.510   6.822  1.00  0.00     0.059 A 
ATOM      2  C   UNL     1       6.332  10.531   7.226  1.00  0.00     0.130 A 
ATOM      3  C   UNL     1       7.320  10.935   6.320  1.00  0.00     0.093 A 
ATOM      4  C   UNL     1       6.996  11.289   5.008  1.00  0.00     0.122 A 
ATOM      5  C   UNL     1       5.653  11.240   4.598  1.00  0.00     0.047 A 
ATOM      6  C   UNL     1       4.656  10.856   5.496  1.00  0.00     0.019 A 
ENDROOT
BRANCH   1   7
ATOM      7  C   UNL     1       3.880  10.174   7.763  1.00  0.00     0.163 C 
ATOM      8  C   UNL     1       3.340  11.194   8.718  1.00  0.00     0.093 C 
ATOM      9  O   UNL     1       3.445   8.993   7.826  1.00  0.00    -0.294 OA
ENDBRANCH   1   7
BRANCH   2  10
ATOM     10  O   UNL     1       6.740  10.130   8.500  1.00  0.00    -0.507 OA
ATOM     11  H   UNL     1       7.341  10.685   9.093  1.00  0.00     0.293 HD
ENDBRANCH   2  10
BRANCH   4  12
ATOM     12  O   UNL     1       8.033  11.678   4.146  1.00  0.00    -0.497 OA
ATOM     13  C   UNL     1       8.644  12.963   4.150  1.00  0.00     0.278 C 
ENDBRANCH   4  12
TORSDOF 3
ENDMDL
MODEL 4
REMARK VINA RESULT:    -4.847      1.990      3.158
REMARK INTER + INTRA:          -5.885
REMARK INTER:                  -5.542
REMARK INTRA:                  -0.343
REMARK UNBOUND:                -0.329
REMARK SMILES COc1ccc(C(C)=O)c(O)c1
REMARK SMILES IDX 6 1 10 2 12 3 3 4 4 5 5 6 7 7 8 8 9 9 11 10 2 12 1 13
REMARK H PARENT 11 11
REMARK Flexibility Score: inf
ROOT
ATOM      1  C   UNL     1       5.752  10.541   7.290  1.00  0.00     0.059 A 
ATOM      2  C   UNL     1       5.611  10.805   5.904  1.00  0.00     0.130 A 
ATOM      3  C   UNL     1       6.716  11.243   5.165  1.00  0.00     0.093 A 
ATOM      4  C   UNL     1       7.955  11.457   5.776  1.00  0.00     0.122 A 
ATOM      5  C   UNL     1       8.087  11.224   7.155  1.00  0.00     0.047 A 
ATOM      6  C   UNL     1       6.997  10.771   7.900  1.00  0.00     0.019 A 
ENDROOT
BRANCH   1   7
ATOM      7  C   UNL     1       4.639   9.995   8.102  1.00  0.00     0.163 C 
ATOM      8  C   UNL     1       4.390  10.479   9.497  1.00  0.00     0.093 C 
ATOM      9  O   UNL     1       3.936   9.051   7.652  1.00  0.00    -0.294 OA
ENDBRANCH   1   7
BRANCH   2  10
ATOM     10  O   UNL     1       4.390  10.675   5.238  1.00  0.00    -0.507 OA
ATOM     11  H   UNL     1       3.586  10.209   5.636  1.00  0.00     0.293 HD
ENDBRANCH   2  10
BRANCH   4  12
ATOM     12  O   UNL     1       9.022  11.904   4.982  1.00  0.00    -0.497 OA
ATOM     13  C   UNL     1       8.881  12.752   3.847  1.00  0.00     0.278 C 
ENDBRANCH   4  12
TORSDOF 3
ENDMDL
MODEL 5
REMARK VINA RESULT:    -4.706      1.545      4.865
REMARK INTER + INTRA:          -5.723
REMARK INTER:                  -5.431
REMARK INTRA:                  -0.291
REMARK UNBOUND:                -0.329
REMARK SMILES COc1ccc(C(C)=O)c(O)c1
REMARK SMILES IDX 6 1 10 2 12 3 3 4 4 5 5 6 7 7 8 8 9 9 11 10 2 12 1 13
REMARK H PARENT 11 11
REMARK Flexibility Score: inf
ROOT
ATOM      1  C   UNL     1       6.186  10.722   7.088  1.00  0.00     0.059 A 
ATOM      2  C   UNL     1       4.926  10.609   6.449  1.00  0.00     0.130 A 
ATOM      3  C   UNL     1       3.758  10.563   7.220  1.00  0.00     0.093 A 
ATOM      4  C   UNL     1       3.812  10.594   8.615  1.00  0.00     0.122 A 
ATOM      5  C   UNL     1       5.063  10.677   9.250  1.00  0.00     0.047 A 
ATOM      6  C   UNL     1       6.234  10.740   8.493  1.00  0.00     0.019 A 
ENDROOT
BRANCH   1   7
ATOM      7  C   UNL     1       7.446  10.861   6.320  1.00  0.00     0.163 C 
ATOM      8  C   UNL     1       8.650  11.516   6.922  1.00  0.00     0.093 C 
ATOM      9  O   UNL     1       7.491  10.498   5.114  1.00  0.00    -0.294 OA
ENDBRANCH   1   7
BRANCH   2  10
ATOM     10  O   UNL     1       4.797  10.508   5.061  1.00  0.00    -0.507 OA
ATOM     11  H   UNL     1       4.691   9.629   4.575  1.00  0.00     0.293 HD
ENDBRANCH   2  10
BRANCH   4  12
ATOM     12  O   UNL     1       2.607  10.537   9.332  1.00  0.00    -0.497 OA
ATOM     13  C   UNL     1       1.792  11.666   9.627  1.00  0.00     0.278 C 
ENDBRANCH   4  12
TORSDOF 3
ENDMDL
MODEL 6
REMARK VINA RESULT:    -4.660      1.728      2.508
REMARK INTER + INTRA:          -5.670
REMARK INTER:                  -5.358
REMARK INTRA:                  -0.312
REMARK UNBOUND:                -0.329
REMARK SMILES COc1ccc(C(C)=O)c(O)c1
REMARK SMILES IDX 6 1 10 2 12 3 3 4 4 5 5 6 7 7 8 8 9 9 11 10 2 12 1 13
REMARK H PARENT 11 11
REMARK Flexibility Score: inf
ROOT
ATOM      1  C   UNL     1       4.440  11.189   8.232  1.00  0.00     0.059 A 
ATOM      2  C   UNL     1       5.487  12.139   8.326  1.00  0.00     0.130 A 
ATOM      3  C   UNL     1       6.213  12.488   7.181  1.00  0.00     0.093 A 
ATOM      4  C   UNL     1       5.946  11.891   5.947  1.00  0.00     0.122 A 
ATOM      5  C   UNL     1       4.928  10.927   5.859  1.00  0.00     0.047 A 
ATOM      6  C   UNL     1       4.185  10.582   6.989  1.00  0.00     0.019 A 
ENDROOT
BRANCH   1   7
ATOM      7  C   UNL     1       3.585  10.846   9.392  1.00  0.00     0.163 C 
ATOM      8  C   UNL     1       2.140  11.240   9.432  1.00  0.00     0.093 C 
ATOM      9  O   UNL     1       4.089  10.285  10.402  1.00  0.00    -0.294 OA
ENDBRANCH   1   7
BRANCH   2  10
ATOM     10  O   UNL     1       5.854  12.731   9.537  1.00  0.00    -0.507 OA
ATOM     11  H   UNL     1       6.466  13.531   9.602  1.00  0.00     0.293 HD
ENDBRANCH   2  10
BRANCH   4  12
ATOM     12  O   UNL     1       6.714  12.278   4.838  1.00  0.00    -0.497 OA
ATOM     13  C   UNL     1       7.858  11.574   4.367  1.00  0.00     0.278 C 
ENDBRANCH   4  12
TORSDOF 3
ENDMDL
MODEL 7
REMARK VINA RESULT:    -4.640      1.552      1.733
REMARK INTER + INTRA:          -5.647
REMARK INTER:                  -5.310
REMARK INTRA:                  -0.337
REMARK UNBOUND:                -0.329
REMARK SMILES COc1ccc(C(C)=O)c(O)c1
REMARK SMILES IDX 6 1 10 2 12 3 3 4 4 5 5 6 7 7 8 8 9 9 11 10 2 12 1 13
REMARK H PARENT 11 11
REMARK Flexibility Score: inf
ROOT
ATOM      1  C   UNL     1       4.745  11.134   8.722  1.00  0.00     0.059 A 
ATOM      2  C   UNL     1       5.302  10.393   7.651  1.00  0.00     0.130 A 
ATOM      3  C   UNL     1       6.614  10.651   7.236  1.00  0.00     0.093 A 
ATOM      4  C   UNL     1       7.378  11.653   7.839  1.00  0.00     0.122 A 
ATOM      5  C   UNL     1       6.816  12.408   8.882  1.00  0.00     0.047 A 
ATOM      6  C   UNL     1       5.515  12.150   9.317  1.00  0.00     0.019 A 
ENDROOT
BRANCH   1   7
ATOM      7  C   UNL     1       3.394  10.845   9.257  1.00  0.00     0.163 C 
ATOM      8  C   UNL     1       2.411  11.947   9.511  1.00  0.00     0.093 C 
ATOM      9  O   UNL     1       3.085   9.669   9.585  1.00  0.00    -0.294 OA
ENDBRANCH   1   7
BRANCH   2  10
ATOM     10  O   UNL     1       4.578   9.420   6.957  1.00  0.00    -0.507 OA
ATOM     11  H   UNL     1       4.842   8.446   6.927  1.00  0.00     0.293 HD
ENDBRANCH   2  10
BRANCH   4  12
ATOM     12  O   UNL     1       8.684  11.869   7.373  1.00  0.00    -0.497 OA
ATOM     13  C   UNL     1       9.237  11.252   6.215  1.00  0.00     0.278 C 
ENDBRANCH   4  12
TORSDOF 3
ENDMDL
MODEL 8
REMARK VINA RESULT:    -3.843     18.619     19.059
REMARK INTER + INTRA:          -4.734
REMARK INTER:                  -4.391
REMARK INTRA:                  -0.342
REMARK UNBOUND:                -0.329
REMARK SMILES COc1ccc(C(C)=O)c(O)c1
REMARK SMILES IDX 6 1 10 2 12 3 3 4 4 5 5 6 7 7 8 8 9 9 11 10 2 12 1 13
REMARK H PARENT 11 11
REMARK Flexibility Score: inf
ROOT
ATOM      1  C   UNL     1      -7.875  10.134  -6.476  1.00  0.00     0.059 A 
ATOM      2  C   UNL     1      -7.499   9.048  -7.304  1.00  0.00     0.130 A 
ATOM      3  C   UNL     1      -6.299   9.105  -8.022  1.00  0.00     0.093 A 
ATOM      4  C   UNL     1      -5.474  10.231  -7.963  1.00  0.00     0.122 A 
ATOM      5  C   UNL     1      -5.862  11.321  -7.165  1.00  0.00     0.047 A 
ATOM      6  C   UNL     1      -7.048  11.271  -6.431  1.00  0.00     0.019 A 
ENDROOT
BRANCH   1   7
ATOM      7  C   UNL     1      -9.091  10.093  -5.630  1.00  0.00     0.163 C 
ATOM      8  C   UNL     1      -9.956  11.303  -5.459  1.00  0.00     0.093 C 
ATOM      9  O   UNL     1      -9.366   9.052  -4.975  1.00  0.00    -0.294 OA
ENDBRANCH   1   7
BRANCH   2  10
ATOM     10  O   UNL     1      -8.302   7.916  -7.464  1.00  0.00    -0.507 OA
ATOM     11  H   UNL     1      -8.307   7.141  -6.816  1.00  0.00     0.293 HD
ENDBRANCH   2  10
BRANCH   4  12
ATOM     12  O   UNL     1      -4.288  10.230  -8.711  1.00  0.00    -0.497 OA
ATOM     13  C   UNL     1      -3.595  11.404  -9.123  1.00  0.00     0.278 C 
ENDBRANCH   4  12
TORSDOF 3
ENDMDL
MODEL 9
REMARK VINA RESULT:    -2.835     17.825     18.941
REMARK INTER + INTRA:          -3.578
REMARK INTER:                  -3.240
REMARK INTRA:                  -0.338
REMARK UNBOUND:                -0.329
REMARK SMILES COc1ccc(C(C)=O)c(O)c1
REMARK SMILES IDX 6 1 10 2 12 3 3 4 4 5 5 6 7 7 8 8 9 9 11 10 2 12 1 13
REMARK H PARENT 11 11
REMARK Flexibility Score: inf
ROOT
ATOM      1  C   UNL     1      -5.008  10.897  -7.463  1.00  0.00     0.059 A 
ATOM      2  C   UNL     1      -5.900  11.289  -6.433  1.00  0.00     0.130 A 
ATOM      3  C   UNL     1      -7.037  10.517  -6.169  1.00  0.00     0.093 A 
ATOM      4  C   UNL     1      -7.331   9.380  -6.924  1.00  0.00     0.122 A 
ATOM      5  C   UNL     1      -6.463   9.007  -7.965  1.00  0.00     0.047 A 
ATOM      6  C   UNL     1      -5.316   9.758  -8.228  1.00  0.00     0.019 A 
ENDROOT
BRANCH   1   7
ATOM      7  C   UNL     1      -3.747  11.627  -7.729  1.00  0.00     0.163 C 
ATOM      8  C   UNL     1      -3.346  11.994  -9.125  1.00  0.00     0.093 C 
ATOM      9  O   UNL     1      -2.952  11.876  -6.784  1.00  0.00    -0.294 OA
ENDBRANCH   1   7
BRANCH   2  10
ATOM     10  O   UNL     1      -5.707  12.449  -5.678  1.00  0.00    -0.507 OA
ATOM     11  H   UNL     1      -4.890  13.037  -5.761  1.00  0.00     0.293 HD
ENDBRANCH   2  10
BRANCH   4  12
ATOM     12  O   UNL     1      -8.490   8.653  -6.615  1.00  0.00    -0.497 OA
ATOM     13  C   UNL     1      -9.183   8.733  -5.374  1.00  0.00     0.278 C 
ENDBRANCH   4  12
TORSDOF 3
ENDMDL
