MODEL 1
REMARK VINA RESULT:    -5.050      0.000      0.000
REMARK INTER + INTRA:          -6.934
REMARK INTER:                  -6.822
REMARK INTRA:                  -0.113
REMARK UNBOUND:                -0.113
REMARK SMILES O=c1c(-c2ccc(O)cc2)coc2c([C@H]3O[C@H](CO)[C@@H](O)[C@@H](O)[C@@H]3O)c(O)ccc12
REMARK SMILES IDX 3 1 11 2 12 3 13 4 30 5 2 6 1 7 29 8 28 9 26 10 14 11 4 12
REMARK SMILES IDX 5 13 6 14 7 15 10 16 9 17 8 18 15 20 24 21 16 22 22 23 17 24
REMARK SMILES IDX 20 25 25 26 23 28 18 30 19 31 21 33 27 35
REMARK H PARENT 8 19 25 27 23 29 19 32 21 34 27 36
REMARK Flexibility Score: inf
ROOT
ATOM      1  C   UNL     1      46.679  -8.608   0.073  1.00  0.00     0.065 A 
ATOM      2  C   UNL     1      47.867  -8.361  -0.630  1.00  0.00     0.208 A 
ATOM      3  O   UNL     1      47.946  -8.590  -1.935  1.00  0.00    -0.463 OA
ATOM      4  C   UNL     1      46.931  -9.060  -2.656  1.00  0.00     0.147 A 
ATOM      5  C   UNL     1      45.695  -9.337  -2.025  1.00  0.00     0.066 A 
ATOM      6  C   UNL     1      45.579  -9.113  -0.642  1.00  0.00     0.200 A 
ATOM      7  O   UNL     1      44.500  -9.381  -0.041  1.00  0.00    -0.288 OA
ATOM      8  C   UNL     1      44.621  -9.823  -2.788  1.00  0.00     0.020 A 
ATOM      9  C   UNL     1      44.766 -10.020  -4.159  1.00  0.00     0.047 A 
ATOM     10  C   UNL     1      45.983  -9.745  -4.794  1.00  0.00     0.125 A 
ATOM     11  C   UNL     1      47.089  -9.279  -4.045  1.00  0.00     0.069 A 
ENDROOT
BRANCH   1  12
ATOM     12  C   UNL     1      46.614  -8.337   1.531  1.00  0.00    -0.011 A 
ATOM     13  C   UNL     1      45.671  -7.433   2.051  1.00  0.00     0.013 A 
ATOM     14  C   UNL     1      45.620  -7.175   3.425  1.00  0.00     0.047 A 
ATOM     15  C   UNL     1      46.512  -7.815   4.295  1.00  0.00     0.115 A 
ATOM     16  C   UNL     1      47.510  -8.970   2.411  1.00  0.00     0.013 A 
ATOM     17  C   UNL     1      47.456  -8.711   3.784  1.00  0.00     0.047 A 
BRANCH  15  18
ATOM     18  O   UNL     1      46.470  -7.566   5.664  1.00  0.00    -0.508 OA
ATOM     19  H   UNL     1      45.907  -8.132   6.288  1.00  0.00     0.293 HD
ENDBRANCH  15  18
ENDBRANCH   1  12
BRANCH  11  20
ATOM     20  C   UNL     1      48.409  -8.959  -4.733  1.00  0.00     0.188 C 
ATOM     21  C   UNL     1      48.376  -7.518  -5.289  1.00  0.00     0.179 C 
ATOM     22  O   UNL     1      48.640  -9.915  -5.758  1.00  0.00    -0.362 OA
ATOM     23  C   UNL     1      49.697  -7.223  -6.024  1.00  0.00     0.177 C 
ATOM     24  C   UNL     1      49.878  -9.724  -6.434  1.00  0.00     0.176 C 
ATOM     25  C   UNL     1      49.990  -8.318  -7.068  1.00  0.00     0.177 C 
BRANCH  21  26
ATOM     26  O   UNL     1      48.211  -6.610  -4.230  1.00  0.00    -0.387 OA
ATOM     27  H   UNL     1      47.470  -6.001  -4.485  1.00  0.00     0.211 HD
ENDBRANCH  21  26
BRANCH  23  28
ATOM     28  O   UNL     1      49.688  -5.946  -6.617  1.00  0.00    -0.387 OA
ATOM     29  H   UNL     1      50.420  -5.911  -7.288  1.00  0.00     0.211 HD
ENDBRANCH  23  28
BRANCH  24  30
ATOM     30  C   UNL     1      51.091 -10.116  -5.560  1.00  0.00     0.191 C 
BRANCH  30  31
ATOM     31  O   UNL     1      50.740 -10.125  -4.201  1.00  0.00    -0.394 OA
ATOM     32  H   UNL     1      50.347 -11.016  -4.013  1.00  0.00     0.210 HD
ENDBRANCH  30  31
ENDBRANCH  24  30
BRANCH  25  33
ATOM     33  O   UNL     1      49.073  -8.233  -8.131  1.00  0.00    -0.388 OA
ATOM     34  H   UNL     1      48.356  -8.899  -7.956  1.00  0.00     0.211 HD
ENDBRANCH  25  33
ENDBRANCH  11  20
BRANCH  10  35
ATOM     35  O   UNL     1      46.093  -9.933  -6.173  1.00  0.00    -0.507 OA
ATOM     36  H   UNL     1      46.199 -10.855  -6.579  1.00  0.00     0.293 HD
ENDBRANCH  10  35
TORSDOF 9
ENDMDL
MODEL 2
REMARK VINA RESULT:    -3.989      2.231      4.043
REMARK INTER + INTRA:          -5.501
REMARK INTER:                  -4.972
REMARK INTRA:                  -0.529
REMARK UNBOUND:                -0.113
REMARK SMILES O=c1c(-c2ccc(O)cc2)coc2c([C@H]3O[C@H](CO)[C@@H](O)[C@@H](O)[C@@H]3O)c(O)ccc12
REMARK SMILES IDX 3 1 11 2 12 3 13 4 30 5 2 6 1 7 29 8 28 9 26 10 14 11 4 12
REMARK SMILES IDX 5 13 6 14 7 15 10 16 9 17 8 18 15 20 24 21 16 22 22 23 17 24
REMARK SMILES IDX 20 25 25 26 23 28 18 30 19 31 21 33 27 35
REMARK H PARENT 8 19 25 27 23 29 19 32 21 34 27 36
REMARK Flexibility Score: inf
ROOT
ATOM      1  C   UNL     1      46.957  -8.316  -1.840  1.00  0.00     0.065 A 
ATOM      2  C   UNL     1      46.249  -7.920  -2.984  1.00  0.00     0.208 A 
ATOM      3  O   UNL     1      46.727  -8.162  -4.199  1.00  0.00    -0.463 OA
ATOM      4  C   UNL     1      47.883  -8.784  -4.417  1.00  0.00     0.147 A 
ATOM      5  C   UNL     1      48.661  -9.218  -3.318  1.00  0.00     0.066 A 
ATOM      6  C   UNL     1      48.189  -8.970  -2.017  1.00  0.00     0.200 A 
ATOM      7  O   UNL     1      48.875  -9.314  -1.013  1.00  0.00    -0.288 OA
ATOM      8  C   UNL     1      49.876  -9.882  -3.549  1.00  0.00     0.020 A 
ATOM      9  C   UNL     1      50.308 -10.125  -4.850  1.00  0.00     0.047 A 
ATOM     10  C   UNL     1      49.544  -9.704  -5.945  1.00  0.00     0.125 A 
ATOM     11  C   UNL     1      48.328  -9.010  -5.741  1.00  0.00     0.069 A 
ENDROOT
BRANCH   1  12
ATOM     12  C   UNL     1      46.399  -8.038  -0.493  1.00  0.00    -0.011 A 
ATOM     13  C   UNL     1      45.716  -9.039   0.221  1.00  0.00     0.013 A 
ATOM     14  C   UNL     1      45.184  -8.769   1.486  1.00  0.00     0.047 A 
ATOM     15  C   UNL     1      45.325  -7.496   2.051  1.00  0.00     0.115 A 
ATOM     16  C   UNL     1      46.529  -6.760   0.079  1.00  0.00     0.013 A 
ATOM     17  C   UNL     1      45.997  -6.494   1.345  1.00  0.00     0.047 A 
BRANCH  15  18
ATOM     18  O   UNL     1      44.800  -7.216   3.310  1.00  0.00    -0.508 OA
ATOM     19  H   UNL     1      43.875  -6.818   3.421  1.00  0.00     0.293 HD
ENDBRANCH  15  18
ENDBRANCH   1  12
BRANCH  11  20
ATOM     20  C   UNL     1      47.482  -8.567  -6.927  1.00  0.00     0.188 C 
ATOM     21  C   UNL     1      46.371  -9.606  -7.197  1.00  0.00     0.179 C 
ATOM     22  O   UNL     1      48.326  -8.391  -8.057  1.00  0.00    -0.362 OA
ATOM     23  C   UNL     1      45.552  -9.172  -8.427  1.00  0.00     0.177 C 
ATOM     24  C   UNL     1      47.629  -7.933  -9.210  1.00  0.00     0.176 C 
ATOM     25  C   UNL     1      46.483  -8.888  -9.622  1.00  0.00     0.177 C 
BRANCH  21  26
ATOM     26  O   UNL     1      45.529  -9.693  -6.075  1.00  0.00    -0.387 OA
ATOM     27  H   UNL     1      45.004  -8.851  -6.042  1.00  0.00     0.211 HD
ENDBRANCH  21  26
BRANCH  23  28
ATOM     28  O   UNL     1      44.573 -10.125  -8.763  1.00  0.00    -0.387 OA
ATOM     29  H   UNL     1      44.998 -11.023  -8.753  1.00  0.00     0.211 HD
ENDBRANCH  23  28
BRANCH  24  30
ATOM     30  C   UNL     1      47.199  -6.454  -9.088  1.00  0.00     0.191 C 
BRANCH  30  31
ATOM     31  O   UNL     1      46.090  -6.192  -9.907  1.00  0.00    -0.394 OA
ATOM     32  H   UNL     1      45.990  -5.206  -9.945  1.00  0.00     0.210 HD
ENDBRANCH  30  31
ENDBRANCH  24  30
BRANCH  25  33
ATOM     33  O   UNL     1      47.049 -10.088 -10.092  1.00  0.00    -0.388 OA
ATOM     34  H   UNL     1      47.407 -10.573  -9.302  1.00  0.00     0.211 HD
ENDBRANCH  25  33
ENDBRANCH  11  20
BRANCH  10  35
ATOM     35  O   UNL     1      49.991  -9.979  -7.238  1.00  0.00    -0.507 OA
ATOM     36  H   UNL     1      49.367  -9.942  -8.037  1.00  0.00     0.293 HD
ENDBRANCH  10  35
TORSDOF 9
ENDMDL
MODEL 3
REMARK VINA RESULT:    -3.677      1.971      7.660
REMARK INTER + INTRA:          -5.079
REMARK INTER:                  -4.753
REMARK INTRA:                  -0.326
REMARK UNBOUND:                -0.113
REMARK SMILES O=c1c(-c2ccc(O)cc2)coc2c([C@H]3O[C@H](CO)[C@@H](O)[C@@H](O)[C@@H]3O)c(O)ccc12
REMARK SMILES IDX 3 1 11 2 12 3 13 4 30 5 2 6 1 7 29 8 28 9 26 10 14 11 4 12
REMARK SMILES IDX 5 13 6 14 7 15 10 16 9 17 8 18 15 20 24 21 16 22 22 23 17 24
REMARK SMILES IDX 20 25 25 26 23 28 18 30 19 31 21 33 27 35
REMARK H PARENT 8 19 25 27 23 29 19 32 21 34 27 36
REMARK Flexibility Score: inf
ROOT
ATOM      1  C   UNL     1      47.377  -8.434  -4.285  1.00  0.00     0.065 A 
ATOM      2  C   UNL     1      47.910  -7.802  -3.152  1.00  0.00     0.208 A 
ATOM      3  O   UNL     1      47.319  -7.913  -1.969  1.00  0.00    -0.463 OA
ATOM      4  C   UNL     1      46.205  -8.615  -1.773  1.00  0.00     0.147 A 
ATOM      5  C   UNL     1      45.600  -9.284  -2.863  1.00  0.00     0.066 A 
ATOM      6  C   UNL     1      46.196  -9.181  -4.133  1.00  0.00     0.200 A 
ATOM      7  O   UNL     1      45.663  -9.738  -5.133  1.00  0.00    -0.288 OA
ATOM      8  C   UNL     1      44.430 -10.032  -2.654  1.00  0.00     0.020 A 
ATOM      9  C   UNL     1      43.875 -10.125  -1.380  1.00  0.00     0.047 A 
ATOM     10  C   UNL     1      44.467  -9.470  -0.294  1.00  0.00     0.125 A 
ATOM     11  C   UNL     1      45.632  -8.690  -0.481  1.00  0.00     0.069 A 
ENDROOT
BRANCH   1  12
ATOM     12  C   UNL     1      48.060  -8.299  -5.596  1.00  0.00    -0.011 A 
ATOM     13  C   UNL     1      48.964  -9.282  -6.038  1.00  0.00     0.013 A 
ATOM     14  C   UNL     1      49.612  -9.145  -7.270  1.00  0.00     0.047 A 
ATOM     15  C   UNL     1      49.367  -8.024  -8.074  1.00  0.00     0.115 A 
ATOM     16  C   UNL     1      47.826  -7.174  -6.406  1.00  0.00     0.013 A 
ATOM     17  C   UNL     1      48.474  -7.041  -7.637  1.00  0.00     0.047 A 
BRANCH  15  18
ATOM     18  O   UNL     1      50.006  -7.878  -9.302  1.00  0.00    -0.508 OA
ATOM     19  H   UNL     1      49.583  -7.354 -10.059  1.00  0.00     0.293 HD
ENDBRANCH  15  18
ENDBRANCH   1  12
BRANCH  11  20
ATOM     20  C   UNL     1      46.293  -7.991   0.699  1.00  0.00     0.188 C 
ATOM     21  C   UNL     1      46.730  -6.568   0.290  1.00  0.00     0.179 C 
ATOM     22  O   UNL     1      47.394  -8.774   1.142  1.00  0.00    -0.362 OA
ATOM     23  C   UNL     1      47.441  -5.889   1.476  1.00  0.00     0.177 C 
ATOM     24  C   UNL     1      48.054  -8.222   2.276  1.00  0.00     0.176 C 
ATOM     25  C   UNL     1      48.571  -6.788   2.013  1.00  0.00     0.177 C 
BRANCH  21  26
ATOM     26  O   UNL     1      45.600  -5.817  -0.077  1.00  0.00    -0.387 OA
ATOM     27  H   UNL     1      45.611  -5.744  -1.066  1.00  0.00     0.211 HD
ENDBRANCH  21  26
BRANCH  23  28
ATOM     28  O   UNL     1      47.927  -4.614   1.130  1.00  0.00    -0.387 OA
ATOM     29  H   UNL     1      48.562  -4.323   1.836  1.00  0.00     0.211 HD
ENDBRANCH  23  28
BRANCH  24  30
ATOM     30  C   UNL     1      47.217  -8.360   3.567  1.00  0.00     0.191 C 
BRANCH  30  31
ATOM     31  O   UNL     1      46.989  -9.711   3.869  1.00  0.00    -0.394 OA
ATOM     32  H   UNL     1      47.790 -10.033   4.358  1.00  0.00     0.210 HD
ENDBRANCH  30  31
ENDBRANCH  24  30
BRANCH  25  33
ATOM     33  O   UNL     1      49.622  -6.855   1.081  1.00  0.00    -0.388 OA
ATOM     34  H   UNL     1      49.367  -7.531   0.399  1.00  0.00     0.211 HD
ENDBRANCH  25  33
ENDBRANCH  11  20
BRANCH  10  35
ATOM     35  O   UNL     1      43.900  -9.599   0.975  1.00  0.00    -0.507 OA
ATOM     36  H   UNL     1      43.370  -8.847   1.401  1.00  0.00     0.293 HD
ENDBRANCH  10  35
TORSDOF 9
ENDMDL
MODEL 4
REMARK VINA RESULT:    -3.592      2.457      4.397
REMARK INTER + INTRA:          -4.965
REMARK INTER:                  -4.902
REMARK INTRA:                  -0.063
REMARK UNBOUND:                -0.113
REMARK SMILES O=c1c(-c2ccc(O)cc2)coc2c([C@H]3O[C@H](CO)[C@@H](O)[C@@H](O)[C@@H]3O)c(O)ccc12
REMARK SMILES IDX 3 1 11 2 12 3 13 4 30 5 2 6 1 7 29 8 28 9 26 10 14 11 4 12
REMARK SMILES IDX 5 13 6 14 7 15 10 16 9 17 8 18 15 20 24 21 16 22 22 23 17 24
REMARK SMILES IDX 20 25 25 26 23 28 18 30 19 31 21 33 27 35
REMARK H PARENT 8 19 25 27 23 29 19 32 21 34 27 36
REMARK Flexibility Score: inf
ROOT
ATOM      1  C   UNL     1      47.176  -8.499  -2.862  1.00  0.00     0.065 A 
ATOM      2  C   UNL     1      46.499  -8.195  -4.051  1.00  0.00     0.208 A 
ATOM      3  O   UNL     1      47.055  -8.435  -5.232  1.00  0.00    -0.463 OA
ATOM      4  C   UNL     1      48.266  -8.969  -5.373  1.00  0.00     0.147 A 
ATOM      5  C   UNL     1      49.019  -9.306  -4.224  1.00  0.00     0.066 A 
ATOM      6  C   UNL     1      48.463  -9.057  -2.956  1.00  0.00     0.200 A 
ATOM      7  O   UNL     1      49.122  -9.316  -1.910  1.00  0.00    -0.288 OA
ATOM      8  C   UNL     1      50.292  -9.878  -4.373  1.00  0.00     0.020 A 
ATOM      9  C   UNL     1      50.807 -10.125  -5.643  1.00  0.00     0.047 A 
ATOM     10  C   UNL     1      50.069  -9.799  -6.787  1.00  0.00     0.125 A 
ATOM     11  C   UNL     1      48.794  -9.198  -6.666  1.00  0.00     0.069 A 
ENDROOT
BRANCH   1  12
ATOM     12  C   UNL     1      46.530  -8.226  -1.553  1.00  0.00    -0.011 A 
ATOM     13  C   UNL     1      46.366  -6.906  -1.097  1.00  0.00     0.013 A 
ATOM     14  C   UNL     1      45.765  -6.655   0.141  1.00  0.00     0.047 A 
ATOM     15  C   UNL     1      45.324  -7.718   0.938  1.00  0.00     0.115 A 
ATOM     16  C   UNL     1      46.092  -9.288  -0.743  1.00  0.00     0.013 A 
ATOM     17  C   UNL     1      45.491  -9.033   0.494  1.00  0.00     0.047 A 
BRANCH  15  18
ATOM     18  O   UNL     1      44.725  -7.479   2.172  1.00  0.00    -0.508 OA
ATOM     19  H   UNL     1      45.142  -6.854   2.852  1.00  0.00     0.293 HD
ENDBRANCH  15  18
ENDBRANCH   1  12
BRANCH  11  20
ATOM     20  C   UNL     1      47.977  -8.860  -7.906  1.00  0.00     0.188 C 
ATOM     21  C   UNL     1      48.373  -7.462  -8.430  1.00  0.00     0.179 C 
ATOM     22  O   UNL     1      46.595  -8.930  -7.582  1.00  0.00    -0.362 OA
ATOM     23  C   UNL     1      47.507  -7.110  -9.654  1.00  0.00     0.177 C 
ATOM     24  C   UNL     1      45.745  -8.670  -8.693  1.00  0.00     0.176 C 
ATOM     25  C   UNL     1      46.012  -7.283  -9.324  1.00  0.00     0.177 C 
BRANCH  21  26
ATOM     26  O   UNL     1      49.730  -7.465  -8.796  1.00  0.00    -0.387 OA
ATOM     27  H   UNL     1      50.128  -6.632  -8.433  1.00  0.00     0.211 HD
ENDBRANCH  21  26
BRANCH  23  28
ATOM     28  O   UNL     1      47.775  -5.812 -10.125  1.00  0.00    -0.387 OA
ATOM     29  H   UNL     1      47.700  -5.183  -9.360  1.00  0.00     0.211 HD
ENDBRANCH  23  28
BRANCH  24  30
ATOM     30  C   UNL     1      45.740  -9.831  -9.713  1.00  0.00     0.191 C 
BRANCH  30  31
ATOM     31  O   UNL     1      44.431 -10.122 -10.125  1.00  0.00    -0.394 OA
ATOM     32  H   UNL     1      43.959  -9.254 -10.213  1.00  0.00     0.210 HD
ENDBRANCH  30  31
ENDBRANCH  24  30
BRANCH  25  33
ATOM     33  O   UNL     1      45.598  -6.292  -8.415  1.00  0.00    -0.388 OA
ATOM     34  H   UNL     1      45.452  -6.738  -7.539  1.00  0.00     0.211 HD
ENDBRANCH  25  33
ENDBRANCH  11  20
BRANCH  10  35
ATOM     35  O   UNL     1      50.601 -10.077  -8.048  1.00  0.00    -0.507 OA
ATOM     36  H   UNL     1      51.091 -10.943  -8.241  1.00  0.00     0.293 HD
ENDBRANCH  10  35
TORSDOF 9
ENDMDL
MODEL 5
REMARK VINA RESULT:    -3.569      1.253      1.641
REMARK INTER + INTRA:          -4.934
REMARK INTER:                  -4.685
REMARK INTRA:                  -0.249
REMARK UNBOUND:                -0.113
REMARK SMILES O=c1c(-c2ccc(O)cc2)coc2c([C@H]3O[C@H](CO)[C@@H](O)[C@@H](O)[C@@H]3O)c(O)ccc12
REMARK SMILES IDX 3 1 11 2 12 3 13 4 30 5 2 6 1 7 29 8 28 9 26 10 14 11 4 12
REMARK SMILES IDX 5 13 6 14 7 15 10 16 9 17 8 18 15 20 24 21 16 22 22 23 17 24
REMARK SMILES IDX 20 25 25 26 23 28 18 30 19 31 21 33 27 35
REMARK H PARENT 8 19 25 27 23 29 19 32 21 34 27 36
REMARK Flexibility Score: inf
ROOT
ATOM      1  C   UNL     1      46.889  -8.751  -1.147  1.00  0.00     0.065 A 
ATOM      2  C   UNL     1      48.001  -8.505  -1.965  1.00  0.00     0.208 A 
ATOM      3  O   UNL     1      47.944  -8.717  -3.274  1.00  0.00    -0.463 OA
ATOM      4  C   UNL     1      46.856  -9.166  -3.893  1.00  0.00     0.147 A 
ATOM      5  C   UNL     1      45.688  -9.441  -3.143  1.00  0.00     0.066 A 
ATOM      6  C   UNL     1      45.716  -9.236  -1.752  1.00  0.00     0.200 A 
ATOM      7  O   UNL     1      44.702  -9.503  -1.048  1.00  0.00    -0.288 OA
ATOM      8  C   UNL     1      44.537  -9.906  -3.798  1.00  0.00     0.020 A 
ATOM      9  C   UNL     1      44.539 -10.084  -5.179  1.00  0.00     0.047 A 
ATOM     10  C   UNL     1      45.687  -9.812  -5.932  1.00  0.00     0.125 A 
ATOM     11  C   UNL     1      46.868  -9.367  -5.294  1.00  0.00     0.069 A 
ENDROOT
BRANCH   1  12
ATOM     12  C   UNL     1      46.977  -8.502   0.314  1.00  0.00    -0.011 A 
ATOM     13  C   UNL     1      47.706  -9.369   1.146  1.00  0.00     0.013 A 
ATOM     14  C   UNL     1      47.777  -9.135   2.523  1.00  0.00     0.047 A 
ATOM     15  C   UNL     1      47.119  -8.033   3.085  1.00  0.00     0.115 A 
ATOM     16  C   UNL     1      46.313  -7.402   0.887  1.00  0.00     0.013 A 
ATOM     17  C   UNL     1      46.388  -7.170   2.264  1.00  0.00     0.047 A 
BRANCH  15  18
ATOM     18  O   UNL     1      47.184  -7.790   4.455  1.00  0.00    -0.508 OA
ATOM     19  H   UNL     1      47.867  -7.153   4.847  1.00  0.00     0.293 HD
ENDBRANCH  15  18
ENDBRANCH   1  12
BRANCH  11  20
ATOM     20  C   UNL     1      48.115  -9.049  -6.109  1.00  0.00     0.188 C 
ATOM     21  C   UNL     1      47.925  -7.713  -6.861  1.00  0.00     0.179 C 
ATOM     22  O   UNL     1      48.370 -10.125  -7.003  1.00  0.00    -0.362 OA
ATOM     23  C   UNL     1      49.172  -7.427  -7.718  1.00  0.00     0.177 C 
ATOM     24  C   UNL     1      49.546  -9.940  -7.781  1.00  0.00     0.176 C 
ATOM     25  C   UNL     1      49.499  -8.637  -8.614  1.00  0.00     0.177 C 
BRANCH  21  26
ATOM     26  O   UNL     1      47.742  -6.675  -5.931  1.00  0.00    -0.387 OA
ATOM     27  H   UNL     1      47.098  -7.005  -5.253  1.00  0.00     0.211 HD
ENDBRANCH  21  26
BRANCH  23  28
ATOM     28  O   UNL     1      49.018  -6.256  -8.484  1.00  0.00    -0.387 OA
ATOM     29  H   UNL     1      49.824  -6.151  -9.055  1.00  0.00     0.211 HD
ENDBRANCH  23  28
BRANCH  24  30
ATOM     30  C   UNL     1      50.835 -10.104  -6.946  1.00  0.00     0.191 C 
BRANCH  30  31
ATOM     31  O   UNL     1      50.584  -9.846  -5.590  1.00  0.00    -0.394 OA
ATOM     32  H   UNL     1      49.675  -9.451  -5.538  1.00  0.00     0.210 HD
ENDBRANCH  30  31
ENDBRANCH  24  30
BRANCH  25  33
ATOM     33  O   UNL     1      48.519  -8.780  -9.613  1.00  0.00    -0.388 OA
ATOM     34  H   UNL     1      48.994  -8.947 -10.470  1.00  0.00     0.211 HD
ENDBRANCH  25  33
ENDBRANCH  11  20
BRANCH  10  35
ATOM     35  O   UNL     1      45.653  -9.980  -7.318  1.00  0.00    -0.507 OA
ATOM     36  H   UNL     1      45.613 -10.900  -7.742  1.00  0.00     0.293 HD
ENDBRANCH  10  35
TORSDOF 9
ENDMDL
MODEL 6
REMARK VINA RESULT:    -3.473      1.286      2.381
REMARK INTER + INTRA:          -4.804
REMARK INTER:                  -5.032
REMARK INTRA:                   0.228
REMARK UNBOUND:                -0.113
REMARK SMILES O=c1c(-c2ccc(O)cc2)coc2c([C@H]3O[C@H](CO)[C@@H](O)[C@@H](O)[C@@H]3O)c(O)ccc12
REMARK SMILES IDX 3 1 11 2 12 3 13 4 30 5 2 6 1 7 29 8 28 9 26 10 14 11 4 12
REMARK SMILES IDX 5 13 6 14 7 15 10 16 9 17 8 18 15 20 24 21 16 22 22 23 17 24
REMARK SMILES IDX 20 25 25 26 23 28 18 30 19 31 21 33 27 35
REMARK H PARENT 8 19 25 27 23 29 19 32 21 34 27 36
REMARK Flexibility Score: inf
ROOT
ATOM      1  C   UNL     1      46.559  -8.616  -1.160  1.00  0.00     0.065 A 
ATOM      2  C   UNL     1      47.631  -8.296  -2.006  1.00  0.00     0.208 A 
ATOM      3  O   UNL     1      47.556  -8.516  -3.313  1.00  0.00    -0.463 OA
ATOM      4  C   UNL     1      46.487  -9.042  -3.904  1.00  0.00     0.147 A 
ATOM      5  C   UNL     1      45.360  -9.395  -3.124  1.00  0.00     0.066 A 
ATOM      6  C   UNL     1      45.408  -9.184  -1.735  1.00  0.00     0.200 A 
ATOM      7  O   UNL     1      44.433  -9.518  -1.005  1.00  0.00    -0.288 OA
ATOM      8  C   UNL     1      44.228  -9.942  -3.750  1.00  0.00     0.020 A 
ATOM      9  C   UNL     1      44.209 -10.125  -5.130  1.00  0.00     0.047 A 
ATOM     10  C   UNL     1      45.316  -9.776  -5.912  1.00  0.00     0.125 A 
ATOM     11  C   UNL     1      46.479  -9.246  -5.305  1.00  0.00     0.069 A 
ENDROOT
BRANCH   1  12
ATOM     12  C   UNL     1      46.665  -8.356   0.297  1.00  0.00    -0.011 A 
ATOM     13  C   UNL     1      47.426  -9.202   1.123  1.00  0.00     0.013 A 
ATOM     14  C   UNL     1      47.515  -8.958   2.497  1.00  0.00     0.047 A 
ATOM     15  C   UNL     1      46.843  -7.867   3.063  1.00  0.00     0.115 A 
ATOM     16  C   UNL     1      45.988  -7.267   0.875  1.00  0.00     0.013 A 
ATOM     17  C   UNL     1      46.080  -7.025   2.249  1.00  0.00     0.047 A 
BRANCH  15  18
ATOM     18  O   UNL     1      46.925  -7.614   4.430  1.00  0.00    -0.508 OA
ATOM     19  H   UNL     1      47.282  -6.735   4.785  1.00  0.00     0.293 HD
ENDBRANCH  15  18
ENDBRANCH   1  12
BRANCH  11  20
ATOM     20  C   UNL     1      47.680  -8.845  -6.151  1.00  0.00     0.188 C 
ATOM     21  C   UNL     1      48.955  -8.833  -5.280  1.00  0.00     0.179 C 
ATOM     22  O   UNL     1      47.429  -7.575  -6.737  1.00  0.00    -0.362 OA
ATOM     23  C   UNL     1      50.154  -8.380  -6.135  1.00  0.00     0.177 C 
ATOM     24  C   UNL     1      48.481  -7.131  -7.585  1.00  0.00     0.176 C 
ATOM     25  C   UNL     1      49.837  -7.049  -6.844  1.00  0.00     0.177 C 
BRANCH  21  26
ATOM     26  O   UNL     1      49.193 -10.125  -4.780  1.00  0.00    -0.387 OA
ATOM     27  H   UNL     1      48.337 -10.622  -4.847  1.00  0.00     0.211 HD
ENDBRANCH  21  26
BRANCH  23  28
ATOM     28  O   UNL     1      51.330  -8.278  -5.368  1.00  0.00    -0.387 OA
ATOM     29  H   UNL     1      51.337  -7.388  -4.928  1.00  0.00     0.211 HD
ENDBRANCH  23  28
BRANCH  24  30
ATOM     30  C   UNL     1      48.539  -7.921  -8.912  1.00  0.00     0.191 C 
BRANCH  30  31
ATOM     31  O   UNL     1      49.783  -7.750  -9.537  1.00  0.00    -0.394 OA
ATOM     32  H   UNL     1      50.261  -8.616  -9.464  1.00  0.00     0.210 HD
ENDBRANCH  30  31
ENDBRANCH  24  30
BRANCH  25  33
ATOM     33  O   UNL     1      49.771  -6.003  -5.906  1.00  0.00    -0.388 OA
ATOM     34  H   UNL     1      50.567  -6.085  -5.317  1.00  0.00     0.211 HD
ENDBRANCH  25  33
ENDBRANCH  11  20
BRANCH  10  35
ATOM     35  O   UNL     1      45.260  -9.951  -7.296  1.00  0.00    -0.507 OA
ATOM     36  H   UNL     1      44.636  -9.403  -7.878  1.00  0.00     0.293 HD
ENDBRANCH  10  35
TORSDOF 9
ENDMDL
