MODEL 1
REMARK VINA RESULT:    -3.101      0.000      0.000
REMARK INTER + INTRA:          -3.421
REMARK INTER:                  -3.373
REMARK INTRA:                  -0.048
REMARK UNBOUND:                -0.048
REMARK SMILES CCc1cccc(O)c1
REMARK SMILES IDX 3 1 9 2 7 3 6 4 5 5 4 6 2 7 1 8 8 9
REMARK H PARENT 8 10
REMARK Flexibility Score: inf
ROOT
ATOM      1  C   UNL     1      80.073   2.717  66.320  1.00  0.00    -0.045 A 
ATOM      2  C   UNL     1      78.856   2.533  66.995  1.00  0.00     0.049 A 
ATOM      3  C   UNL     1      78.811   2.557  68.394  1.00  0.00     0.115 A 
ATOM      4  C   UNL     1      79.990   2.756  69.125  1.00  0.00     0.046 A 
ATOM      5  C   UNL     1      81.207   2.926  68.458  1.00  0.00     0.004 A 
ATOM      6  C   UNL     1      81.251   2.902  67.062  1.00  0.00     0.004 A 
ENDROOT
BRANCH   1   7
ATOM      7  C   UNL     1      80.126   2.658  64.817  1.00  0.00     0.032 C 
ATOM      8  C   UNL     1      79.732   3.999  64.209  1.00  0.00     0.009 C 
ENDBRANCH   1   7
BRANCH   3   9
ATOM      9  O   UNL     1      77.593   2.379  69.046  1.00  0.00    -0.508 OA
ATOM     10  H   UNL     1      76.717   2.366  68.537  1.00  0.00     0.293 HD
ENDBRANCH   3   9
TORSDOF 2
ENDMDL
MODEL 2
REMARK VINA RESULT:    -3.047      2.759      4.520
REMARK INTER + INTRA:          -3.362
REMARK INTER:                  -3.316
REMARK INTRA:                  -0.046
REMARK UNBOUND:                -0.048
REMARK SMILES CCc1cccc(O)c1
REMARK SMILES IDX 3 1 9 2 7 3 6 4 5 5 4 6 2 7 1 8 8 9
REMARK H PARENT 8 10
REMARK Flexibility Score: inf
ROOT
ATOM      1  C   UNL     1      79.331   2.944  65.662  1.00  0.00    -0.045 A 
ATOM      2  C   UNL     1      80.188   3.558  64.733  1.00  0.00     0.049 A 
ATOM      3  C   UNL     1      79.690   4.502  63.828  1.00  0.00     0.115 A 
ATOM      4  C   UNL     1      78.328   4.831  63.842  1.00  0.00     0.046 A 
ATOM      5  C   UNL     1      77.469   4.213  64.755  1.00  0.00     0.004 A 
ATOM      6  C   UNL     1      77.965   3.270  65.659  1.00  0.00     0.004 A 
ENDROOT
BRANCH   1   7
ATOM      7  C   UNL     1      79.861   1.904  66.612  1.00  0.00     0.032 C 
ATOM      8  C   UNL     1      80.942   2.493  67.511  1.00  0.00     0.009 C 
ENDBRANCH   1   7
BRANCH   3   9
ATOM      9  O   UNL     1      80.556   5.105  62.918  1.00  0.00    -0.508 OA
ATOM     10  H   UNL     1      81.409   4.649  62.616  1.00  0.00     0.293 HD
ENDBRANCH   3   9
TORSDOF 2
ENDMDL
MODEL 3
REMARK VINA RESULT:    -3.004     20.875     21.353
REMARK INTER + INTRA:          -3.315
REMARK INTER:                  -3.268
REMARK INTRA:                  -0.046
REMARK UNBOUND:                -0.048
REMARK SMILES CCc1cccc(O)c1
REMARK SMILES IDX 3 1 9 2 7 3 6 4 5 5 4 6 2 7 1 8 8 9
REMARK H PARENT 8 10
REMARK Flexibility Score: inf
ROOT
ATOM      1  C   UNL     1      71.454  -9.470  51.915  1.00  0.00    -0.045 A 
ATOM      2  C   UNL     1      71.085 -10.410  52.891  1.00  0.00     0.049 A 
ATOM      3  C   UNL     1      69.992 -10.168  53.730  1.00  0.00     0.115 A 
ATOM      4  C   UNL     1      69.266  -8.976  53.602  1.00  0.00     0.046 A 
ATOM      5  C   UNL     1      69.636  -8.031  52.641  1.00  0.00     0.004 A 
ATOM      6  C   UNL     1      70.728  -8.273  51.803  1.00  0.00     0.004 A 
ENDROOT
BRANCH   1   7
ATOM      7  C   UNL     1      72.650  -9.716  51.035  1.00  0.00     0.032 C 
ATOM      8  C   UNL     1      72.360 -10.818  50.023  1.00  0.00     0.009 C 
ENDBRANCH   1   7
BRANCH   3   9
ATOM      9  O   UNL     1      69.638 -11.115  54.688  1.00  0.00    -0.508 OA
ATOM     10  H   UNL     1      69.949 -11.038  55.649  1.00  0.00     0.293 HD
ENDBRANCH   3   9
TORSDOF 2
ENDMDL
MODEL 4
REMARK VINA RESULT:    -2.941     20.666     22.276
REMARK INTER + INTRA:          -3.247
REMARK INTER:                  -3.195
REMARK INTRA:                  -0.051
REMARK UNBOUND:                -0.048
REMARK SMILES CCc1cccc(O)c1
REMARK SMILES IDX 3 1 9 2 7 3 6 4 5 5 4 6 2 7 1 8 8 9
REMARK H PARENT 8 10
REMARK Flexibility Score: inf
ROOT
ATOM      1  C   UNL     1      65.676   5.054  51.575  1.00  0.00    -0.045 A 
ATOM      2  C   UNL     1      64.388   5.081  51.016  1.00  0.00     0.049 A 
ATOM      3  C   UNL     1      64.187   4.713  49.681  1.00  0.00     0.115 A 
ATOM      4  C   UNL     1      65.280   4.325  48.894  1.00  0.00     0.046 A 
ATOM      5  C   UNL     1      66.566   4.309  49.441  1.00  0.00     0.004 A 
ATOM      6  C   UNL     1      66.766   4.676  50.774  1.00  0.00     0.004 A 
ENDROOT
BRANCH   1   7
ATOM      7  C   UNL     1      65.895   5.482  53.002  1.00  0.00     0.032 C 
ATOM      8  C   UNL     1      64.833   6.486  53.434  1.00  0.00     0.009 C 
ENDBRANCH   1   7
BRANCH   3   9
ATOM      9  O   UNL     1      62.901   4.740  49.146  1.00  0.00    -0.508 OA
ATOM     10  H   UNL     1      62.461   3.903  48.783  1.00  0.00     0.293 HD
ENDBRANCH   3   9
TORSDOF 2
ENDMDL
MODEL 5
REMARK VINA RESULT:    -2.913     19.957     21.515
REMARK INTER + INTRA:          -3.216
REMARK INTER:                  -3.170
REMARK INTRA:                  -0.046
REMARK UNBOUND:                -0.048
REMARK SMILES CCc1cccc(O)c1
REMARK SMILES IDX 3 1 9 2 7 3 6 4 5 5 4 6 2 7 1 8 8 9
REMARK H PARENT 8 10
REMARK Flexibility Score: inf
ROOT
ATOM      1  C   UNL     1      65.363   4.631  50.663  1.00  0.00    -0.045 A 
ATOM      2  C   UNL     1      64.698   5.382  51.645  1.00  0.00     0.049 A 
ATOM      3  C   UNL     1      65.426   6.132  52.576  1.00  0.00     0.115 A 
ATOM      4  C   UNL     1      66.827   6.125  52.534  1.00  0.00     0.046 A 
ATOM      5  C   UNL     1      67.494   5.369  51.567  1.00  0.00     0.004 A 
ATOM      6  C   UNL     1      66.768   4.620  50.637  1.00  0.00     0.004 A 
ENDROOT
BRANCH   1   7
ATOM      7  C   UNL     1      64.581   3.798  49.683  1.00  0.00     0.032 C 
ATOM      8  C   UNL     1      63.626   4.669  48.875  1.00  0.00     0.009 C 
ENDBRANCH   1   7
BRANCH   3   9
ATOM      9  O   UNL     1      64.748   6.876  53.540  1.00  0.00    -0.508 OA
ATOM     10  H   UNL     1      63.737   6.864  53.603  1.00  0.00     0.293 HD
ENDBRANCH   3   9
TORSDOF 2
ENDMDL
MODEL 6
REMARK VINA RESULT:    -2.902      1.347      3.225
REMARK INTER + INTRA:          -3.204
REMARK INTER:                  -3.153
REMARK INTRA:                  -0.051
REMARK UNBOUND:                -0.048
REMARK SMILES CCc1cccc(O)c1
REMARK SMILES IDX 3 1 9 2 7 3 6 4 5 5 4 6 2 7 1 8 8 9
REMARK H PARENT 8 10
REMARK Flexibility Score: inf
ROOT
ATOM      1  C   UNL     1      80.014   2.722  66.727  1.00  0.00    -0.045 A 
ATOM      2  C   UNL     1      78.679   2.726  67.161  1.00  0.00     0.049 A 
ATOM      3  C   UNL     1      77.648   3.071  66.278  1.00  0.00     0.115 A 
ATOM      4  C   UNL     1      77.953   3.423  64.956  1.00  0.00     0.046 A 
ATOM      5  C   UNL     1      79.281   3.433  64.523  1.00  0.00     0.004 A 
ATOM      6  C   UNL     1      80.310   3.090  65.404  1.00  0.00     0.004 A 
ENDROOT
BRANCH   1   7
ATOM      7  C   UNL     1      81.124   2.384  67.686  1.00  0.00     0.032 C 
ATOM      8  C   UNL     1      80.919   3.090  69.021  1.00  0.00     0.009 C 
ENDBRANCH   1   7
BRANCH   3   9
ATOM      9  O   UNL     1      76.329   3.063  66.725  1.00  0.00    -0.508 OA
ATOM     10  H   UNL     1      75.568   2.769  66.124  1.00  0.00     0.293 HD
ENDBRANCH   3   9
TORSDOF 2
ENDMDL
MODEL 7
REMARK VINA RESULT:    -2.887      1.879      2.825
REMARK INTER + INTRA:          -3.188
REMARK INTER:                  -3.136
REMARK INTRA:                  -0.051
REMARK UNBOUND:                -0.048
REMARK SMILES CCc1cccc(O)c1
REMARK SMILES IDX 3 1 9 2 7 3 6 4 5 5 4 6 2 7 1 8 8 9
REMARK H PARENT 8 10
REMARK Flexibility Score: inf
ROOT
ATOM      1  C   UNL     1      78.996   3.321  64.773  1.00  0.00    -0.045 A 
ATOM      2  C   UNL     1      80.270   3.132  65.333  1.00  0.00     0.049 A 
ATOM      3  C   UNL     1      80.404   2.733  66.668  1.00  0.00     0.115 A 
ATOM      4  C   UNL     1      79.260   2.530  67.453  1.00  0.00     0.046 A 
ATOM      5  C   UNL     1      77.991   2.730  66.904  1.00  0.00     0.004 A 
ATOM      6  C   UNL     1      77.857   3.128  65.571  1.00  0.00     0.004 A 
ENDROOT
BRANCH   1   7
ATOM      7  C   UNL     1      78.854   3.783  63.347  1.00  0.00     0.032 C 
ATOM      8  C   UNL     1      80.021   4.680  62.950  1.00  0.00     0.009 C 
ENDBRANCH   1   7
BRANCH   3   9
ATOM      9  O   UNL     1      81.676   2.544  67.205  1.00  0.00    -0.508 OA
ATOM     10  H   UNL     1      81.806   2.213  68.154  1.00  0.00     0.293 HD
ENDBRANCH   3   9
TORSDOF 2
ENDMDL
MODEL 8
REMARK VINA RESULT:    -2.871     20.607     22.049
REMARK INTER + INTRA:          -3.171
REMARK INTER:                  -3.109
REMARK INTRA:                  -0.061
REMARK UNBOUND:                -0.048
REMARK SMILES CCc1cccc(O)c1
REMARK SMILES IDX 3 1 9 2 7 3 6 4 5 5 4 6 2 7 1 8 8 9
REMARK H PARENT 8 10
REMARK Flexibility Score: inf
ROOT
ATOM      1  C   UNL     1      71.303  -9.528  52.214  1.00  0.00    -0.045 A 
ATOM      2  C   UNL     1      71.151  -8.446  51.332  1.00  0.00     0.049 A 
ATOM      3  C   UNL     1      71.492  -8.580  49.981  1.00  0.00     0.115 A 
ATOM      4  C   UNL     1      71.995  -9.799  49.508  1.00  0.00     0.046 A 
ATOM      5  C   UNL     1      72.161 -10.876  50.384  1.00  0.00     0.004 A 
ATOM      6  C   UNL     1      71.821 -10.742  51.733  1.00  0.00     0.004 A 
ENDROOT
BRANCH   1   7
ATOM      7  C   UNL     1      70.968  -9.372  53.673  1.00  0.00     0.032 C 
ATOM      8  C   UNL     1      69.916 -10.390  54.098  1.00  0.00     0.009 C 
ENDBRANCH   1   7
BRANCH   3   9
ATOM      9  O   UNL     1      71.329  -7.497  49.120  1.00  0.00    -0.508 OA
ATOM     10  H   UNL     1      72.076  -7.190  48.509  1.00  0.00     0.293 HD
ENDBRANCH   3   9
TORSDOF 2
ENDMDL
