MODEL 1
REMARK VINA RESULT:    -0.001      0.000      0.000
REMARK INTER + INTRA:           0.269
REMARK INTER:                  -0.002
REMARK INTRA:                   0.271
REMARK UNBOUND:                 0.271
REMARK SMILES CC(C)=CCC[C@@H](C(=O)[O-])[C@@H]1CC[C@@]2(C)C3=C(CC[C@]12C)[C@@]1(C)CC[C@H](O)C(C)(C)[C@H]1CC3
REMARK SMILES IDX 6 1 7 2 8 3 9 4 10 5 11 6 12 7 20 8 13 9 14 10 19 11 21 12
REMARK SMILES IDX 15 13 16 14 18 15 17 16 33 17 22 18 32 19 31 20 24 21 23 22
REMARK SMILES IDX 28 23 25 24 26 25 29 26 30 27 27 28 5 30 4 31 2 32 1 33 3 34
REMARK H PARENT 27 29
REMARK Flexibility Score: inf
ROOT
ATOM      1  C   UNL     1       2.539  47.780   7.470  1.00  0.00     0.014 C 
ENDROOT
BRANCH   1   2
ATOM      2  C   UNL     1       1.394  48.119   8.463  1.00  0.00     0.039 C 
BRANCH   2   3
ATOM      3  C   UNL     1       0.602  49.297   7.936  1.00  0.00     0.045 C 
ATOM      4  O   UNL     1      -0.639  49.195   7.730  1.00  0.00    -0.550 OA
ATOM      5  O   UNL     1       1.255  50.468   7.571  1.00  0.00    -0.550 OA
ENDBRANCH   2   3
BRANCH   2   6
ATOM      6  C   UNL     1       0.551  46.834   8.801  1.00  0.00     0.004 C 
ATOM      7  C   UNL     1      -0.517  46.975   9.917  1.00  0.00     0.006 C 
ATOM      8  C   UNL     1       1.294  45.487   9.118  1.00  0.00    -0.020 C 
ATOM      9  C   UNL     1      -0.416  45.716  10.798  1.00  0.00     0.012 C 
ATOM     10  C   UNL     1       1.040  45.242  10.635  1.00  0.00    -0.006 C 
ATOM     11  C   UNL     1       2.807  45.388   8.872  1.00  0.00     0.012 C 
ATOM     12  C   UNL     1       0.614  44.389   8.216  1.00  0.00     0.012 C 
ATOM     13  C   UNL     1       1.906  46.079  11.631  1.00  0.00     0.017 C 
ATOM     14  C   UNL     1       1.377  43.795  10.961  1.00  0.00    -0.064 C 
ATOM     15  C   UNL     1       3.388  44.052   9.431  1.00  0.00     0.032 C 
ATOM     16  C   UNL     1       2.538  43.255  10.469  1.00  0.00    -0.064 C 
ATOM     17  C   UNL     1       0.486  43.033  11.896  1.00  0.00     0.032 C 
ATOM     18  C   UNL     1       3.078  41.868  10.957  1.00  0.00    -0.008 C 
ATOM     19  C   UNL     1       1.294  42.112  12.788  1.00  0.00     0.009 C 
ATOM     20  C   UNL     1       2.079  41.090  11.931  1.00  0.00     0.007 C 
ATOM     21  C   UNL     1       4.422  42.162  11.690  1.00  0.00     0.014 C 
ATOM     22  C   UNL     1       3.329  41.023   9.678  1.00  0.00     0.016 C 
ATOM     23  C   UNL     1       2.724  39.920  12.825  1.00  0.00    -0.006 C 
ATOM     24  C   UNL     1       5.036  40.953  12.383  1.00  0.00     0.033 C 
ATOM     25  C   UNL     1       4.077  40.388  13.438  1.00  0.00     0.120 C 
ATOM     26  C   UNL     1       2.909  38.608  11.999  1.00  0.00     0.014 C 
ATOM     27  C   UNL     1       1.789  39.519  14.004  1.00  0.00     0.014 C 
BRANCH  25  28
ATOM     28  O   UNL     1       4.697  39.367  14.186  1.00  0.00    -0.393 OA
ATOM     29  H   UNL     1       4.246  39.308  15.066  1.00  0.00     0.210 HD
ENDBRANCH  25  28
ENDBRANCH   2   6
ENDBRANCH   1   2
BRANCH   1  30
ATOM     30  C   UNL     1       3.811  48.632   7.698  1.00  0.00     0.028 C 
BRANCH  30  31
ATOM     31  C   UNL     1       4.884  47.846   8.415  1.00  0.00    -0.028 C 
ATOM     32  C   UNL     1       6.031  48.376   8.896  1.00  0.00    -0.080 C 
ATOM     33  C   UNL     1       6.362  49.841   8.741  1.00  0.00     0.039 C 
ATOM     34  C   UNL     1       7.007  47.461   9.595  1.00  0.00     0.039 C 
ENDBRANCH  30  31
ENDBRANCH   1  30
TORSDOF 6
ENDMDL
MODEL 2
REMARK VINA RESULT:     2.706      1.649      8.625
REMARK INTER + INTRA:           3.847
REMARK INTER:                   2.830
REMARK INTRA:                   1.017
REMARK UNBOUND:                 0.271
REMARK SMILES CC(C)=CCC[C@@H](C(=O)[O-])[C@@H]1CC[C@@]2(C)C3=C(CC[C@]12C)[C@@]1(C)CC[C@H](O)C(C)(C)[C@H]1CC3
REMARK SMILES IDX 6 1 7 2 8 3 9 4 10 5 11 6 12 7 20 8 13 9 14 10 19 11 21 12
REMARK SMILES IDX 15 13 16 14 18 15 17 16 33 17 22 18 32 19 31 20 24 21 23 22
REMARK SMILES IDX 28 23 25 24 26 25 29 26 30 27 27 28 5 30 4 31 2 32 1 33 3 34
REMARK H PARENT 27 29
REMARK Flexibility Score: inf
ROOT
ATOM      1  C   UNL     1       1.742  40.939  12.521  1.00  0.00     0.014 C 
ENDROOT
BRANCH   1   2
ATOM      2  C   UNL     1       3.259  41.219  12.699  1.00  0.00     0.039 C 
BRANCH   2   3
ATOM      3  C   UNL     1       3.977  39.924  13.017  1.00  0.00     0.045 C 
ATOM      4  O   UNL     1       5.104  39.938  13.583  1.00  0.00    -0.550 OA
ATOM      5  O   UNL     1       3.449  38.712  12.587  1.00  0.00    -0.550 OA
ENDBRANCH   2   3
BRANCH   2   6
ATOM      6  C   UNL     1       3.826  42.022  11.469  1.00  0.00     0.004 C 
ATOM      7  C   UNL     1       5.095  42.876  11.720  1.00  0.00     0.006 C 
ATOM      8  C   UNL     1       2.864  42.954  10.648  1.00  0.00    -0.020 C 
ATOM      9  C   UNL     1       4.877  44.226  11.011  1.00  0.00     0.012 C 
ATOM     10  C   UNL     1       3.347  44.399  10.968  1.00  0.00    -0.006 C 
ATOM     11  C   UNL     1       1.353  42.893  10.915  1.00  0.00     0.012 C 
ATOM     12  C   UNL     1       3.075  42.576   9.134  1.00  0.00     0.012 C 
ATOM     13  C   UNL     1       2.916  44.990  12.348  1.00  0.00     0.017 C 
ATOM     14  C   UNL     1       2.751  45.353   9.944  1.00  0.00    -0.064 C 
ATOM     15  C   UNL     1       0.595  44.024  10.152  1.00  0.00     0.032 C 
ATOM     16  C   UNL     1       1.421  45.239   9.623  1.00  0.00    -0.064 C 
ATOM     17  C   UNL     1       3.604  46.457   9.392  1.00  0.00     0.032 C 
ATOM     18  C   UNL     1       0.677  46.327   8.777  1.00  0.00    -0.008 C 
ATOM     19  C   UNL     1       2.794  47.721   9.191  1.00  0.00     0.009 C 
ATOM     20  C   UNL     1       1.637  47.463   8.195  1.00  0.00     0.007 C 
ATOM     21  C   UNL     1      -0.389  46.956   9.724  1.00  0.00     0.014 C 
ATOM     22  C   UNL     1      -0.013  45.572   7.607  1.00  0.00     0.016 C 
ATOM     23  C   UNL     1       0.924  48.827   7.730  1.00  0.00    -0.006 C 
ATOM     24  C   UNL     1      -1.121  48.155   9.136  1.00  0.00     0.033 C 
ATOM     25  C   UNL     1      -0.133  49.273   8.783  1.00  0.00     0.120 C 
ATOM     26  C   UNL     1       0.276  48.678   6.317  1.00  0.00     0.014 C 
ATOM     27  C   UNL     1       1.952  49.986   7.576  1.00  0.00     0.014 C 
BRANCH  25  28
ATOM     28  O   UNL     1      -0.816  50.439   8.381  1.00  0.00    -0.393 OA
ATOM     29  H   UNL     1      -1.139  50.907   9.193  1.00  0.00     0.210 HD
ENDBRANCH  25  28
ENDBRANCH   2   6
ENDBRANCH   1   2
BRANCH   1  30
ATOM     30  C   UNL     1       1.199  39.889  13.520  1.00  0.00     0.028 C 
BRANCH  30  31
ATOM     31  C   UNL     1       0.643  40.542  14.764  1.00  0.00    -0.028 C 
ATOM     32  C   UNL     1      -0.400  41.402  14.779  1.00  0.00    -0.080 C 
ATOM     33  C   UNL     1      -1.115  41.814  13.514  1.00  0.00     0.039 C 
ATOM     34  C   UNL     1      -0.844  41.969  16.105  1.00  0.00     0.039 C 
ENDBRANCH  30  31
ENDBRANCH   1  30
TORSDOF 6
ENDMDL
