MODEL 1
REMARK VINA RESULT:    -6.810      0.000      0.000
REMARK INTER + INTRA:         -11.795
REMARK INTER:                 -10.393
REMARK INTRA:                  -1.402
REMARK UNBOUND:                -1.402
REMARK SMILES CC(=O)CCC=C(C)CCC=C(C)CCC=C(C)C
REMARK SMILES IDX 10 1 11 2 12 3 13 4 14 5 15 6 16 7 18 8 17 9 19 10 9 11 7 12
REMARK SMILES IDX 6 13 8 14 5 15 4 16 2 17 3 18 1 19
REMARK H PARENT
REMARK Flexibility Score: inf
ROOT
ATOM      1  C   UNL     1      33.839  20.935  20.467  1.00  0.00     0.032 C 
ENDROOT
BRANCH   1   2
ATOM      2  C   UNL     1      32.957  21.597  21.498  1.00  0.00    -0.028 C 
ATOM      3  C   UNL     1      32.852  21.231  22.797  1.00  0.00    -0.077 C 
ATOM      4  C   UNL     1      31.972  22.059  23.697  1.00  0.00     0.039 C 
BRANCH   3   5
ATOM      5  C   UNL     1      33.564  20.025  23.378  1.00  0.00     0.034 C 
BRANCH   5   6
ATOM      6  C   UNL     1      32.720  18.748  23.264  1.00  0.00     0.032 C 
BRANCH   6   7
ATOM      7  C   UNL     1      32.087  18.394  24.589  1.00  0.00    -0.028 C 
ATOM      8  C   UNL     1      30.314  18.211  26.280  1.00  0.00     0.039 C 
ATOM      9  C   UNL     1      30.778  18.553  24.888  1.00  0.00    -0.080 C 
ATOM     10  C   UNL     1      29.779  19.061  23.874  1.00  0.00     0.039 C 
ENDBRANCH   6   7
ENDBRANCH   5   6
ENDBRANCH   3   5
ENDBRANCH   1   2
BRANCH   1  11
ATOM     11  C   UNL     1      33.045  20.559  19.208  1.00  0.00     0.034 C 
BRANCH  11  12
ATOM     12  C   UNL     1      33.745  21.012  17.938  1.00  0.00    -0.077 C 
ATOM     13  C   UNL     1      33.185  20.933  16.710  1.00  0.00    -0.028 C 
ATOM     14  C   UNL     1      35.124  21.612  18.054  1.00  0.00     0.039 C 
BRANCH  13  15
ATOM     15  C   UNL     1      31.848  20.306  16.401  1.00  0.00     0.035 C 
BRANCH  15  16
ATOM     16  C   UNL     1      31.978  19.101  15.459  1.00  0.00     0.079 C 
BRANCH  16  17
ATOM     17  C   UNL     1      32.707  17.956  16.114  1.00  0.00     0.130 C 
ATOM     18  O   UNL     1      32.190  17.362  17.049  1.00  0.00    -0.300 OA
ATOM     19  C   UNL     1      34.046  17.517  15.605  1.00  0.00     0.087 C 
ENDBRANCH  16  17
ENDBRANCH  15  16
ENDBRANCH  13  15
ENDBRANCH  11  12
ENDBRANCH   1  11
TORSDOF 9
ENDMDL
MODEL 2
REMARK VINA RESULT:    -6.759      1.618      2.298
REMARK INTER + INTRA:         -11.718
REMARK INTER:                 -10.318
REMARK INTRA:                  -1.399
REMARK UNBOUND:                -1.402
REMARK SMILES CC(=O)CCC=C(C)CCC=C(C)CCC=C(C)C
REMARK SMILES IDX 10 1 11 2 12 3 13 4 14 5 15 6 16 7 18 8 17 9 19 10 9 11 7 12
REMARK SMILES IDX 6 13 8 14 5 15 4 16 2 17 3 18 1 19
REMARK H PARENT
REMARK Flexibility Score: inf
ROOT
ATOM      1  C   UNL     1      33.123  21.368  20.847  1.00  0.00     0.032 C 
ENDROOT
BRANCH   1   2
ATOM      2  C   UNL     1      33.596  20.793  22.160  1.00  0.00    -0.028 C 
ATOM      3  C   UNL     1      32.800  20.299  23.137  1.00  0.00    -0.077 C 
ATOM      4  C   UNL     1      33.459  19.698  24.352  1.00  0.00     0.039 C 
BRANCH   3   5
ATOM      5  C   UNL     1      31.285  20.336  23.070  1.00  0.00     0.034 C 
BRANCH   5   6
ATOM      6  C   UNL     1      30.664  18.962  23.356  1.00  0.00     0.032 C 
BRANCH   6   7
ATOM      7  C   UNL     1      29.501  19.080  24.313  1.00  0.00    -0.028 C 
ATOM      8  C   UNL     1      28.226  18.741  26.386  1.00  0.00     0.039 C 
ATOM      9  C   UNL     1      29.490  18.599  25.577  1.00  0.00    -0.080 C 
ATOM     10  C   UNL     1      30.696  17.930  26.193  1.00  0.00     0.039 C 
ENDBRANCH   6   7
ENDBRANCH   5   6
ENDBRANCH   3   5
ENDBRANCH   1   2
BRANCH   1  11
ATOM     11  C   UNL     1      33.596  20.518  19.659  1.00  0.00     0.034 C 
BRANCH  11  12
ATOM     12  C   UNL     1      32.432  19.898  18.905  1.00  0.00    -0.077 C 
ATOM     13  C   UNL     1      32.265  20.013  17.568  1.00  0.00    -0.028 C 
ATOM     14  C   UNL     1      31.427  19.085  19.680  1.00  0.00     0.039 C 
BRANCH  13  15
ATOM     15  C   UNL     1      33.132  20.838  16.649  1.00  0.00     0.035 C 
BRANCH  15  16
ATOM     16  C   UNL     1      33.521  20.071  15.378  1.00  0.00     0.079 C 
BRANCH  16  17
ATOM     17  C   UNL     1      34.575  19.029  15.653  1.00  0.00     0.130 C 
ATOM     18  O   UNL     1      35.722  19.374  15.892  1.00  0.00    -0.300 OA
ATOM     19  C   UNL     1      34.217  17.575  15.671  1.00  0.00     0.087 C 
ENDBRANCH  16  17
ENDBRANCH  15  16
ENDBRANCH  13  15
ENDBRANCH  11  12
ENDBRANCH   1  11
TORSDOF 9
ENDMDL
MODEL 3
REMARK VINA RESULT:    -6.740      1.669      2.671
REMARK INTER + INTRA:         -11.688
REMARK INTER:                 -10.168
REMARK INTRA:                  -1.520
REMARK UNBOUND:                -1.402
REMARK SMILES CC(=O)CCC=C(C)CCC=C(C)CCC=C(C)C
REMARK SMILES IDX 10 1 11 2 12 3 13 4 14 5 15 6 16 7 18 8 17 9 19 10 9 11 7 12
REMARK SMILES IDX 6 13 8 14 5 15 4 16 2 17 3 18 1 19
REMARK H PARENT
REMARK Flexibility Score: inf
ROOT
ATOM      1  C   UNL     1      33.708  20.613  20.272  1.00  0.00     0.032 C 
ENDROOT
BRANCH   1   2
ATOM      2  C   UNL     1      33.108  21.571  21.272  1.00  0.00    -0.028 C 
ATOM      3  C   UNL     1      32.429  21.221  22.389  1.00  0.00    -0.077 C 
ATOM      4  C   UNL     1      31.964  22.320  23.310  1.00  0.00     0.039 C 
BRANCH   3   5
ATOM      5  C   UNL     1      32.106  19.783  22.747  1.00  0.00     0.034 C 
BRANCH   5   6
ATOM      6  C   UNL     1      32.268  19.514  24.249  1.00  0.00     0.032 C 
BRANCH   6   7
ATOM      7  C   UNL     1      33.515  18.706  24.525  1.00  0.00    -0.028 C 
ATOM      8  C   UNL     1      35.880  18.292  25.047  1.00  0.00     0.039 C 
ATOM      9  C   UNL     1      34.714  19.229  24.868  1.00  0.00    -0.080 C 
ATOM     10  C   UNL     1      34.914  20.712  25.074  1.00  0.00     0.039 C 
ENDBRANCH   6   7
ENDBRANCH   5   6
ENDBRANCH   3   5
ENDBRANCH   1   2
BRANCH   1  11
ATOM     11  C   UNL     1      33.237  20.925  18.844  1.00  0.00     0.034 C 
BRANCH  11  12
ATOM     12  C   UNL     1      32.229  19.905  18.343  1.00  0.00    -0.077 C 
ATOM     13  C   UNL     1      31.953  19.712  17.033  1.00  0.00    -0.028 C 
ATOM     14  C   UNL     1      31.523  19.037  19.354  1.00  0.00     0.039 C 
BRANCH  13  15
ATOM     15  C   UNL     1      32.514  20.528  15.894  1.00  0.00     0.035 C 
BRANCH  15  16
ATOM     16  C   UNL     1      33.265  19.659  14.876  1.00  0.00     0.079 C 
BRANCH  16  17
ATOM     17  C   UNL     1      34.384  18.882  15.520  1.00  0.00     0.130 C 
ATOM     18  O   UNL     1      34.331  17.662  15.563  1.00  0.00    -0.300 OA
ATOM     19  C   UNL     1      35.579  19.594  16.078  1.00  0.00     0.087 C 
ENDBRANCH  16  17
ENDBRANCH  15  16
ENDBRANCH  13  15
ENDBRANCH  11  12
ENDBRANCH   1  11
TORSDOF 9
ENDMDL
MODEL 4
REMARK VINA RESULT:    -6.738      3.650      8.299
REMARK INTER + INTRA:         -11.685
REMARK INTER:                 -10.209
REMARK INTRA:                  -1.476
REMARK UNBOUND:                -1.402
REMARK SMILES CC(=O)CCC=C(C)CCC=C(C)CCC=C(C)C
REMARK SMILES IDX 10 1 11 2 12 3 13 4 14 5 15 6 16 7 18 8 17 9 19 10 9 11 7 12
REMARK SMILES IDX 6 13 8 14 5 15 4 16 2 17 3 18 1 19
REMARK H PARENT
REMARK Flexibility Score: inf
ROOT
ATOM      1  C   UNL     1      32.291  18.055  24.314  1.00  0.00     0.032 C 
ENDROOT
BRANCH   1   2
ATOM      2  C   UNL     1      33.575  18.743  24.707  1.00  0.00    -0.028 C 
ATOM      3  C   UNL     1      33.876  20.043  24.476  1.00  0.00    -0.077 C 
ATOM      4  C   UNL     1      35.182  20.574  25.008  1.00  0.00     0.039 C 
BRANCH   3   5
ATOM      5  C   UNL     1      32.969  20.977  23.698  1.00  0.00     0.034 C 
BRANCH   5   6
ATOM      6  C   UNL     1      33.423  21.135  22.240  1.00  0.00     0.032 C 
BRANCH   6   7
ATOM      7  C   UNL     1      32.648  20.214  21.327  1.00  0.00    -0.028 C 
ATOM      8  C   UNL     1      31.880  19.244  19.204  1.00  0.00     0.039 C 
ATOM      9  C   UNL     1      32.773  20.176  19.981  1.00  0.00    -0.080 C 
ATOM     10  C   UNL     1      33.772  21.036  19.242  1.00  0.00     0.039 C 
ENDBRANCH   6   7
ENDBRANCH   5   6
ENDBRANCH   3   5
ENDBRANCH   1   2
BRANCH   1  11
ATOM     11  C   UNL     1      31.210  18.226  25.391  1.00  0.00     0.034 C 
BRANCH  11  12
ATOM     12  C   UNL     1      29.969  18.911  24.845  1.00  0.00    -0.077 C 
ATOM     13  C   UNL     1      29.014  19.460  25.631  1.00  0.00    -0.028 C 
ATOM     14  C   UNL     1      29.806  19.016  23.350  1.00  0.00     0.039 C 
BRANCH  13  15
ATOM     15  C   UNL     1      28.982  19.392  27.139  1.00  0.00     0.035 C 
BRANCH  15  16
ATOM     16  C   UNL     1      28.330  18.098  27.645  1.00  0.00     0.079 C 
BRANCH  16  17
ATOM     17  C   UNL     1      26.837  18.242  27.787  1.00  0.00     0.130 C 
ATOM     18  O   UNL     1      26.369  18.755  28.792  1.00  0.00    -0.300 OA
ATOM     19  C   UNL     1      25.923  17.792  26.688  1.00  0.00     0.087 C 
ENDBRANCH  16  17
ENDBRANCH  15  16
ENDBRANCH  13  15
ENDBRANCH  11  12
ENDBRANCH   1  11
TORSDOF 9
ENDMDL
MODEL 5
REMARK VINA RESULT:    -6.698      3.837      9.408
REMARK INTER + INTRA:         -11.624
REMARK INTER:                 -10.633
REMARK INTRA:                  -0.991
REMARK UNBOUND:                -1.402
REMARK SMILES CC(=O)CCC=C(C)CCC=C(C)CCC=C(C)C
REMARK SMILES IDX 10 1 11 2 12 3 13 4 14 5 15 6 16 7 18 8 17 9 19 10 9 11 7 12
REMARK SMILES IDX 6 13 8 14 5 15 4 16 2 17 3 18 1 19
REMARK H PARENT
REMARK Flexibility Score: inf
ROOT
ATOM      1  C   UNL     1      29.710  19.428  24.151  1.00  0.00     0.032 C 
ENDROOT
BRANCH   1   2
ATOM      2  C   UNL     1      30.643  20.598  23.952  1.00  0.00    -0.028 C 
ATOM      3  C   UNL     1      31.523  20.739  22.933  1.00  0.00    -0.077 C 
ATOM      4  C   UNL     1      32.323  22.014  22.859  1.00  0.00     0.039 C 
BRANCH   3   5
ATOM      5  C   UNL     1      31.749  19.672  21.879  1.00  0.00     0.034 C 
BRANCH   5   6
ATOM      6  C   UNL     1      32.791  20.105  20.838  1.00  0.00     0.032 C 
BRANCH   6   7
ATOM      7  C   UNL     1      32.210  20.081  19.444  1.00  0.00    -0.028 C 
ATOM      8  C   UNL     1      32.039  20.599  17.048  1.00  0.00     0.039 C 
ATOM      9  C   UNL     1      32.778  20.656  18.360  1.00  0.00    -0.080 C 
ATOM     10  C   UNL     1      34.119  21.347  18.428  1.00  0.00     0.039 C 
ENDBRANCH   6   7
ENDBRANCH   5   6
ENDBRANCH   3   5
ENDBRANCH   1   2
BRANCH   1  11
ATOM     11  C   UNL     1      28.844  19.608  25.406  1.00  0.00     0.034 C 
BRANCH  11  12
ATOM     12  C   UNL     1      29.094  18.516  26.431  1.00  0.00    -0.077 C 
ATOM     13  C   UNL     1      28.127  18.006  27.228  1.00  0.00    -0.028 C 
ATOM     14  C   UNL     1      30.484  17.943  26.545  1.00  0.00     0.039 C 
BRANCH  13  15
ATOM     15  C   UNL     1      26.703  18.500  27.294  1.00  0.00     0.035 C 
BRANCH  15  16
ATOM     16  C   UNL     1      26.346  19.052  28.681  1.00  0.00     0.079 C 
BRANCH  16  17
ATOM     17  C   UNL     1      27.102  20.319  28.991  1.00  0.00     0.130 C 
ATOM     18  O   UNL     1      26.889  21.329  28.337  1.00  0.00    -0.300 OA
ATOM     19  C   UNL     1      28.089  20.357  30.117  1.00  0.00     0.087 C 
ENDBRANCH  16  17
ENDBRANCH  15  16
ENDBRANCH  13  15
ENDBRANCH  11  12
ENDBRANCH   1  11
TORSDOF 9
ENDMDL
MODEL 6
REMARK VINA RESULT:    -6.652      2.218      4.100
REMARK INTER + INTRA:         -11.555
REMARK INTER:                 -10.608
REMARK INTRA:                  -0.946
REMARK UNBOUND:                -1.402
REMARK SMILES CC(=O)CCC=C(C)CCC=C(C)CCC=C(C)C
REMARK SMILES IDX 10 1 11 2 12 3 13 4 14 5 15 6 16 7 18 8 17 9 19 10 9 11 7 12
REMARK SMILES IDX 6 13 8 14 5 15 4 16 2 17 3 18 1 19
REMARK H PARENT
REMARK Flexibility Score: inf
ROOT
ATOM      1  C   UNL     1      30.809  19.623  22.477  1.00  0.00     0.032 C 
ENDROOT
BRANCH   1   2
ATOM      2  C   UNL     1      31.139  18.792  23.693  1.00  0.00    -0.028 C 
ATOM      3  C   UNL     1      30.517  18.870  24.893  1.00  0.00    -0.077 C 
ATOM      4  C   UNL     1      30.937  17.905  25.972  1.00  0.00     0.039 C 
BRANCH   3   5
ATOM      5  C   UNL     1      29.436  19.887  25.202  1.00  0.00     0.034 C 
BRANCH   5   6
ATOM      6  C   UNL     1      28.332  19.299  26.092  1.00  0.00     0.032 C 
BRANCH   6   7
ATOM      7  C   UNL     1      28.162  20.111  27.355  1.00  0.00    -0.028 C 
ATOM      8  C   UNL     1      28.019  20.546  29.769  1.00  0.00     0.039 C 
ATOM      9  C   UNL     1      28.283  19.621  28.610  1.00  0.00    -0.080 C 
ATOM     10  C   UNL     1      28.670  18.185  28.878  1.00  0.00     0.039 C 
ENDBRANCH   6   7
ENDBRANCH   5   6
ENDBRANCH   3   5
ENDBRANCH   1   2
BRANCH   1  11
ATOM     11  C   UNL     1      31.870  19.459  21.380  1.00  0.00     0.034 C 
BRANCH  11  12
ATOM     12  C   UNL     1      32.670  20.732  21.168  1.00  0.00    -0.077 C 
ATOM     13  C   UNL     1      33.298  21.033  20.008  1.00  0.00    -0.028 C 
ATOM     14  C   UNL     1      32.742  21.730  22.296  1.00  0.00     0.039 C 
BRANCH  13  15
ATOM     15  C   UNL     1      33.384  20.128  18.804  1.00  0.00     0.035 C 
BRANCH  15  16
ATOM     16  C   UNL     1      32.216  20.346  17.832  1.00  0.00     0.079 C 
BRANCH  16  17
ATOM     17  C   UNL     1      32.694  20.534  16.415  1.00  0.00     0.130 C 
ATOM     18  O   UNL     1      33.858  20.840  16.203  1.00  0.00    -0.300 OA
ATOM     19  C   UNL     1      31.761  20.316  15.264  1.00  0.00     0.087 C 
ENDBRANCH  16  17
ENDBRANCH  15  16
ENDBRANCH  13  15
ENDBRANCH  11  12
ENDBRANCH   1  11
TORSDOF 9
ENDMDL
MODEL 7
REMARK VINA RESULT:    -6.594      4.769      9.149
REMARK INTER + INTRA:         -11.466
REMARK INTER:                 -10.128
REMARK INTRA:                  -1.337
REMARK UNBOUND:                -1.402
REMARK SMILES CC(=O)CCC=C(C)CCC=C(C)CCC=C(C)C
REMARK SMILES IDX 10 1 11 2 12 3 13 4 14 5 15 6 16 7 18 8 17 9 19 10 9 11 7 12
REMARK SMILES IDX 6 13 8 14 5 15 4 16 2 17 3 18 1 19
REMARK H PARENT
REMARK Flexibility Score: inf
ROOT
ATOM      1  C   UNL     1      29.612  20.052  25.024  1.00  0.00     0.032 C 
ENDROOT
BRANCH   1   2
ATOM      2  C   UNL     1      30.005  20.024  23.567  1.00  0.00    -0.028 C 
ATOM      3  C   UNL     1      31.049  19.338  23.046  1.00  0.00    -0.077 C 
ATOM      4  C   UNL     1      31.244  19.371  21.552  1.00  0.00     0.039 C 
BRANCH   3   5
ATOM      5  C   UNL     1      32.034  18.556  23.894  1.00  0.00     0.034 C 
BRANCH   5   6
ATOM      6  C   UNL     1      33.229  19.417  24.328  1.00  0.00     0.032 C 
BRANCH   6   7
ATOM      7  C   UNL     1      34.081  18.692  25.342  1.00  0.00    -0.028 C 
ATOM      8  C   UNL     1      36.106  18.127  26.615  1.00  0.00     0.039 C 
ATOM      9  C   UNL     1      35.371  18.988  25.621  1.00  0.00    -0.080 C 
ATOM     10  C   UNL     1      36.087  20.147  24.968  1.00  0.00     0.039 C 
ENDBRANCH   6   7
ENDBRANCH   5   6
ENDBRANCH   3   5
ENDBRANCH   1   2
BRANCH   1  11
ATOM     11  C   UNL     1      28.639  18.915  25.365  1.00  0.00     0.034 C 
BRANCH  11  12
ATOM     12  C   UNL     1      28.995  18.235  26.676  1.00  0.00    -0.077 C 
ATOM     13  C   UNL     1      28.082  17.909  27.619  1.00  0.00    -0.028 C 
ATOM     14  C   UNL     1      30.438  17.875  26.928  1.00  0.00     0.039 C 
BRANCH  13  15
ATOM     15  C   UNL     1      26.613  18.249  27.564  1.00  0.00     0.035 C 
BRANCH  15  16
ATOM     16  C   UNL     1      26.192  19.180  28.709  1.00  0.00     0.079 C 
BRANCH  16  17
ATOM     17  C   UNL     1      26.717  20.579  28.515  1.00  0.00     0.130 C 
ATOM     18  O   UNL     1      26.604  21.125  27.428  1.00  0.00    -0.300 OA
ATOM     19  C   UNL     1      27.345  21.319  29.656  1.00  0.00     0.087 C 
ENDBRANCH  16  17
ENDBRANCH  15  16
ENDBRANCH  13  15
ENDBRANCH  11  12
ENDBRANCH   1  11
TORSDOF 9
ENDMDL
MODEL 8
REMARK VINA RESULT:    -6.577      2.636      7.848
REMARK INTER + INTRA:         -11.439
REMARK INTER:                 -10.147
REMARK INTRA:                  -1.292
REMARK UNBOUND:                -1.402
REMARK SMILES CC(=O)CCC=C(C)CCC=C(C)CCC=C(C)C
REMARK SMILES IDX 10 1 11 2 12 3 13 4 14 5 15 6 16 7 18 8 17 9 19 10 9 11 7 12
REMARK SMILES IDX 6 13 8 14 5 15 4 16 2 17 3 18 1 19
REMARK H PARENT
REMARK Flexibility Score: inf
ROOT
ATOM      1  C   UNL     1      33.240  21.295  22.536  1.00  0.00     0.032 C 
ENDROOT
BRANCH   1   2
ATOM      2  C   UNL     1      32.486  20.394  21.588  1.00  0.00    -0.028 C 
ATOM      3  C   UNL     1      32.736  20.258  20.265  1.00  0.00    -0.077 C 
ATOM      4  C   UNL     1      31.923  19.252  19.490  1.00  0.00     0.039 C 
BRANCH   3   5
ATOM      5  C   UNL     1      33.779  21.077  19.529  1.00  0.00     0.034 C 
BRANCH   5   6
ATOM      6  C   UNL     1      33.438  21.238  18.041  1.00  0.00     0.032 C 
BRANCH   6   7
ATOM      7  C   UNL     1      34.596  20.812  17.169  1.00  0.00    -0.028 C 
ATOM      8  C   UNL     1      35.751  19.637  15.346  1.00  0.00     0.039 C 
ATOM      9  C   UNL     1      34.490  20.026  16.074  1.00  0.00    -0.080 C 
ATOM     10  C   UNL     1      33.156  19.532  15.566  1.00  0.00     0.039 C 
ENDBRANCH   6   7
ENDBRANCH   5   6
ENDBRANCH   3   5
ENDBRANCH   1   2
BRANCH   1  11
ATOM     11  C   UNL     1      32.881  20.996  23.999  1.00  0.00     0.034 C 
BRANCH  11  12
ATOM     12  C   UNL     1      33.729  19.873  24.573  1.00  0.00    -0.077 C 
ATOM     13  C   UNL     1      33.264  18.620  24.780  1.00  0.00    -0.028 C 
ATOM     14  C   UNL     1      35.173  20.160  24.899  1.00  0.00     0.039 C 
BRANCH  13  15
ATOM     15  C   UNL     1      31.838  18.174  24.572  1.00  0.00     0.035 C 
BRANCH  15  16
ATOM     16  C   UNL     1      31.069  18.060  25.896  1.00  0.00     0.079 C 
BRANCH  16  17
ATOM     17  C   UNL     1      29.682  18.639  25.789  1.00  0.00     0.130 C 
ATOM     18  O   UNL     1      28.738  18.052  26.296  1.00  0.00    -0.300 OA
ATOM     19  C   UNL     1      29.457  19.947  25.095  1.00  0.00     0.087 C 
ENDBRANCH  16  17
ENDBRANCH  15  16
ENDBRANCH  13  15
ENDBRANCH  11  12
ENDBRANCH   1  11
TORSDOF 9
ENDMDL
MODEL 9
REMARK VINA RESULT:    -6.455      3.016      7.611
REMARK INTER + INTRA:         -11.254
REMARK INTER:                  -9.908
REMARK INTRA:                  -1.347
REMARK UNBOUND:                -1.402
REMARK SMILES CC(=O)CCC=C(C)CCC=C(C)CCC=C(C)C
REMARK SMILES IDX 10 1 11 2 12 3 13 4 14 5 15 6 16 7 18 8 17 9 19 10 9 11 7 12
REMARK SMILES IDX 6 13 8 14 5 15 4 16 2 17 3 18 1 19
REMARK H PARENT
REMARK Flexibility Score: inf
ROOT
ATOM      1  C   UNL     1      32.239  21.458  22.448  1.00  0.00     0.032 C 
ENDROOT
BRANCH   1   2
ATOM      2  C   UNL     1      33.104  21.699  21.235  1.00  0.00    -0.028 C 
ATOM      3  C   UNL     1      33.235  20.859  20.181  1.00  0.00    -0.077 C 
ATOM      4  C   UNL     1      34.091  21.304  19.023  1.00  0.00     0.039 C 
BRANCH   3   5
ATOM      5  C   UNL     1      32.576  19.495  20.121  1.00  0.00     0.034 C 
BRANCH   5   6
ATOM      6  C   UNL     1      31.768  19.303  18.831  1.00  0.00     0.032 C 
BRANCH   6   7
ATOM      7  C   UNL     1      32.412  18.272  17.934  1.00  0.00    -0.028 C 
ATOM      8  C   UNL     1      33.310  17.318  15.855  1.00  0.00     0.039 C 
ATOM      9  C   UNL     1      32.730  18.470  16.634  1.00  0.00    -0.080 C 
ATOM     10  C   UNL     1      32.521  19.801  15.950  1.00  0.00     0.039 C 
ENDBRANCH   6   7
ENDBRANCH   5   6
ENDBRANCH   3   5
ENDBRANCH   1   2
BRANCH   1  11
ATOM     11  C   UNL     1      33.086  21.301  23.719  1.00  0.00     0.034 C 
BRANCH  11  12
ATOM     12  C   UNL     1      33.206  19.848  24.146  1.00  0.00    -0.077 C 
ATOM     13  C   UNL     1      34.221  19.377  24.907  1.00  0.00    -0.028 C 
ATOM     14  C   UNL     1      32.122  18.886  23.730  1.00  0.00     0.039 C 
BRANCH  13  15
ATOM     15  C   UNL     1      35.418  20.178  25.357  1.00  0.00     0.035 C 
BRANCH  15  16
ATOM     16  C   UNL     1      36.742  19.480  25.017  1.00  0.00     0.079 C 
BRANCH  16  17
ATOM     17  C   UNL     1      36.832  18.114  25.646  1.00  0.00     0.130 C 
ATOM     18  O   UNL     1      36.928  17.123  24.938  1.00  0.00    -0.300 OA
ATOM     19  C   UNL     1      36.838  17.964  27.137  1.00  0.00     0.087 C 
ENDBRANCH  16  17
ENDBRANCH  15  16
ENDBRANCH  13  15
ENDBRANCH  11  12
ENDBRANCH   1  11
TORSDOF 9
ENDMDL
