MODEL 1
REMARK VINA RESULT:     0.995      0.000      0.000
REMARK INTER + INTRA:           2.667
REMARK INTER:                   1.140
REMARK INTRA:                   1.527
REMARK UNBOUND:                 1.527
REMARK SMILES C=C(C)[C@@H]1CC[C@]2(C(=O)[O-])CC[C@]3(C)[C@H](CC[C@@H]4[C@@]5(C)CC[C@H](O)C(C)(C)[C@H]5CC[C@]43C)[C@@H]12
REMARK SMILES IDX 7 1 6 2 33 3 11 4 5 5 15 6 4 7 12 8 16 9 13 10 17 11 31 12
REMARK SMILES IDX 14 13 18 14 30 15 32 16 19 17 29 18 21 19 20 20 28 21 22 22
REMARK SMILES IDX 25 23 23 24 26 25 27 26 8 27 9 28 10 29 2 30 3 31 1 32 24 33
REMARK H PARENT 24 34
REMARK Flexibility Score: inf
ROOT
ATOM      1  C   UNL     1     -10.921  12.874 -31.486  1.00  0.00     0.014 C 
ATOM      2  C   UNL     1      -9.965  13.279 -32.624  1.00  0.00     0.014 C 
ATOM      3  C   UNL     1     -12.072  13.870 -31.718  1.00  0.00     0.012 C 
ATOM      4  C   UNL     1     -11.468  11.433 -31.622  1.00  0.00     0.014 C 
ATOM      5  C   UNL     1     -10.066  14.815 -32.701  1.00  0.00     0.009 C 
ATOM      6  C   UNL     1     -13.187  13.712 -30.649  1.00  0.00     0.000 C 
ATOM      7  C   UNL     1     -11.342  15.211 -31.917  1.00  0.00     0.018 C 
ATOM      8  C   UNL     1     -12.695  11.149 -30.704  1.00  0.00     0.008 C 
ATOM      9  C   UNL     1     -14.276  14.799 -30.753  1.00  0.00     0.005 C 
ATOM     10  C   UNL     1     -13.823  12.259 -30.713  1.00  0.00    -0.024 C 
ATOM     11  C   UNL     1     -15.417  14.636 -29.728  1.00  0.00     0.005 C 
ATOM     12  C   UNL     1     -14.827  12.116 -29.448  1.00  0.00    -0.024 C 
ATOM     13  C   UNL     1     -14.571  12.055 -32.092  1.00  0.00     0.012 C 
ATOM     14  C   UNL     1     -15.993  13.183 -29.606  1.00  0.00     0.002 C 
ATOM     15  C   UNL     1     -15.430  10.678 -29.378  1.00  0.00     0.008 C 
ATOM     16  C   UNL     1     -14.043  12.347 -28.100  1.00  0.00     0.012 C 
ATOM     17  C   UNL     1     -17.231  13.027 -28.610  1.00  0.00    -0.026 C 
ATOM     18  C   UNL     1     -16.625  10.509 -28.420  1.00  0.00     0.005 C 
ATOM     19  C   UNL     1     -18.395  14.008 -28.979  1.00  0.00     0.010 C 
ATOM     20  C   UNL     1     -16.848  13.425 -27.148  1.00  0.00     0.012 C 
ATOM     21  C   UNL     1     -17.778  11.534 -28.604  1.00  0.00     0.003 C 
ATOM     22  C   UNL     1     -19.196  13.594 -30.210  1.00  0.00     0.033 C 
ATOM     23  C   UNL     1     -18.867  11.108 -29.698  1.00  0.00    -0.006 C 
ATOM     24  C   UNL     1     -19.895  12.258 -29.948  1.00  0.00     0.120 C 
ATOM     25  C   UNL     1     -18.263  10.680 -31.061  1.00  0.00     0.014 C 
ATOM     26  C   UNL     1     -19.671   9.875 -29.186  1.00  0.00     0.014 C 
ENDROOT
BRANCH   1  27
ATOM     27  C   UNL     1     -10.196  13.063 -30.137  1.00  0.00     0.048 C 
ATOM     28  O   UNL     1      -9.876  12.069 -29.427  1.00  0.00    -0.550 OA
ATOM     29  O   UNL     1      -9.905  14.327 -29.644  1.00  0.00    -0.550 OA
ENDBRANCH   1  27
BRANCH   7  30
ATOM     30  C   UNL     1     -12.136  16.294 -32.647  1.00  0.00    -0.077 C 
ATOM     31  C   UNL     1     -11.597  16.989 -33.877  1.00  0.00     0.039 C 
ATOM     32  C   UNL     1     -13.289  16.743 -32.124  1.00  0.00     0.008 C 
ENDBRANCH   7  30
BRANCH  24  33
ATOM     33  O   UNL     1     -20.770  12.386 -28.849  1.00  0.00    -0.393 OA
ATOM     34  H   UNL     1     -20.888  13.358 -28.679  1.00  0.00     0.210 HD
ENDBRANCH  24  33
TORSDOF 3
ENDMDL
MODEL 2
REMARK VINA RESULT:     2.513      2.158      4.710
REMARK INTER + INTRA:           4.408
REMARK INTER:                   3.091
REMARK INTRA:                   1.317
REMARK UNBOUND:                 1.527
REMARK SMILES C=C(C)[C@@H]1CC[C@]2(C(=O)[O-])CC[C@]3(C)[C@H](CC[C@@H]4[C@@]5(C)CC[C@H](O)C(C)(C)[C@H]5CC[C@]43C)[C@@H]12
REMARK SMILES IDX 7 1 6 2 33 3 11 4 5 5 15 6 4 7 12 8 16 9 13 10 17 11 31 12
REMARK SMILES IDX 14 13 18 14 30 15 32 16 19 17 29 18 21 19 20 20 28 21 22 22
REMARK SMILES IDX 25 23 23 24 26 25 27 26 8 27 9 28 10 29 2 30 3 31 1 32 24 33
REMARK H PARENT 24 34
REMARK Flexibility Score: inf
ROOT
ATOM      1  C   UNL     1     -11.772  13.002 -28.566  1.00  0.00     0.014 C 
ATOM      2  C   UNL     1     -10.686  13.254 -27.503  1.00  0.00     0.014 C 
ATOM      3  C   UNL     1     -12.712  12.061 -27.791  1.00  0.00     0.012 C 
ATOM      4  C   UNL     1     -12.553  14.277 -28.965  1.00  0.00     0.014 C 
ATOM      5  C   UNL     1     -10.511  11.900 -26.785  1.00  0.00     0.009 C 
ATOM      6  C   UNL     1     -13.906  11.599 -28.670  1.00  0.00     0.000 C 
ATOM      7  C   UNL     1     -11.746  11.043 -27.157  1.00  0.00     0.018 C 
ATOM      8  C   UNL     1     -13.868  13.978 -29.744  1.00  0.00     0.008 C 
ATOM      9  C   UNL     1     -14.778  10.529 -27.981  1.00  0.00     0.005 C 
ATOM     10  C   UNL     1     -14.782  12.841 -29.126  1.00  0.00    -0.024 C 
ATOM     11  C   UNL     1     -15.995  10.086 -28.818  1.00  0.00     0.005 C 
ATOM     12  C   UNL     1     -15.876  12.295 -30.189  1.00  0.00    -0.024 C 
ATOM     13  C   UNL     1     -15.460  13.518 -27.867  1.00  0.00     0.012 C 
ATOM     14  C   UNL     1     -16.824  11.257 -29.449  1.00  0.00     0.002 C 
ATOM     15  C   UNL     1     -16.726  13.472 -30.764  1.00  0.00     0.008 C 
ATOM     16  C   UNL     1     -15.155  11.613 -31.415  1.00  0.00     0.012 C 
ATOM     17  C   UNL     1     -18.134  10.807 -30.245  1.00  0.00    -0.026 C 
ATOM     18  C   UNL     1     -17.992  13.056 -31.538  1.00  0.00     0.005 C 
ATOM     19  C   UNL     1     -19.080   9.937 -29.352  1.00  0.00     0.010 C 
ATOM     20  C   UNL     1     -17.784   9.875 -31.449  1.00  0.00     0.012 C 
ATOM     21  C   UNL     1     -18.933  12.068 -30.793  1.00  0.00     0.003 C 
ATOM     22  C   UNL     1     -19.858  10.730 -28.305  1.00  0.00     0.033 C 
ATOM     23  C   UNL     1     -20.005  12.775 -29.837  1.00  0.00    -0.006 C 
ATOM     24  C   UNL     1     -20.797  11.721 -28.998  1.00  0.00     0.120 C 
ATOM     25  C   UNL     1     -19.396  13.822 -28.867  1.00  0.00     0.014 C 
ATOM     26  C   UNL     1     -21.045  13.553 -30.699  1.00  0.00     0.014 C 
ENDROOT
BRANCH   1  27
ATOM     27  C   UNL     1     -11.116  12.350 -29.801  1.00  0.00     0.048 C 
ATOM     28  O   UNL     1      -9.987  12.732 -30.215  1.00  0.00    -0.550 OA
ATOM     29  O   UNL     1     -11.760  11.350 -30.517  1.00  0.00    -0.550 OA
ENDBRANCH   1  27
BRANCH   7  30
ATOM     30  C   UNL     1     -12.288  10.285 -25.945  1.00  0.00    -0.077 C 
ATOM     31  C   UNL     1     -13.763  10.001 -25.773  1.00  0.00     0.039 C 
ATOM     32  C   UNL     1     -11.463   9.966 -24.934  1.00  0.00     0.008 C 
ENDBRANCH   7  30
BRANCH  24  33
ATOM     33  O   UNL     1     -21.706  11.020 -29.818  1.00  0.00    -0.393 OA
ATOM     34  H   UNL     1     -21.211  10.740 -30.633  1.00  0.00     0.210 HD
ENDBRANCH  24  33
TORSDOF 3
ENDMDL
MODEL 3
REMARK VINA RESULT:     2.638      1.750      4.064
REMARK INTER + INTRA:           4.550
REMARK INTER:                   4.779
REMARK INTRA:                  -0.229
REMARK UNBOUND:                 1.527
REMARK SMILES C=C(C)[C@@H]1CC[C@]2(C(=O)[O-])CC[C@]3(C)[C@H](CC[C@@H]4[C@@]5(C)CC[C@H](O)C(C)(C)[C@H]5CC[C@]43C)[C@@H]12
REMARK SMILES IDX 7 1 6 2 33 3 11 4 5 5 15 6 4 7 12 8 16 9 13 10 17 11 31 12
REMARK SMILES IDX 14 13 18 14 30 15 32 16 19 17 29 18 21 19 20 20 28 21 22 22
REMARK SMILES IDX 25 23 23 24 26 25 27 26 8 27 9 28 10 29 2 30 3 31 1 32 24 33
REMARK H PARENT 24 34
REMARK Flexibility Score: inf
ROOT
ATOM      1  C   UNL     1     -11.674  13.961 -30.450  1.00  0.00     0.014 C 
ATOM      2  C   UNL     1     -10.412  14.438 -29.705  1.00  0.00     0.014 C 
ATOM      3  C   UNL     1     -12.260  12.985 -29.414  1.00  0.00     0.012 C 
ATOM      4  C   UNL     1     -12.698  15.090 -30.715  1.00  0.00     0.014 C 
ATOM      5  C   UNL     1      -9.882  13.185 -28.978  1.00  0.00     0.009 C 
ATOM      6  C   UNL     1     -13.552  12.303 -29.941  1.00  0.00     0.000 C 
ATOM      7  C   UNL     1     -11.038  12.154 -28.981  1.00  0.00     0.018 C 
ATOM      8  C   UNL     1     -14.106  14.562 -31.124  1.00  0.00     0.008 C 
ATOM      9  C   UNL     1     -14.075  11.200 -28.996  1.00  0.00     0.005 C 
ATOM     10  C   UNL     1     -14.677  13.383 -30.235  1.00  0.00    -0.024 C 
ATOM     11  C   UNL     1     -15.382  10.539 -29.479  1.00  0.00     0.005 C 
ATOM     12  C   UNL     1     -15.905  12.614 -30.961  1.00  0.00    -0.024 C 
ATOM     13  C   UNL     1     -15.124  14.082 -28.888  1.00  0.00     0.012 C 
ATOM     14  C   UNL     1     -16.494  11.538 -29.951  1.00  0.00     0.002 C 
ATOM     15  C   UNL     1     -17.024  13.621 -31.373  1.00  0.00     0.008 C 
ATOM     16  C   UNL     1     -15.408  11.918 -32.286  1.00  0.00     0.012 C 
ATOM     17  C   UNL     1     -17.879  10.862 -30.369  1.00  0.00    -0.026 C 
ATOM     18  C   UNL     1     -18.367  12.986 -31.783  1.00  0.00     0.005 C 
ATOM     19  C   UNL     1     -18.453   9.966 -29.221  1.00  0.00     0.010 C 
ATOM     20  C   UNL     1     -17.699   9.875 -31.568  1.00  0.00     0.012 C 
ATOM     21  C   UNL     1     -18.954  11.961 -30.773  1.00  0.00     0.003 C 
ATOM     22  C   UNL     1     -19.063  10.748 -28.061  1.00  0.00     0.033 C 
ATOM     23  C   UNL     1     -19.856  12.615 -29.622  1.00  0.00    -0.006 C 
ATOM     24  C   UNL     1     -20.269  11.551 -28.555  1.00  0.00     0.120 C 
ATOM     25  C   UNL     1     -19.187  13.810 -28.895  1.00  0.00     0.014 C 
ATOM     26  C   UNL     1     -21.170  13.179 -30.242  1.00  0.00     0.014 C 
ENDROOT
BRANCH   1  27
ATOM     27  C   UNL     1     -11.246  13.285 -31.770  1.00  0.00     0.048 C 
ATOM     28  O   UNL     1     -10.547  13.904 -32.619  1.00  0.00    -0.550 OA
ATOM     29  O   UNL     1     -11.645  11.993 -32.082  1.00  0.00    -0.550 OA
ENDBRANCH   1  27
BRANCH   7  30
ATOM     30  C   UNL     1     -11.163  11.447 -27.632  1.00  0.00    -0.077 C 
ATOM     31  C   UNL     1     -11.819  12.107 -26.441  1.00  0.00     0.039 C 
ATOM     32  C   UNL     1     -10.568  10.256 -27.444  1.00  0.00     0.008 C 
ENDBRANCH   7  30
BRANCH  24  33
ATOM     33  O   UNL     1     -21.240  10.674 -29.082  1.00  0.00    -0.393 OA
ATOM     34  H   UNL     1     -21.787  11.195 -29.727  1.00  0.00     0.210 HD
ENDBRANCH  24  33
TORSDOF 3
ENDMDL
MODEL 4
REMARK VINA RESULT:     3.794      2.736      7.160
REMARK INTER + INTRA:           5.876
REMARK INTER:                   6.060
REMARK INTRA:                  -0.184
REMARK UNBOUND:                 1.527
REMARK SMILES C=C(C)[C@@H]1CC[C@]2(C(=O)[O-])CC[C@]3(C)[C@H](CC[C@@H]4[C@@]5(C)CC[C@H](O)C(C)(C)[C@H]5CC[C@]43C)[C@@H]12
REMARK SMILES IDX 7 1 6 2 33 3 11 4 5 5 15 6 4 7 12 8 16 9 13 10 17 11 31 12
REMARK SMILES IDX 14 13 18 14 30 15 32 16 19 17 29 18 21 19 20 20 28 21 22 22
REMARK SMILES IDX 25 23 23 24 26 25 27 26 8 27 9 28 10 29 2 30 3 31 1 32 24 33
REMARK H PARENT 24 34
REMARK Flexibility Score: inf
ROOT
ATOM      1  C   UNL     1     -14.910  10.763 -26.492  1.00  0.00     0.014 C 
ATOM      2  C   UNL     1     -14.687   9.876 -25.252  1.00  0.00     0.014 C 
ATOM      3  C   UNL     1     -13.519  11.408 -26.630  1.00  0.00     0.012 C 
ATOM      4  C   UNL     1     -15.222   9.960 -27.777  1.00  0.00     0.014 C 
ATOM      5  C   UNL     1     -13.785  10.713 -24.321  1.00  0.00     0.009 C 
ATOM      6  C   UNL     1     -13.474  12.416 -27.810  1.00  0.00     0.000 C 
ATOM      7  C   UNL     1     -13.190  11.848 -25.191  1.00  0.00     0.018 C 
ATOM      8  C   UNL     1     -15.084  10.802 -29.080  1.00  0.00     0.008 C 
ATOM      9  C   UNL     1     -12.147  13.201 -27.877  1.00  0.00     0.005 C 
ATOM     10  C   UNL     1     -13.774  11.684 -29.186  1.00  0.00    -0.024 C 
ATOM     11  C   UNL     1     -12.063  14.178 -29.068  1.00  0.00     0.005 C 
ATOM     12  C   UNL     1     -13.902  12.830 -30.324  1.00  0.00    -0.024 C 
ATOM     13  C   UNL     1     -12.623  10.648 -29.511  1.00  0.00     0.012 C 
ATOM     14  C   UNL     1     -12.505  13.578 -30.447  1.00  0.00     0.002 C 
ATOM     15  C   UNL     1     -14.290  12.205 -31.700  1.00  0.00     0.008 C 
ATOM     16  C   UNL     1     -15.046  13.849 -29.948  1.00  0.00     0.012 C 
ATOM     17  C   UNL     1     -12.338  14.558 -31.696  1.00  0.00    -0.026 C 
ATOM     18  C   UNL     1     -14.137  13.138 -32.917  1.00  0.00     0.005 C 
ATOM     19  C   UNL     1     -10.870  15.090 -31.819  1.00  0.00     0.010 C 
ATOM     20  C   UNL     1     -13.198  15.853 -31.533  1.00  0.00     0.012 C 
ATOM     21  C   UNL     1     -12.756  13.838 -33.050  1.00  0.00     0.003 C 
ATOM     22  C   UNL     1      -9.875  14.064 -32.355  1.00  0.00     0.033 C 
ATOM     23  C   UNL     1     -11.657  12.979 -33.837  1.00  0.00    -0.006 C 
ATOM     24  C   UNL     1     -10.256  13.670 -33.784  1.00  0.00     0.120 C 
ATOM     25  C   UNL     1     -11.509  11.521 -33.329  1.00  0.00     0.014 C 
ATOM     26  C   UNL     1     -12.057  12.865 -35.339  1.00  0.00     0.014 C 
ENDROOT
BRANCH   1  27
ATOM     27  C   UNL     1     -16.037  11.771 -26.186  1.00  0.00     0.048 C 
ATOM     28  O   UNL     1     -17.164  11.380 -25.772  1.00  0.00    -0.550 OA
ATOM     29  O   UNL     1     -15.863  13.133 -26.388  1.00  0.00    -0.550 OA
ENDBRANCH   1  27
BRANCH   7  30
ATOM     30  C   UNL     1     -11.708  12.068 -24.889  1.00  0.00    -0.077 C 
ATOM     31  C   UNL     1     -10.718  10.926 -24.870  1.00  0.00     0.039 C 
ATOM     32  C   UNL     1     -11.278  13.281 -24.504  1.00  0.00     0.008 C 
ENDBRANCH   7  30
BRANCH  24  33
ATOM     33  O   UNL     1     -10.236  14.810 -34.613  1.00  0.00    -0.393 OA
ATOM     34  H   UNL     1     -11.181  15.053 -34.803  1.00  0.00     0.210 HD
ENDBRANCH  24  33
TORSDOF 3
ENDMDL
