MODEL 1
REMARK VINA RESULT:    -6.035      0.000      0.000
REMARK INTER + INTRA:          -6.035
REMARK INTER:                  -6.035
REMARK INTRA:                   0.000
REMARK UNBOUND:                 0.000
REMARK SMILES O=c1ccc2ccccc2o1
REMARK SMILES IDX 7 1 8 2 9 3 10 4 5 5 6 6 4 7 3 8 2 9 1 10 11 11
REMARK H PARENT
REMARK Flexibility Score: inf
ROOT
ATOM      1  C   UNL     1     -14.010  13.240 -24.602  1.00  0.00     0.001 A 
ATOM      2  C   UNL     1     -14.438  13.005 -23.292  1.00  0.00     0.004 A 
ATOM      3  C   UNL     1     -15.782  13.187 -22.947  1.00  0.00     0.048 A 
ATOM      4  C   UNL     1     -16.703  13.605 -23.914  1.00  0.00     0.138 A 
ATOM      5  C   UNL     1     -16.270  13.842 -25.238  1.00  0.00     0.018 A 
ATOM      6  C   UNL     1     -14.922  13.657 -25.577  1.00  0.00     0.012 A 
ATOM      7  C   UNL     1     -17.213  14.258 -26.183  1.00  0.00     0.019 A 
ATOM      8  C   UNL     1     -18.542  14.426 -25.795  1.00  0.00     0.094 A 
ATOM      9  C   UNL     1     -18.897  14.173 -24.466  1.00  0.00     0.336 A 
ATOM     10  O   UNL     1     -20.093  14.318 -24.096  1.00  0.00    -0.246 OA
ATOM     11  O   UNL     1     -17.980  13.777 -23.586  1.00  0.00    -0.423 OA
ENDROOT
TORSDOF 0
ENDMDL
MODEL 2
REMARK VINA RESULT:    -5.920      1.879      4.346
REMARK INTER + INTRA:          -5.920
REMARK INTER:                  -5.920
REMARK INTRA:                   0.000
REMARK UNBOUND:                 0.000
REMARK SMILES O=c1ccc2ccccc2o1
REMARK SMILES IDX 7 1 8 2 9 3 10 4 5 5 6 6 4 7 3 8 2 9 1 10 11 11
REMARK H PARENT
REMARK Flexibility Score: inf
ROOT
ATOM      1  C   UNL     1     -19.310  14.259 -24.174  1.00  0.00     0.001 A 
ATOM      2  C   UNL     1     -19.015  14.505 -25.519  1.00  0.00     0.004 A 
ATOM      3  C   UNL     1     -17.711  14.331 -25.997  1.00  0.00     0.048 A 
ATOM      4  C   UNL     1     -16.698  13.910 -25.129  1.00  0.00     0.138 A 
ATOM      5  C   UNL     1     -16.996  13.662 -23.771  1.00  0.00     0.018 A 
ATOM      6  C   UNL     1     -18.304  13.837 -23.299  1.00  0.00     0.012 A 
ATOM      7  C   UNL     1     -15.962  13.241 -22.928  1.00  0.00     0.019 A 
ATOM      8  C   UNL     1     -14.679  13.081 -23.447  1.00  0.00     0.094 A 
ATOM      9  C   UNL     1     -14.457  13.346 -24.803  1.00  0.00     0.336 A 
ATOM     10  O   UNL     1     -13.305  13.206 -25.291  1.00  0.00    -0.246 OA
ATOM     11  O   UNL     1     -15.459  13.744 -25.584  1.00  0.00    -0.423 OA
ENDROOT
TORSDOF 0
ENDMDL
MODEL 3
REMARK VINA RESULT:    -5.813      1.468      3.768
REMARK INTER + INTRA:          -5.813
REMARK INTER:                  -5.813
REMARK INTRA:                   0.000
REMARK UNBOUND:                 0.000
REMARK SMILES O=c1ccc2ccccc2o1
REMARK SMILES IDX 7 1 8 2 9 3 10 4 5 5 6 6 4 7 3 8 2 9 1 10 11 11
REMARK H PARENT
REMARK Flexibility Score: inf
ROOT
ATOM      1  C   UNL     1     -18.539  14.551 -25.930  1.00  0.00     0.001 A 
ATOM      2  C   UNL     1     -19.196  14.329 -24.715  1.00  0.00     0.004 A 
ATOM      3  C   UNL     1     -18.490  13.833 -23.613  1.00  0.00     0.048 A 
ATOM      4  C   UNL     1     -17.122  13.559 -23.723  1.00  0.00     0.138 A 
ATOM      5  C   UNL     1     -16.459  13.785 -24.950  1.00  0.00     0.018 A 
ATOM      6  C   UNL     1     -17.171  14.281 -26.050  1.00  0.00     0.012 A 
ATOM      7  C   UNL     1     -15.091  13.502 -25.029  1.00  0.00     0.019 A 
ATOM      8  C   UNL     1     -14.428  13.010 -23.906  1.00  0.00     0.094 A 
ATOM      9  C   UNL     1     -15.151  12.811 -22.724  1.00  0.00     0.336 A 
ATOM     10  O   UNL     1     -14.570  12.368 -21.699  1.00  0.00    -0.246 OA
ATOM     11  O   UNL     1     -16.452  13.089 -22.675  1.00  0.00    -0.423 OA
ENDROOT
TORSDOF 0
ENDMDL
MODEL 4
REMARK VINA RESULT:    -5.808      1.187      2.125
REMARK INTER + INTRA:          -5.808
REMARK INTER:                  -5.808
REMARK INTRA:                   0.000
REMARK UNBOUND:                 0.000
REMARK SMILES O=c1ccc2ccccc2o1
REMARK SMILES IDX 7 1 8 2 9 3 10 4 5 5 6 6 4 7 3 8 2 9 1 10 11 11
REMARK H PARENT
REMARK Flexibility Score: inf
ROOT
ATOM      1  C   UNL     1     -14.408  13.025 -23.246  1.00  0.00     0.001 A 
ATOM      2  C   UNL     1     -14.047  13.244 -24.579  1.00  0.00     0.004 A 
ATOM      3  C   UNL     1     -15.010  13.639 -25.514  1.00  0.00     0.048 A 
ATOM      4  C   UNL     1     -16.340  13.818 -25.117  1.00  0.00     0.138 A 
ATOM      5  C   UNL     1     -16.705  13.597 -23.770  1.00  0.00     0.018 A 
ATOM      6  C   UNL     1     -15.735  13.201 -22.839  1.00  0.00     0.012 A 
ATOM      7  C   UNL     1     -18.042  13.783 -23.403  1.00  0.00     0.019 A 
ATOM      8  C   UNL     1     -18.967  14.178 -24.368  1.00  0.00     0.094 A 
ATOM      9  C   UNL     1     -18.533  14.378 -25.683  1.00  0.00     0.336 A 
ATOM     10  O   UNL     1     -19.354  14.736 -26.569  1.00  0.00    -0.246 OA
ATOM     11  O   UNL     1     -17.255  14.194 -26.006  1.00  0.00    -0.423 OA
ENDROOT
TORSDOF 0
ENDMDL
MODEL 5
REMARK VINA RESULT:    -5.790     12.353     13.042
REMARK INTER + INTRA:          -5.790
REMARK INTER:                  -5.790
REMARK INTRA:                   0.000
REMARK UNBOUND:                 0.000
REMARK SMILES O=c1ccc2ccccc2o1
REMARK SMILES IDX 7 1 8 2 9 3 10 4 5 5 6 6 4 7 3 8 2 9 1 10 11 11
REMARK H PARENT
REMARK Flexibility Score: inf
ROOT
ATOM      1  C   UNL     1      -8.777   9.404 -33.051  1.00  0.00     0.001 A 
ATOM      2  C   UNL     1      -9.103   9.278 -34.405  1.00  0.00     0.004 A 
ATOM      3  C   UNL     1      -9.931   8.235 -34.835  1.00  0.00     0.048 A 
ATOM      4  C   UNL     1     -10.438   7.316 -33.909  1.00  0.00     0.138 A 
ATOM      5  C   UNL     1     -10.109   7.445 -32.541  1.00  0.00     0.018 A 
ATOM      6  C   UNL     1      -9.279   8.491 -32.117  1.00  0.00     0.012 A 
ATOM      7  C   UNL     1     -10.630   6.511 -31.640  1.00  0.00     0.019 A 
ATOM      8  C   UNL     1     -11.453   5.489 -32.113  1.00  0.00     0.094 A 
ATOM      9  C   UNL     1     -11.735   5.424 -33.482  1.00  0.00     0.336 A 
ATOM     10  O   UNL     1     -12.476   4.509 -33.928  1.00  0.00    -0.246 OA
ATOM     11  O   UNL     1     -11.227   6.325 -34.318  1.00  0.00    -0.423 OA
ENDROOT
TORSDOF 0
ENDMDL
MODEL 6
REMARK VINA RESULT:    -5.777     12.263     13.244
REMARK INTER + INTRA:          -5.777
REMARK INTER:                  -5.777
REMARK INTRA:                   0.000
REMARK UNBOUND:                 0.000
REMARK SMILES O=c1ccc2ccccc2o1
REMARK SMILES IDX 7 1 8 2 9 3 10 4 5 5 6 6 4 7 3 8 2 9 1 10 11 11
REMARK H PARENT
REMARK Flexibility Score: inf
ROOT
ATOM      1  C   UNL     1     -11.764   5.072 -33.287  1.00  0.00     0.001 A 
ATOM      2  C   UNL     1     -11.376   5.461 -32.001  1.00  0.00     0.004 A 
ATOM      3  C   UNL     1     -10.587   6.603 -31.820  1.00  0.00     0.048 A 
ATOM      4  C   UNL     1     -10.183   7.359 -32.926  1.00  0.00     0.138 A 
ATOM      5  C   UNL     1     -10.576   6.965 -34.225  1.00  0.00     0.018 A 
ATOM      6  C   UNL     1     -11.366   5.821 -34.400  1.00  0.00     0.012 A 
ATOM      7  C   UNL     1     -10.157   7.740 -35.311  1.00  0.00     0.019 A 
ATOM      8  C   UNL     1      -9.372   8.870 -35.083  1.00  0.00     0.094 A 
ATOM      9  C   UNL     1      -9.022   9.199 -33.769  1.00  0.00     0.336 A 
ATOM     10  O   UNL     1      -8.314  10.215 -33.542  1.00  0.00    -0.246 OA
ATOM     11  O   UNL     1      -9.434   8.444 -32.753  1.00  0.00    -0.423 OA
ENDROOT
TORSDOF 0
ENDMDL
MODEL 7
REMARK VINA RESULT:    -5.749     10.597     12.149
REMARK INTER + INTRA:          -5.749
REMARK INTER:                  -5.749
REMARK INTRA:                   0.000
REMARK UNBOUND:                 0.000
REMARK SMILES O=c1ccc2ccccc2o1
REMARK SMILES IDX 7 1 8 2 9 3 10 4 5 5 6 6 4 7 3 8 2 9 1 10 11 11
REMARK H PARENT
REMARK Flexibility Score: inf
ROOT
ATOM      1  C   UNL     1     -22.236  13.908 -34.104  1.00  0.00     0.001 A 
ATOM      2  C   UNL     1     -22.596  13.708 -32.768  1.00  0.00     0.004 A 
ATOM      3  C   UNL     1     -23.336  12.578 -32.400  1.00  0.00     0.048 A 
ATOM      4  C   UNL     1     -23.717  11.644 -33.370  1.00  0.00     0.138 A 
ATOM      5  C   UNL     1     -23.352  11.846 -34.720  1.00  0.00     0.018 A 
ATOM      6  C   UNL     1     -22.611  12.980 -35.082  1.00  0.00     0.012 A 
ATOM      7  C   UNL     1     -23.747  10.896 -35.667  1.00  0.00     0.019 A 
ATOM      8  C   UNL     1     -24.482   9.785 -35.255  1.00  0.00     0.094 A 
ATOM      9  C   UNL     1     -24.807   9.650 -33.901  1.00  0.00     0.336 A 
ATOM     10  O   UNL     1     -25.471   8.654 -33.510  1.00  0.00    -0.246 OA
ATOM     11  O   UNL     1     -24.419  10.570 -33.020  1.00  0.00    -0.423 OA
ENDROOT
TORSDOF 0
ENDMDL
MODEL 8
REMARK VINA RESULT:    -5.703      6.592      7.543
REMARK INTER + INTRA:          -5.703
REMARK INTER:                  -5.703
REMARK INTRA:                   0.000
REMARK UNBOUND:                 0.000
REMARK SMILES O=c1ccc2ccccc2o1
REMARK SMILES IDX 7 1 8 2 9 3 10 4 5 5 6 6 4 7 3 8 2 9 1 10 11 11
REMARK H PARENT
REMARK Flexibility Score: inf
ROOT
ATOM      1  C   UNL     1     -20.017   7.922 -24.051  1.00  0.00     0.001 A 
ATOM      2  C   UNL     1     -19.631   8.397 -22.794  1.00  0.00     0.004 A 
ATOM      3  C   UNL     1     -18.307   8.257 -22.364  1.00  0.00     0.048 A 
ATOM      4  C   UNL     1     -17.363   7.641 -23.192  1.00  0.00     0.138 A 
ATOM      5  C   UNL     1     -17.753   7.161 -24.463  1.00  0.00     0.018 A 
ATOM      6  C   UNL     1     -19.081   7.304 -24.888  1.00  0.00     0.012 A 
ATOM      7  C   UNL     1     -16.787   6.549 -25.269  1.00  0.00     0.019 A 
ATOM      8  C   UNL     1     -15.479   6.432 -24.799  1.00  0.00     0.094 A 
ATOM      9  C   UNL     1     -15.166   6.931 -23.530  1.00  0.00     0.336 A 
ATOM     10  O   UNL     1     -13.990   6.834 -23.089  1.00  0.00    -0.246 OA
ATOM     11  O   UNL     1     -16.104   7.508 -22.783  1.00  0.00    -0.423 OA
ENDROOT
TORSDOF 0
ENDMDL
MODEL 9
REMARK VINA RESULT:    -5.662     12.139     13.322
REMARK INTER + INTRA:          -5.662
REMARK INTER:                  -5.662
REMARK INTRA:                   0.000
REMARK UNBOUND:                 0.000
REMARK SMILES O=c1ccc2ccccc2o1
REMARK SMILES IDX 7 1 8 2 9 3 10 4 5 5 6 6 4 7 3 8 2 9 1 10 11 11
REMARK H PARENT
REMARK Flexibility Score: inf
ROOT
ATOM      1  C   UNL     1     -11.806   5.063 -33.558  1.00  0.00     0.001 A 
ATOM      2  C   UNL     1     -11.589   5.495 -34.871  1.00  0.00     0.004 A 
ATOM      3  C   UNL     1     -10.829   6.644 -35.117  1.00  0.00     0.048 A 
ATOM      4  C   UNL     1     -10.283   7.364 -34.050  1.00  0.00     0.138 A 
ATOM      5  C   UNL     1     -10.502   6.927 -32.724  1.00  0.00     0.018 A 
ATOM      6  C   UNL     1     -11.264   5.776 -32.484  1.00  0.00     0.012 A 
ATOM      7  C   UNL     1      -9.943   7.669 -31.677  1.00  0.00     0.019 A 
ATOM      8  C   UNL     1      -9.192   8.806 -31.970  1.00  0.00     0.094 A 
ATOM      9  C   UNL     1      -9.017   9.179 -33.307  1.00  0.00     0.336 A 
ATOM     10  O   UNL     1      -8.342  10.203 -33.591  1.00  0.00    -0.246 OA
ATOM     11  O   UNL     1      -9.560   8.456 -34.284  1.00  0.00    -0.423 OA
ENDROOT
TORSDOF 0
ENDMDL
