MODEL 1
REMARK VINA RESULT:    -6.729      0.000      0.000
REMARK INTER + INTRA:          -8.410
REMARK INTER:                  -8.106
REMARK INTRA:                  -0.304
REMARK UNBOUND:                -0.304
REMARK SMILES Oc1cc(O)c2c(c1)O[C@H](c1ccc(O)c(O)c1)[C@@H](O)C2
REMARK SMILES IDX 21 1 19 2 10 3 9 4 7 5 8 6 2 7 3 8 4 9 6 10 20 11 11 13
REMARK SMILES IDX 18 14 12 15 16 16 13 17 14 18 17 19 15 21 5 23 1 25
REMARK H PARENT 20 12 17 20 15 22 5 24 1 26
REMARK Flexibility Score: inf
ROOT
ATOM      1  C   UNL     1      14.103  11.792  11.496  1.00  0.00     0.079 C 
ATOM      2  C   UNL     1      12.650  11.534  11.939  1.00  0.00     0.164 C 
ATOM      3  C   UNL     1      12.633  10.572  13.139  1.00  0.00     0.232 C 
ATOM      4  O   UNL     1      13.306   9.362  12.798  1.00  0.00    -0.482 OA
ATOM      5  C   UNL     1      14.465   9.346  12.015  1.00  0.00     0.131 A 
ATOM      6  C   UNL     1      15.177   8.151  11.880  1.00  0.00     0.093 A 
ATOM      7  C   UNL     1      16.347   8.110  11.115  1.00  0.00     0.122 A 
ATOM      8  C   UNL     1      16.811   9.272  10.494  1.00  0.00     0.092 A 
ATOM      9  C   UNL     1      16.112  10.478  10.620  1.00  0.00     0.126 A 
ATOM     10  C   UNL     1      14.903  10.515  11.356  1.00  0.00     0.039 A 
ENDROOT
BRANCH   2  11
ATOM     11  O   UNL     1      12.038  12.747  12.294  1.00  0.00    -0.389 OA
ATOM     12  H   UNL     1      11.732  13.170  11.450  1.00  0.00     0.211 HD
ENDBRANCH   2  11
BRANCH   3  13
ATOM     13  C   UNL     1      11.217  10.262  13.568  1.00  0.00    -0.001 A 
ATOM     14  C   UNL     1      10.664  10.897  14.693  1.00  0.00     0.057 A 
ATOM     15  C   UNL     1      10.423   9.373  12.824  1.00  0.00     0.012 A 
ATOM     16  C   UNL     1       9.341  10.634  15.080  1.00  0.00     0.157 A 
ATOM     17  C   UNL     1       9.106   9.110  13.209  1.00  0.00     0.050 A 
ATOM     18  C   UNL     1       8.561   9.734  14.335  1.00  0.00     0.157 A 
BRANCH  16  19
ATOM     19  O   UNL     1       8.802  11.265  16.200  1.00  0.00    -0.504 OA
ATOM     20  H   UNL     1       8.551  12.247  16.188  1.00  0.00     0.293 HD
ENDBRANCH  16  19
BRANCH  18  21
ATOM     21  O   UNL     1       7.243   9.450  14.695  1.00  0.00    -0.504 OA
ATOM     22  H   UNL     1       7.018   8.801  15.440  1.00  0.00     0.293 HD
ENDBRANCH  18  21
ENDBRANCH   3  13
BRANCH   9  23
ATOM     23  O   UNL     1      16.650  11.615  10.013  1.00  0.00    -0.507 OA
ATOM     24  H   UNL     1      16.089  12.395   9.698  1.00  0.00     0.293 HD
ENDBRANCH   9  23
BRANCH   7  25
ATOM     25  O   UNL     1      17.061   6.923  10.973  1.00  0.00    -0.508 OA
ATOM     26  H   UNL     1      16.970   6.345  10.146  1.00  0.00     0.293 HD
ENDBRANCH   7  25
TORSDOF 6
ENDMDL
MODEL 2
REMARK VINA RESULT:    -6.627      1.484      7.008
REMARK INTER + INTRA:          -8.287
REMARK INTER:                  -7.913
REMARK INTRA:                  -0.374
REMARK UNBOUND:                -0.304
REMARK SMILES Oc1cc(O)c2c(c1)O[C@H](c1ccc(O)c(O)c1)[C@@H](O)C2
REMARK SMILES IDX 21 1 19 2 10 3 9 4 7 5 8 6 2 7 3 8 4 9 6 10 20 11 11 13
REMARK SMILES IDX 18 14 12 15 16 16 13 17 14 18 17 19 15 21 5 23 1 25
REMARK H PARENT 20 12 17 20 15 22 5 24 1 26
REMARK Flexibility Score: inf
ROOT
ATOM      1  C   UNL     1      11.632  10.027  14.891  1.00  0.00     0.079 C 
ATOM      2  C   UNL     1      13.034   9.872  14.271  1.00  0.00     0.164 C 
ATOM      3  C   UNL     1      13.038  10.436  12.840  1.00  0.00     0.232 C 
ATOM      4  O   UNL     1      12.038   9.783  12.060  1.00  0.00    -0.482 OA
ATOM      5  C   UNL     1      10.786   9.442  12.583  1.00  0.00     0.131 A 
ATOM      6  C   UNL     1       9.792   8.979  11.717  1.00  0.00     0.093 A 
ATOM      7  C   UNL     1       8.526   8.646  12.210  1.00  0.00     0.122 A 
ATOM      8  C   UNL     1       8.254   8.786  13.573  1.00  0.00     0.092 A 
ATOM      9  C   UNL     1       9.237   9.250  14.455  1.00  0.00     0.126 A 
ATOM     10  C   UNL     1      10.533   9.547  13.968  1.00  0.00     0.039 A 
ENDROOT
BRANCH   2  11
ATOM     11  O   UNL     1      13.978  10.557  15.054  1.00  0.00    -0.389 OA
ATOM     12  H   UNL     1      14.441  11.195  14.450  1.00  0.00     0.211 HD
ENDBRANCH   2  11
BRANCH   3  13
ATOM     13  C   UNL     1      14.389  10.258  12.187  1.00  0.00    -0.001 A 
ATOM     14  C   UNL     1      14.921   8.971  12.001  1.00  0.00     0.057 A 
ATOM     15  C   UNL     1      15.108  11.371  11.717  1.00  0.00     0.012 A 
ATOM     16  C   UNL     1      16.162   8.798  11.371  1.00  0.00     0.157 A 
ATOM     17  C   UNL     1      16.344  11.200  11.090  1.00  0.00     0.050 A 
ATOM     18  C   UNL     1      16.876   9.919  10.915  1.00  0.00     0.157 A 
BRANCH  16  19
ATOM     19  O   UNL     1      16.685   7.518  11.194  1.00  0.00    -0.504 OA
ATOM     20  H   UNL     1      17.649   7.371  10.921  1.00  0.00     0.293 HD
ENDBRANCH  16  19
BRANCH  18  21
ATOM     21  O   UNL     1      18.114   9.780  10.286  1.00  0.00    -0.504 OA
ATOM     22  H   UNL     1      18.319  10.224   9.398  1.00  0.00     0.293 HD
ENDBRANCH  18  21
ENDBRANCH   3  13
BRANCH   9  23
ATOM     23  O   UNL     1       8.890   9.412  15.798  1.00  0.00    -0.507 OA
ATOM     24  H   UNL     1       9.549   9.694  16.511  1.00  0.00     0.293 HD
ENDBRANCH   9  23
BRANCH   7  25
ATOM     25  O   UNL     1       7.531   8.181  11.354  1.00  0.00    -0.508 OA
ATOM     26  H   UNL     1       7.736   7.914  10.398  1.00  0.00     0.293 HD
ENDBRANCH   7  25
TORSDOF 6
ENDMDL
MODEL 3
REMARK VINA RESULT:    -6.586      1.555      7.033
REMARK INTER + INTRA:          -8.238
REMARK INTER:                  -7.982
REMARK INTRA:                  -0.256
REMARK UNBOUND:                -0.304
REMARK SMILES Oc1cc(O)c2c(c1)O[C@H](c1ccc(O)c(O)c1)[C@@H](O)C2
REMARK SMILES IDX 21 1 19 2 10 3 9 4 7 5 8 6 2 7 3 8 4 9 6 10 20 11 11 13
REMARK SMILES IDX 18 14 12 15 16 16 13 17 14 18 17 19 15 21 5 23 1 25
REMARK H PARENT 20 12 17 20 15 22 5 24 1 26
REMARK Flexibility Score: inf
ROOT
ATOM      1  C   UNL     1      10.527   9.364  11.729  1.00  0.00     0.079 C 
ATOM      2  C   UNL     1      11.802  10.091  11.262  1.00  0.00     0.164 C 
ATOM      3  C   UNL     1      12.971   9.750  12.200  1.00  0.00     0.232 C 
ATOM      4  O   UNL     1      12.629  10.090  13.542  1.00  0.00    -0.482 OA
ATOM      5  C   UNL     1      11.346   9.886  14.061  1.00  0.00     0.131 A 
ATOM      6  C   UNL     1      11.132  10.063  15.431  1.00  0.00     0.093 A 
ATOM      7  C   UNL     1       9.862   9.851  15.979  1.00  0.00     0.122 A 
ATOM      8  C   UNL     1       8.809   9.452  15.154  1.00  0.00     0.092 A 
ATOM      9  C   UNL     1       9.005   9.269  13.781  1.00  0.00     0.126 A 
ATOM     10  C   UNL     1      10.277   9.525  13.214  1.00  0.00     0.039 A 
ENDROOT
BRANCH   2  11
ATOM     11  O   UNL     1      12.116   9.702   9.949  1.00  0.00    -0.389 OA
ATOM     12  H   UNL     1      11.810   8.763   9.848  1.00  0.00     0.211 HD
ENDBRANCH   2  11
BRANCH   3  13
ATOM     13  C   UNL     1      14.228  10.485  11.794  1.00  0.00    -0.001 A 
ATOM     14  C   UNL     1      15.468   9.825  11.803  1.00  0.00     0.057 A 
ATOM     15  C   UNL     1      14.165  11.821  11.361  1.00  0.00     0.012 A 
ATOM     16  C   UNL     1      16.634  10.495  11.401  1.00  0.00     0.157 A 
ATOM     17  C   UNL     1      15.325  12.488  10.961  1.00  0.00     0.050 A 
ATOM     18  C   UNL     1      16.560  11.833  10.980  1.00  0.00     0.157 A 
BRANCH  16  19
ATOM     19  O   UNL     1      17.861   9.833  11.416  1.00  0.00    -0.504 OA
ATOM     20  H   UNL     1      18.677  10.238  11.860  1.00  0.00     0.293 HD
ENDBRANCH  16  19
BRANCH  18  21
ATOM     21  O   UNL     1      17.701  12.527  10.576  1.00  0.00    -0.504 OA
ATOM     22  H   UNL     1      18.589  12.426  11.054  1.00  0.00     0.293 HD
ENDBRANCH  18  21
ENDBRANCH   3  13
BRANCH   9  23
ATOM     23  O   UNL     1       7.924   8.826  13.016  1.00  0.00    -0.507 OA
ATOM     24  H   UNL     1       7.791   9.073  12.045  1.00  0.00     0.293 HD
ENDBRANCH   9  23
BRANCH   7  25
ATOM     25  O   UNL     1       9.640  10.028  17.343  1.00  0.00    -0.508 OA
ATOM     26  H   UNL     1      10.164   9.507  18.037  1.00  0.00     0.293 HD
ENDBRANCH   7  25
TORSDOF 6
ENDMDL
MODEL 4
REMARK VINA RESULT:    -6.459      2.172      3.369
REMARK INTER + INTRA:          -8.085
REMARK INTER:                  -7.782
REMARK INTRA:                  -0.303
REMARK UNBOUND:                -0.304
REMARK SMILES Oc1cc(O)c2c(c1)O[C@H](c1ccc(O)c(O)c1)[C@@H](O)C2
REMARK SMILES IDX 21 1 19 2 10 3 9 4 7 5 8 6 2 7 3 8 4 9 6 10 20 11 11 13
REMARK SMILES IDX 18 14 12 15 16 16 13 17 14 18 17 19 15 21 5 23 1 25
REMARK H PARENT 20 12 17 20 15 22 5 24 1 26
REMARK Flexibility Score: inf
ROOT
ATOM      1  C   UNL     1      15.365   8.311  10.931  1.00  0.00     0.079 C 
ATOM      2  C   UNL     1      14.138   8.989  11.570  1.00  0.00     0.164 C 
ATOM      3  C   UNL     1      14.410   9.268  13.057  1.00  0.00     0.232 C 
ATOM      4  O   UNL     1      14.751   8.054  13.722  1.00  0.00    -0.482 OA
ATOM      5  C   UNL     1      15.550   7.073  13.125  1.00  0.00     0.131 A 
ATOM      6  C   UNL     1      16.000   6.000  13.899  1.00  0.00     0.093 A 
ATOM      7  C   UNL     1      16.813   5.013  13.332  1.00  0.00     0.122 A 
ATOM      8  C   UNL     1      17.183   5.108  11.989  1.00  0.00     0.092 A 
ATOM      9  C   UNL     1      16.744   6.176  11.199  1.00  0.00     0.126 A 
ATOM     10  C   UNL     1      15.884   7.154  11.756  1.00  0.00     0.039 A 
ENDROOT
BRANCH   2  11
ATOM     11  O   UNL     1      13.859  10.194  10.903  1.00  0.00    -0.389 OA
ATOM     12  H   UNL     1      12.916  10.140  10.598  1.00  0.00     0.211 HD
ENDBRANCH   2  11
BRANCH   3  13
ATOM     13  C   UNL     1      13.206   9.892  13.724  1.00  0.00    -0.001 A 
ATOM     14  C   UNL     1      13.357  11.027  14.538  1.00  0.00     0.057 A 
ATOM     15  C   UNL     1      11.918   9.375  13.501  1.00  0.00     0.012 A 
ATOM     16  C   UNL     1      12.239  11.627  15.138  1.00  0.00     0.157 A 
ATOM     17  C   UNL     1      10.805   9.971  14.098  1.00  0.00     0.050 A 
ATOM     18  C   UNL     1      10.958  11.094  14.917  1.00  0.00     0.157 A 
BRANCH  16  19
ATOM     19  O   UNL     1      12.398  12.750  15.948  1.00  0.00    -0.504 OA
ATOM     20  H   UNL     1      12.639  12.668  16.929  1.00  0.00     0.293 HD
ENDBRANCH  16  19
BRANCH  18  21
ATOM     21  O   UNL     1       9.827  11.667  15.500  1.00  0.00    -0.504 OA
ATOM     22  H   UNL     1       9.650  12.663  15.463  1.00  0.00     0.293 HD
ENDBRANCH  18  21
ENDBRANCH   3  13
BRANCH   9  23
ATOM     23  O   UNL     1      17.184   6.239   9.875  1.00  0.00    -0.507 OA
ATOM     24  H   UNL     1      17.775   6.978   9.521  1.00  0.00     0.293 HD
ENDBRANCH   9  23
BRANCH   7  25
ATOM     25  O   UNL     1      17.264   3.939  14.096  1.00  0.00    -0.508 OA
ATOM     26  H   UNL     1      18.214   3.899  14.446  1.00  0.00     0.293 HD
ENDBRANCH   7  25
TORSDOF 6
ENDMDL
MODEL 5
REMARK VINA RESULT:    -6.089      1.844      3.050
REMARK INTER + INTRA:          -7.639
REMARK INTER:                  -7.264
REMARK INTRA:                  -0.375
REMARK UNBOUND:                -0.304
REMARK SMILES Oc1cc(O)c2c(c1)O[C@H](c1ccc(O)c(O)c1)[C@@H](O)C2
REMARK SMILES IDX 21 1 19 2 10 3 9 4 7 5 8 6 2 7 3 8 4 9 6 10 20 11 11 13
REMARK SMILES IDX 18 14 12 15 16 16 13 17 14 18 17 19 15 21 5 23 1 25
REMARK H PARENT 20 12 17 20 15 22 5 24 1 26
REMARK Flexibility Score: inf
ROOT
ATOM      1  C   UNL     1      14.997   8.766  11.004  1.00  0.00     0.079 C 
ATOM      2  C   UNL     1      13.733   9.365  11.650  1.00  0.00     0.164 C 
ATOM      3  C   UNL     1      13.975   9.599  13.151  1.00  0.00     0.232 C 
ATOM      4  O   UNL     1      14.361   8.376  13.775  1.00  0.00    -0.482 OA
ATOM      5  C   UNL     1      15.210   7.454  13.152  1.00  0.00     0.131 A 
ATOM      6  C   UNL     1      15.697   6.374  13.892  1.00  0.00     0.093 A 
ATOM      7  C   UNL     1      16.560   5.446  13.300  1.00  0.00     0.122 A 
ATOM      8  C   UNL     1      16.942   5.607  11.966  1.00  0.00     0.092 A 
ATOM      9  C   UNL     1      16.466   6.685  11.211  1.00  0.00     0.126 A 
ATOM     10  C   UNL     1      15.557   7.602  11.793  1.00  0.00     0.039 A 
ENDROOT
BRANCH   2  11
ATOM     11  O   UNL     1      13.410  10.581  11.026  1.00  0.00    -0.389 OA
ATOM     12  H   UNL     1      12.769  10.367  10.298  1.00  0.00     0.211 HD
ENDBRANCH   2  11
BRANCH   3  13
ATOM     13  C   UNL     1      12.736  10.144  13.824  1.00  0.00    -0.001 A 
ATOM     14  C   UNL     1      11.577   9.356  13.917  1.00  0.00     0.057 A 
ATOM     15  C   UNL     1      12.743  11.424  14.404  1.00  0.00     0.012 A 
ATOM     16  C   UNL     1      10.433   9.846  14.565  1.00  0.00     0.157 A 
ATOM     17  C   UNL     1      11.605  11.913  15.048  1.00  0.00     0.050 A 
ATOM     18  C   UNL     1      10.449  11.132  15.131  1.00  0.00     0.157 A 
BRANCH  16  19
ATOM     19  O   UNL     1       9.285   9.060  14.649  1.00  0.00    -0.504 OA
ATOM     20  H   UNL     1       8.552   9.113  13.952  1.00  0.00     0.293 HD
ENDBRANCH  16  19
BRANCH  18  21
ATOM     21  O   UNL     1       9.327  11.649  15.780  1.00  0.00    -0.504 OA
ATOM     22  H   UNL     1       8.392  11.545  15.403  1.00  0.00     0.293 HD
ENDBRANCH  18  21
ENDBRANCH   3  13
BRANCH   9  23
ATOM     23  O   UNL     1      16.919   6.817   9.897  1.00  0.00    -0.507 OA
ATOM     24  H   UNL     1      17.132   7.708   9.469  1.00  0.00     0.293 HD
ENDBRANCH   9  23
BRANCH   7  25
ATOM     25  O   UNL     1      17.049   4.364  14.029  1.00  0.00    -0.508 OA
ATOM     26  H   UNL     1      16.490   3.533  14.183  1.00  0.00     0.293 HD
ENDBRANCH   7  25
TORSDOF 6
ENDMDL
MODEL 6
REMARK VINA RESULT:    -5.999      1.914      6.755
REMARK INTER + INTRA:          -7.531
REMARK INTER:                  -7.331
REMARK INTRA:                  -0.200
REMARK UNBOUND:                -0.304
REMARK SMILES Oc1cc(O)c2c(c1)O[C@H](c1ccc(O)c(O)c1)[C@@H](O)C2
REMARK SMILES IDX 21 1 19 2 10 3 9 4 7 5 8 6 2 7 3 8 4 9 6 10 20 11 11 13
REMARK SMILES IDX 18 14 12 15 16 16 13 17 14 18 17 19 15 21 5 23 1 25
REMARK H PARENT 20 12 17 20 15 22 5 24 1 26
REMARK Flexibility Score: inf
ROOT
ATOM      1  C   UNL     1      13.603  11.229  14.140  1.00  0.00     0.079 C 
ATOM      2  C   UNL     1      14.462  10.086  13.567  1.00  0.00     0.164 C 
ATOM      3  C   UNL     1      13.777   9.489  12.327  1.00  0.00     0.232 C 
ATOM      4  O   UNL     1      12.464   9.047  12.665  1.00  0.00    -0.482 OA
ATOM      5  C   UNL     1      11.637   9.760  13.540  1.00  0.00     0.131 A 
ATOM      6  C   UNL     1      10.302   9.373  13.678  1.00  0.00     0.093 A 
ATOM      7  C   UNL     1       9.449  10.077  14.534  1.00  0.00     0.122 A 
ATOM      8  C   UNL     1       9.933  11.177  15.245  1.00  0.00     0.092 A 
ATOM      9  C   UNL     1      11.268  11.580  15.118  1.00  0.00     0.126 A 
ATOM     10  C   UNL     1      12.146  10.843  14.287  1.00  0.00     0.039 A 
ENDROOT
BRANCH   2  11
ATOM     11  O   UNL     1      15.732  10.575  13.220  1.00  0.00    -0.389 OA
ATOM     12  H   UNL     1      16.334   9.788  13.159  1.00  0.00     0.211 HD
ENDBRANCH   2  11
BRANCH   3  13
ATOM     13  C   UNL     1      14.574   8.333  11.767  1.00  0.00    -0.001 A 
ATOM     14  C   UNL     1      15.278   7.475  12.629  1.00  0.00     0.057 A 
ATOM     15  C   UNL     1      14.585   8.076  10.385  1.00  0.00     0.012 A 
ATOM     16  C   UNL     1      15.997   6.385  12.117  1.00  0.00     0.157 A 
ATOM     17  C   UNL     1      15.301   6.990   9.875  1.00  0.00     0.050 A 
ATOM     18  C   UNL     1      16.009   6.144  10.733  1.00  0.00     0.157 A 
BRANCH  16  19
ATOM     19  O   UNL     1      16.696   5.541  12.979  1.00  0.00    -0.504 OA
ATOM     20  H   UNL     1      16.242   5.091  13.766  1.00  0.00     0.293 HD
ENDBRANCH  16  19
BRANCH  18  21
ATOM     21  O   UNL     1      16.716   5.069  10.193  1.00  0.00    -0.504 OA
ATOM     22  H   UNL     1      16.972   5.032   9.214  1.00  0.00     0.293 HD
ENDBRANCH  18  21
ENDBRANCH   3  13
BRANCH   9  23
ATOM     23  O   UNL     1      11.681  12.714  15.819  1.00  0.00    -0.507 OA
ATOM     24  H   UNL     1      11.191  13.079  16.625  1.00  0.00     0.293 HD
ENDBRANCH   9  23
BRANCH   7  25
ATOM     25  O   UNL     1       8.116   9.697  14.679  1.00  0.00    -0.508 OA
ATOM     26  H   UNL     1       7.397  10.036  14.051  1.00  0.00     0.293 HD
ENDBRANCH   7  25
TORSDOF 6
ENDMDL
MODEL 7
REMARK VINA RESULT:    -5.713      2.680      4.231
REMARK INTER + INTRA:          -7.186
REMARK INTER:                  -6.982
REMARK INTRA:                  -0.204
REMARK UNBOUND:                -0.304
REMARK SMILES Oc1cc(O)c2c(c1)O[C@H](c1ccc(O)c(O)c1)[C@@H](O)C2
REMARK SMILES IDX 21 1 19 2 10 3 9 4 7 5 8 6 2 7 3 8 4 9 6 10 20 11 11 13
REMARK SMILES IDX 18 14 12 15 16 16 13 17 14 18 17 19 15 21 5 23 1 25
REMARK H PARENT 20 12 17 20 15 22 5 24 1 26
REMARK Flexibility Score: inf
ROOT
ATOM      1  C   UNL     1      15.753   7.395  11.115  1.00  0.00     0.079 C 
ATOM      2  C   UNL     1      14.602   8.281  11.631  1.00  0.00     0.164 C 
ATOM      3  C   UNL     1      14.865   8.679  13.093  1.00  0.00     0.232 C 
ATOM      4  O   UNL     1      15.030   7.508  13.890  1.00  0.00    -0.482 OA
ATOM      5  C   UNL     1      15.717   6.380  13.428  1.00  0.00     0.131 A 
ATOM      6  C   UNL     1      16.005   5.347  14.324  1.00  0.00     0.093 A 
ATOM      7  C   UNL     1      16.703   4.214  13.894  1.00  0.00     0.122 A 
ATOM      8  C   UNL     1      17.121   4.121  12.564  1.00  0.00     0.092 A 
ATOM      9  C   UNL     1      16.843   5.147  11.653  1.00  0.00     0.126 A 
ATOM     10  C   UNL     1      16.098   6.275  12.074  1.00  0.00     0.039 A 
ENDROOT
BRANCH   2  11
ATOM     11  O   UNL     1      14.498   9.434  10.836  1.00  0.00    -0.389 OA
ATOM     12  H   UNL     1      15.353   9.517  10.339  1.00  0.00     0.211 HD
ENDBRANCH   2  11
BRANCH   3  13
ATOM     13  C   UNL     1      13.730   9.512  13.643  1.00  0.00    -0.001 A 
ATOM     14  C   UNL     1      12.407   9.255  13.246  1.00  0.00     0.057 A 
ATOM     15  C   UNL     1      13.978  10.520  14.590  1.00  0.00     0.012 A 
ATOM     16  C   UNL     1      11.347  10.007  13.774  1.00  0.00     0.157 A 
ATOM     17  C   UNL     1      12.923  11.270  15.116  1.00  0.00     0.050 A 
ATOM     18  C   UNL     1      11.608  11.020  14.712  1.00  0.00     0.157 A 
BRANCH  16  19
ATOM     19  O   UNL     1      10.037   9.749  13.372  1.00  0.00    -0.504 OA
ATOM     20  H   UNL     1       9.274  10.369  13.617  1.00  0.00     0.293 HD
ENDBRANCH  16  19
BRANCH  18  21
ATOM     21  O   UNL     1      10.576  11.787  15.254  1.00  0.00    -0.504 OA
ATOM     22  H   UNL     1      10.756  12.622  15.799  1.00  0.00     0.293 HD
ENDBRANCH  18  21
ENDBRANCH   3  13
BRANCH   9  23
ATOM     23  O   UNL     1      17.326   5.017  10.350  1.00  0.00    -0.507 OA
ATOM     24  H   UNL     1      18.059   5.599   9.968  1.00  0.00     0.293 HD
ENDBRANCH   9  23
BRANCH   7  25
ATOM     25  O   UNL     1      16.993   3.179  14.780  1.00  0.00    -0.508 OA
ATOM     26  H   UNL     1      16.889   2.207  14.512  1.00  0.00     0.293 HD
ENDBRANCH   7  25
TORSDOF 6
ENDMDL
MODEL 8
REMARK VINA RESULT:    -5.598     14.565     16.263
REMARK INTER + INTRA:          -7.048
REMARK INTER:                  -6.744
REMARK INTRA:                  -0.304
REMARK UNBOUND:                -0.304
REMARK SMILES Oc1cc(O)c2c(c1)O[C@H](c1ccc(O)c(O)c1)[C@@H](O)C2
REMARK SMILES IDX 21 1 19 2 10 3 9 4 7 5 8 6 2 7 3 8 4 9 6 10 20 11 11 13
REMARK SMILES IDX 18 14 12 15 16 16 13 17 14 18 17 19 15 21 5 23 1 25
REMARK H PARENT 20 12 17 20 15 22 5 24 1 26
REMARK Flexibility Score: inf
ROOT
ATOM      1  C   UNL     1       3.485   6.149  22.584  1.00  0.00     0.079 C 
ATOM      2  C   UNL     1       3.437   6.994  23.872  1.00  0.00     0.164 C 
ATOM      3  C   UNL     1       4.533   6.526  24.844  1.00  0.00     0.232 C 
ATOM      4  O   UNL     1       4.376   5.135  25.117  1.00  0.00    -0.482 OA
ATOM      5  C   UNL     1       3.998   4.218  24.130  1.00  0.00     0.131 A 
ATOM      6  C   UNL     1       4.049   2.852  24.419  1.00  0.00     0.093 A 
ATOM      7  C   UNL     1       3.692   1.912  23.446  1.00  0.00     0.122 A 
ATOM      8  C   UNL     1       3.293   2.343  22.179  1.00  0.00     0.092 A 
ATOM      9  C   UNL     1       3.238   3.708  21.872  1.00  0.00     0.126 A 
ATOM     10  C   UNL     1       3.556   4.664  22.866  1.00  0.00     0.039 A 
ENDROOT
BRANCH   2  11
ATOM     11  O   UNL     1       3.626   8.350  23.558  1.00  0.00    -0.389 OA
ATOM     12  H   UNL     1       3.482   8.860  24.397  1.00  0.00     0.211 HD
ENDBRANCH   2  11
BRANCH   3  13
ATOM     13  C   UNL     1       4.482   7.306  26.138  1.00  0.00    -0.001 A 
ATOM     14  C   UNL     1       5.401   8.342  26.376  1.00  0.00     0.057 A 
ATOM     15  C   UNL     1       3.489   7.037  27.096  1.00  0.00     0.012 A 
ATOM     16  C   UNL     1       5.342   9.087  27.563  1.00  0.00     0.157 A 
ATOM     17  C   UNL     1       3.430   7.779  28.278  1.00  0.00     0.050 A 
ATOM     18  C   UNL     1       4.352   8.802  28.518  1.00  0.00     0.157 A 
BRANCH  16  19
ATOM     19  O   UNL     1       6.260  10.110  27.794  1.00  0.00    -0.504 OA
ATOM     20  H   UNL     1       7.257   9.931  27.829  1.00  0.00     0.293 HD
ENDBRANCH  16  19
BRANCH  18  21
ATOM     21  O   UNL     1       4.267   9.524  29.709  1.00  0.00    -0.504 OA
ATOM     22  H   UNL     1       4.888   9.347  30.490  1.00  0.00     0.293 HD
ENDBRANCH  18  21
ENDBRANCH   3  13
BRANCH   9  23
ATOM     23  O   UNL     1       2.875   4.074  20.574  1.00  0.00    -0.507 OA
ATOM     24  H   UNL     1       3.509   4.519  19.924  1.00  0.00     0.293 HD
ENDBRANCH   9  23
BRANCH   7  25
ATOM     25  O   UNL     1       3.737   0.548  23.726  1.00  0.00    -0.508 OA
ATOM     26  H   UNL     1       3.230  -0.125  23.164  1.00  0.00     0.293 HD
ENDBRANCH   7  25
TORSDOF 6
ENDMDL
MODEL 9
REMARK VINA RESULT:    -5.567      3.899      7.912
REMARK INTER + INTRA:          -7.010
REMARK INTER:                  -6.682
REMARK INTRA:                  -0.328
REMARK UNBOUND:                -0.304
REMARK SMILES Oc1cc(O)c2c(c1)O[C@H](c1ccc(O)c(O)c1)[C@@H](O)C2
REMARK SMILES IDX 21 1 19 2 10 3 9 4 7 5 8 6 2 7 3 8 4 9 6 10 20 11 11 13
REMARK SMILES IDX 18 14 12 15 16 16 13 17 14 18 17 19 15 21 5 23 1 25
REMARK H PARENT 20 12 17 20 15 22 5 24 1 26
REMARK Flexibility Score: inf
ROOT
ATOM      1  C   UNL     1      15.650   7.475  10.711  1.00  0.00     0.079 C 
ATOM      2  C   UNL     1      16.428   6.202  11.098  1.00  0.00     0.164 C 
ATOM      3  C   UNL     1      15.675   5.447  12.206  1.00  0.00     0.232 C 
ATOM      4  O   UNL     1      15.475   6.306  13.326  1.00  0.00    -0.482 OA
ATOM      5  C   UNL     1      15.158   7.661  13.182  1.00  0.00     0.131 A 
ATOM      6  C   UNL     1      14.790   8.396  14.313  1.00  0.00     0.093 A 
ATOM      7  C   UNL     1      14.452   9.748  14.195  1.00  0.00     0.122 A 
ATOM      8  C   UNL     1      14.475  10.362  12.941  1.00  0.00     0.092 A 
ATOM      9  C   UNL     1      14.839   9.641  11.798  1.00  0.00     0.126 A 
ATOM     10  C   UNL     1      15.224   8.284  11.918  1.00  0.00     0.039 A 
ENDROOT
BRANCH   2  11
ATOM     11  O   UNL     1      16.573   5.374   9.972  1.00  0.00    -0.389 OA
ATOM     12  H   UNL     1      17.339   5.731   9.452  1.00  0.00     0.211 HD
ENDBRANCH   2  11
BRANCH   3  13
ATOM     13  C   UNL     1      16.437   4.215  12.639  1.00  0.00    -0.001 A 
ATOM     14  C   UNL     1      17.802   4.303  12.959  1.00  0.00     0.057 A 
ATOM     15  C   UNL     1      15.780   2.980  12.773  1.00  0.00     0.012 A 
ATOM     16  C   UNL     1      18.508   3.169  13.388  1.00  0.00     0.157 A 
ATOM     17  C   UNL     1      16.482   1.850  13.200  1.00  0.00     0.050 A 
ATOM     18  C   UNL     1      17.843   1.937  13.507  1.00  0.00     0.157 A 
BRANCH  16  19
ATOM     19  O   UNL     1      19.863   3.264  13.699  1.00  0.00    -0.504 OA
ATOM     20  H   UNL     1      20.405   2.452  13.967  1.00  0.00     0.293 HD
ENDBRANCH  16  19
BRANCH  18  21
ATOM     21  O   UNL     1      18.517   0.791  13.930  1.00  0.00    -0.504 OA
ATOM     22  H   UNL     1      19.119   0.262  13.310  1.00  0.00     0.293 HD
ENDBRANCH  18  21
ENDBRANCH   3  13
BRANCH   9  23
ATOM     23  O   UNL     1      14.799  10.299  10.567  1.00  0.00    -0.507 OA
ATOM     24  H   UNL     1      15.017   9.848   9.689  1.00  0.00     0.293 HD
ENDBRANCH   9  23
BRANCH   7  25
ATOM     25  O   UNL     1      14.087  10.488  15.317  1.00  0.00    -0.508 OA
ATOM     26  H   UNL     1      14.299  10.169  16.255  1.00  0.00     0.293 HD
ENDBRANCH   7  25
TORSDOF 6
ENDMDL
