MODEL 1
REMARK VINA RESULT:    -3.836      0.000      0.000
REMARK INTER + INTRA:          -4.261
REMARK INTER:                  -4.397
REMARK INTRA:                   0.136
REMARK UNBOUND:                 0.136
REMARK SMILES CC(C)[C@H]([NH3+])C(=O)[O-]
REMARK SMILES IDX 4 1 5 2 6 6 7 7 8 8 2 9 1 10 3 11
REMARK H PARENT 5 3 5 4 5 5
REMARK Flexibility Score: inf
ROOT
ATOM      1  C   UNL     1      -2.621  25.990  17.912  1.00  0.00     0.230 C 
ENDROOT
BRANCH   1   2
ATOM      2  N   UNL     1      -3.889  26.656  18.245  1.00  0.00    -0.350 N 
ATOM      3  H   UNL     1      -4.114  26.563  19.262  1.00  0.00     0.345 HD
ATOM      4  H   UNL     1      -3.837  27.671  17.997  1.00  0.00     0.345 HD
ATOM      5  H   UNL     1      -4.665  26.226  17.692  1.00  0.00     0.345 HD
ENDBRANCH   1   2
BRANCH   1   6
ATOM      6  C   UNL     1      -1.648  26.093  19.062  1.00  0.00     0.099 C 
ATOM      7  O   UNL     1      -1.969  26.723  20.105  1.00  0.00    -0.544 OA
ATOM      8  O   UNL     1      -0.405  25.474  18.997  1.00  0.00    -0.544 OA
ENDBRANCH   1   6
BRANCH   1   9
ATOM      9  C   UNL     1      -2.026  26.520  16.572  1.00  0.00     0.047 C 
ATOM     10  C   UNL     1      -1.535  25.366  15.684  1.00  0.00     0.014 C 
ATOM     11  C   UNL     1      -0.902  27.553  16.761  1.00  0.00     0.014 C 
ENDBRANCH   1   9
TORSDOF 3
ENDMDL
MODEL 2
REMARK VINA RESULT:    -3.803      2.452      3.423
REMARK INTER + INTRA:          -4.223
REMARK INTER:                  -4.325
REMARK INTRA:                   0.102
REMARK UNBOUND:                 0.136
REMARK SMILES CC(C)[C@H]([NH3+])C(=O)[O-]
REMARK SMILES IDX 4 1 5 2 6 6 7 7 8 8 2 9 1 10 3 11
REMARK H PARENT 5 3 5 4 5 5
REMARK Flexibility Score: inf
ROOT
ATOM      1  C   UNL     1      -0.946  26.610  16.986  1.00  0.00     0.230 C 
ENDROOT
BRANCH   1   2
ATOM      2  N   UNL     1      -0.584  27.815  16.225  1.00  0.00    -0.350 N 
ATOM      3  H   UNL     1      -1.202  27.942  15.391  1.00  0.00     0.345 HD
ATOM      4  H   UNL     1      -0.655  28.660  16.836  1.00  0.00     0.345 HD
ATOM      5  H   UNL     1       0.406  27.736  15.895  1.00  0.00     0.345 HD
ENDBRANCH   1   2
BRANCH   1   6
ATOM      6  C   UNL     1      -1.446  25.527  16.060  1.00  0.00     0.099 C 
ATOM      7  O   UNL     1      -1.586  25.764  14.830  1.00  0.00    -0.544 OA
ATOM      8  O   UNL     1      -1.729  24.255  16.544  1.00  0.00    -0.544 OA
ENDBRANCH   1   6
BRANCH   1   9
ATOM      9  C   UNL     1      -1.950  26.932  18.133  1.00  0.00     0.047 C 
ATOM     10  C   UNL     1      -1.539  26.245  19.444  1.00  0.00     0.014 C 
ATOM     11  C   UNL     1      -3.409  26.584  17.791  1.00  0.00     0.014 C 
ENDBRANCH   1   9
TORSDOF 3
ENDMDL
MODEL 3
REMARK VINA RESULT:    -3.677      1.714      2.538
REMARK INTER + INTRA:          -4.078
REMARK INTER:                  -4.062
REMARK INTRA:                  -0.016
REMARK UNBOUND:                 0.136
REMARK SMILES CC(C)[C@H]([NH3+])C(=O)[O-]
REMARK SMILES IDX 4 1 5 2 6 6 7 7 8 8 2 9 1 10 3 11
REMARK H PARENT 5 3 5 4 5 5
REMARK Flexibility Score: inf
ROOT
ATOM      1  C   UNL     1      -1.586  27.187  17.538  1.00  0.00     0.230 C 
ENDROOT
BRANCH   1   2
ATOM      2  N   UNL     1      -0.521  27.506  16.576  1.00  0.00    -0.350 N 
ATOM      3  H   UNL     1      -0.532  26.852  15.761  1.00  0.00     0.345 HD
ATOM      4  H   UNL     1      -0.632  28.487  16.230  1.00  0.00     0.345 HD
ATOM      5  H   UNL     1       0.410  27.433  17.048  1.00  0.00     0.345 HD
ENDBRANCH   1   2
BRANCH   1   6
ATOM      6  C   UNL     1      -1.034  26.395  18.699  1.00  0.00     0.099 C 
ATOM      7  O   UNL     1       0.035  25.742  18.564  1.00  0.00    -0.544 OA
ATOM      8  O   UNL     1      -1.678  26.399  19.931  1.00  0.00    -0.544 OA
ENDBRANCH   1   6
BRANCH   1   9
ATOM      9  C   UNL     1      -2.794  26.483  16.849  1.00  0.00     0.047 C 
ATOM     10  C   UNL     1      -4.117  26.835  17.547  1.00  0.00     0.014 C 
ATOM     11  C   UNL     1      -2.642  24.956  16.749  1.00  0.00     0.014 C 
ENDBRANCH   1   9
TORSDOF 3
ENDMDL
MODEL 4
REMARK VINA RESULT:    -3.672      1.960      2.703
REMARK INTER + INTRA:          -4.072
REMARK INTER:                  -4.081
REMARK INTRA:                   0.009
REMARK UNBOUND:                 0.136
REMARK SMILES CC(C)[C@H]([NH3+])C(=O)[O-]
REMARK SMILES IDX 4 1 5 2 6 6 7 7 8 8 2 9 1 10 3 11
REMARK H PARENT 5 3 5 4 5 5
REMARK Flexibility Score: inf
ROOT
ATOM      1  C   UNL     1      -2.615  26.583  17.084  1.00  0.00     0.230 C 
ENDROOT
BRANCH   1   2
ATOM      2  N   UNL     1      -3.725  26.315  18.010  1.00  0.00    -0.350 N 
ATOM      3  H   UNL     1      -4.169  27.201  18.341  1.00  0.00     0.345 HD
ATOM      4  H   UNL     1      -4.448  25.723  17.541  1.00  0.00     0.345 HD
ATOM      5  H   UNL     1      -3.367  25.792  18.842  1.00  0.00     0.345 HD
ENDBRANCH   1   2
BRANCH   1   6
ATOM      6  C   UNL     1      -2.155  25.305  16.422  1.00  0.00     0.099 C 
ATOM      7  O   UNL     1      -2.331  24.199  16.999  1.00  0.00    -0.544 OA
ATOM      8  O   UNL     1      -1.562  25.331  15.166  1.00  0.00    -0.544 OA
ENDBRANCH   1   6
BRANCH   1   9
ATOM      9  C   UNL     1      -1.452  27.350  17.782  1.00  0.00     0.047 C 
ATOM     10  C   UNL     1      -0.678  28.222  16.782  1.00  0.00     0.014 C 
ATOM     11  C   UNL     1      -0.479  26.435  18.546  1.00  0.00     0.014 C 
ENDBRANCH   1   9
TORSDOF 3
ENDMDL
MODEL 5
REMARK VINA RESULT:    -3.080      2.380      2.894
REMARK INTER + INTRA:          -3.394
REMARK INTER:                  -3.561
REMARK INTRA:                   0.167
REMARK UNBOUND:                 0.136
REMARK SMILES CC(C)[C@H]([NH3+])C(=O)[O-]
REMARK SMILES IDX 4 1 5 2 6 6 7 7 8 8 2 9 1 10 3 11
REMARK H PARENT 5 3 5 4 5 5
REMARK Flexibility Score: inf
ROOT
ATOM      1  C   UNL     1      -2.368  25.827  16.983  1.00  0.00     0.230 C 
ENDROOT
BRANCH   1   2
ATOM      2  N   UNL     1      -2.225  25.658  15.530  1.00  0.00    -0.350 N 
ATOM      3  H   UNL     1      -1.313  26.035  15.188  1.00  0.00     0.345 HD
ATOM      4  H   UNL     1      -2.294  24.645  15.278  1.00  0.00     0.345 HD
ATOM      5  H   UNL     1      -2.999  26.167  15.042  1.00  0.00     0.345 HD
ENDBRANCH   1   2
BRANCH   1   6
ATOM      6  C   UNL     1      -3.537  26.728  17.302  1.00  0.00     0.099 C 
ATOM      7  O   UNL     1      -4.490  26.299  18.005  1.00  0.00    -0.544 OA
ATOM      8  O   UNL     1      -3.562  28.043  16.851  1.00  0.00    -0.544 OA
ENDBRANCH   1   6
BRANCH   1   9
ATOM      9  C   UNL     1      -1.040  26.309  17.641  1.00  0.00     0.047 C 
ATOM     10  C   UNL     1      -1.162  26.363  19.172  1.00  0.00     0.014 C 
ATOM     11  C   UNL     1      -0.542  27.663  17.104  1.00  0.00     0.014 C 
ENDBRANCH   1   9
TORSDOF 3
ENDMDL
MODEL 6
REMARK VINA RESULT:    -3.029      2.192      2.869
REMARK INTER + INTRA:          -3.336
REMARK INTER:                  -3.478
REMARK INTRA:                   0.142
REMARK UNBOUND:                 0.136
REMARK SMILES CC(C)[C@H]([NH3+])C(=O)[O-]
REMARK SMILES IDX 4 1 5 2 6 6 7 7 8 8 2 9 1 10 3 11
REMARK H PARENT 5 3 5 4 5 5
REMARK Flexibility Score: inf
ROOT
ATOM      1  C   UNL     1      -1.220  26.637  17.987  1.00  0.00     0.230 C 
ENDROOT
BRANCH   1   2
ATOM      2  N   UNL     1      -1.456  27.038  19.382  1.00  0.00    -0.350 N 
ATOM      3  H   UNL     1      -1.058  27.983  19.581  1.00  0.00     0.345 HD
ATOM      4  H   UNL     1      -2.482  27.049  19.583  1.00  0.00     0.345 HD
ATOM      5  H   UNL     1      -1.007  26.345  20.025  1.00  0.00     0.345 HD
ENDBRANCH   1   2
BRANCH   1   6
ATOM      6  C   UNL     1      -1.012  27.851  17.113  1.00  0.00     0.099 C 
ATOM      7  O   UNL     1       0.032  27.954  16.416  1.00  0.00    -0.544 OA
ATOM      8  O   UNL     1      -1.977  28.850  17.045  1.00  0.00    -0.544 OA
ENDBRANCH   1   6
BRANCH   1   9
ATOM      9  C   UNL     1      -2.347  25.701  17.457  1.00  0.00     0.047 C 
ATOM     10  C   UNL     1      -2.027  25.185  16.045  1.00  0.00     0.014 C 
ATOM     11  C   UNL     1      -3.745  26.345  17.478  1.00  0.00     0.014 C 
ENDBRANCH   1   9
TORSDOF 3
ENDMDL
MODEL 7
REMARK VINA RESULT:    -2.849      2.029      2.517
REMARK INTER + INTRA:          -3.129
REMARK INTER:                  -3.453
REMARK INTRA:                   0.325
REMARK UNBOUND:                 0.136
REMARK SMILES CC(C)[C@H]([NH3+])C(=O)[O-]
REMARK SMILES IDX 4 1 5 2 6 6 7 7 8 8 2 9 1 10 3 11
REMARK H PARENT 5 3 5 4 5 5
REMARK Flexibility Score: inf
ROOT
ATOM      1  C   UNL     1      -1.638  26.759  18.232  1.00  0.00     0.230 C 
ENDROOT
BRANCH   1   2
ATOM      2  N   UNL     1      -0.862  26.011  19.231  1.00  0.00    -0.350 N 
ATOM      3  H   UNL     1      -1.484  25.550  19.933  1.00  0.00     0.345 HD
ATOM      4  H   UNL     1      -0.278  25.282  18.759  1.00  0.00     0.345 HD
ATOM      5  H   UNL     1      -0.219  26.665  19.735  1.00  0.00     0.345 HD
ENDBRANCH   1   2
BRANCH   1   6
ATOM      6  C   UNL     1      -2.864  25.979  17.818  1.00  0.00     0.099 C 
ATOM      7  O   UNL     1      -3.999  26.523  17.858  1.00  0.00    -0.544 OA
ATOM      8  O   UNL     1      -2.751  24.671  17.363  1.00  0.00    -0.544 OA
ENDBRANCH   1   6
BRANCH   1   9
ATOM      9  C   UNL     1      -0.759  27.185  17.018  1.00  0.00     0.047 C 
ATOM     10  C   UNL     1      -0.850  28.698  16.766  1.00  0.00     0.014 C 
ATOM     11  C   UNL     1      -1.078  26.416  15.725  1.00  0.00     0.014 C 
ENDBRANCH   1   9
TORSDOF 3
ENDMDL
MODEL 8
REMARK VINA RESULT:    -2.659      2.530      3.083
REMARK INTER + INTRA:          -2.911
REMARK INTER:                  -2.919
REMARK INTRA:                   0.008
REMARK UNBOUND:                 0.136
REMARK SMILES CC(C)[C@H]([NH3+])C(=O)[O-]
REMARK SMILES IDX 4 1 5 2 6 6 7 7 8 8 2 9 1 10 3 11
REMARK H PARENT 5 3 5 4 5 5
REMARK Flexibility Score: inf
ROOT
ATOM      1  C   UNL     1      -1.136  27.105  17.398  1.00  0.00     0.230 C 
ENDROOT
BRANCH   1   2
ATOM      2  N   UNL     1      -1.137  27.022  18.866  1.00  0.00    -0.350 N 
ATOM      3  H   UNL     1      -2.034  27.374  19.269  1.00  0.00     0.345 HD
ATOM      4  H   UNL     1      -0.989  26.032  19.170  1.00  0.00     0.345 HD
ATOM      5  H   UNL     1      -0.352  27.600  19.248  1.00  0.00     0.345 HD
ENDBRANCH   1   2
BRANCH   1   6
ATOM      6  C   UNL     1      -1.216  28.544  16.946  1.00  0.00     0.099 C 
ATOM      7  O   UNL     1      -2.337  29.069  16.712  1.00  0.00    -0.544 OA
ATOM      8  O   UNL     1      -0.064  29.310  16.813  1.00  0.00    -0.544 OA
ENDBRANCH   1   6
BRANCH   1   9
ATOM      9  C   UNL     1      -2.251  26.214  16.770  1.00  0.00     0.047 C 
ATOM     10  C   UNL     1      -3.447  26.064  17.722  1.00  0.00     0.014 C 
ATOM     11  C   UNL     1      -1.755  24.828  16.324  1.00  0.00     0.014 C 
ENDBRANCH   1   9
TORSDOF 3
ENDMDL
MODEL 9
REMARK VINA RESULT:    -2.638      2.081      2.952
REMARK INTER + INTRA:          -2.887
REMARK INTER:                  -3.125
REMARK INTRA:                   0.237
REMARK UNBOUND:                 0.136
REMARK SMILES CC(C)[C@H]([NH3+])C(=O)[O-]
REMARK SMILES IDX 4 1 5 2 6 6 7 7 8 8 2 9 1 10 3 11
REMARK H PARENT 5 3 5 4 5 5
REMARK Flexibility Score: inf
ROOT
ATOM      1  C   UNL     1      -1.720  26.857  17.123  1.00  0.00     0.230 C 
ENDROOT
BRANCH   1   2
ATOM      2  N   UNL     1      -2.992  27.590  17.215  1.00  0.00    -0.350 N 
ATOM      3  H   UNL     1      -3.662  27.289  16.472  1.00  0.00     0.345 HD
ATOM      4  H   UNL     1      -3.428  27.435  18.154  1.00  0.00     0.345 HD
ATOM      5  H   UNL     1      -2.813  28.615  17.106  1.00  0.00     0.345 HD
ENDBRANCH   1   2
BRANCH   1   6
ATOM      6  C   UNL     1      -1.910  25.555  16.381  1.00  0.00     0.099 C 
ATOM      7  O   UNL     1      -2.512  24.597  16.933  1.00  0.00    -0.544 OA
ATOM      8  O   UNL     1      -1.451  25.410  15.076  1.00  0.00    -0.544 OA
ENDBRANCH   1   6
BRANCH   1   9
ATOM      9  C   UNL     1      -1.065  26.661  18.523  1.00  0.00     0.047 C 
ATOM     10  C   UNL     1      -0.056  25.501  18.510  1.00  0.00     0.014 C 
ATOM     11  C   UNL     1      -2.083  26.459  19.659  1.00  0.00     0.014 C 
ENDBRANCH   1   9
TORSDOF 3
ENDMDL
