MODEL 1
REMARK VINA RESULT:    -6.268      0.000      0.000
REMARK INTER + INTRA:         -12.028
REMARK INTER:                  -9.932
REMARK INTRA:                  -2.096
REMARK UNBOUND:                -2.096
REMARK SMILES CC[C@H](C=C[C@@H](C)[C@@H]1CC[C@@H]2[C@H]3CC=C4C[C@@H](O[C@@H]5O[C@@H](CO)[C@H](O)[C@H](O)[C@H]5O)CC[C@@]4(C)[C@@H]3CC[C@@]21C)C(C)C
REMARK SMILES IDX 8 1 9 2 10 3 11 4 37 5 36 6 35 7 34 8 12 9 13 10 14 11 15 12
REMARK SMILES IDX 32 13 31 14 30 15 17 16 16 17 33 18 38 19 6 20 7 21 5 22
REMARK SMILES IDX 4 23 3 24 2 25 1 26 39 27 40 28 41 29 18 30 19 31 28 32
REMARK SMILES IDX 20 33 26 34 21 35 24 36 29 37 27 39 22 41 23 42 25 44
REMARK H PARENT 29 38 27 40 23 43 25 45
REMARK Flexibility Score: inf
ROOT
ATOM      1  C   UNL     1      12.240 -15.523  10.854  1.00  0.00     0.002 C 
ATOM      2  C   UNL     1      11.902 -14.145  11.445  1.00  0.00     0.005 C 
ATOM      3  C   UNL     1      13.099 -13.752  12.275  1.00  0.00     0.005 C 
ATOM      4  C   UNL     1      13.578 -15.054  12.907  1.00  0.00    -0.001 C 
ATOM      5  C   UNL     1      13.289 -16.190  11.852  1.00  0.00    -0.026 C 
ATOM      6  C   UNL     1      14.583 -16.829  11.189  1.00  0.00     0.007 C 
ATOM      7  C   UNL     1      15.932 -16.367  11.738  1.00  0.00     0.005 C 
ATOM      8  C   UNL     1      15.874 -16.153  13.260  1.00  0.00     0.003 C 
ATOM      9  C   UNL     1      15.019 -14.897  13.505  1.00  0.00     0.000 C 
ATOM     10  C   UNL     1      14.960 -14.475  15.000  1.00  0.00     0.031 C 
ATOM     11  C   UNL     1      16.064 -14.993  15.864  1.00  0.00    -0.027 C 
ATOM     12  C   UNL     1      17.099 -15.741  15.430  1.00  0.00    -0.065 C 
ATOM     13  C   UNL     1      17.292 -16.073  13.943  1.00  0.00    -0.008 C 
ATOM     14  C   UNL     1      18.023 -17.458  13.756  1.00  0.00     0.014 C 
ATOM     15  C   UNL     1      19.047 -17.829  14.849  1.00  0.00     0.033 C 
ATOM     16  C   UNL     1      18.428 -17.676  16.241  1.00  0.00     0.125 C 
ATOM     17  C   UNL     1      18.130 -16.187  16.442  1.00  0.00     0.063 C 
ATOM     18  C   UNL     1      18.175 -14.965  13.322  1.00  0.00     0.016 C 
ATOM     19  C   UNL     1      12.555 -17.358  12.584  1.00  0.00     0.012 C 
ENDROOT
BRANCH   1  20
ATOM     20  C   UNL     1      12.563 -15.448   9.323  1.00  0.00     0.012 C 
ATOM     21  C   UNL     1      13.398 -14.211   8.920  1.00  0.00     0.012 C 
BRANCH  20  22
ATOM     22  C   UNL     1      11.285 -15.477   8.506  1.00  0.00    -0.028 C 
ATOM     23  C   UNL     1      10.624 -16.625   8.275  1.00  0.00    -0.027 C 
BRANCH  23  24
ATOM     24  C   UNL     1       9.346 -16.653   7.460  1.00  0.00     0.014 C 
BRANCH  24  25
ATOM     25  C   UNL     1       8.634 -15.270   7.456  1.00  0.00     0.004 C 
ATOM     26  C   UNL     1       7.107 -15.304   7.287  1.00  0.00     0.004 C 
ENDBRANCH  24  25
BRANCH  24  27
ATOM     27  C   UNL     1       9.562 -17.316   6.061  1.00  0.00    -0.011 C 
ATOM     28  C   UNL     1      10.001 -16.297   5.001  1.00  0.00     0.008 C 
ATOM     29  C   UNL     1      10.518 -18.516   6.056  1.00  0.00     0.008 C 
ENDBRANCH  24  27
ENDBRANCH  23  24
ENDBRANCH  20  22
ENDBRANCH   1  20
BRANCH  16  30
ATOM     30  O   UNL     1      17.234 -18.448  16.272  1.00  0.00    -0.346 OA
BRANCH  30  31
ATOM     31  C   UNL     1      16.880 -18.885  17.574  1.00  0.00     0.282 C 
ATOM     32  C   UNL     1      15.384 -18.586  17.822  1.00  0.00     0.202 C 
ATOM     33  O   UNL     1      17.159 -20.268  17.771  1.00  0.00    -0.341 OA
ATOM     34  C   UNL     1      14.498 -19.480  16.938  1.00  0.00     0.179 C 
ATOM     35  C   UNL     1      16.456 -21.079  16.843  1.00  0.00     0.178 C 
ATOM     36  C   UNL     1      14.925 -20.950  17.074  1.00  0.00     0.177 C 
BRANCH  32  37
ATOM     37  O   UNL     1      15.058 -18.790  19.179  1.00  0.00    -0.385 OA
ATOM     38  H   UNL     1      15.913 -18.798  19.682  1.00  0.00     0.211 HD
ENDBRANCH  32  37
BRANCH  34  39
ATOM     39  O   UNL     1      14.592 -19.078  15.593  1.00  0.00    -0.387 OA
ATOM     40  H   UNL     1      15.040 -19.812  15.097  1.00  0.00     0.211 HD
ENDBRANCH  34  39
BRANCH  35  41
ATOM     41  C   UNL     1      16.922 -22.542  17.014  1.00  0.00     0.191 C 
BRANCH  41  42
ATOM     42  O   UNL     1      16.329 -23.392  16.070  1.00  0.00    -0.394 OA
ATOM     43  H   UNL     1      15.590 -22.883  15.632  1.00  0.00     0.210 HD
ENDBRANCH  41  42
ENDBRANCH  35  41
BRANCH  36  44
ATOM     44  O   UNL     1      14.173 -21.759  16.195  1.00  0.00    -0.387 OA
ATOM     45  H   UNL     1      13.329 -21.291  15.991  1.00  0.00     0.211 HD
ENDBRANCH  36  44
ENDBRANCH  30  31
ENDBRANCH  16  30
TORSDOF 12
ENDMDL
MODEL 2
REMARK VINA RESULT:    -6.172      7.687     11.677
REMARK INTER + INTRA:         -11.876
REMARK INTER:                  -9.311
REMARK INTRA:                  -2.566
REMARK UNBOUND:                -2.096
REMARK SMILES CC[C@H](C=C[C@@H](C)[C@@H]1CC[C@@H]2[C@H]3CC=C4C[C@@H](O[C@@H]5O[C@@H](CO)[C@H](O)[C@H](O)[C@H]5O)CC[C@@]4(C)[C@@H]3CC[C@@]21C)C(C)C
REMARK SMILES IDX 8 1 9 2 10 3 11 4 37 5 36 6 35 7 34 8 12 9 13 10 14 11 15 12
REMARK SMILES IDX 32 13 31 14 30 15 17 16 16 17 33 18 38 19 6 20 7 21 5 22
REMARK SMILES IDX 4 23 3 24 2 25 1 26 39 27 40 28 41 29 18 30 19 31 28 32
REMARK SMILES IDX 20 33 26 34 21 35 24 36 29 37 27 39 22 41 23 42 25 44
REMARK H PARENT 29 38 27 40 23 43 25 45
REMARK Flexibility Score: inf
ROOT
ATOM      1  C   UNL     1      10.926 -11.249  11.964  1.00  0.00     0.002 C 
ATOM      2  C   UNL     1      11.510 -12.355  12.858  1.00  0.00     0.005 C 
ATOM      3  C   UNL     1      11.729 -13.539  11.950  1.00  0.00     0.005 C 
ATOM      4  C   UNL     1      10.551 -13.511  10.983  1.00  0.00    -0.001 C 
ATOM      5  C   UNL     1      10.205 -11.990  10.751  1.00  0.00    -0.026 C 
ATOM      6  C   UNL     1      10.536 -11.446   9.296  1.00  0.00     0.007 C 
ATOM      7  C   UNL     1      11.018 -12.474   8.274  1.00  0.00     0.005 C 
ATOM      8  C   UNL     1      10.290 -13.818   8.445  1.00  0.00     0.003 C 
ATOM      9  C   UNL     1      10.807 -14.447   9.751  1.00  0.00     0.000 C 
ATOM     10  C   UNL     1      10.250 -15.875  10.008  1.00  0.00     0.031 C 
ATOM     11  C   UNL     1       9.735 -16.597   8.805  1.00  0.00    -0.027 C 
ATOM     12  C   UNL     1       9.767 -16.119   7.545  1.00  0.00    -0.065 C 
ATOM     13  C   UNL     1      10.432 -14.777   7.203  1.00  0.00    -0.008 C 
ATOM     14  C   UNL     1       9.743 -14.098   5.957  1.00  0.00     0.014 C 
ATOM     15  C   UNL     1       9.182 -15.064   4.893  1.00  0.00     0.033 C 
ATOM     16  C   UNL     1       8.294 -16.128   5.545  1.00  0.00     0.125 C 
ATOM     17  C   UNL     1       9.197 -16.981   6.441  1.00  0.00     0.063 C 
ATOM     18  C   UNL     1      11.912 -15.059   6.852  1.00  0.00     0.016 C 
ATOM     19  C   UNL     1       8.667 -11.806  10.944  1.00  0.00     0.012 C 
ENDROOT
BRANCH   1  20
ATOM     20  C   UNL     1      11.965 -10.113  11.674  1.00  0.00     0.012 C 
ATOM     21  C   UNL     1      13.033  -9.944  12.779  1.00  0.00     0.012 C 
BRANCH  20  22
ATOM     22  C   UNL     1      11.259  -8.787  11.454  1.00  0.00    -0.028 C 
ATOM     23  C   UNL     1      11.297  -8.160  10.266  1.00  0.00    -0.027 C 
BRANCH  23  24
ATOM     24  C   UNL     1      10.591  -6.836  10.046  1.00  0.00     0.014 C 
BRANCH  24  25
ATOM     25  C   UNL     1      11.515  -5.797   9.349  1.00  0.00     0.004 C 
ATOM     26  C   UNL     1      12.543  -6.370   8.362  1.00  0.00     0.004 C 
ENDBRANCH  24  25
BRANCH  24  27
ATOM     27  C   UNL     1       9.176  -7.030   9.411  1.00  0.00    -0.011 C 
ATOM     28  C   UNL     1       9.167  -8.139   8.350  1.00  0.00     0.008 C 
ATOM     29  C   UNL     1       8.042  -7.264  10.417  1.00  0.00     0.008 C 
ENDBRANCH  24  27
ENDBRANCH  23  24
ENDBRANCH  20  22
ENDBRANCH   1  20
BRANCH  16  30
ATOM     30  O   UNL     1       7.301 -15.456   6.307  1.00  0.00    -0.346 OA
BRANCH  30  31
ATOM     31  C   UNL     1       6.230 -14.958   5.522  1.00  0.00     0.282 C 
ATOM     32  C   UNL     1       4.889 -15.377   6.165  1.00  0.00     0.202 C 
ATOM     33  O   UNL     1       6.293 -13.544   5.360  1.00  0.00    -0.341 OA
ATOM     34  C   UNL     1       4.671 -14.638   7.497  1.00  0.00     0.179 C 
ATOM     35  C   UNL     1       6.253 -12.874   6.610  1.00  0.00     0.178 C 
ATOM     36  C   UNL     1       4.888 -13.128   7.307  1.00  0.00     0.177 C 
BRANCH  32  37
ATOM     37  O   UNL     1       3.815 -15.104   5.292  1.00  0.00    -0.385 OA
ATOM     38  H   UNL     1       4.043 -15.514   4.418  1.00  0.00     0.211 HD
ENDBRANCH  32  37
BRANCH  34  39
ATOM     39  O   UNL     1       5.558 -15.129   8.474  1.00  0.00    -0.387 OA
ATOM     40  H   UNL     1       5.442 -16.114   8.507  1.00  0.00     0.211 HD
ENDBRANCH  34  39
BRANCH  35  41
ATOM     41  C   UNL     1       6.480 -11.365   6.368  1.00  0.00     0.191 C 
BRANCH  41  42
ATOM     42  O   UNL     1       5.271 -10.659   6.300  1.00  0.00    -0.394 OA
ATOM     43  H   UNL     1       5.356  -9.863   6.896  1.00  0.00     0.210 HD
ENDBRANCH  41  42
ENDBRANCH  35  41
BRANCH  36  44
ATOM     44  O   UNL     1       4.779 -12.461   8.546  1.00  0.00    -0.387 OA
ATOM     45  H   UNL     1       5.649 -12.524   9.008  1.00  0.00     0.211 HD
ENDBRANCH  36  44
ENDBRANCH  30  31
ENDBRANCH  16  30
TORSDOF 12
ENDMDL
MODEL 3
REMARK VINA RESULT:    -6.072     10.356     14.639
REMARK INTER + INTRA:         -11.718
REMARK INTER:                  -9.859
REMARK INTRA:                  -1.859
REMARK UNBOUND:                -2.096
REMARK SMILES CC[C@H](C=C[C@@H](C)[C@@H]1CC[C@@H]2[C@H]3CC=C4C[C@@H](O[C@@H]5O[C@@H](CO)[C@H](O)[C@H](O)[C@H]5O)CC[C@@]4(C)[C@@H]3CC[C@@]21C)C(C)C
REMARK SMILES IDX 8 1 9 2 10 3 11 4 37 5 36 6 35 7 34 8 12 9 13 10 14 11 15 12
REMARK SMILES IDX 32 13 31 14 30 15 17 16 16 17 33 18 38 19 6 20 7 21 5 22
REMARK SMILES IDX 4 23 3 24 2 25 1 26 39 27 40 28 41 29 18 30 19 31 28 32
REMARK SMILES IDX 20 33 26 34 21 35 24 36 29 37 27 39 22 41 23 42 25 44
REMARK H PARENT 29 38 27 40 23 43 25 45
REMARK Flexibility Score: inf
ROOT
ATOM      1  C   UNL     1      10.645 -15.125  21.314  1.00  0.00     0.002 C 
ATOM      2  C   UNL     1      10.252 -16.598  21.112  1.00  0.00     0.005 C 
ATOM      3  C   UNL     1       9.151 -16.588  20.082  1.00  0.00     0.005 C 
ATOM      4  C   UNL     1       8.336 -15.338  20.395  1.00  0.00    -0.001 C 
ATOM      5  C   UNL     1       9.361 -14.265  20.928  1.00  0.00    -0.026 C 
ATOM      6  C   UNL     1       9.605 -13.035  19.952  1.00  0.00     0.007 C 
ATOM      7  C   UNL     1       8.737 -12.974  18.697  1.00  0.00     0.005 C 
ATOM      8  C   UNL     1       7.304 -13.455  18.983  1.00  0.00     0.003 C 
ATOM      9  C   UNL     1       7.377 -14.975  19.209  1.00  0.00     0.000 C 
ATOM     10  C   UNL     1       5.982 -15.638  19.396  1.00  0.00     0.031 C 
ATOM     11  C   UNL     1       4.821 -14.862  18.865  1.00  0.00    -0.027 C 
ATOM     12  C   UNL     1       4.910 -13.686  18.213  1.00  0.00    -0.065 C 
ATOM     13  C   UNL     1       6.265 -13.048  17.871  1.00  0.00    -0.008 C 
ATOM     14  C   UNL     1       6.163 -11.475  17.824  1.00  0.00     0.014 C 
ATOM     15  C   UNL     1       4.811 -10.905  17.346  1.00  0.00     0.033 C 
ATOM     16  C   UNL     1       3.653 -11.545  18.117  1.00  0.00     0.125 C 
ATOM     17  C   UNL     1       3.629 -13.031  17.745  1.00  0.00     0.063 C 
ATOM     18  C   UNL     1       6.685 -13.554  16.471  1.00  0.00     0.016 C 
ATOM     19  C   UNL     1       8.791 -13.663  22.250  1.00  0.00     0.012 C 
ENDROOT
BRANCH   1  20
ATOM     20  C   UNL     1      12.031 -14.789  20.666  1.00  0.00     0.012 C 
ATOM     21  C   UNL     1      12.446 -15.760  19.537  1.00  0.00     0.012 C 
BRANCH  20  22
ATOM     22  C   UNL     1      13.121 -14.754  21.722  1.00  0.00    -0.028 C 
ATOM     23  C   UNL     1      14.404 -15.011  21.415  1.00  0.00    -0.027 C 
BRANCH  23  24
ATOM     24  C   UNL     1      15.493 -14.974  22.470  1.00  0.00     0.014 C 
BRANCH  24  25
ATOM     25  C   UNL     1      16.905 -15.170  21.850  1.00  0.00     0.004 C 
ATOM     26  C   UNL     1      16.957 -15.258  20.317  1.00  0.00     0.004 C 
ENDBRANCH  24  25
BRANCH  24  27
ATOM     27  C   UNL     1      15.331 -13.753  23.433  1.00  0.00    -0.011 C 
ATOM     28  C   UNL     1      15.977 -14.008  24.802  1.00  0.00     0.008 C 
ATOM     29  C   UNL     1      15.823 -12.415  22.867  1.00  0.00     0.008 C 
ENDBRANCH  24  27
ENDBRANCH  23  24
ENDBRANCH  20  22
ENDBRANCH   1  20
BRANCH  16  30
ATOM     30  O   UNL     1       3.905 -11.366  19.504  1.00  0.00    -0.346 OA
BRANCH  30  31
ATOM     31  C   UNL     1       2.910 -11.941  20.336  1.00  0.00     0.282 C 
ATOM     32  C   UNL     1       3.537 -12.309  21.700  1.00  0.00     0.202 C 
ATOM     33  O   UNL     1       1.790 -11.077  20.510  1.00  0.00    -0.341 OA
ATOM     34  C   UNL     1       3.908 -11.040  22.486  1.00  0.00     0.179 C 
ATOM     35  C   UNL     1       2.171  -9.841  21.093  1.00  0.00     0.178 C 
ATOM     36  C   UNL     1       2.714 -10.073  22.530  1.00  0.00     0.177 C 
BRANCH  32  37
ATOM     37  O   UNL     1       2.642 -13.091  22.460  1.00  0.00    -0.385 OA
ATOM     38  H   UNL     1       1.821 -12.548  22.587  1.00  0.00     0.211 HD
ENDBRANCH  32  37
BRANCH  34  39
ATOM     39  O   UNL     1       5.015 -10.407  21.889  1.00  0.00    -0.387 OA
ATOM     40  H   UNL     1       4.665  -9.826  21.165  1.00  0.00     0.211 HD
ENDBRANCH  34  39
BRANCH  35  41
ATOM     41  C   UNL     1       0.943  -8.904  21.109  1.00  0.00     0.191 C 
BRANCH  41  42
ATOM     42  O   UNL     1       0.480  -8.672  22.412  1.00  0.00    -0.394 OA
ATOM     43  H   UNL     1       1.146  -9.071  23.041  1.00  0.00     0.210 HD
ENDBRANCH  41  42
ENDBRANCH  35  41
BRANCH  36  44
ATOM     44  O   UNL     1       3.084  -8.872  23.171  1.00  0.00    -0.387 OA
ATOM     45  H   UNL     1       3.667  -9.097  23.935  1.00  0.00     0.211 HD
ENDBRANCH  36  44
ENDBRANCH  30  31
ENDBRANCH  16  30
TORSDOF 12
ENDMDL
MODEL 4
REMARK VINA RESULT:    -6.041      4.936      8.036
REMARK INTER + INTRA:         -11.669
REMARK INTER:                  -9.213
REMARK INTRA:                  -2.456
REMARK UNBOUND:                -2.096
REMARK SMILES CC[C@H](C=C[C@@H](C)[C@@H]1CC[C@@H]2[C@H]3CC=C4C[C@@H](O[C@@H]5O[C@@H](CO)[C@H](O)[C@H](O)[C@H]5O)CC[C@@]4(C)[C@@H]3CC[C@@]21C)C(C)C
REMARK SMILES IDX 8 1 9 2 10 3 11 4 37 5 36 6 35 7 34 8 12 9 13 10 14 11 15 12
REMARK SMILES IDX 32 13 31 14 30 15 17 16 16 17 33 18 38 19 6 20 7 21 5 22
REMARK SMILES IDX 4 23 3 24 2 25 1 26 39 27 40 28 41 29 18 30 19 31 28 32
REMARK SMILES IDX 20 33 26 34 21 35 24 36 29 37 27 39 22 41 23 42 25 44
REMARK H PARENT 29 38 27 40 23 43 25 45
REMARK Flexibility Score: inf
ROOT
ATOM      1  C   UNL     1      11.068  -8.751   9.634  1.00  0.00     0.002 C 
ATOM      2  C   UNL     1       9.565  -8.842   9.326  1.00  0.00     0.005 C 
ATOM      3  C   UNL     1       8.984  -9.741  10.388  1.00  0.00     0.005 C 
ATOM      4  C   UNL     1      10.053 -10.802  10.626  1.00  0.00    -0.001 C 
ATOM      5  C   UNL     1      11.442 -10.084  10.424  1.00  0.00    -0.026 C 
ATOM      6  C   UNL     1      12.295  -9.900  11.751  1.00  0.00     0.007 C 
ATOM      7  C   UNL     1      11.739 -10.545  13.019  1.00  0.00     0.005 C 
ATOM      8  C   UNL     1      11.076 -11.899  12.713  1.00  0.00     0.003 C 
ATOM      9  C   UNL     1       9.775 -11.600  11.948  1.00  0.00     0.000 C 
ATOM     10  C   UNL     1       8.922 -12.869  11.665  1.00  0.00     0.031 C 
ATOM     11  C   UNL     1       9.196 -14.044  12.547  1.00  0.00    -0.027 C 
ATOM     12  C   UNL     1      10.075 -14.054  13.568  1.00  0.00    -0.065 C 
ATOM     13  C   UNL     1      10.845 -12.794  13.989  1.00  0.00    -0.008 C 
ATOM     14  C   UNL     1      12.248 -13.160  14.611  1.00  0.00     0.014 C 
ATOM     15  C   UNL     1      12.309 -14.492  15.388  1.00  0.00     0.033 C 
ATOM     16  C   UNL     1      11.724 -15.632  14.549  1.00  0.00     0.125 C 
ATOM     17  C   UNL     1      10.234 -15.334  14.359  1.00  0.00     0.063 C 
ATOM     18  C   UNL     1      10.007 -12.065  15.066  1.00  0.00     0.016 C 
ATOM     19  C   UNL     1      12.309 -10.962   9.469  1.00  0.00     0.012 C 
ENDROOT
BRANCH   1  20
ATOM     20  C   UNL     1      11.467  -7.357  10.227  1.00  0.00     0.012 C 
ATOM     21  C   UNL     1      10.512  -6.210   9.825  1.00  0.00     0.012 C 
BRANCH  20  22
ATOM     22  C   UNL     1      12.885  -6.992   9.826  1.00  0.00    -0.028 C 
ATOM     23  C   UNL     1      13.426  -7.436   8.679  1.00  0.00    -0.027 C 
BRANCH  23  24
ATOM     24  C   UNL     1      14.842  -7.069   8.278  1.00  0.00     0.014 C 
BRANCH  24  25
ATOM     25  C   UNL     1      14.992  -5.543   8.021  1.00  0.00     0.004 C 
ATOM     26  C   UNL     1      14.023  -4.937   6.995  1.00  0.00     0.004 C 
ENDBRANCH  24  25
BRANCH  24  27
ATOM     27  C   UNL     1      15.902  -7.711   9.231  1.00  0.00    -0.011 C 
ATOM     28  C   UNL     1      15.659  -9.213   9.435  1.00  0.00     0.008 C 
ATOM     29  C   UNL     1      17.363  -7.471   8.827  1.00  0.00     0.008 C 
ENDBRANCH  24  27
ENDBRANCH  23  24
ENDBRANCH  20  22
ENDBRANCH   1  20
BRANCH  16  30
ATOM     30  O   UNL     1      12.408 -15.649  13.303  1.00  0.00    -0.346 OA
BRANCH  30  31
ATOM     31  C   UNL     1      12.500 -16.943  12.729  1.00  0.00     0.282 C 
ATOM     32  C   UNL     1      12.713 -16.809  11.204  1.00  0.00     0.202 C 
ATOM     33  O   UNL     1      13.538 -17.720  13.319  1.00  0.00    -0.341 OA
ATOM     34  C   UNL     1      14.106 -16.231  10.900  1.00  0.00     0.179 C 
ATOM     35  C   UNL     1      14.804 -17.098  13.171  1.00  0.00     0.178 C 
ATOM     36  C   UNL     1      15.184 -17.012  11.667  1.00  0.00     0.177 C 
BRANCH  32  37
ATOM     37  O   UNL     1      12.573 -18.063  10.574  1.00  0.00    -0.385 OA
ATOM     38  H   UNL     1      11.801 -17.991   9.956  1.00  0.00     0.211 HD
ENDBRANCH  32  37
BRANCH  34  39
ATOM     39  O   UNL     1      14.155 -14.871  11.258  1.00  0.00    -0.387 OA
ATOM     40  H   UNL     1      14.408 -14.828  12.216  1.00  0.00     0.211 HD
ENDBRANCH  34  39
BRANCH  35  41
ATOM     41  C   UNL     1      15.850 -17.913  13.962  1.00  0.00     0.191 C 
BRANCH  41  42
ATOM     42  O   UNL     1      16.525 -18.830  13.144  1.00  0.00    -0.394 OA
ATOM     43  H   UNL     1      15.834 -19.351  12.646  1.00  0.00     0.210 HD
ENDBRANCH  41  42
ENDBRANCH  35  41
BRANCH  36  44
ATOM     44  O   UNL     1      16.451 -16.425  11.460  1.00  0.00    -0.387 OA
ATOM     45  H   UNL     1      16.314 -15.514  11.106  1.00  0.00     0.211 HD
ENDBRANCH  36  44
ENDBRANCH  30  31
ENDBRANCH  16  30
TORSDOF 12
ENDMDL
MODEL 5
REMARK VINA RESULT:    -5.908      4.434      7.210
REMARK INTER + INTRA:         -11.458
REMARK INTER:                  -9.237
REMARK INTRA:                  -2.221
REMARK UNBOUND:                -2.096
REMARK SMILES CC[C@H](C=C[C@@H](C)[C@@H]1CC[C@@H]2[C@H]3CC=C4C[C@@H](O[C@@H]5O[C@@H](CO)[C@H](O)[C@H](O)[C@H]5O)CC[C@@]4(C)[C@@H]3CC[C@@]21C)C(C)C
REMARK SMILES IDX 8 1 9 2 10 3 11 4 37 5 36 6 35 7 34 8 12 9 13 10 14 11 15 12
REMARK SMILES IDX 32 13 31 14 30 15 17 16 16 17 33 18 38 19 6 20 7 21 5 22
REMARK SMILES IDX 4 23 3 24 2 25 1 26 39 27 40 28 41 29 18 30 19 31 28 32
REMARK SMILES IDX 20 33 26 34 21 35 24 36 29 37 27 39 22 41 23 42 25 44
REMARK H PARENT 29 38 27 40 23 43 25 45
REMARK Flexibility Score: inf
ROOT
ATOM      1  C   UNL     1       9.742 -11.266  11.153  1.00  0.00     0.002 C 
ATOM      2  C   UNL     1       8.737 -12.351  10.730  1.00  0.00     0.005 C 
ATOM      3  C   UNL     1       9.018 -13.536  11.619  1.00  0.00     0.005 C 
ATOM      4  C   UNL     1      10.533 -13.545  11.789  1.00  0.00    -0.001 C 
ATOM      5  C   UNL     1      10.988 -12.035  11.783  1.00  0.00    -0.026 C 
ATOM      6  C   UNL     1      11.516 -11.493  13.180  1.00  0.00     0.007 C 
ATOM      7  C   UNL     1      11.642 -12.515  14.308  1.00  0.00     0.005 C 
ATOM      8  C   UNL     1      12.126 -13.876  13.779  1.00  0.00     0.003 C 
ATOM      9  C   UNL     1      10.966 -14.482  12.970  1.00  0.00     0.000 C 
ATOM     10  C   UNL     1      11.256 -15.922  12.461  1.00  0.00     0.031 C 
ATOM     11  C   UNL     1      12.325 -16.666  13.196  1.00  0.00    -0.027 C 
ATOM     12  C   UNL     1      12.996 -16.196  14.266  1.00  0.00    -0.065 C 
ATOM     13  C   UNL     1      12.659 -14.840  14.905  1.00  0.00    -0.008 C 
ATOM     14  C   UNL     1      13.931 -14.188  15.570  1.00  0.00     0.014 C 
ATOM     15  C   UNL     1      14.957 -15.175  16.165  1.00  0.00     0.033 C 
ATOM     16  C   UNL     1      15.319 -16.257  15.143  1.00  0.00     0.125 C 
ATOM     17  C   UNL     1      14.053 -17.081  14.889  1.00  0.00     0.063 C 
ATOM     18  C   UNL     1      11.601 -15.087  16.007  1.00  0.00     0.016 C 
ATOM     19  C   UNL     1      12.177 -11.888  10.783  1.00  0.00     0.012 C 
ENDROOT
BRANCH   1  20
ATOM     20  C   UNL     1       9.057 -10.106  11.953  1.00  0.00     0.012 C 
ATOM     21  C   UNL     1       7.554 -10.338  12.229  1.00  0.00     0.012 C 
BRANCH  20  22
ATOM     22  C   UNL     1       9.235  -8.782  11.232  1.00  0.00    -0.028 C 
ATOM     23  C   UNL     1      10.255  -8.578  10.381  1.00  0.00    -0.027 C 
BRANCH  23  24
ATOM     24  C   UNL     1      10.431  -7.256   9.660  1.00  0.00     0.014 C 
BRANCH  24  25
ATOM     25  C   UNL     1       9.141  -6.389   9.720  1.00  0.00     0.004 C 
ATOM     26  C   UNL     1       8.360  -6.258   8.403  1.00  0.00     0.004 C 
ENDBRANCH  24  25
BRANCH  24  27
ATOM     27  C   UNL     1      11.758  -6.539  10.073  1.00  0.00    -0.011 C 
ATOM     28  C   UNL     1      12.748  -7.501  10.744  1.00  0.00     0.008 C 
ATOM     29  C   UNL     1      12.460  -5.777   8.941  1.00  0.00     0.008 C 
ENDBRANCH  24  27
ENDBRANCH  23  24
ENDBRANCH  20  22
ENDBRANCH   1  20
BRANCH  16  30
ATOM     30  O   UNL     1      15.755 -15.605  13.957  1.00  0.00    -0.346 OA
BRANCH  30  31
ATOM     31  C   UNL     1      16.949 -16.150  13.421  1.00  0.00     0.282 C 
ATOM     32  C   UNL     1      17.225 -15.512  12.040  1.00  0.00     0.202 C 
ATOM     33  O   UNL     1      18.061 -15.969  14.293  1.00  0.00    -0.341 OA
ATOM     34  C   UNL     1      17.598 -14.028  12.194  1.00  0.00     0.179 C 
ATOM     35  C   UNL     1      18.300 -14.596  14.556  1.00  0.00     0.178 C 
ATOM     36  C   UNL     1      18.705 -13.865  13.247  1.00  0.00     0.177 C 
BRANCH  32  37
ATOM     37  O   UNL     1      18.266 -16.196  11.379  1.00  0.00    -0.385 OA
ATOM     38  H   UNL     1      19.031 -16.235  12.010  1.00  0.00     0.211 HD
ENDBRANCH  32  37
BRANCH  34  39
ATOM     39  O   UNL     1      16.467 -13.279  12.570  1.00  0.00    -0.387 OA
ATOM     40  H   UNL     1      16.237 -12.691  11.805  1.00  0.00     0.211 HD
ENDBRANCH  34  39
BRANCH  35  41
ATOM     41  C   UNL     1      19.413 -14.485  15.622  1.00  0.00     0.191 C 
BRANCH  41  42
ATOM     42  O   UNL     1      19.376 -13.252  16.288  1.00  0.00    -0.394 OA
ATOM     43  H   UNL     1      18.774 -13.357  17.078  1.00  0.00     0.210 HD
ENDBRANCH  41  42
ENDBRANCH  35  41
BRANCH  36  44
ATOM     44  O   UNL     1      18.984 -12.496  13.454  1.00  0.00    -0.387 OA
ATOM     45  H   UNL     1      19.922 -12.330  13.196  1.00  0.00     0.211 HD
ENDBRANCH  36  44
ENDBRANCH  30  31
ENDBRANCH  16  30
TORSDOF 12
ENDMDL
MODEL 6
REMARK VINA RESULT:    -5.811      4.981      7.754
REMARK INTER + INTRA:         -11.304
REMARK INTER:                  -9.025
REMARK INTRA:                  -2.278
REMARK UNBOUND:                -2.096
REMARK SMILES CC[C@H](C=C[C@@H](C)[C@@H]1CC[C@@H]2[C@H]3CC=C4C[C@@H](O[C@@H]5O[C@@H](CO)[C@H](O)[C@H](O)[C@H]5O)CC[C@@]4(C)[C@@H]3CC[C@@]21C)C(C)C
REMARK SMILES IDX 8 1 9 2 10 3 11 4 37 5 36 6 35 7 34 8 12 9 13 10 14 11 15 12
REMARK SMILES IDX 32 13 31 14 30 15 17 16 16 17 33 18 38 19 6 20 7 21 5 22
REMARK SMILES IDX 4 23 3 24 2 25 1 26 39 27 40 28 41 29 18 30 19 31 28 32
REMARK SMILES IDX 20 33 26 34 21 35 24 36 29 37 27 39 22 41 23 42 25 44
REMARK H PARENT 29 38 27 40 23 43 25 45
REMARK Flexibility Score: inf
ROOT
ATOM      1  C   UNL     1      13.063  -8.075  10.605  1.00  0.00     0.002 C 
ATOM      2  C   UNL     1      14.559  -7.731  10.509  1.00  0.00     0.005 C 
ATOM      3  C   UNL     1      15.216  -8.939   9.889  1.00  0.00     0.005 C 
ATOM      4  C   UNL     1      14.469 -10.132  10.475  1.00  0.00    -0.001 C 
ATOM      5  C   UNL     1      12.976  -9.665  10.673  1.00  0.00    -0.026 C 
ATOM      6  C   UNL     1      11.928 -10.354   9.698  1.00  0.00     0.007 C 
ATOM      7  C   UNL     1      12.461 -11.462   8.791  1.00  0.00     0.005 C 
ATOM      8  C   UNL     1      13.516 -12.317   9.514  1.00  0.00     0.003 C 
ATOM      9  C   UNL     1      14.773 -11.442   9.670  1.00  0.00     0.000 C 
ATOM     10  C   UNL     1      15.982 -12.206  10.282  1.00  0.00     0.031 C 
ATOM     11  C   UNL     1      15.931 -13.695  10.171  1.00  0.00    -0.027 C 
ATOM     12  C   UNL     1      14.957 -14.391   9.552  1.00  0.00    -0.065 C 
ATOM     13  C   UNL     1      13.810 -13.693   8.806  1.00  0.00    -0.008 C 
ATOM     14  C   UNL     1      12.496 -14.565   8.829  1.00  0.00     0.014 C 
ATOM     15  C   UNL     1      12.706 -16.094   8.824  1.00  0.00     0.033 C 
ATOM     16  C   UNL     1      13.702 -16.504   9.913  1.00  0.00     0.125 C 
ATOM     17  C   UNL     1      15.058 -15.900   9.536  1.00  0.00     0.063 C 
ATOM     18  C   UNL     1      14.249 -13.507   7.333  1.00  0.00     0.016 C 
ATOM     19  C   UNL     1      12.535 -10.044  12.121  1.00  0.00     0.012 C 
ENDROOT
BRANCH   1  20
ATOM     20  C   UNL     1      12.207  -7.293   9.553  1.00  0.00     0.012 C 
ATOM     21  C   UNL     1      12.918  -6.051   8.966  1.00  0.00     0.012 C 
BRANCH  20  22
ATOM     22  C   UNL     1      10.878  -6.871  10.152  1.00  0.00    -0.028 C 
ATOM     23  C   UNL     1       9.748  -7.557   9.908  1.00  0.00    -0.027 C 
BRANCH  23  24
ATOM     24  C   UNL     1       8.421  -7.136  10.508  1.00  0.00     0.014 C 
BRANCH  24  25
ATOM     25  C   UNL     1       7.733  -6.023   9.667  1.00  0.00     0.004 C 
ATOM     26  C   UNL     1       7.796  -6.200   8.143  1.00  0.00     0.004 C 
ENDBRANCH  24  25
BRANCH  24  27
ATOM     27  C   UNL     1       7.530  -8.368  10.873  1.00  0.00    -0.011 C 
ATOM     28  C   UNL     1       8.317  -9.444  11.634  1.00  0.00     0.008 C 
ATOM     29  C   UNL     1       6.242  -8.031  11.635  1.00  0.00     0.008 C 
ENDBRANCH  24  27
ENDBRANCH  23  24
ENDBRANCH  20  22
ENDBRANCH   1  20
BRANCH  16  30
ATOM     30  O   UNL     1      13.232 -15.982  11.149  1.00  0.00    -0.346 OA
BRANCH  30  31
ATOM     31  C   UNL     1      12.896 -16.986  12.094  1.00  0.00     0.282 C 
ATOM     32  C   UNL     1      14.078 -17.181  13.070  1.00  0.00     0.202 C 
ATOM     33  O   UNL     1      11.700 -16.679  12.803  1.00  0.00    -0.341 OA
ATOM     34  C   UNL     1      14.248 -15.946  13.971  1.00  0.00     0.179 C 
ATOM     35  C   UNL     1      11.811 -15.451  13.506  1.00  0.00     0.178 C 
ATOM     36  C   UNL     1      12.901 -15.565  14.607  1.00  0.00     0.177 C 
BRANCH  32  37
ATOM     37  O   UNL     1      13.875 -18.326  13.868  1.00  0.00    -0.385 OA
ATOM     38  H   UNL     1      12.911 -18.348  14.100  1.00  0.00     0.211 HD
ENDBRANCH  32  37
BRANCH  34  39
ATOM     39  O   UNL     1      14.746 -14.864  13.222  1.00  0.00    -0.387 OA
ATOM     40  H   UNL     1      14.086 -14.673  12.507  1.00  0.00     0.211 HD
ENDBRANCH  34  39
BRANCH  35  41
ATOM     41  C   UNL     1      10.436 -15.109  14.120  1.00  0.00     0.191 C 
BRANCH  41  42
ATOM     42  O   UNL     1       9.399 -15.834  13.516  1.00  0.00    -0.394 OA
ATOM     43  H   UNL     1       9.397 -16.747  13.923  1.00  0.00     0.210 HD
ENDBRANCH  41  42
ENDBRANCH  35  41
BRANCH  36  44
ATOM     44  O   UNL     1      13.037 -14.379  15.360  1.00  0.00    -0.387 OA
ATOM     45  H   UNL     1      13.958 -14.044  15.244  1.00  0.00     0.211 HD
ENDBRANCH  36  44
ENDBRANCH  30  31
ENDBRANCH  16  30
TORSDOF 12
ENDMDL
MODEL 7
REMARK VINA RESULT:    -5.769      4.495     10.268
REMARK INTER + INTRA:         -11.237
REMARK INTER:                  -8.701
REMARK INTRA:                  -2.536
REMARK UNBOUND:                -2.096
REMARK SMILES CC[C@H](C=C[C@@H](C)[C@@H]1CC[C@@H]2[C@H]3CC=C4C[C@@H](O[C@@H]5O[C@@H](CO)[C@H](O)[C@H](O)[C@H]5O)CC[C@@]4(C)[C@@H]3CC[C@@]21C)C(C)C
REMARK SMILES IDX 8 1 9 2 10 3 11 4 37 5 36 6 35 7 34 8 12 9 13 10 14 11 15 12
REMARK SMILES IDX 32 13 31 14 30 15 17 16 16 17 33 18 38 19 6 20 7 21 5 22
REMARK SMILES IDX 4 23 3 24 2 25 1 26 39 27 40 28 41 29 18 30 19 31 28 32
REMARK SMILES IDX 20 33 26 34 21 35 24 36 29 37 27 39 22 41 23 42 25 44
REMARK H PARENT 29 38 27 40 23 43 25 45
REMARK Flexibility Score: inf
ROOT
ATOM      1  C   UNL     1      16.390 -16.711  16.848  1.00  0.00     0.002 C 
ATOM      2  C   UNL     1      16.388 -18.093  16.174  1.00  0.00     0.005 C 
ATOM      3  C   UNL     1      15.716 -17.894  14.838  1.00  0.00     0.005 C 
ATOM      4  C   UNL     1      14.612 -16.876  15.106  1.00  0.00    -0.001 C 
ATOM      5  C   UNL     1      15.165 -15.908  16.221  1.00  0.00    -0.026 C 
ATOM      6  C   UNL     1      15.472 -14.430  15.727  1.00  0.00     0.007 C 
ATOM      7  C   UNL     1      15.080 -14.093  14.290  1.00  0.00     0.005 C 
ATOM      8  C   UNL     1      13.759 -14.776  13.894  1.00  0.00     0.003 C 
ATOM      9  C   UNL     1      14.054 -16.281  13.767  1.00  0.00     0.000 C 
ATOM     10  C   UNL     1      12.838 -17.105  13.255  1.00  0.00     0.031 C 
ATOM     11  C   UNL     1      11.791 -16.328  12.524  1.00  0.00    -0.027 C 
ATOM     12  C   UNL     1      11.857 -15.010  12.249  1.00  0.00    -0.065 C 
ATOM     13  C   UNL     1      13.093 -14.169  12.602  1.00  0.00    -0.008 C 
ATOM     14  C   UNL     1      12.702 -12.669  12.891  1.00  0.00     0.014 C 
ATOM     15  C   UNL     1      11.504 -12.122  12.087  1.00  0.00     0.033 C 
ATOM     16  C   UNL     1      10.307 -13.070  12.193  1.00  0.00     0.125 C 
ATOM     17  C   UNL     1      10.704 -14.378  11.502  1.00  0.00     0.063 C 
ATOM     18  C   UNL     1      14.049 -14.201  11.386  1.00  0.00     0.016 C 
ATOM     19  C   UNL     1      14.078 -15.777  17.333  1.00  0.00     0.012 C 
ENDROOT
BRANCH   1  20
ATOM     20  C   UNL     1      17.816 -16.064  16.868  1.00  0.00     0.012 C 
ATOM     21  C   UNL     1      18.956 -17.052  16.526  1.00  0.00     0.012 C 
BRANCH  20  22
ATOM     22  C   UNL     1      18.096 -15.426  18.216  1.00  0.00    -0.028 C 
ATOM     23  C   UNL     1      17.418 -15.791  19.319  1.00  0.00    -0.027 C 
BRANCH  23  24
ATOM     24  C   UNL     1      17.699 -15.154  20.666  1.00  0.00     0.014 C 
BRANCH  24  25
ATOM     25  C   UNL     1      18.936 -14.212  20.614  1.00  0.00     0.004 C 
ATOM     26  C   UNL     1      20.123 -14.615  21.502  1.00  0.00     0.004 C 
ENDBRANCH  24  25
BRANCH  24  27
ATOM     27  C   UNL     1      16.406 -14.552  21.307  1.00  0.00    -0.011 C 
ATOM     28  C   UNL     1      15.144 -15.319  20.888  1.00  0.00     0.008 C 
ATOM     29  C   UNL     1      16.446 -14.413  22.834  1.00  0.00     0.008 C 
ENDBRANCH  24  27
ENDBRANCH  23  24
ENDBRANCH  20  22
ENDBRANCH   1  20
BRANCH  16  30
ATOM     30  O   UNL     1      10.039 -13.279  13.573  1.00  0.00    -0.346 OA
BRANCH  30  31
ATOM     31  C   UNL     1       8.693 -13.641  13.838  1.00  0.00     0.282 C 
ATOM     32  C   UNL     1       8.650 -15.100  14.347  1.00  0.00     0.202 C 
ATOM     33  O   UNL     1       8.072 -12.761  14.769  1.00  0.00    -0.341 OA
ATOM     34  C   UNL     1       9.283 -15.205  15.745  1.00  0.00     0.179 C 
ATOM     35  C   UNL     1       8.760 -12.744  16.010  1.00  0.00     0.178 C 
ATOM     36  C   UNL     1       8.684 -14.143  16.681  1.00  0.00     0.177 C 
BRANCH  32  37
ATOM     37  O   UNL     1       7.320 -15.567  14.394  1.00  0.00    -0.385 OA
ATOM     38  H   UNL     1       7.264 -16.200  15.156  1.00  0.00     0.211 HD
ENDBRANCH  32  37
BRANCH  34  39
ATOM     39  O   UNL     1      10.678 -15.034  15.660  1.00  0.00    -0.387 OA
ATOM     40  H   UNL     1      10.873 -14.657  14.763  1.00  0.00     0.211 HD
ENDBRANCH  34  39
BRANCH  35  41
ATOM     41  C   UNL     1       8.127 -11.661  16.910  1.00  0.00     0.191 C 
BRANCH  41  42
ATOM     42  O   UNL     1       7.071 -11.000  16.268  1.00  0.00    -0.394 OA
ATOM     43  H   UNL     1       6.332 -10.901  16.932  1.00  0.00     0.210 HD
ENDBRANCH  41  42
ENDBRANCH  35  41
BRANCH  36  44
ATOM     44  O   UNL     1       9.329 -14.179  17.935  1.00  0.00    -0.387 OA
ATOM     45  H   UNL     1       8.896 -14.875  18.485  1.00  0.00     0.211 HD
ENDBRANCH  36  44
ENDBRANCH  30  31
ENDBRANCH  16  30
TORSDOF 12
ENDMDL
MODEL 8
REMARK VINA RESULT:    -5.752      5.660      8.458
REMARK INTER + INTRA:         -11.210
REMARK INTER:                  -8.764
REMARK INTRA:                  -2.446
REMARK UNBOUND:                -2.096
REMARK SMILES CC[C@H](C=C[C@@H](C)[C@@H]1CC[C@@H]2[C@H]3CC=C4C[C@@H](O[C@@H]5O[C@@H](CO)[C@H](O)[C@H](O)[C@H]5O)CC[C@@]4(C)[C@@H]3CC[C@@]21C)C(C)C
REMARK SMILES IDX 8 1 9 2 10 3 11 4 37 5 36 6 35 7 34 8 12 9 13 10 14 11 15 12
REMARK SMILES IDX 32 13 31 14 30 15 17 16 16 17 33 18 38 19 6 20 7 21 5 22
REMARK SMILES IDX 4 23 3 24 2 25 1 26 39 27 40 28 41 29 18 30 19 31 28 32
REMARK SMILES IDX 20 33 26 34 21 35 24 36 29 37 27 39 22 41 23 42 25 44
REMARK H PARENT 29 38 27 40 23 43 25 45
REMARK Flexibility Score: inf
ROOT
ATOM      1  C   UNL     1      12.614  -7.625  10.715  1.00  0.00     0.002 C 
ATOM      2  C   UNL     1      14.148  -7.624  10.823  1.00  0.00     0.005 C 
ATOM      3  C   UNL     1      14.581  -9.028  10.483  1.00  0.00     0.005 C 
ATOM      4  C   UNL     1      13.507  -9.925  11.088  1.00  0.00    -0.001 C 
ATOM      5  C   UNL     1      12.151  -9.128  10.974  1.00  0.00    -0.026 C 
ATOM      6  C   UNL     1      11.109  -9.732   9.938  1.00  0.00     0.007 C 
ATOM      7  C   UNL     1      11.485 -11.060   9.285  1.00  0.00     0.005 C 
ATOM      8  C   UNL     1      12.208 -11.988  10.277  1.00  0.00     0.003 C 
ATOM      9  C   UNL     1      13.601 -11.384  10.522  1.00  0.00     0.000 C 
ATOM     10  C   UNL     1      14.508 -12.273  11.420  1.00  0.00     0.031 C 
ATOM     11  C   UNL     1      14.127 -13.716  11.497  1.00  0.00    -0.027 C 
ATOM     12  C   UNL     1      13.108 -14.284  10.822  1.00  0.00    -0.065 C 
ATOM     13  C   UNL     1      12.264 -13.492   9.812  1.00  0.00    -0.008 C 
ATOM     14  C   UNL     1      10.792 -14.053   9.732  1.00  0.00     0.014 C 
ATOM     15  C   UNL     1      10.639 -15.571   9.961  1.00  0.00     0.033 C 
ATOM     16  C   UNL     1      11.359 -15.997  11.244  1.00  0.00     0.125 C 
ATOM     17  C   UNL     1      12.856 -15.762  11.020  1.00  0.00     0.063 C 
ATOM     18  C   UNL     1      12.924 -13.647   8.421  1.00  0.00     0.016 C 
ATOM     19  C   UNL     1      11.447  -9.163  12.367  1.00  0.00     0.012 C 
ENDROOT
BRANCH   1  20
ATOM     20  C   UNL     1      12.109  -6.864   9.443  1.00  0.00     0.012 C 
ATOM     21  C   UNL     1      13.048  -5.726   8.982  1.00  0.00     0.012 C 
BRANCH  20  22
ATOM     22  C   UNL     1      10.718  -6.302   9.673  1.00  0.00    -0.028 C 
ATOM     23  C   UNL     1       9.670  -6.696   8.929  1.00  0.00    -0.027 C 
BRANCH  23  24
ATOM     24  C   UNL     1       8.280  -6.136   9.160  1.00  0.00     0.014 C 
BRANCH  24  25
ATOM     25  C   UNL     1       7.359  -6.350   7.926  1.00  0.00     0.004 C 
ATOM     26  C   UNL     1       7.567  -7.662   7.154  1.00  0.00     0.004 C 
ENDBRANCH  24  25
BRANCH  24  27
ATOM     27  C   UNL     1       7.694  -6.583  10.539  1.00  0.00    -0.011 C 
ATOM     28  C   UNL     1       6.242  -6.121  10.725  1.00  0.00     0.008 C 
ATOM     29  C   UNL     1       7.803  -8.085  10.831  1.00  0.00     0.008 C 
ENDBRANCH  24  27
ENDBRANCH  23  24
ENDBRANCH  20  22
ENDBRANCH   1  20
BRANCH  16  30
ATOM     30  O   UNL     1      10.865 -15.192  12.306  1.00  0.00    -0.346 OA
BRANCH  30  31
ATOM     31  C   UNL     1      10.975 -15.810  13.579  1.00  0.00     0.282 C 
ATOM     32  C   UNL     1      12.016 -15.045  14.427  1.00  0.00     0.202 C 
ATOM     33  O   UNL     1       9.723 -15.877  14.254  1.00  0.00    -0.341 OA
ATOM     34  C   UNL     1      11.491 -13.648  14.801  1.00  0.00     0.179 C 
ATOM     35  C   UNL     1       9.168 -14.586  14.453  1.00  0.00     0.178 C 
ATOM     36  C   UNL     1      10.078 -13.754  15.397  1.00  0.00     0.177 C 
BRANCH  32  37
ATOM     37  O   UNL     1      12.322 -15.765  15.601  1.00  0.00    -0.385 OA
ATOM     38  H   UNL     1      11.805 -16.611  15.563  1.00  0.00     0.211 HD
ENDBRANCH  32  37
BRANCH  34  39
ATOM     39  O   UNL     1      11.469 -12.818  13.664  1.00  0.00    -0.387 OA
ATOM     40  H   UNL     1      11.664 -11.895  13.970  1.00  0.00     0.211 HD
ENDBRANCH  34  39
BRANCH  35  41
ATOM     41  C   UNL     1       7.751 -14.746  15.046  1.00  0.00     0.191 C 
BRANCH  41  42
ATOM     42  O   UNL     1       7.340 -16.086  15.065  1.00  0.00    -0.394 OA
ATOM     43  H   UNL     1       6.558 -16.150  15.683  1.00  0.00     0.210 HD
ENDBRANCH  41  42
ENDBRANCH  35  41
BRANCH  36  44
ATOM     44  O   UNL     1       9.560 -12.467  15.655  1.00  0.00    -0.387 OA
ATOM     45  H   UNL     1       8.592 -12.553  15.826  1.00  0.00     0.211 HD
ENDBRANCH  36  44
ENDBRANCH  30  31
ENDBRANCH  16  30
TORSDOF 12
ENDMDL
MODEL 9
REMARK VINA RESULT:    -5.737      8.360     12.150
REMARK INTER + INTRA:         -11.187
REMARK INTER:                  -8.507
REMARK INTRA:                  -2.680
REMARK UNBOUND:                -2.096
REMARK SMILES CC[C@H](C=C[C@@H](C)[C@@H]1CC[C@@H]2[C@H]3CC=C4C[C@@H](O[C@@H]5O[C@@H](CO)[C@H](O)[C@H](O)[C@H]5O)CC[C@@]4(C)[C@@H]3CC[C@@]21C)C(C)C
REMARK SMILES IDX 8 1 9 2 10 3 11 4 37 5 36 6 35 7 34 8 12 9 13 10 14 11 15 12
REMARK SMILES IDX 32 13 31 14 30 15 17 16 16 17 33 18 38 19 6 20 7 21 5 22
REMARK SMILES IDX 4 23 3 24 2 25 1 26 39 27 40 28 41 29 18 30 19 31 28 32
REMARK SMILES IDX 20 33 26 34 21 35 24 36 29 37 27 39 22 41 23 42 25 44
REMARK H PARENT 29 38 27 40 23 43 25 45
REMARK Flexibility Score: inf
ROOT
ATOM      1  C   UNL     1      10.779  -8.929  11.492  1.00  0.00     0.002 C 
ATOM      2  C   UNL     1      11.140  -9.877  12.648  1.00  0.00     0.005 C 
ATOM      3  C   UNL     1      11.118 -11.265  12.059  1.00  0.00     0.005 C 
ATOM      4  C   UNL     1       9.962 -11.247  11.064  1.00  0.00    -0.001 C 
ATOM      5  C   UNL     1       9.919  -9.790  10.462  1.00  0.00    -0.026 C 
ATOM      6  C   UNL     1      10.342  -9.687   8.935  1.00  0.00     0.007 C 
ATOM      7  C   UNL     1      10.609 -11.004   8.208  1.00  0.00     0.005 C 
ATOM      8  C   UNL     1       9.632 -12.103   8.663  1.00  0.00     0.003 C 
ATOM      9  C   UNL     1      10.024 -12.483  10.102  1.00  0.00     0.000 C 
ATOM     10  C   UNL     1       9.199 -13.674  10.669  1.00  0.00     0.031 C 
ATOM     11  C   UNL     1       8.547 -14.553   9.652  1.00  0.00    -0.027 C 
ATOM     12  C   UNL     1       8.665 -14.409   8.317  1.00  0.00    -0.065 C 
ATOM     13  C   UNL     1       9.577 -13.342   7.693  1.00  0.00    -0.008 C 
ATOM     14  C   UNL     1       9.027 -12.867   6.294  1.00  0.00     0.014 C 
ATOM     15  C   UNL     1       8.282 -13.935   5.467  1.00  0.00     0.033 C 
ATOM     16  C   UNL     1       7.207 -14.620   6.316  1.00  0.00     0.125 C 
ATOM     17  C   UNL     1       7.931 -15.388   7.427  1.00  0.00     0.063 C 
ATOM     18  C   UNL     1      10.971 -13.978   7.482  1.00  0.00     0.016 C 
ATOM     19  C   UNL     1       8.448  -9.274  10.541  1.00  0.00     0.012 C 
ENDROOT
BRANCH   1  20
ATOM     20  C   UNL     1      12.018  -8.117  10.983  1.00  0.00     0.012 C 
ATOM     21  C   UNL     1      11.648  -6.892  10.115  1.00  0.00     0.012 C 
BRANCH  20  22
ATOM     22  C   UNL     1      12.963  -9.014  10.206  1.00  0.00    -0.028 C 
ATOM     23  C   UNL     1      14.107  -9.465  10.748  1.00  0.00    -0.027 C 
BRANCH  23  24
ATOM     24  C   UNL     1      15.051 -10.363   9.972  1.00  0.00     0.014 C 
BRANCH  24  25
ATOM     25  C   UNL     1      14.281 -11.324   9.022  1.00  0.00     0.004 C 
ATOM     26  C   UNL     1      13.735 -12.608   9.665  1.00  0.00     0.004 C 
ENDBRANCH  24  25
BRANCH  24  27
ATOM     27  C   UNL     1      16.225  -9.557   9.327  1.00  0.00    -0.011 C 
ATOM     28  C   UNL     1      17.537 -10.354   9.321  1.00  0.00     0.008 C 
ATOM     29  C   UNL     1      15.940  -9.014   7.921  1.00  0.00     0.008 C 
ENDBRANCH  24  27
ENDBRANCH  23  24
ENDBRANCH  20  22
ENDBRANCH   1  20
BRANCH  16  30
ATOM     30  O   UNL     1       6.369 -13.606   6.854  1.00  0.00    -0.346 OA
BRANCH  30  31
ATOM     31  C   UNL     1       5.190 -13.389   6.095  1.00  0.00     0.282 C 
ATOM     32  C   UNL     1       4.199 -14.546   6.351  1.00  0.00     0.202 C 
ATOM     33  O   UNL     1       4.587 -12.132   6.386  1.00  0.00    -0.341 OA
ATOM     34  C   UNL     1       3.659 -14.489   7.790  1.00  0.00     0.179 C 
ATOM     35  C   UNL     1       4.236 -12.027   7.757  1.00  0.00     0.178 C 
ATOM     36  C   UNL     1       3.146 -13.076   8.110  1.00  0.00     0.177 C 
BRANCH  32  37
ATOM     37  O   UNL     1       3.124 -14.486   5.440  1.00  0.00    -0.385 OA
ATOM     38  H   UNL     1       3.154 -15.320   4.903  1.00  0.00     0.211 HD
ENDBRANCH  32  37
BRANCH  34  39
ATOM     39  O   UNL     1       4.670 -14.848   8.702  1.00  0.00    -0.387 OA
ATOM     40  H   UNL     1       4.669 -15.838   8.765  1.00  0.00     0.211 HD
ENDBRANCH  34  39
BRANCH  35  41
ATOM     41  C   UNL     1       3.734 -10.592   8.028  1.00  0.00     0.191 C 
BRANCH  41  42
ATOM     42  O   UNL     1       3.804 -10.263   9.390  1.00  0.00    -0.394 OA
ATOM     43  H   UNL     1       4.719 -10.507   9.709  1.00  0.00     0.210 HD
ENDBRANCH  41  42
ENDBRANCH  35  41
BRANCH  36  44
ATOM     44  O   UNL     1       2.736 -13.000   9.458  1.00  0.00    -0.387 OA
ATOM     45  H   UNL     1       2.674 -13.918   9.814  1.00  0.00     0.211 HD
ENDBRANCH  36  44
ENDBRANCH  30  31
ENDBRANCH  16  30
TORSDOF 12
ENDMDL
