MODEL 1
REMARK VINA RESULT:    -8.920      0.000      0.000
REMARK INTER + INTRA:          -9.702
REMARK INTER:                  -9.702
REMARK INTRA:                   0.000
REMARK UNBOUND:                 0.000
REMARK SMILES C[C@@H]1CC[C@@H]2[N@H+](C1)C[C@H]1[C@H]3C[C@H]4[C@H](C[C@@H](O)[C@H]5C[C@@H](O)CC[C@@]54C)[C@@H]3CC[C@@H]1[C@@]2(C)O
REMARK SMILES IDX 5 1 6 2 8 3 7 4 4 5 29 6 3 7 28 8 30 9 2 10 27 11 9 12 1 13
REMARK SMILES IDX 26 14 10 15 25 16 11 17 13 18 12 19 14 20 23 21 15 22 17 23
REMARK SMILES IDX 22 24 24 25 18 26 21 27 19 28 31 30 16 32 20 34
REMARK H PARENT 6 29 31 31 16 33 20 35
REMARK Flexibility Score: inf
ROOT
ATOM      1  C   UNL     1      27.764 -25.048  27.737  1.00  0.00     0.216 C 
ATOM      2  N   UNL     1      27.176 -24.763  29.085  1.00  0.00    -0.330 N 
ATOM      3  C   UNL     1      26.662 -23.372  29.230  1.00  0.00     0.266 C 
ATOM      4  C   UNL     1      26.207 -25.770  29.598  1.00  0.00     0.265 C 
ATOM      5  C   UNL     1      28.360 -26.485  27.626  1.00  0.00     0.069 C 
ATOM      6  C   UNL     1      26.872 -24.618  26.501  1.00  0.00     0.117 C 
ATOM      7  C   UNL     1      28.009 -27.382  28.816  1.00  0.00     0.015 C 
ATOM      8  C   UNL     1      26.439 -23.142  26.736  1.00  0.00     0.036 C 
ATOM      9  C   UNL     1      25.655 -25.542  26.252  1.00  0.00     0.049 C 
ATOM     10  C   UNL     1      26.532 -27.227  29.181  1.00  0.00     0.041 C 
ATOM     11  C   UNL     1      25.657 -22.447  25.583  1.00  0.00     0.007 C 
ATOM     12  C   UNL     1      25.699 -22.986  28.095  1.00  0.00     0.054 C 
ATOM     13  C   UNL     1      26.140 -28.219  30.282  1.00  0.00     0.013 C 
ATOM     14  C   UNL     1      25.484 -20.911  25.833  1.00  0.00     0.004 C 
ATOM     15  C   UNL     1      25.032 -21.580  28.197  1.00  0.00     0.002 C 
ATOM     16  C   UNL     1      25.720 -20.542  27.319  1.00  0.00    -0.004 C 
ATOM     17  C   UNL     1      24.823 -20.899  29.545  1.00  0.00     0.009 C 
ATOM     18  C   UNL     1      25.297 -19.159  27.880  1.00  0.00    -0.001 C 
ATOM     19  C   UNL     1      24.494 -19.428  29.186  1.00  0.00    -0.001 C 
ATOM     20  C   UNL     1      24.794 -18.065  26.892  1.00  0.00     0.036 C 
ATOM     21  C   UNL     1      22.956 -19.055  29.156  1.00  0.00    -0.024 C 
ATOM     22  C   UNL     1      23.313 -17.671  26.982  1.00  0.00     0.118 C 
ATOM     23  C   UNL     1      22.809 -17.669  28.445  1.00  0.00     0.026 C 
ATOM     24  C   UNL     1      22.469 -18.896  30.633  1.00  0.00     0.010 C 
ATOM     25  C   UNL     1      22.078 -20.149  28.475  1.00  0.00     0.012 C 
ATOM     26  C   UNL     1      21.386 -17.072  28.556  1.00  0.00     0.038 C 
ATOM     27  C   UNL     1      21.054 -18.305  30.755  1.00  0.00     0.032 C 
ATOM     28  C   UNL     1      20.951 -16.955  30.027  1.00  0.00     0.114 C 
ATOM     29  H   UNL     1      27.985 -24.806  29.752  1.00  0.00     0.348 HD
ENDROOT
BRANCH   6  30
ATOM     30  O   UNL     1      27.654 -24.687  25.326  1.00  0.00    -0.384 OA
ATOM     31  H   UNL     1      27.155 -24.264  24.579  1.00  0.00     0.211 HD
ENDBRANCH   6  30
BRANCH  22  32
ATOM     32  O   UNL     1      22.545 -18.493  26.142  1.00  0.00    -0.393 OA
ATOM     33  H   UNL     1      22.443 -18.019  25.276  1.00  0.00     0.210 HD
ENDBRANCH  22  32
BRANCH  28  34
ATOM     34  O   UNL     1      19.648 -16.439  30.119  1.00  0.00    -0.393 OA
ATOM     35  H   UNL     1      19.595 -15.644  29.526  1.00  0.00     0.210 HD
ENDBRANCH  28  34
TORSDOF 3
ENDMDL
MODEL 2
REMARK VINA RESULT:    -8.912      3.489      8.368
REMARK INTER + INTRA:          -9.694
REMARK INTER:                  -9.694
REMARK INTRA:                   0.000
REMARK UNBOUND:                 0.000
REMARK SMILES C[C@@H]1CC[C@@H]2[N@H+](C1)C[C@H]1[C@H]3C[C@H]4[C@H](C[C@@H](O)[C@H]5C[C@@H](O)CC[C@@]54C)[C@@H]3CC[C@@H]1[C@@]2(C)O
REMARK SMILES IDX 5 1 6 2 8 3 7 4 4 5 29 6 3 7 28 8 30 9 2 10 27 11 9 12 1 13
REMARK SMILES IDX 26 14 10 15 25 16 11 17 13 18 12 19 14 20 23 21 15 22 17 23
REMARK SMILES IDX 22 24 24 25 18 26 21 27 19 28 31 30 16 32 20 34
REMARK H PARENT 6 29 31 31 16 33 20 35
REMARK Flexibility Score: inf
ROOT
ATOM      1  C   UNL     1      21.907 -16.157  30.323  1.00  0.00     0.216 C 
ATOM      2  N   UNL     1      20.850 -17.152  29.952  1.00  0.00    -0.330 N 
ATOM      3  C   UNL     1      21.240 -18.044  28.825  1.00  0.00     0.266 C 
ATOM      4  C   UNL     1      20.248 -17.915  31.081  1.00  0.00     0.265 C 
ATOM      5  C   UNL     1      21.455 -15.187  31.458  1.00  0.00     0.069 C 
ATOM      6  C   UNL     1      23.362 -16.751  30.519  1.00  0.00     0.117 C 
ATOM      7  C   UNL     1      20.138 -15.598  32.120  1.00  0.00     0.015 C 
ATOM      8  C   UNL     1      23.678 -17.617  29.265  1.00  0.00     0.036 C 
ATOM      9  C   UNL     1      23.544 -17.552  31.831  1.00  0.00     0.049 C 
ATOM     10  C   UNL     1      20.128 -17.102  32.396  1.00  0.00     0.041 C 
ATOM     11  C   UNL     1      25.116 -18.205  29.162  1.00  0.00     0.007 C 
ATOM     12  C   UNL     1      22.601 -18.721  29.061  1.00  0.00     0.054 C 
ATOM     13  C   UNL     1      18.872 -17.500  33.180  1.00  0.00     0.013 C 
ATOM     14  C   UNL     1      25.388 -18.852  27.763  1.00  0.00     0.004 C 
ATOM     15  C   UNL     1      23.065 -19.745  27.982  1.00  0.00     0.002 C 
ATOM     16  C   UNL     1      24.071 -19.150  27.004  1.00  0.00    -0.004 C 
ATOM     17  C   UNL     1      22.057 -20.499  27.121  1.00  0.00     0.009 C 
ATOM     18  C   UNL     1      24.053 -20.072  25.757  1.00  0.00    -0.001 C 
ATOM     19  C   UNL     1      22.907 -21.102  25.973  1.00  0.00    -0.001 C 
ATOM     20  C   UNL     1      25.406 -20.558  25.157  1.00  0.00     0.036 C 
ATOM     21  C   UNL     1      23.344 -22.612  26.161  1.00  0.00    -0.024 C 
ATOM     22  C   UNL     1      25.727 -22.054  25.279  1.00  0.00     0.118 C 
ATOM     23  C   UNL     1      24.460 -22.926  25.112  1.00  0.00     0.026 C 
ATOM     24  C   UNL     1      22.109 -23.516  25.841  1.00  0.00     0.010 C 
ATOM     25  C   UNL     1      23.811 -22.933  27.614  1.00  0.00     0.012 C 
ATOM     26  C   UNL     1      24.813 -24.430  25.024  1.00  0.00     0.038 C 
ATOM     27  C   UNL     1      22.448 -25.014  25.755  1.00  0.00     0.032 C 
ATOM     28  C   UNL     1      23.561 -25.272  24.726  1.00  0.00     0.114 C 
ATOM     29  H   UNL     1      20.060 -16.581  29.563  1.00  0.00     0.348 HD
ENDROOT
BRANCH   6  30
ATOM     30  O   UNL     1      24.286 -15.685  30.587  1.00  0.00    -0.384 OA
ATOM     31  H   UNL     1      23.945 -15.001  31.222  1.00  0.00     0.211 HD
ENDBRANCH   6  30
BRANCH  22  32
ATOM     32  O   UNL     1      26.405 -22.303  26.483  1.00  0.00    -0.393 OA
ATOM     33  H   UNL     1      26.493 -21.436  26.958  1.00  0.00     0.210 HD
ENDBRANCH  22  32
BRANCH  28  34
ATOM     34  O   UNL     1      23.883 -26.639  24.676  1.00  0.00    -0.393 OA
ATOM     35  H   UNL     1      23.157 -27.102  24.181  1.00  0.00     0.210 HD
ENDBRANCH  28  34
TORSDOF 3
ENDMDL
MODEL 3
REMARK VINA RESULT:    -8.710      2.634      8.396
REMARK INTER + INTRA:          -9.474
REMARK INTER:                  -9.474
REMARK INTRA:                   0.000
REMARK UNBOUND:                 0.000
REMARK SMILES C[C@@H]1CC[C@@H]2[N@H+](C1)C[C@H]1[C@H]3C[C@H]4[C@H](C[C@@H](O)[C@H]5C[C@@H](O)CC[C@@]54C)[C@@H]3CC[C@@H]1[C@@]2(C)O
REMARK SMILES IDX 5 1 6 2 8 3 7 4 4 5 29 6 3 7 28 8 30 9 2 10 27 11 9 12 1 13
REMARK SMILES IDX 26 14 10 15 25 16 11 17 13 18 12 19 14 20 23 21 15 22 17 23
REMARK SMILES IDX 22 24 24 25 18 26 21 27 19 28 31 30 16 32 20 34
REMARK H PARENT 6 29 31 31 16 33 20 35
REMARK Flexibility Score: inf
ROOT
ATOM      1  C   UNL     1      21.243 -18.415  28.280  1.00  0.00     0.216 C 
ATOM      2  N   UNL     1      21.209 -19.204  29.553  1.00  0.00    -0.330 N 
ATOM      3  C   UNL     1      21.438 -20.663  29.356  1.00  0.00     0.266 C 
ATOM      4  C   UNL     1      22.020 -18.661  30.677  1.00  0.00     0.265 C 
ATOM      5  C   UNL     1      20.932 -16.901  28.496  1.00  0.00     0.069 C 
ATOM      6  C   UNL     1      22.486 -18.693  27.339  1.00  0.00     0.117 C 
ATOM      7  C   UNL     1      20.899 -16.492  29.971  1.00  0.00     0.015 C 
ATOM      8  C   UNL     1      22.594 -20.237  27.164  1.00  0.00     0.036 C 
ATOM      9  C   UNL     1      23.812 -18.078  27.848  1.00  0.00     0.049 C 
ATOM     10  C   UNL     1      22.079 -17.113  30.721  1.00  0.00     0.041 C 
ATOM     11  C   UNL     1      23.670 -20.756  26.166  1.00  0.00     0.007 C 
ATOM     12  C   UNL     1      22.712 -20.948  28.542  1.00  0.00     0.054 C 
ATOM     13  C   UNL     1      22.131 -16.601  32.165  1.00  0.00     0.013 C 
ATOM     14  C   UNL     1      23.529 -22.292  25.898  1.00  0.00     0.004 C 
ATOM     15  C   UNL     1      23.095 -22.448  28.353  1.00  0.00     0.002 C 
ATOM     16  C   UNL     1      22.680 -22.989  26.990  1.00  0.00    -0.004 C 
ATOM     17  C   UNL     1      22.664 -23.508  29.361  1.00  0.00     0.009 C 
ATOM     18  C   UNL     1      22.663 -24.534  27.130  1.00  0.00    -0.001 C 
ATOM     19  C   UNL     1      22.914 -24.853  28.633  1.00  0.00    -0.001 C 
ATOM     20  C   UNL     1      23.368 -25.399  26.044  1.00  0.00     0.036 C 
ATOM     21  C   UNL     1      24.276 -25.581  28.980  1.00  0.00    -0.024 C 
ATOM     22  C   UNL     1      24.628 -26.165  26.469  1.00  0.00     0.118 C 
ATOM     23  C   UNL     1      24.509 -26.703  27.916  1.00  0.00     0.026 C 
ATOM     24  C   UNL     1      24.116 -26.265  30.377  1.00  0.00     0.010 C 
ATOM     25  C   UNL     1      25.486 -24.600  29.060  1.00  0.00     0.012 C 
ATOM     26  C   UNL     1      25.682 -27.648  28.269  1.00  0.00     0.038 C 
ATOM     27  C   UNL     1      25.279 -27.204  30.740  1.00  0.00     0.032 C 
ATOM     28  C   UNL     1      25.482 -28.278  29.658  1.00  0.00     0.114 C 
ATOM     29  H   UNL     1      20.216 -19.145  29.886  1.00  0.00     0.348 HD
ENDROOT
BRANCH   6  30
ATOM     30  O   UNL     1      22.246 -18.103  26.078  1.00  0.00    -0.384 OA
ATOM     31  H   UNL     1      23.077 -17.655  25.767  1.00  0.00     0.211 HD
ENDBRANCH   6  30
BRANCH  22  32
ATOM     32  O   UNL     1      25.765 -25.364  26.277  1.00  0.00    -0.393 OA
ATOM     33  H   UNL     1      26.503 -25.764  26.807  1.00  0.00     0.210 HD
ENDBRANCH  22  32
BRANCH  28  34
ATOM     34  O   UNL     1      26.565 -29.112  29.984  1.00  0.00    -0.393 OA
ATOM     35  H   UNL     1      27.078 -29.280  29.151  1.00  0.00     0.210 HD
ENDBRANCH  28  34
TORSDOF 3
ENDMDL
MODEL 4
REMARK VINA RESULT:    -8.659      3.193      8.509
REMARK INTER + INTRA:          -9.418
REMARK INTER:                  -9.418
REMARK INTRA:                   0.000
REMARK UNBOUND:                 0.000
REMARK SMILES C[C@@H]1CC[C@@H]2[N@H+](C1)C[C@H]1[C@H]3C[C@H]4[C@H](C[C@@H](O)[C@H]5C[C@@H](O)CC[C@@]54C)[C@@H]3CC[C@@H]1[C@@]2(C)O
REMARK SMILES IDX 5 1 6 2 8 3 7 4 4 5 29 6 3 7 28 8 30 9 2 10 27 11 9 12 1 13
REMARK SMILES IDX 26 14 10 15 25 16 11 17 13 18 12 19 14 20 23 21 15 22 17 23
REMARK SMILES IDX 22 24 24 25 18 26 21 27 19 28 31 30 16 32 20 34
REMARK H PARENT 6 29 31 31 16 33 20 35
REMARK Flexibility Score: inf
ROOT
ATOM      1  C   UNL     1      21.973 -19.175  31.808  1.00  0.00     0.216 C 
ATOM      2  N   UNL     1      22.547 -18.614  30.542  1.00  0.00    -0.330 N 
ATOM      3  C   UNL     1      23.275 -19.620  29.720  1.00  0.00     0.266 C 
ATOM      4  C   UNL     1      21.622 -17.788  29.718  1.00  0.00     0.265 C 
ATOM      5  C   UNL     1      21.275 -18.093  32.689  1.00  0.00     0.069 C 
ATOM      6  C   UNL     1      21.141 -20.513  31.644  1.00  0.00     0.117 C 
ATOM      7  C   UNL     1      21.105 -16.748  31.979  1.00  0.00     0.015 C 
ATOM      8  C   UNL     1      22.018 -21.501  30.819  1.00  0.00     0.036 C 
ATOM      9  C   UNL     1      19.745 -20.312  31.007  1.00  0.00     0.049 C 
ATOM     10  C   UNL     1      20.607 -16.961  30.548  1.00  0.00     0.041 C 
ATOM     11  C   UNL     1      21.465 -22.945  30.637  1.00  0.00     0.007 C 
ATOM     12  C   UNL     1      22.429 -20.877  29.454  1.00  0.00     0.054 C 
ATOM     13  C   UNL     1      20.305 -15.616  29.875  1.00  0.00     0.013 C 
ATOM     14  C   UNL     1      22.527 -23.903  30.002  1.00  0.00     0.004 C 
ATOM     15  C   UNL     1      23.063 -21.959  28.528  1.00  0.00     0.002 C 
ATOM     16  C   UNL     1      23.669 -23.117  29.311  1.00  0.00    -0.004 C 
ATOM     17  C   UNL     1      24.104 -21.589  27.477  1.00  0.00     0.009 C 
ATOM     18  C   UNL     1      24.657 -23.819  28.342  1.00  0.00    -0.001 C 
ATOM     19  C   UNL     1      24.724 -22.946  27.056  1.00  0.00    -0.001 C 
ATOM     20  C   UNL     1      24.606 -25.370  28.205  1.00  0.00     0.036 C 
ATOM     21  C   UNL     1      24.135 -23.591  25.736  1.00  0.00    -0.024 C 
ATOM     22  C   UNL     1      24.123 -25.937  26.863  1.00  0.00     0.118 C 
ATOM     23  C   UNL     1      24.612 -25.079  25.670  1.00  0.00     0.026 C 
ATOM     24  C   UNL     1      24.745 -22.832  24.513  1.00  0.00     0.010 C 
ATOM     25  C   UNL     1      22.581 -23.479  25.646  1.00  0.00     0.012 C 
ATOM     26  C   UNL     1      24.306 -25.762  24.316  1.00  0.00     0.038 C 
ATOM     27  C   UNL     1      24.444 -23.501  23.161  1.00  0.00     0.032 C 
ATOM     28  C   UNL     1      24.914 -24.965  23.149  1.00  0.00     0.114 C 
ATOM     29  H   UNL     1      23.296 -17.948  30.852  1.00  0.00     0.348 HD
ENDROOT
BRANCH   6  30
ATOM     30  O   UNL     1      20.906 -21.064  32.923  1.00  0.00    -0.384 OA
ATOM     31  H   UNL     1      20.186 -21.744  32.855  1.00  0.00     0.211 HD
ENDBRANCH   6  30
BRANCH  22  32
ATOM     32  O   UNL     1      22.728 -26.097  26.883  1.00  0.00    -0.393 OA
ATOM     33  H   UNL     1      22.340 -25.388  26.306  1.00  0.00     0.210 HD
ENDBRANCH  22  32
BRANCH  28  34
ATOM     34  O   UNL     1      24.609 -25.574  21.920  1.00  0.00    -0.393 OA
ATOM     35  H   UNL     1      24.722 -26.555  22.033  1.00  0.00     0.210 HD
ENDBRANCH  28  34
TORSDOF 3
ENDMDL
MODEL 5
REMARK VINA RESULT:    -8.507     10.242     12.858
REMARK INTER + INTRA:          -9.253
REMARK INTER:                  -9.253
REMARK INTRA:                   0.000
REMARK UNBOUND:                 0.000
REMARK SMILES C[C@@H]1CC[C@@H]2[N@H+](C1)C[C@H]1[C@H]3C[C@H]4[C@H](C[C@@H](O)[C@H]5C[C@@H](O)CC[C@@]54C)[C@@H]3CC[C@@H]1[C@@]2(C)O
REMARK SMILES IDX 5 1 6 2 8 3 7 4 4 5 29 6 3 7 28 8 30 9 2 10 27 11 9 12 1 13
REMARK SMILES IDX 26 14 10 15 25 16 11 17 13 18 12 19 14 20 23 21 15 22 17 23
REMARK SMILES IDX 22 24 24 25 18 26 21 27 19 28 31 30 16 32 20 34
REMARK H PARENT 6 29 31 31 16 33 20 35
REMARK Flexibility Score: inf
ROOT
ATOM      1  C   UNL     1      20.951 -33.388  34.884  1.00  0.00     0.216 C 
ATOM      2  N   UNL     1      21.444 -33.450  36.297  1.00  0.00    -0.330 N 
ATOM      3  C   UNL     1      22.625 -32.579  36.556  1.00  0.00     0.266 C 
ATOM      4  C   UNL     1      20.406 -33.308  37.356  1.00  0.00     0.265 C 
ATOM      5  C   UNL     1      19.759 -34.357  34.614  1.00  0.00     0.069 C 
ATOM      6  C   UNL     1      20.746 -31.930  34.298  1.00  0.00     0.117 C 
ATOM      7  C   UNL     1      19.185 -34.984  35.887  1.00  0.00     0.015 C 
ATOM      8  C   UNL     1      22.054 -31.134  34.578  1.00  0.00     0.036 C 
ATOM      9  C   UNL     1      19.498 -31.200  34.848  1.00  0.00     0.049 C 
ATOM     10  C   UNL     1      19.035 -33.925  36.980  1.00  0.00     0.041 C 
ATOM     11  C   UNL     1      22.148 -29.702  33.974  1.00  0.00     0.007 C 
ATOM     12  C   UNL     1      22.391 -31.130  36.097  1.00  0.00     0.054 C 
ATOM     13  C   UNL     1      18.336 -34.514  38.212  1.00  0.00     0.013 C 
ATOM     14  C   UNL     1      23.584 -29.096  34.120  1.00  0.00     0.004 C 
ATOM     15  C   UNL     1      23.532 -30.111  36.401  1.00  0.00     0.002 C 
ATOM     16  C   UNL     1      24.416 -29.845  35.190  1.00  0.00    -0.004 C 
ATOM     17  C   UNL     1      24.491 -30.323  37.568  1.00  0.00     0.009 C 
ATOM     18  C   UNL     1      25.735 -29.246  35.746  1.00  0.00    -0.001 C 
ATOM     19  C   UNL     1      25.649 -29.329  37.298  1.00  0.00    -0.001 C 
ATOM     20  C   UNL     1      26.318 -27.961  35.086  1.00  0.00     0.036 C 
ATOM     21  C   UNL     1      25.569 -27.952  38.073  1.00  0.00    -0.024 C 
ATOM     22  C   UNL     1      26.307 -26.677  35.927  1.00  0.00     0.118 C 
ATOM     23  C   UNL     1      26.596 -26.969  37.420  1.00  0.00     0.026 C 
ATOM     24  C   UNL     1      26.011 -28.202  39.551  1.00  0.00     0.010 C 
ATOM     25  C   UNL     1      24.130 -27.351  38.096  1.00  0.00     0.012 C 
ATOM     26  C   UNL     1      26.792 -25.664  38.226  1.00  0.00     0.038 C 
ATOM     27  C   UNL     1      26.207 -26.911  40.363  1.00  0.00     0.032 C 
ATOM     28  C   UNL     1      27.209 -25.969  39.675  1.00  0.00     0.114 C 
ATOM     29  H   UNL     1      21.816 -34.424  36.416  1.00  0.00     0.348 HD
ENDROOT
BRANCH   6  30
ATOM     30  O   UNL     1      20.554 -32.023  32.901  1.00  0.00    -0.384 OA
ATOM     31  H   UNL     1      20.987 -32.853  32.569  1.00  0.00     0.211 HD
ENDBRANCH   6  30
BRANCH  22  32
ATOM     32  O   UNL     1      25.101 -25.985  35.731  1.00  0.00    -0.393 OA
ATOM     33  H   UNL     1      24.370 -26.656  35.740  1.00  0.00     0.210 HD
ENDBRANCH  22  32
BRANCH  28  34
ATOM     34  O   UNL     1      27.358 -24.781  40.410  1.00  0.00    -0.393 OA
ATOM     35  H   UNL     1      26.543 -24.666  40.966  1.00  0.00     0.210 HD
ENDBRANCH  28  34
TORSDOF 3
ENDMDL
MODEL 6
REMARK VINA RESULT:    -8.437      2.109      8.274
REMARK INTER + INTRA:          -9.177
REMARK INTER:                  -9.177
REMARK INTRA:                   0.000
REMARK UNBOUND:                 0.000
REMARK SMILES C[C@@H]1CC[C@@H]2[N@H+](C1)C[C@H]1[C@H]3C[C@H]4[C@H](C[C@@H](O)[C@H]5C[C@@H](O)CC[C@@]54C)[C@@H]3CC[C@@H]1[C@@]2(C)O
REMARK SMILES IDX 5 1 6 2 8 3 7 4 4 5 29 6 3 7 28 8 30 9 2 10 27 11 9 12 1 13
REMARK SMILES IDX 26 14 10 15 25 16 11 17 13 18 12 19 14 20 23 21 15 22 17 23
REMARK SMILES IDX 22 24 24 25 18 26 21 27 19 28 31 30 16 32 20 34
REMARK H PARENT 6 29 31 31 16 33 20 35
REMARK Flexibility Score: inf
ROOT
ATOM      1  C   UNL     1      22.104 -18.889  27.521  1.00  0.00     0.216 C 
ATOM      2  N   UNL     1      21.667 -19.992  28.436  1.00  0.00    -0.330 N 
ATOM      3  C   UNL     1      22.336 -21.295  28.161  1.00  0.00     0.266 C 
ATOM      4  C   UNL     1      21.658 -19.668  29.889  1.00  0.00     0.265 C 
ATOM      5  C   UNL     1      21.343 -17.551  27.777  1.00  0.00     0.069 C 
ATOM      6  C   UNL     1      23.670 -18.722  27.355  1.00  0.00     0.117 C 
ATOM      7  C   UNL     1      20.495 -17.569  29.051  1.00  0.00     0.015 C 
ATOM      8  C   UNL     1      24.250 -20.128  27.021  1.00  0.00     0.036 C 
ATOM      9  C   UNL     1      24.369 -18.089  28.582  1.00  0.00     0.049 C 
ATOM     10  C   UNL     1      21.280 -18.198  30.204  1.00  0.00     0.041 C 
ATOM     11  C   UNL     1      25.767 -20.199  26.680  1.00  0.00     0.007 C 
ATOM     12  C   UNL     1      23.868 -21.165  28.117  1.00  0.00     0.054 C 
ATOM     13  C   UNL     1      20.490 -18.097  31.514  1.00  0.00     0.013 C 
ATOM     14  C   UNL     1      26.181 -21.608  26.137  1.00  0.00     0.004 C 
ATOM     15  C   UNL     1      24.672 -22.486  27.923  1.00  0.00     0.002 C 
ATOM     16  C   UNL     1      25.127 -22.688  26.483  1.00  0.00    -0.004 C 
ATOM     17  C   UNL     1      24.103 -23.831  28.363  1.00  0.00     0.009 C 
ATOM     18  C   UNL     1      25.450 -24.199  26.344  1.00  0.00    -0.001 C 
ATOM     19  C   UNL     1      25.016 -24.878  27.676  1.00  0.00    -0.001 C 
ATOM     20  C   UNL     1      26.791 -24.627  25.677  1.00  0.00     0.036 C 
ATOM     21  C   UNL     1      26.177 -25.473  28.573  1.00  0.00    -0.024 C 
ATOM     22  C   UNL     1      27.839 -25.294  26.579  1.00  0.00     0.118 C 
ATOM     23  C   UNL     1      27.181 -26.218  27.633  1.00  0.00     0.026 C 
ATOM     24  C   UNL     1      25.547 -26.527  29.541  1.00  0.00     0.010 C 
ATOM     25  C   UNL     1      26.891 -24.391  29.439  1.00  0.00     0.012 C 
ATOM     26  C   UNL     1      28.237 -27.048  28.399  1.00  0.00     0.038 C 
ATOM     27  C   UNL     1      26.589 -27.357  30.310  1.00  0.00     0.032 C 
ATOM     28  C   UNL     1      27.563 -28.054  29.348  1.00  0.00     0.114 C 
ATOM     29  H   UNL     1      20.661 -20.167  28.194  1.00  0.00     0.348 HD
ENDROOT
BRANCH   6  30
ATOM     30  O   UNL     1      23.925 -17.850  26.273  1.00  0.00    -0.384 OA
ATOM     31  H   UNL     1      23.163 -17.220  26.179  1.00  0.00     0.211 HD
ENDBRANCH   6  30
BRANCH  22  32
ATOM     32  O   UNL     1      28.670 -24.319  27.152  1.00  0.00    -0.393 OA
ATOM     33  H   UNL     1      28.597 -23.502  26.594  1.00  0.00     0.210 HD
ENDBRANCH  22  32
BRANCH  28  34
ATOM     34  O   UNL     1      28.528 -28.785  30.062  1.00  0.00    -0.393 OA
ATOM     35  H   UNL     1      28.234 -29.734  30.082  1.00  0.00     0.210 HD
ENDBRANCH  28  34
TORSDOF 3
ENDMDL
MODEL 7
REMARK VINA RESULT:    -8.380      2.524      8.102
REMARK INTER + INTRA:          -9.115
REMARK INTER:                  -9.115
REMARK INTRA:                   0.000
REMARK UNBOUND:                 0.000
REMARK SMILES C[C@@H]1CC[C@@H]2[N@H+](C1)C[C@H]1[C@H]3C[C@H]4[C@H](C[C@@H](O)[C@H]5C[C@@H](O)CC[C@@]54C)[C@@H]3CC[C@@H]1[C@@]2(C)O
REMARK SMILES IDX 5 1 6 2 8 3 7 4 4 5 29 6 3 7 28 8 30 9 2 10 27 11 9 12 1 13
REMARK SMILES IDX 26 14 10 15 25 16 11 17 13 18 12 19 14 20 23 21 15 22 17 23
REMARK SMILES IDX 22 24 24 25 18 26 21 27 19 28 31 30 16 32 20 34
REMARK H PARENT 6 29 31 31 16 33 20 35
REMARK Flexibility Score: inf
ROOT
ATOM      1  C   UNL     1      21.028 -19.077  31.109  1.00  0.00     0.216 C 
ATOM      2  N   UNL     1      22.116 -19.916  31.708  1.00  0.00    -0.330 N 
ATOM      3  C   UNL     1      22.642 -20.959  30.783  1.00  0.00     0.266 C 
ATOM      4  C   UNL     1      23.212 -19.172  32.387  1.00  0.00     0.265 C 
ATOM      5  C   UNL     1      20.442 -18.037  32.113  1.00  0.00     0.069 C 
ATOM      6  C   UNL     1      21.336 -18.487  29.671  1.00  0.00     0.117 C 
ATOM      7  C   UNL     1      21.250 -17.920  33.408  1.00  0.00     0.015 C 
ATOM      8  C   UNL     1      21.825 -19.670  28.784  1.00  0.00     0.036 C 
ATOM      9  C   UNL     1      22.347 -17.315  29.675  1.00  0.00     0.049 C 
ATOM     10  C   UNL     1      22.748 -17.875  33.098  1.00  0.00     0.041 C 
ATOM     11  C   UNL     1      22.066 -19.363  27.277  1.00  0.00     0.007 C 
ATOM     12  C   UNL     1      23.056 -20.375  29.422  1.00  0.00     0.054 C 
ATOM     13  C   UNL     1      23.557 -17.622  34.375  1.00  0.00     0.013 C 
ATOM     14  C   UNL     1      22.324 -20.666  26.448  1.00  0.00     0.004 C 
ATOM     15  C   UNL     1      23.704 -21.367  28.408  1.00  0.00     0.002 C 
ATOM     16  C   UNL     1      22.716 -21.857  27.357  1.00  0.00    -0.004 C 
ATOM     17  C   UNL     1      24.445 -22.612  28.882  1.00  0.00     0.009 C 
ATOM     18  C   UNL     1      23.328 -23.152  26.764  1.00  0.00    -0.001 C 
ATOM     19  C   UNL     1      24.596 -23.479  27.606  1.00  0.00    -0.001 C 
ATOM     20  C   UNL     1      23.382 -23.324  25.217  1.00  0.00     0.036 C 
ATOM     21  C   UNL     1      25.986 -23.366  26.859  1.00  0.00    -0.024 C 
ATOM     22  C   UNL     1      24.769 -23.309  24.559  1.00  0.00     0.118 C 
ATOM     23  C   UNL     1      25.828 -24.013  25.443  1.00  0.00     0.026 C 
ATOM     24  C   UNL     1      27.035 -24.205  27.660  1.00  0.00     0.010 C 
ATOM     25  C   UNL     1      26.511 -21.900  26.768  1.00  0.00     0.012 C 
ATOM     26  C   UNL     1      27.170 -24.184  24.694  1.00  0.00     0.038 C 
ATOM     27  C   UNL     1      28.375 -24.379  26.925  1.00  0.00     0.032 C 
ATOM     28  C   UNL     1      28.168 -25.000  25.534  1.00  0.00     0.114 C 
ATOM     29  H   UNL     1      21.650 -20.464  32.471  1.00  0.00     0.348 HD
ENDROOT
BRANCH   6  30
ATOM     30  O   UNL     1      20.142 -17.965  29.126  1.00  0.00    -0.384 OA
ATOM     31  H   UNL     1      19.652 -17.470  29.834  1.00  0.00     0.211 HD
ENDBRANCH   6  30
BRANCH  22  32
ATOM     32  O   UNL     1      25.128 -21.995  24.222  1.00  0.00    -0.393 OA
ATOM     33  H   UNL     1      24.322 -21.428  24.343  1.00  0.00     0.210 HD
ENDBRANCH  22  32
BRANCH  28  34
ATOM     34  O   UNL     1      29.395 -25.128  24.860  1.00  0.00    -0.393 OA
ATOM     35  H   UNL     1      29.643 -26.090  24.864  1.00  0.00     0.210 HD
ENDBRANCH  28  34
TORSDOF 3
ENDMDL
MODEL 8
REMARK VINA RESULT:    -8.241      1.640      2.058
REMARK INTER + INTRA:          -8.964
REMARK INTER:                  -8.964
REMARK INTRA:                   0.000
REMARK UNBOUND:                 0.000
REMARK SMILES C[C@@H]1CC[C@@H]2[N@H+](C1)C[C@H]1[C@H]3C[C@H]4[C@H](C[C@@H](O)[C@H]5C[C@@H](O)CC[C@@]54C)[C@@H]3CC[C@@H]1[C@@]2(C)O
REMARK SMILES IDX 5 1 6 2 8 3 7 4 4 5 29 6 3 7 28 8 30 9 2 10 27 11 9 12 1 13
REMARK SMILES IDX 26 14 10 15 25 16 11 17 13 18 12 19 14 20 23 21 15 22 17 23
REMARK SMILES IDX 22 24 24 25 18 26 21 27 19 28 31 30 16 32 20 34
REMARK H PARENT 6 29 31 31 16 33 20 35
REMARK Flexibility Score: inf
ROOT
ATOM      1  C   UNL     1      26.774 -26.575  28.755  1.00  0.00     0.216 C 
ATOM      2  N   UNL     1      27.029 -25.590  29.855  1.00  0.00    -0.330 N 
ATOM      3  C   UNL     1      26.704 -24.185  29.484  1.00  0.00     0.266 C 
ATOM      4  C   UNL     1      26.482 -25.953  31.192  1.00  0.00     0.265 C 
ATOM      5  C   UNL     1      27.185 -28.031  29.136  1.00  0.00     0.069 C 
ATOM      6  C   UNL     1      25.357 -26.464  28.055  1.00  0.00     0.117 C 
ATOM      7  C   UNL     1      27.529 -28.197  30.619  1.00  0.00     0.015 C 
ATOM      8  C   UNL     1      25.152 -24.970  27.668  1.00  0.00     0.036 C 
ATOM      9  C   UNL     1      24.187 -27.001  28.914  1.00  0.00     0.049 C 
ATOM     10  C   UNL     1      26.498 -27.474  31.488  1.00  0.00     0.041 C 
ATOM     11  C   UNL     1      23.878 -24.628  26.841  1.00  0.00     0.007 C 
ATOM     12  C   UNL     1      25.282 -24.047  28.913  1.00  0.00     0.054 C 
ATOM     13  C   UNL     1      26.757 -27.747  32.974  1.00  0.00     0.013 C 
ATOM     14  C   UNL     1      23.898 -23.154  26.314  1.00  0.00     0.004 C 
ATOM     15  C   UNL     1      24.807 -22.601  28.574  1.00  0.00     0.002 C 
ATOM     16  C   UNL     1      24.918 -22.282  27.088  1.00  0.00    -0.004 C 
ATOM     17  C   UNL     1      25.385 -21.388  29.295  1.00  0.00     0.009 C 
ATOM     18  C   UNL     1      24.898 -20.735  26.979  1.00  0.00    -0.001 C 
ATOM     19  C   UNL     1      24.939 -20.180  28.433  1.00  0.00    -0.001 C 
ATOM     20  C   UNL     1      23.955 -20.063  25.938  1.00  0.00     0.036 C 
ATOM     21  C   UNL     1      23.645 -19.418  28.932  1.00  0.00    -0.024 C 
ATOM     22  C   UNL     1      22.774 -19.250  26.486  1.00  0.00     0.118 C 
ATOM     23  C   UNL     1      23.157 -18.485  27.776  1.00  0.00     0.026 C 
ATOM     24  C   UNL     1      24.051 -18.517  30.144  1.00  0.00     0.010 C 
ATOM     25  C   UNL     1      22.517 -20.385  29.409  1.00  0.00     0.012 C 
ATOM     26  C   UNL     1      22.039 -17.507  28.209  1.00  0.00     0.038 C 
ATOM     27  C   UNL     1      22.946 -17.542  30.584  1.00  0.00     0.032 C 
ATOM     28  C   UNL     1      22.486 -16.659  29.413  1.00  0.00     0.114 C 
ATOM     29  H   UNL     1      28.070 -25.586  29.984  1.00  0.00     0.348 HD
ENDROOT
BRANCH   6  30
ATOM     30  O   UNL     1      25.365 -27.247  26.880  1.00  0.00    -0.384 OA
ATOM     31  H   UNL     1      24.428 -27.414  26.596  1.00  0.00     0.211 HD
ENDBRANCH   6  30
BRANCH  22  32
ATOM     32  O   UNL     1      21.656 -20.083  26.658  1.00  0.00    -0.393 OA
ATOM     33  H   UNL     1      21.872 -20.958  26.243  1.00  0.00     0.210 HD
ENDBRANCH  22  32
BRANCH  28  34
ATOM     34  O   UNL     1      21.457 -15.793  29.819  1.00  0.00    -0.393 OA
ATOM     35  H   UNL     1      21.560 -15.639  30.795  1.00  0.00     0.210 HD
ENDBRANCH  28  34
TORSDOF 3
ENDMDL
MODEL 9
REMARK VINA RESULT:    -8.195      3.035      5.812
REMARK INTER + INTRA:          -8.914
REMARK INTER:                  -8.914
REMARK INTRA:                   0.000
REMARK UNBOUND:                 0.000
REMARK SMILES C[C@@H]1CC[C@@H]2[N@H+](C1)C[C@H]1[C@H]3C[C@H]4[C@H](C[C@@H](O)[C@H]5C[C@@H](O)CC[C@@]54C)[C@@H]3CC[C@@H]1[C@@]2(C)O
REMARK SMILES IDX 5 1 6 2 8 3 7 4 4 5 29 6 3 7 28 8 30 9 2 10 27 11 9 12 1 13
REMARK SMILES IDX 26 14 10 15 25 16 11 17 13 18 12 19 14 20 23 21 15 22 17 23
REMARK SMILES IDX 22 24 24 25 18 26 21 27 19 28 31 30 16 32 20 34
REMARK H PARENT 6 29 31 31 16 33 20 35
REMARK Flexibility Score: inf
ROOT
ATOM      1  C   UNL     1      26.680 -27.815  32.754  1.00  0.00     0.216 C 
ATOM      2  N   UNL     1      26.102 -26.458  33.020  1.00  0.00    -0.330 N 
ATOM      3  C   UNL     1      26.456 -25.446  31.986  1.00  0.00     0.266 C 
ATOM      4  C   UNL     1      24.652 -26.423  33.357  1.00  0.00     0.265 C 
ATOM      5  C   UNL     1      26.357 -28.844  33.881  1.00  0.00     0.069 C 
ATOM      6  C   UNL     1      26.464 -28.371  31.287  1.00  0.00     0.117 C 
ATOM      7  C   UNL     1      25.326 -28.334  34.892  1.00  0.00     0.015 C 
ATOM      8  C   UNL     1      26.914 -27.254  30.300  1.00  0.00     0.036 C 
ATOM      9  C   UNL     1      25.018 -28.844  31.000  1.00  0.00     0.049 C 
ATOM     10  C   UNL     1      24.164 -27.651  34.167  1.00  0.00     0.041 C 
ATOM     11  C   UNL     1      26.920 -27.616  28.786  1.00  0.00     0.007 C 
ATOM     12  C   UNL     1      26.138 -25.932  30.562  1.00  0.00     0.054 C 
ATOM     13  C   UNL     1      23.064 -27.259  35.161  1.00  0.00     0.013 C 
ATOM     14  C   UNL     1      27.607 -26.507  27.921  1.00  0.00     0.004 C 
ATOM     15  C   UNL     1      26.389 -24.913  29.408  1.00  0.00     0.002 C 
ATOM     16  C   UNL     1      27.706 -25.163  28.683  1.00  0.00    -0.004 C 
ATOM     17  C   UNL     1      26.338 -23.409  29.655  1.00  0.00     0.009 C 
ATOM     18  C   UNL     1      28.045 -23.843  27.943  1.00  0.00    -0.001 C 
ATOM     19  C   UNL     1      26.988 -22.791  28.391  1.00  0.00    -0.001 C 
ATOM     20  C   UNL     1      28.467 -23.902  26.446  1.00  0.00     0.036 C 
ATOM     21  C   UNL     1      25.983 -22.286  27.278  1.00  0.00    -0.024 C 
ATOM     22  C   UNL     1      27.495 -23.303  25.420  1.00  0.00     0.118 C 
ATOM     23  C   UNL     1      26.799 -22.033  25.968  1.00  0.00     0.026 C 
ATOM     24  C   UNL     1      25.387 -20.919  27.748  1.00  0.00     0.010 C 
ATOM     25  C   UNL     1      24.797 -23.270  27.038  1.00  0.00     0.012 C 
ATOM     26  C   UNL     1      25.984 -21.313  24.868  1.00  0.00     0.038 C 
ATOM     27  C   UNL     1      24.572 -20.196  26.663  1.00  0.00     0.032 C 
ATOM     28  C   UNL     1      25.408 -19.985  25.390  1.00  0.00     0.114 C 
ATOM     29  H   UNL     1      26.587 -26.118  33.886  1.00  0.00     0.348 HD
ENDROOT
BRANCH   6  30
ATOM     30  O   UNL     1      27.285 -29.506  31.103  1.00  0.00    -0.384 OA
ATOM     31  H   UNL     1      27.449 -29.933  31.985  1.00  0.00     0.211 HD
ENDBRANCH   6  30
BRANCH  22  32
ATOM     32  O   UNL     1      26.584 -24.281  24.992  1.00  0.00    -0.393 OA
ATOM     33  H   UNL     1      26.266 -24.016  24.090  1.00  0.00     0.210 HD
ENDBRANCH  22  32
BRANCH  28  34
ATOM     34  O   UNL     1      24.645 -19.350  24.395  1.00  0.00    -0.393 OA
ATOM     35  H   UNL     1      24.223 -18.550  24.804  1.00  0.00     0.210 HD
ENDBRANCH  28  34
TORSDOF 3
ENDMDL
