MODEL 1
REMARK VINA RESULT:    -4.854      0.000      0.000
REMARK INTER + INTRA:         -12.702
REMARK INTER:                 -10.529
REMARK INTRA:                  -2.174
REMARK UNBOUND:                -2.174
REMARK SMILES CCCCCCCCCCCCCCCCCCCCCC(=O)[O-]
REMARK SMILES IDX 12 1 11 2 10 3 9 4 8 5 7 6 6 7 5 8 4 9 3 10 2 11 1 12 13 13
REMARK SMILES IDX 14 14 15 15 16 16 17 17 18 18 19 19 20 20 21 21 22 22 23 23
REMARK SMILES IDX 24 24
REMARK H PARENT
REMARK Flexibility Score: inf
ROOT
ATOM      1  C   UNL     1       0.170  48.077  22.870  1.00  0.00     0.000 C 
ENDROOT
BRANCH   1   2
ATOM      2  C   UNL     1      -0.562  46.751  23.143  1.00  0.00     0.000 C 
BRANCH   2   3
ATOM      3  C   UNL     1      -0.506  46.342  24.627  1.00  0.00     0.000 C 
BRANCH   3   4
ATOM      4  C   UNL     1      -1.679  46.909  25.442  1.00  0.00    -0.000 C 
BRANCH   4   5
ATOM      5  C   UNL     1      -3.006  46.872  24.666  1.00  0.00    -0.000 C 
BRANCH   5   6
ATOM      6  C   UNL     1      -4.078  46.001  25.350  1.00  0.00    -0.000 C 
BRANCH   6   7
ATOM      7  C   UNL     1      -4.802  46.671  26.531  1.00  0.00    -0.000 C 
BRANCH   7   8
ATOM      8  C   UNL     1      -6.158  46.018  26.852  1.00  0.00    -0.000 C 
BRANCH   8   9
ATOM      9  C   UNL     1      -6.794  45.330  25.630  1.00  0.00    -0.000 C 
BRANCH   9  10
ATOM     10  C   UNL     1      -7.615  44.068  25.954  1.00  0.00    -0.000 C 
BRANCH  10  11
ATOM     11  C   UNL     1      -7.359  42.919  24.970  1.00  0.00    -0.003 C 
ATOM     12  C   UNL     1      -5.903  42.899  24.514  1.00  0.00     0.004 C 
ENDBRANCH  10  11
ENDBRANCH   9  10
ENDBRANCH   8   9
ENDBRANCH   7   8
ENDBRANCH   6   7
ENDBRANCH   5   6
ENDBRANCH   4   5
ENDBRANCH   3   4
ENDBRANCH   2   3
ENDBRANCH   1   2
BRANCH   1  13
ATOM     13  C   UNL     1       1.165  48.020  21.697  1.00  0.00     0.000 C 
BRANCH  13  14
ATOM     14  C   UNL     1       2.113  49.234  21.668  1.00  0.00     0.000 C 
BRANCH  14  15
ATOM     15  C   UNL     1       1.398  50.534  21.244  1.00  0.00     0.000 C 
BRANCH  15  16
ATOM     16  C   UNL     1       1.335  51.609  22.348  1.00  0.00     0.000 C 
BRANCH  16  17
ATOM     17  C   UNL     1       2.695  52.058  22.910  1.00  0.00     0.000 C 
BRANCH  17  18
ATOM     18  C   UNL     1       2.789  51.904  24.439  1.00  0.00     0.000 C 
BRANCH  18  19
ATOM     19  C   UNL     1       1.837  50.827  24.984  1.00  0.00     0.000 C 
BRANCH  19  20
ATOM     20  C   UNL     1       2.556  49.508  25.307  1.00  0.00     0.006 C 
BRANCH  20  21
ATOM     21  C   UNL     1       1.813  48.736  26.401  1.00  0.00     0.053 C 
BRANCH  21  22
ATOM     22  C   UNL     1       2.518  48.873  27.713  1.00  0.00     0.041 C 
ATOM     23  O   UNL     1       3.778  48.899  27.755  1.00  0.00    -0.550 OA
ATOM     24  O   UNL     1       1.788  48.940  28.893  1.00  0.00    -0.550 OA
ENDBRANCH  21  22
ENDBRANCH  20  21
ENDBRANCH  19  20
ENDBRANCH  18  19
ENDBRANCH  17  18
ENDBRANCH  16  17
ENDBRANCH  15  16
ENDBRANCH  14  15
ENDBRANCH  13  14
ENDBRANCH   1  13
TORSDOF 20
ENDMDL
MODEL 2
REMARK VINA RESULT:    -4.761      3.175      8.596
REMARK INTER + INTRA:         -12.501
REMARK INTER:                 -10.113
REMARK INTRA:                  -2.387
REMARK UNBOUND:                -2.174
REMARK SMILES CCCCCCCCCCCCCCCCCCCCCC(=O)[O-]
REMARK SMILES IDX 12 1 11 2 10 3 9 4 8 5 7 6 6 7 5 8 4 9 3 10 2 11 1 12 13 13
REMARK SMILES IDX 14 14 15 15 16 16 17 17 18 18 19 19 20 20 21 21 22 22 23 23
REMARK SMILES IDX 24 24
REMARK H PARENT
REMARK Flexibility Score: inf
ROOT
ATOM      1  C   UNL     1      -0.637  46.787  23.165  1.00  0.00     0.000 C 
ENDROOT
BRANCH   1   2
ATOM      2  C   UNL     1       0.115  48.109  22.928  1.00  0.00     0.000 C 
BRANCH   2   3
ATOM      3  C   UNL     1       1.024  48.055  21.686  1.00  0.00     0.000 C 
BRANCH   3   4
ATOM      4  C   UNL     1       2.161  49.088  21.740  1.00  0.00    -0.000 C 
BRANCH   4   5
ATOM      5  C   UNL     1       1.728  50.467  21.216  1.00  0.00    -0.000 C 
BRANCH   5   6
ATOM      6  C   UNL     1       1.980  51.601  22.228  1.00  0.00    -0.000 C 
BRANCH   6   7
ATOM      7  C   UNL     1       2.293  51.135  23.662  1.00  0.00    -0.000 C 
BRANCH   7   8
ATOM      8  C   UNL     1       1.078  51.226  24.601  1.00  0.00    -0.000 C 
BRANCH   8   9
ATOM      9  C   UNL     1       1.233  50.360  25.864  1.00  0.00    -0.000 C 
BRANCH   9  10
ATOM     10  C   UNL     1       2.315  49.268  25.770  1.00  0.00    -0.000 C 
BRANCH  10  11
ATOM     11  C   UNL     1       2.642  48.632  27.127  1.00  0.00    -0.003 C 
ATOM     12  C   UNL     1       4.031  49.043  27.607  1.00  0.00     0.004 C 
ENDBRANCH  10  11
ENDBRANCH   9  10
ENDBRANCH   8   9
ENDBRANCH   7   8
ENDBRANCH   6   7
ENDBRANCH   5   6
ENDBRANCH   4   5
ENDBRANCH   3   4
ENDBRANCH   2   3
ENDBRANCH   1   2
BRANCH   1  13
ATOM     13  C   UNL     1      -0.597  46.290  24.621  1.00  0.00     0.000 C 
BRANCH  13  14
ATOM     14  C   UNL     1      -0.832  47.423  25.638  1.00  0.00     0.000 C 
BRANCH  14  15
ATOM     15  C   UNL     1      -2.314  47.849  25.718  1.00  0.00     0.000 C 
BRANCH  15  16
ATOM     16  C   UNL     1      -3.215  46.860  26.485  1.00  0.00     0.000 C 
BRANCH  16  17
ATOM     17  C   UNL     1      -4.658  46.743  25.966  1.00  0.00     0.000 C 
BRANCH  17  18
ATOM     18  C   UNL     1      -4.761  46.936  24.442  1.00  0.00     0.000 C 
BRANCH  18  19
ATOM     19  C   UNL     1      -6.212  46.901  23.938  1.00  0.00     0.000 C 
BRANCH  19  20
ATOM     20  C   UNL     1      -6.855  45.512  24.074  1.00  0.00     0.006 C 
BRANCH  20  21
ATOM     21  C   UNL     1      -6.119  44.484  23.211  1.00  0.00     0.053 C 
BRANCH  21  22
ATOM     22  C   UNL     1      -5.498  43.426  24.067  1.00  0.00     0.041 C 
ATOM     23  O   UNL     1      -4.246  43.290  24.098  1.00  0.00    -0.550 OA
ATOM     24  O   UNL     1      -6.303  42.568  24.808  1.00  0.00    -0.550 OA
ENDBRANCH  21  22
ENDBRANCH  20  21
ENDBRANCH  19  20
ENDBRANCH  18  19
ENDBRANCH  17  18
ENDBRANCH  16  17
ENDBRANCH  15  16
ENDBRANCH  14  15
ENDBRANCH  13  14
ENDBRANCH   1  13
TORSDOF 20
ENDMDL
MODEL 3
REMARK VINA RESULT:    -4.754      3.709      9.177
REMARK INTER + INTRA:         -12.486
REMARK INTER:                 -10.283
REMARK INTRA:                  -2.203
REMARK UNBOUND:                -2.174
REMARK SMILES CCCCCCCCCCCCCCCCCCCCCC(=O)[O-]
REMARK SMILES IDX 12 1 11 2 10 3 9 4 8 5 7 6 6 7 5 8 4 9 3 10 2 11 1 12 13 13
REMARK SMILES IDX 14 14 15 15 16 16 17 17 18 18 19 19 20 20 21 21 22 22 23 23
REMARK SMILES IDX 24 24
REMARK H PARENT
REMARK Flexibility Score: inf
ROOT
ATOM      1  C   UNL     1       0.082  48.068  22.867  1.00  0.00     0.000 C 
ENDROOT
BRANCH   1   2
ATOM      2  C   UNL     1       1.200  48.065  21.809  1.00  0.00     0.000 C 
BRANCH   2   3
ATOM      3  C   UNL     1       1.880  49.440  21.667  1.00  0.00     0.000 C 
BRANCH   3   4
ATOM      4  C   UNL     1       0.897  50.608  21.845  1.00  0.00    -0.000 C 
BRANCH   4   5
ATOM      5  C   UNL     1       1.443  51.928  21.274  1.00  0.00    -0.000 C 
BRANCH   5   6
ATOM      6  C   UNL     1       1.820  52.945  22.368  1.00  0.00    -0.000 C 
BRANCH   6   7
ATOM      7  C   UNL     1       3.181  52.697  23.044  1.00  0.00    -0.000 C 
BRANCH   7   8
ATOM      8  C   UNL     1       3.071  52.523  24.568  1.00  0.00    -0.000 C 
BRANCH   8   9
ATOM      9  C   UNL     1       2.552  51.131  24.975  1.00  0.00    -0.000 C 
BRANCH   9  10
ATOM     10  C   UNL     1       1.131  51.121  25.568  1.00  0.00    -0.000 C 
BRANCH  10  11
ATOM     11  C   UNL     1       0.707  49.738  26.080  1.00  0.00    -0.003 C 
ATOM     12  C   UNL     1       1.887  48.769  26.089  1.00  0.00     0.004 C 
ENDBRANCH  10  11
ENDBRANCH   9  10
ENDBRANCH   8   9
ENDBRANCH   7   8
ENDBRANCH   6   7
ENDBRANCH   5   6
ENDBRANCH   4   5
ENDBRANCH   3   4
ENDBRANCH   2   3
ENDBRANCH   1   2
BRANCH   1  13
ATOM     13  C   UNL     1      -0.547  46.687  23.124  1.00  0.00     0.000 C 
BRANCH  13  14
ATOM     14  C   UNL     1      -0.532  46.299  24.615  1.00  0.00     0.000 C 
BRANCH  14  15
ATOM     15  C   UNL     1      -1.671  46.969  25.412  1.00  0.00     0.000 C 
BRANCH  15  16
ATOM     16  C   UNL     1      -3.023  47.009  24.671  1.00  0.00     0.000 C 
BRANCH  16  17
ATOM     17  C   UNL     1      -4.058  45.968  25.130  1.00  0.00     0.000 C 
BRANCH  17  18
ATOM     18  C   UNL     1      -4.096  44.725  24.223  1.00  0.00     0.000 C 
BRANCH  18  19
ATOM     19  C   UNL     1      -5.432  43.970  24.311  1.00  0.00     0.000 C 
BRANCH  19  20
ATOM     20  C   UNL     1      -6.438  44.416  23.238  1.00  0.00     0.006 C 
BRANCH  20  21
ATOM     21  C   UNL     1      -7.810  43.783  23.481  1.00  0.00     0.053 C 
BRANCH  21  22
ATOM     22  C   UNL     1      -8.127  43.762  24.943  1.00  0.00     0.041 C 
ATOM     23  O   UNL     1      -8.415  44.831  25.544  1.00  0.00    -0.550 OA
ATOM     24  O   UNL     1      -8.075  42.567  25.650  1.00  0.00    -0.550 OA
ENDBRANCH  21  22
ENDBRANCH  20  21
ENDBRANCH  19  20
ENDBRANCH  18  19
ENDBRANCH  17  18
ENDBRANCH  16  17
ENDBRANCH  15  16
ENDBRANCH  14  15
ENDBRANCH  13  14
ENDBRANCH   1  13
TORSDOF 20
ENDMDL
MODEL 4
REMARK VINA RESULT:    -4.736      2.409      4.380
REMARK INTER + INTRA:         -12.447
REMARK INTER:                  -8.803
REMARK INTRA:                  -3.644
REMARK UNBOUND:                -2.174
REMARK SMILES CCCCCCCCCCCCCCCCCCCCCC(=O)[O-]
REMARK SMILES IDX 12 1 11 2 10 3 9 4 8 5 7 6 6 7 5 8 4 9 3 10 2 11 1 12 13 13
REMARK SMILES IDX 14 14 15 15 16 16 17 17 18 18 19 19 20 20 21 21 22 22 23 23
REMARK SMILES IDX 24 24
REMARK H PARENT
REMARK Flexibility Score: inf
ROOT
ATOM      1  C   UNL     1       0.239  48.227  22.856  1.00  0.00     0.000 C 
ENDROOT
BRANCH   1   2
ATOM      2  C   UNL     1      -0.369  46.827  23.064  1.00  0.00     0.000 C 
BRANCH   2   3
ATOM      3  C   UNL     1      -0.473  46.446  24.552  1.00  0.00     0.000 C 
BRANCH   3   4
ATOM      4  C   UNL     1      -1.886  45.992  24.949  1.00  0.00    -0.000 C 
BRANCH   4   5
ATOM      5  C   UNL     1      -2.692  47.109  25.634  1.00  0.00    -0.000 C 
BRANCH   5   6
ATOM      6  C   UNL     1      -3.673  47.815  24.679  1.00  0.00    -0.000 C 
BRANCH   6   7
ATOM      7  C   UNL     1      -3.273  49.247  24.279  1.00  0.00    -0.000 C 
BRANCH   7   8
ATOM      8  C   UNL     1      -2.076  49.782  25.084  1.00  0.00    -0.000 C 
BRANCH   8   9
ATOM      9  C   UNL     1      -2.346  51.163  25.710  1.00  0.00    -0.000 C 
BRANCH   9  10
ATOM     10  C   UNL     1      -2.574  52.299  24.695  1.00  0.00    -0.000 C 
BRANCH  10  11
ATOM     11  C   UNL     1      -1.453  52.401  23.652  1.00  0.00    -0.003 C 
ATOM     12  C   UNL     1      -2.006  52.805  22.288  1.00  0.00     0.004 C 
ENDBRANCH  10  11
ENDBRANCH   9  10
ENDBRANCH   8   9
ENDBRANCH   7   8
ENDBRANCH   6   7
ENDBRANCH   5   6
ENDBRANCH   4   5
ENDBRANCH   3   4
ENDBRANCH   2   3
ENDBRANCH   1   2
BRANCH   1  13
ATOM     13  C   UNL     1       1.195  48.328  21.653  1.00  0.00     0.000 C 
BRANCH  13  14
ATOM     14  C   UNL     1       2.069  49.595  21.699  1.00  0.00     0.000 C 
BRANCH  14  15
ATOM     15  C   UNL     1       1.239  50.892  21.593  1.00  0.00     0.000 C 
BRANCH  15  16
ATOM     16  C   UNL     1       1.891  52.116  22.267  1.00  0.00     0.000 C 
BRANCH  16  17
ATOM     17  C   UNL     1       2.809  51.802  23.460  1.00  0.00     0.000 C 
BRANCH  17  18
ATOM     18  C   UNL     1       2.128  52.051  24.818  1.00  0.00     0.000 C 
BRANCH  18  19
ATOM     19  C   UNL     1       1.487  50.781  25.400  1.00  0.00     0.000 C 
BRANCH  19  20
ATOM     20  C   UNL     1       2.442  49.577  25.391  1.00  0.00     0.006 C 
BRANCH  20  21
ATOM     21  C   UNL     1       2.008  48.530  26.420  1.00  0.00     0.053 C 
BRANCH  21  22
ATOM     22  C   UNL     1       2.538  48.874  27.775  1.00  0.00     0.041 C 
ATOM     23  O   UNL     1       1.757  48.939  28.763  1.00  0.00    -0.550 OA
ATOM     24  O   UNL     1       3.888  49.155  27.945  1.00  0.00    -0.550 OA
ENDBRANCH  21  22
ENDBRANCH  20  21
ENDBRANCH  19  20
ENDBRANCH  18  19
ENDBRANCH  17  18
ENDBRANCH  16  17
ENDBRANCH  15  16
ENDBRANCH  14  15
ENDBRANCH  13  14
ENDBRANCH   1  13
TORSDOF 20
ENDMDL
MODEL 5
REMARK VINA RESULT:    -4.709      2.702      4.425
REMARK INTER + INTRA:         -12.389
REMARK INTER:                  -8.772
REMARK INTRA:                  -3.617
REMARK UNBOUND:                -2.174
REMARK SMILES CCCCCCCCCCCCCCCCCCCCCC(=O)[O-]
REMARK SMILES IDX 12 1 11 2 10 3 9 4 8 5 7 6 6 7 5 8 4 9 3 10 2 11 1 12 13 13
REMARK SMILES IDX 14 14 15 15 16 16 17 17 18 18 19 19 20 20 21 21 22 22 23 23
REMARK SMILES IDX 24 24
REMARK H PARENT
REMARK Flexibility Score: inf
ROOT
ATOM      1  C   UNL     1       1.787  49.416  21.373  1.00  0.00     0.000 C 
ENDROOT
BRANCH   1   2
ATOM      2  C   UNL     1       1.149  48.034  21.606  1.00  0.00     0.000 C 
BRANCH   2   3
ATOM      3  C   UNL     1       0.136  48.041  22.766  1.00  0.00     0.000 C 
BRANCH   3   4
ATOM      4  C   UNL     1      -0.431  46.644  23.065  1.00  0.00    -0.000 C 
BRANCH   4   5
ATOM      5  C   UNL     1      -0.551  46.369  24.573  1.00  0.00    -0.000 C 
BRANCH   5   6
ATOM      6  C   UNL     1      -2.000  46.459  25.088  1.00  0.00    -0.000 C 
BRANCH   6   7
ATOM      7  C   UNL     1      -2.673  47.829  24.897  1.00  0.00    -0.000 C 
BRANCH   7   8
ATOM      8  C   UNL     1      -2.265  48.853  25.969  1.00  0.00    -0.000 C 
BRANCH   8   9
ATOM      9  C   UNL     1      -1.612  50.115  25.375  1.00  0.00    -0.000 C 
BRANCH   9  10
ATOM     10  C   UNL     1      -2.157  50.535  23.997  1.00  0.00    -0.000 C 
BRANCH  10  11
ATOM     11  C   UNL     1      -2.475  52.034  23.912  1.00  0.00    -0.003 C 
ATOM     12  C   UNL     1      -2.318  52.549  22.484  1.00  0.00     0.004 C 
ENDBRANCH  10  11
ENDBRANCH   9  10
ENDBRANCH   8   9
ENDBRANCH   7   8
ENDBRANCH   6   7
ENDBRANCH   5   6
ENDBRANCH   4   5
ENDBRANCH   3   4
ENDBRANCH   2   3
ENDBRANCH   1   2
BRANCH   1  13
ATOM     13  C   UNL     1       0.916  50.599  21.831  1.00  0.00     0.000 C 
BRANCH  13  14
ATOM     14  C   UNL     1       1.616  51.958  21.638  1.00  0.00     0.000 C 
BRANCH  14  15
ATOM     15  C   UNL     1       2.122  52.557  22.968  1.00  0.00     0.000 C 
BRANCH  15  16
ATOM     16  C   UNL     1       1.124  52.431  24.137  1.00  0.00     0.000 C 
BRANCH  16  17
ATOM     17  C   UNL     1       1.720  51.923  25.461  1.00  0.00     0.000 C 
BRANCH  17  18
ATOM     18  C   UNL     1       2.725  50.774  25.259  1.00  0.00     0.000 C 
BRANCH  18  19
ATOM     19  C   UNL     1       2.038  49.408  25.102  1.00  0.00     0.000 C 
BRANCH  19  20
ATOM     20  C   UNL     1       1.819  48.694  26.445  1.00  0.00     0.006 C 
BRANCH  20  21
ATOM     21  C   UNL     1       3.087  48.746  27.302  1.00  0.00     0.053 C 
BRANCH  21  22
ATOM     22  C   UNL     1       2.811  49.423  28.607  1.00  0.00     0.041 C 
ATOM     23  O   UNL     1       1.793  49.111  29.281  1.00  0.00    -0.550 OA
ATOM     24  O   UNL     1       3.661  50.422  29.067  1.00  0.00    -0.550 OA
ENDBRANCH  21  22
ENDBRANCH  20  21
ENDBRANCH  19  20
ENDBRANCH  18  19
ENDBRANCH  17  18
ENDBRANCH  16  17
ENDBRANCH  15  16
ENDBRANCH  14  15
ENDBRANCH  13  14
ENDBRANCH   1  13
TORSDOF 20
ENDMDL
MODEL 6
REMARK VINA RESULT:    -4.681      3.776      9.010
REMARK INTER + INTRA:         -12.329
REMARK INTER:                 -10.228
REMARK INTRA:                  -2.101
REMARK UNBOUND:                -2.174
REMARK SMILES CCCCCCCCCCCCCCCCCCCCCC(=O)[O-]
REMARK SMILES IDX 12 1 11 2 10 3 9 4 8 5 7 6 6 7 5 8 4 9 3 10 2 11 1 12 13 13
REMARK SMILES IDX 14 14 15 15 16 16 17 17 18 18 19 19 20 20 21 21 22 22 23 23
REMARK SMILES IDX 24 24
REMARK H PARENT
REMARK Flexibility Score: inf
ROOT
ATOM      1  C   UNL     1       0.244  48.292  22.822  1.00  0.00     0.000 C 
ENDROOT
BRANCH   1   2
ATOM      2  C   UNL     1       1.203  48.318  21.618  1.00  0.00     0.000 C 
BRANCH   2   3
ATOM      3  C   UNL     1       1.860  49.697  21.419  1.00  0.00     0.000 C 
BRANCH   3   4
ATOM      4  C   UNL     1       1.005  50.846  21.976  1.00  0.00    -0.000 C 
BRANCH   4   5
ATOM      5  C   UNL     1       1.835  52.106  22.274  1.00  0.00    -0.000 C 
BRANCH   5   6
ATOM      6  C   UNL     1       1.987  52.383  23.782  1.00  0.00    -0.000 C 
BRANCH   6   7
ATOM      7  C   UNL     1       2.756  51.304  24.566  1.00  0.00    -0.000 C 
BRANCH   7   8
ATOM      8  C   UNL     1       1.881  50.578  25.603  1.00  0.00    -0.000 C 
BRANCH   8   9
ATOM      9  C   UNL     1       2.122  49.057  25.628  1.00  0.00    -0.000 C 
BRANCH   9  10
ATOM     10  C   UNL     1       2.496  48.486  27.009  1.00  0.00    -0.000 C 
BRANCH  10  11
ATOM     11  C   UNL     1       3.681  49.216  27.656  1.00  0.00    -0.003 C 
ATOM     12  C   UNL     1       3.327  49.703  29.058  1.00  0.00     0.004 C 
ENDBRANCH  10  11
ENDBRANCH   9  10
ENDBRANCH   8   9
ENDBRANCH   7   8
ENDBRANCH   6   7
ENDBRANCH   5   6
ENDBRANCH   4   5
ENDBRANCH   3   4
ENDBRANCH   2   3
ENDBRANCH   1   2
BRANCH   1  13
ATOM     13  C   UNL     1      -0.353  46.905  23.124  1.00  0.00     0.000 C 
BRANCH  13  14
ATOM     14  C   UNL     1      -0.492  46.638  24.635  1.00  0.00     0.000 C 
BRANCH  14  15
ATOM     15  C   UNL     1      -1.436  47.642  25.329  1.00  0.00     0.000 C 
BRANCH  15  16
ATOM     16  C   UNL     1      -2.932  47.418  25.024  1.00  0.00     0.000 C 
BRANCH  16  17
ATOM     17  C   UNL     1      -3.501  46.063  25.476  1.00  0.00     0.000 C 
BRANCH  17  18
ATOM     18  C   UNL     1      -3.698  45.079  24.309  1.00  0.00     0.000 C 
BRANCH  18  19
ATOM     19  C   UNL     1      -5.102  44.455  24.291  1.00  0.00     0.000 C 
BRANCH  19  20
ATOM     20  C   UNL     1      -6.219  45.503  24.419  1.00  0.00     0.006 C 
BRANCH  20  21
ATOM     21  C   UNL     1      -7.247  45.078  25.471  1.00  0.00     0.053 C 
BRANCH  21  22
ATOM     22  C   UNL     1      -7.984  43.857  25.023  1.00  0.00     0.041 C 
ATOM     23  O   UNL     1      -7.976  42.816  25.732  1.00  0.00    -0.550 OA
ATOM     24  O   UNL     1      -8.655  43.856  23.806  1.00  0.00    -0.550 OA
ENDBRANCH  21  22
ENDBRANCH  20  21
ENDBRANCH  19  20
ENDBRANCH  18  19
ENDBRANCH  17  18
ENDBRANCH  16  17
ENDBRANCH  15  16
ENDBRANCH  14  15
ENDBRANCH  13  14
ENDBRANCH   1  13
TORSDOF 20
ENDMDL
MODEL 7
REMARK VINA RESULT:    -4.652      1.397      2.963
REMARK INTER + INTRA:         -12.264
REMARK INTER:                  -9.734
REMARK INTRA:                  -2.530
REMARK UNBOUND:                -2.174
REMARK SMILES CCCCCCCCCCCCCCCCCCCCCC(=O)[O-]
REMARK SMILES IDX 12 1 11 2 10 3 9 4 8 5 7 6 6 7 5 8 4 9 3 10 2 11 1 12 13 13
REMARK SMILES IDX 14 14 15 15 16 16 17 17 18 18 19 19 20 20 21 21 22 22 23 23
REMARK SMILES IDX 24 24
REMARK H PARENT
REMARK Flexibility Score: inf
ROOT
ATOM      1  C   UNL     1       0.962  50.866  21.917  1.00  0.00     0.000 C 
ENDROOT
BRANCH   1   2
ATOM      2  C   UNL     1       1.858  49.735  21.380  1.00  0.00     0.000 C 
BRANCH   2   3
ATOM      3  C   UNL     1       1.469  48.356  21.946  1.00  0.00     0.000 C 
BRANCH   3   4
ATOM      4  C   UNL     1       0.201  48.408  22.812  1.00  0.00    -0.000 C 
BRANCH   4   5
ATOM      5  C   UNL     1      -0.187  47.029  23.370  1.00  0.00    -0.000 C 
BRANCH   5   6
ATOM      6  C   UNL     1      -1.642  46.971  23.873  1.00  0.00    -0.000 C 
BRANCH   6   7
ATOM      7  C   UNL     1      -1.819  47.230  25.380  1.00  0.00    -0.000 C 
BRANCH   7   8
ATOM      8  C   UNL     1      -3.134  46.657  25.937  1.00  0.00    -0.000 C 
BRANCH   8   9
ATOM      9  C   UNL     1      -4.223  46.503  24.859  1.00  0.00    -0.000 C 
BRANCH   9  10
ATOM     10  C   UNL     1      -5.196  45.331  25.088  1.00  0.00    -0.000 C 
BRANCH  10  11
ATOM     11  C   UNL     1      -5.287  44.386  23.883  1.00  0.00    -0.003 C 
ATOM     12  C   UNL     1      -4.032  43.526  23.762  1.00  0.00     0.004 C 
ENDBRANCH  10  11
ENDBRANCH   9  10
ENDBRANCH   8   9
ENDBRANCH   7   8
ENDBRANCH   6   7
ENDBRANCH   5   6
ENDBRANCH   4   5
ENDBRANCH   3   4
ENDBRANCH   2   3
ENDBRANCH   1   2
BRANCH   1  13
ATOM     13  C   UNL     1       1.327  52.265  21.391  1.00  0.00     0.000 C 
BRANCH  13  14
ATOM     14  C   UNL     1       1.843  53.198  22.503  1.00  0.00     0.000 C 
BRANCH  14  15
ATOM     15  C   UNL     1       3.236  52.785  23.023  1.00  0.00     0.000 C 
BRANCH  15  16
ATOM     16  C   UNL     1       3.271  52.428  24.523  1.00  0.00     0.000 C 
BRANCH  16  17
ATOM     17  C   UNL     1       2.678  51.058  24.889  1.00  0.00     0.000 C 
BRANCH  17  18
ATOM     18  C   UNL     1       1.327  51.167  25.618  1.00  0.00     0.000 C 
BRANCH  18  19
ATOM     19  C   UNL     1       0.759  49.797  26.021  1.00  0.00     0.000 C 
BRANCH  19  20
ATOM     20  C   UNL     1       1.854  48.792  26.412  1.00  0.00     0.006 C 
BRANCH  20  21
ATOM     21  C   UNL     1       2.113  48.828  27.920  1.00  0.00     0.053 C 
BRANCH  21  22
ATOM     22  C   UNL     1       3.484  49.354  28.206  1.00  0.00     0.041 C 
ATOM     23  O   UNL     1       3.662  50.186  29.136  1.00  0.00    -0.550 OA
ATOM     24  O   UNL     1       4.561  48.951  27.427  1.00  0.00    -0.550 OA
ENDBRANCH  21  22
ENDBRANCH  20  21
ENDBRANCH  19  20
ENDBRANCH  18  19
ENDBRANCH  17  18
ENDBRANCH  16  17
ENDBRANCH  15  16
ENDBRANCH  14  15
ENDBRANCH  13  14
ENDBRANCH   1  13
TORSDOF 20
ENDMDL
MODEL 8
REMARK VINA RESULT:    -4.634      3.492      7.678
REMARK INTER + INTRA:         -12.225
REMARK INTER:                  -9.139
REMARK INTRA:                  -3.086
REMARK UNBOUND:                -2.174
REMARK SMILES CCCCCCCCCCCCCCCCCCCCCC(=O)[O-]
REMARK SMILES IDX 12 1 11 2 10 3 9 4 8 5 7 6 6 7 5 8 4 9 3 10 2 11 1 12 13 13
REMARK SMILES IDX 14 14 15 15 16 16 17 17 18 18 19 19 20 20 21 21 22 22 23 23
REMARK SMILES IDX 24 24
REMARK H PARENT
REMARK Flexibility Score: inf
ROOT
ATOM      1  C   UNL     1       2.137  49.111  21.896  1.00  0.00     0.000 C 
ENDROOT
BRANCH   1   2
ATOM      2  C   UNL     1       1.961  50.399  21.071  1.00  0.00     0.000 C 
BRANCH   2   3
ATOM      3  C   UNL     1       0.968  51.382  21.720  1.00  0.00     0.000 C 
BRANCH   3   4
ATOM      4  C   UNL     1       1.185  52.832  21.259  1.00  0.00    -0.000 C 
BRANCH   4   5
ATOM      5  C   UNL     1       1.934  53.676  22.304  1.00  0.00    -0.000 C 
BRANCH   5   6
ATOM      6  C   UNL     1       1.526  53.341  23.751  1.00  0.00    -0.000 C 
BRANCH   6   7
ATOM      7  C   UNL     1       2.641  52.724  24.615  1.00  0.00    -0.000 C 
BRANCH   7   8
ATOM      8  C   UNL     1       2.111  51.717  25.649  1.00  0.00    -0.000 C 
BRANCH   8   9
ATOM      9  C   UNL     1       2.181  50.260  25.156  1.00  0.00    -0.000 C 
BRANCH   9  10
ATOM     10  C   UNL     1       1.742  49.207  26.190  1.00  0.00    -0.000 C 
BRANCH  10  11
ATOM     11  C   UNL     1       2.918  48.402  26.759  1.00  0.00    -0.003 C 
ATOM     12  C   UNL     1       3.602  49.158  27.896  1.00  0.00     0.004 C 
ENDBRANCH  10  11
ENDBRANCH   9  10
ENDBRANCH   8   9
ENDBRANCH   7   8
ENDBRANCH   6   7
ENDBRANCH   5   6
ENDBRANCH   4   5
ENDBRANCH   3   4
ENDBRANCH   2   3
ENDBRANCH   1   2
BRANCH   1  13
ATOM     13  C   UNL     1       0.997  48.091  21.725  1.00  0.00     0.000 C 
BRANCH  13  14
ATOM     14  C   UNL     1       0.151  47.932  23.002  1.00  0.00     0.000 C 
BRANCH  14  15
ATOM     15  C   UNL     1      -0.557  46.563  23.076  1.00  0.00     0.000 C 
BRANCH  15  16
ATOM     16  C   UNL     1      -1.026  46.169  24.492  1.00  0.00     0.000 C 
BRANCH  16  17
ATOM     17  C   UNL     1      -2.404  46.712  24.906  1.00  0.00     0.000 C 
BRANCH  17  18
ATOM     18  C   UNL     1      -2.356  47.528  26.211  1.00  0.00     0.000 C 
BRANCH  18  19
ATOM     19  C   UNL     1      -1.929  48.986  25.982  1.00  0.00     0.000 C 
BRANCH  19  20
ATOM     20  C   UNL     1      -2.610  49.619  24.758  1.00  0.00     0.006 C 
BRANCH  20  21
ATOM     21  C   UNL     1      -1.711  50.682  24.123  1.00  0.00     0.053 C 
BRANCH  21  22
ATOM     22  C   UNL     1      -2.504  51.901  23.772  1.00  0.00     0.041 C 
ATOM     23  O   UNL     1      -2.182  52.601  22.775  1.00  0.00    -0.550 OA
ATOM     24  O   UNL     1      -3.581  52.283  24.563  1.00  0.00    -0.550 OA
ENDBRANCH  21  22
ENDBRANCH  20  21
ENDBRANCH  19  20
ENDBRANCH  18  19
ENDBRANCH  17  18
ENDBRANCH  16  17
ENDBRANCH  15  16
ENDBRANCH  14  15
ENDBRANCH  13  14
ENDBRANCH   1  13
TORSDOF 20
ENDMDL
MODEL 9
REMARK VINA RESULT:    -4.616      3.297      7.872
REMARK INTER + INTRA:         -12.188
REMARK INTER:                  -8.972
REMARK INTRA:                  -3.216
REMARK UNBOUND:                -2.174
REMARK SMILES CCCCCCCCCCCCCCCCCCCCCC(=O)[O-]
REMARK SMILES IDX 12 1 11 2 10 3 9 4 8 5 7 6 6 7 5 8 4 9 3 10 2 11 1 12 13 13
REMARK SMILES IDX 14 14 15 15 16 16 17 17 18 18 19 19 20 20 21 21 22 22 23 23
REMARK SMILES IDX 24 24
REMARK H PARENT
REMARK Flexibility Score: inf
ROOT
ATOM      1  C   UNL     1       0.997  48.057  21.611  1.00  0.00     0.000 C 
ENDROOT
BRANCH   1   2
ATOM      2  C   UNL     1       1.296  49.557  21.430  1.00  0.00     0.000 C 
BRANCH   2   3
ATOM      3  C   UNL     1       2.133  50.135  22.587  1.00  0.00     0.000 C 
BRANCH   3   4
ATOM      4  C   UNL     1       2.245  51.666  22.529  1.00  0.00    -0.000 C 
BRANCH   4   5
ATOM      5  C   UNL     1       1.322  52.283  21.464  1.00  0.00    -0.000 C 
BRANCH   5   6
ATOM      6  C   UNL     1       0.661  53.595  21.929  1.00  0.00    -0.000 C 
BRANCH   6   7
ATOM      7  C   UNL     1      -0.473  53.423  22.955  1.00  0.00    -0.000 C 
BRANCH   7   8
ATOM      8  C   UNL     1      -1.400  52.238  22.632  1.00  0.00    -0.000 C 
BRANCH   8   9
ATOM      9  C   UNL     1      -1.323  51.115  23.683  1.00  0.00    -0.000 C 
BRANCH   9  10
ATOM     10  C   UNL     1      -0.614  51.505  24.993  1.00  0.00    -0.000 C 
BRANCH  10  11
ATOM     11  C   UNL     1       0.162  50.340  25.621  1.00  0.00    -0.003 C 
ATOM     12  C   UNL     1      -0.326  50.055  27.039  1.00  0.00     0.004 C 
ENDBRANCH  10  11
ENDBRANCH   9  10
ENDBRANCH   8   9
ENDBRANCH   7   8
ENDBRANCH   6   7
ENDBRANCH   5   6
ENDBRANCH   4   5
ENDBRANCH   3   4
ENDBRANCH   2   3
ENDBRANCH   1   2
BRANCH   1  13
ATOM     13  C   UNL     1       0.143  47.729  22.849  1.00  0.00     0.000 C 
BRANCH  13  14
ATOM     14  C   UNL     1      -0.483  46.323  22.778  1.00  0.00     0.000 C 
BRANCH  14  15
ATOM     15  C   UNL     1      -1.122  45.891  24.115  1.00  0.00     0.000 C 
BRANCH  15  16
ATOM     16  C   UNL     1      -1.180  47.008  25.177  1.00  0.00     0.000 C 
BRANCH  16  17
ATOM     17  C   UNL     1      -2.560  47.243  25.813  1.00  0.00     0.000 C 
BRANCH  17  18
ATOM     18  C   UNL     1      -3.554  47.916  24.849  1.00  0.00     0.000 C 
BRANCH  18  19
ATOM     19  C   UNL     1      -4.948  47.273  24.892  1.00  0.00     0.000 C 
BRANCH  19  20
ATOM     20  C   UNL     1      -4.898  45.763  25.175  1.00  0.00     0.006 C 
BRANCH  20  21
ATOM     21  C   UNL     1      -5.331  44.963  23.945  1.00  0.00     0.053 C 
BRANCH  21  22
ATOM     22  C   UNL     1      -4.685  43.614  23.940  1.00  0.00     0.041 C 
ATOM     23  O   UNL     1      -5.232  42.648  24.536  1.00  0.00    -0.550 OA
ATOM     24  O   UNL     1      -3.462  43.429  23.307  1.00  0.00    -0.550 OA
ENDBRANCH  21  22
ENDBRANCH  20  21
ENDBRANCH  19  20
ENDBRANCH  18  19
ENDBRANCH  17  18
ENDBRANCH  16  17
ENDBRANCH  15  16
ENDBRANCH  14  15
ENDBRANCH  13  14
ENDBRANCH   1  13
TORSDOF 20
ENDMDL
