MODEL 1
REMARK VINA RESULT:    -6.024      0.000      0.000
REMARK INTER + INTRA:          -8.966
REMARK INTER:                  -8.137
REMARK INTRA:                  -0.828
REMARK UNBOUND:                -0.828
REMARK SMILES CC(=O)CCC=C(C)CCC=C(C)C
REMARK SMILES IDX 7 1 6 2 8 3 9 4 10 5 11 6 13 7 12 8 14 9 5 10 4 11 2 12 3 13
REMARK SMILES IDX 1 14
REMARK H PARENT
REMARK Flexibility Score: inf
ROOT
ATOM      1  C   UNL     1       2.947  11.041  46.673  1.00  0.00    -0.077 C 
ATOM      2  C   UNL     1       2.128  12.108  46.816  1.00  0.00    -0.028 C 
ATOM      3  C   UNL     1       2.843  10.106  45.491  1.00  0.00     0.039 C 
ENDROOT
BRANCH   1   4
ATOM      4  C   UNL     1       3.985  10.763  47.741  1.00  0.00     0.034 C 
BRANCH   4   5
ATOM      5  C   UNL     1       4.129  11.935  48.722  1.00  0.00     0.032 C 
BRANCH   5   6
ATOM      6  C   UNL     1       5.502  12.561  48.647  1.00  0.00    -0.028 C 
ATOM      7  C   UNL     1       7.261  14.071  47.838  1.00  0.00     0.039 C 
ATOM      8  C   UNL     1       5.834  13.589  47.836  1.00  0.00    -0.080 C 
ATOM      9  C   UNL     1       4.818  14.271  46.950  1.00  0.00     0.039 C 
ENDBRANCH   5   6
ENDBRANCH   4   5
ENDBRANCH   1   4
BRANCH   2  10
ATOM     10  C   UNL     1       1.076  12.517  45.815  1.00  0.00     0.035 C 
BRANCH  10  11
ATOM     11  C   UNL     1       1.166  14.021  45.518  1.00  0.00     0.079 C 
BRANCH  11  12
ATOM     12  C   UNL     1       0.045  14.844  46.110  1.00  0.00     0.130 C 
ATOM     13  O   UNL     1      -1.042  14.831  45.552  1.00  0.00    -0.300 OA
ATOM     14  C   UNL     1       0.206  15.672  47.356  1.00  0.00     0.087 C 
ENDBRANCH  11  12
ENDBRANCH  10  11
ENDBRANCH   2  10
TORSDOF 6
ENDMDL
MODEL 2
REMARK VINA RESULT:    -6.015      2.069      2.428
REMARK INTER + INTRA:          -8.953
REMARK INTER:                  -8.478
REMARK INTRA:                  -0.474
REMARK UNBOUND:                -0.828
REMARK SMILES CC(=O)CCC=C(C)CCC=C(C)C
REMARK SMILES IDX 7 1 6 2 8 3 9 4 10 5 11 6 13 7 12 8 14 9 5 10 4 11 2 12 3 13
REMARK SMILES IDX 1 14
REMARK H PARENT
REMARK Flexibility Score: inf
ROOT
ATOM      1  C   UNL     1       3.178  11.178  46.914  1.00  0.00    -0.077 C 
ATOM      2  C   UNL     1       1.831  11.222  47.037  1.00  0.00    -0.028 C 
ATOM      3  C   UNL     1       3.854  10.387  45.818  1.00  0.00     0.039 C 
ENDROOT
BRANCH   1   4
ATOM      4  C   UNL     1       4.034  11.926  47.916  1.00  0.00     0.034 C 
BRANCH   4   5
ATOM      5  C   UNL     1       4.384  13.339  47.430  1.00  0.00     0.032 C 
BRANCH   5   6
ATOM      6  C   UNL     1       5.744  13.778  47.920  1.00  0.00    -0.028 C 
ATOM      7  C   UNL     1       8.144  14.284  47.789  1.00  0.00     0.039 C 
ATOM      8  C   UNL     1       6.844  13.881  47.143  1.00  0.00    -0.080 C 
ATOM      9  C   UNL     1       6.800  13.624  45.655  1.00  0.00     0.039 C 
ENDBRANCH   5   6
ENDBRANCH   4   5
ENDBRANCH   1   4
BRANCH   2  10
ATOM     10  C   UNL     1       0.864  10.552  46.093  1.00  0.00     0.035 C 
BRANCH  10  11
ATOM     11  C   UNL     1      -0.558  10.570  46.672  1.00  0.00     0.079 C 
BRANCH  11  12
ATOM     12  C   UNL     1      -1.438  11.677  46.137  1.00  0.00     0.130 C 
ATOM     13  O   UNL     1      -0.901  12.642  45.614  1.00  0.00    -0.300 OA
ATOM     14  C   UNL     1      -2.939  11.641  46.215  1.00  0.00     0.087 C 
ENDBRANCH  11  12
ENDBRANCH  10  11
ENDBRANCH   2  10
TORSDOF 6
ENDMDL
MODEL 3
REMARK VINA RESULT:    -5.951      1.307      1.780
REMARK INTER + INTRA:          -8.867
REMARK INTER:                  -8.070
REMARK INTRA:                  -0.797
REMARK UNBOUND:                -0.828
REMARK SMILES CC(=O)CCC=C(C)CCC=C(C)C
REMARK SMILES IDX 7 1 6 2 8 3 9 4 10 5 11 6 13 7 12 8 14 9 5 10 4 11 2 12 3 13
REMARK SMILES IDX 1 14
REMARK H PARENT
REMARK Flexibility Score: inf
ROOT
ATOM      1  C   UNL     1       1.005  11.455  46.230  1.00  0.00    -0.077 C 
ATOM      2  C   UNL     1       0.762  12.693  45.742  1.00  0.00    -0.028 C 
ATOM      3  C   UNL     1      -0.114  10.506  46.592  1.00  0.00     0.039 C 
ENDROOT
BRANCH   1   4
ATOM      4  C   UNL     1       2.439  11.014  46.438  1.00  0.00     0.034 C 
BRANCH   4   5
ATOM      5  C   UNL     1       3.050  11.627  47.706  1.00  0.00     0.032 C 
BRANCH   5   6
ATOM      6  C   UNL     1       4.438  12.169  47.452  1.00  0.00    -0.028 C 
ATOM      7  C   UNL     1       6.146  13.826  46.844  1.00  0.00     0.039 C 
ATOM      8  C   UNL     1       4.713  13.448  47.115  1.00  0.00    -0.080 C 
ATOM      9  C   UNL     1       3.634  14.501  47.021  1.00  0.00     0.039 C 
ENDBRANCH   5   6
ENDBRANCH   4   5
ENDBRANCH   1   4
BRANCH   2  10
ATOM     10  C   UNL     1      -0.612  13.246  45.458  1.00  0.00     0.035 C 
BRANCH  10  11
ATOM     11  C   UNL     1      -0.543  14.754  45.178  1.00  0.00     0.079 C 
BRANCH  11  12
ATOM     12  C   UNL     1      -0.850  15.627  46.374  1.00  0.00     0.130 C 
ATOM     13  O   UNL     1      -1.916  16.224  46.397  1.00  0.00    -0.300 OA
ATOM     14  C   UNL     1       0.093  15.789  47.534  1.00  0.00     0.087 C 
ENDBRANCH  11  12
ENDBRANCH  10  11
ENDBRANCH   2  10
TORSDOF 6
ENDMDL
MODEL 4
REMARK VINA RESULT:    -5.925      1.765      5.059
REMARK INTER + INTRA:          -8.831
REMARK INTER:                  -8.340
REMARK INTRA:                  -0.491
REMARK UNBOUND:                -0.828
REMARK SMILES CC(=O)CCC=C(C)CCC=C(C)C
REMARK SMILES IDX 7 1 6 2 8 3 9 4 10 5 11 6 13 7 12 8 14 9 5 10 4 11 2 12 3 13
REMARK SMILES IDX 1 14
REMARK H PARENT
REMARK Flexibility Score: inf
ROOT
ATOM      1  C   UNL     1       2.768  11.305  46.792  1.00  0.00    -0.077 C 
ATOM      2  C   UNL     1       3.251  11.871  47.921  1.00  0.00    -0.028 C 
ATOM      3  C   UNL     1       3.639  10.475  45.877  1.00  0.00     0.039 C 
ENDROOT
BRANCH   1   4
ATOM      4  C   UNL     1       1.315  11.525  46.421  1.00  0.00     0.034 C 
BRANCH   4   5
ATOM      5  C   UNL     1       1.140  12.708  45.460  1.00  0.00     0.032 C 
BRANCH   5   6
ATOM      6  C   UNL     1       1.003  14.017  46.202  1.00  0.00    -0.028 C 
ATOM      7  C   UNL     1      -0.122  16.016  47.078  1.00  0.00     0.039 C 
ATOM      8  C   UNL     1      -0.155  14.696  46.353  1.00  0.00    -0.080 C 
ATOM      9  C   UNL     1      -1.470  14.163  45.835  1.00  0.00     0.039 C 
ENDBRANCH   5   6
ENDBRANCH   4   5
ENDBRANCH   1   4
BRANCH   2  10
ATOM     10  C   UNL     1       4.664  11.707  48.421  1.00  0.00     0.035 C 
BRANCH  10  11
ATOM     11  C   UNL     1       5.361  13.071  48.534  1.00  0.00     0.079 C 
BRANCH  11  12
ATOM     12  C   UNL     1       5.448  13.839  47.235  1.00  0.00     0.130 C 
ATOM     13  O   UNL     1       4.470  14.477  46.872  1.00  0.00    -0.300 OA
ATOM     14  C   UNL     1       6.681  13.857  46.374  1.00  0.00     0.087 C 
ENDBRANCH  11  12
ENDBRANCH  10  11
ENDBRANCH   2  10
TORSDOF 6
ENDMDL
MODEL 5
REMARK VINA RESULT:    -5.849      3.131      6.059
REMARK INTER + INTRA:          -8.729
REMARK INTER:                  -8.319
REMARK INTRA:                  -0.410
REMARK UNBOUND:                -0.828
REMARK SMILES CC(=O)CCC=C(C)CCC=C(C)C
REMARK SMILES IDX 7 1 6 2 8 3 9 4 10 5 11 6 13 7 12 8 14 9 5 10 4 11 2 12 3 13
REMARK SMILES IDX 1 14
REMARK H PARENT
REMARK Flexibility Score: inf
ROOT
ATOM      1  C   UNL     1       3.341  11.565  47.316  1.00  0.00    -0.077 C 
ATOM      2  C   UNL     1       4.051  12.643  46.912  1.00  0.00    -0.028 C 
ATOM      3  C   UNL     1       3.080  11.281  48.777  1.00  0.00     0.039 C 
ENDROOT
BRANCH   1   4
ATOM      4  C   UNL     1       2.808  10.602  46.274  1.00  0.00     0.034 C 
BRANCH   4   5
ATOM      5  C   UNL     1       1.494  11.098  45.654  1.00  0.00     0.032 C 
BRANCH   5   6
ATOM      6  C   UNL     1       0.290  10.475  46.323  1.00  0.00    -0.028 C 
ATOM      7  C   UNL     1      -2.026  10.318  47.125  1.00  0.00     0.039 C 
ATOM      8  C   UNL     1      -0.936  11.040  46.376  1.00  0.00    -0.080 C 
ATOM      9  C   UNL     1      -1.243  12.354  45.697  1.00  0.00     0.039 C 
ENDBRANCH   5   6
ENDBRANCH   4   5
ENDBRANCH   1   4
BRANCH   2  10
ATOM     10  C   UNL     1       4.610  13.693  47.839  1.00  0.00     0.035 C 
BRANCH  10  11
ATOM     11  C   UNL     1       6.053  13.351  48.239  1.00  0.00     0.079 C 
BRANCH  11  12
ATOM     12  C   UNL     1       7.110  13.941  47.333  1.00  0.00     0.130 C 
ATOM     13  O   UNL     1       8.153  14.331  47.837  1.00  0.00    -0.300 OA
ATOM     14  C   UNL     1       6.937  14.066  45.844  1.00  0.00     0.087 C 
ENDBRANCH  11  12
ENDBRANCH  10  11
ENDBRANCH   2  10
TORSDOF 6
ENDMDL
MODEL 6
REMARK VINA RESULT:    -5.810      1.967      3.398
REMARK INTER + INTRA:          -8.677
REMARK INTER:                  -7.790
REMARK INTRA:                  -0.887
REMARK UNBOUND:                -0.828
REMARK SMILES CC(=O)CCC=C(C)CCC=C(C)C
REMARK SMILES IDX 7 1 6 2 8 3 9 4 10 5 11 6 13 7 12 8 14 9 5 10 4 11 2 12 3 13
REMARK SMILES IDX 1 14
REMARK H PARENT
REMARK Flexibility Score: inf
ROOT
ATOM      1  C   UNL     1      -1.142  11.364  46.248  1.00  0.00    -0.077 C 
ATOM      2  C   UNL     1      -0.923  12.521  45.582  1.00  0.00    -0.028 C 
ATOM      3  C   UNL     1      -2.535  10.895  46.597  1.00  0.00     0.039 C 
ENDROOT
BRANCH   1   4
ATOM      4  C   UNL     1       0.045  10.524  46.673  1.00  0.00     0.034 C 
BRANCH   4   5
ATOM      5  C   UNL     1       1.300  10.843  45.849  1.00  0.00     0.032 C 
BRANCH   5   6
ATOM      6  C   UNL     1       2.530  10.947  46.720  1.00  0.00    -0.028 C 
ATOM      7  C   UNL     1       4.369  12.048  47.919  1.00  0.00     0.039 C 
ATOM      8  C   UNL     1       3.115  12.108  47.087  1.00  0.00    -0.080 C 
ATOM      9  C   UNL     1       2.539  13.451  46.705  1.00  0.00     0.039 C 
ENDBRANCH   5   6
ENDBRANCH   4   5
ENDBRANCH   1   4
BRANCH   2  10
ATOM     10  C   UNL     1      -2.011  13.434  45.074  1.00  0.00     0.035 C 
BRANCH  10  11
ATOM     11  C   UNL     1      -2.057  14.731  45.895  1.00  0.00     0.079 C 
BRANCH  11  12
ATOM     12  C   UNL     1      -0.729  15.445  46.012  1.00  0.00     0.130 C 
ATOM     13  O   UNL     1      -0.142  15.750  44.985  1.00  0.00    -0.300 OA
ATOM     14  C   UNL     1      -0.103  15.798  47.334  1.00  0.00     0.087 C 
ENDBRANCH  11  12
ENDBRANCH  10  11
ENDBRANCH   2  10
TORSDOF 6
ENDMDL
MODEL 7
REMARK VINA RESULT:    -5.737      2.751      6.236
REMARK INTER + INTRA:          -8.578
REMARK INTER:                  -7.729
REMARK INTRA:                  -0.850
REMARK UNBOUND:                -0.828
REMARK SMILES CC(=O)CCC=C(C)CCC=C(C)C
REMARK SMILES IDX 7 1 6 2 8 3 9 4 10 5 11 6 13 7 12 8 14 9 5 10 4 11 2 12 3 13
REMARK SMILES IDX 1 14
REMARK H PARENT
REMARK Flexibility Score: inf
ROOT
ATOM      1  C   UNL     1       0.110  14.786  46.473  1.00  0.00    -0.077 C 
ATOM      2  C   UNL     1       1.199  14.107  46.044  1.00  0.00    -0.028 C 
ATOM      3  C   UNL     1       0.172  15.735  47.648  1.00  0.00     0.039 C 
ENDROOT
BRANCH   1   4
ATOM      4  C   UNL     1      -1.215  14.572  45.770  1.00  0.00     0.034 C 
BRANCH   4   5
ATOM      5  C   UNL     1      -1.296  13.191  45.106  1.00  0.00     0.032 C 
BRANCH   5   6
ATOM      6  C   UNL     1      -1.944  12.172  46.013  1.00  0.00    -0.028 C 
ATOM      7  C   UNL     1      -2.126  10.115  47.344  1.00  0.00     0.039 C 
ATOM      8  C   UNL     1      -1.330  11.066  46.488  1.00  0.00    -0.080 C 
ATOM      9  C   UNL     1       0.123  10.771  46.200  1.00  0.00     0.039 C 
ENDBRANCH   5   6
ENDBRANCH   4   5
ENDBRANCH   1   4
BRANCH   2  10
ATOM     10  C   UNL     1       2.581  14.249  46.632  1.00  0.00     0.035 C 
BRANCH  10  11
ATOM     11  C   UNL     1       3.157  12.873  47.001  1.00  0.00     0.079 C 
BRANCH  11  12
ATOM     12  C   UNL     1       4.560  12.913  47.562  1.00  0.00     0.130 C 
ATOM     13  O   UNL     1       4.826  12.187  48.509  1.00  0.00    -0.300 OA
ATOM     14  C   UNL     1       5.640  13.800  47.006  1.00  0.00     0.087 C 
ENDBRANCH  11  12
ENDBRANCH  10  11
ENDBRANCH   2  10
TORSDOF 6
ENDMDL
MODEL 8
REMARK VINA RESULT:    -5.729      2.629      5.485
REMARK INTER + INTRA:          -8.567
REMARK INTER:                  -7.783
REMARK INTRA:                  -0.784
REMARK UNBOUND:                -0.828
REMARK SMILES CC(=O)CCC=C(C)CCC=C(C)C
REMARK SMILES IDX 7 1 6 2 8 3 9 4 10 5 11 6 13 7 12 8 14 9 5 10 4 11 2 12 3 13
REMARK SMILES IDX 1 14
REMARK H PARENT
REMARK Flexibility Score: inf
ROOT
ATOM      1  C   UNL     1      -1.245  11.154  46.342  1.00  0.00    -0.077 C 
ATOM      2  C   UNL     1       0.022  11.277  45.883  1.00  0.00    -0.028 C 
ATOM      3  C   UNL     1      -1.637  10.080  47.330  1.00  0.00     0.039 C 
ENDROOT
BRANCH   1   4
ATOM      4  C   UNL     1      -2.307  12.109  45.834  1.00  0.00     0.034 C 
BRANCH   4   5
ATOM      5  C   UNL     1      -1.695  13.317  45.112  1.00  0.00     0.032 C 
BRANCH   5   6
ATOM      6  C   UNL     1      -1.367  14.436  46.073  1.00  0.00    -0.028 C 
ATOM      7  C   UNL     1       0.050  16.003  47.326  1.00  0.00     0.039 C 
ATOM      8  C   UNL     1      -0.124  14.917  46.297  1.00  0.00    -0.080 C 
ATOM      9  C   UNL     1       1.079  14.411  45.536  1.00  0.00     0.039 C 
ENDBRANCH   5   6
ENDBRANCH   4   5
ENDBRANCH   1   4
BRANCH   2  10
ATOM     10  C   UNL     1       1.178  10.416  46.328  1.00  0.00     0.035 C 
BRANCH  10  11
ATOM     11  C   UNL     1       2.070  11.176  47.321  1.00  0.00     0.079 C 
BRANCH  11  12
ATOM     12  C   UNL     1       3.488  11.395  46.846  1.00  0.00     0.130 C 
ATOM     13  O   UNL     1       3.954  10.613  46.031  1.00  0.00    -0.300 OA
ATOM     14  C   UNL     1       4.348  12.531  47.329  1.00  0.00     0.087 C 
ENDBRANCH  11  12
ENDBRANCH  10  11
ENDBRANCH   2  10
TORSDOF 6
ENDMDL
MODEL 9
REMARK VINA RESULT:    -5.566      2.681      6.246
REMARK INTER + INTRA:          -8.347
REMARK INTER:                  -7.557
REMARK INTRA:                  -0.789
REMARK UNBOUND:                -0.828
REMARK SMILES CC(=O)CCC=C(C)CCC=C(C)C
REMARK SMILES IDX 7 1 6 2 8 3 9 4 10 5 11 6 13 7 12 8 14 9 5 10 4 11 2 12 3 13
REMARK SMILES IDX 1 14
REMARK H PARENT
REMARK Flexibility Score: inf
ROOT
ATOM      1  C   UNL     1       0.618  12.586  45.883  1.00  0.00    -0.077 C 
ATOM      2  C   UNL     1       1.254  11.451  46.253  1.00  0.00    -0.028 C 
ATOM      3  C   UNL     1       1.374  13.851  45.545  1.00  0.00     0.039 C 
ENDROOT
BRANCH   1   4
ATOM      4  C   UNL     1      -0.896  12.597  45.825  1.00  0.00     0.034 C 
BRANCH   4   5
ATOM      5  C   UNL     1      -1.426  13.667  44.861  1.00  0.00     0.032 C 
BRANCH   5   6
ATOM      6  C   UNL     1      -2.317  14.663  45.566  1.00  0.00    -0.028 C 
ATOM      7  C   UNL     1      -3.041  16.852  46.412  1.00  0.00     0.039 C 
ATOM      8  C   UNL     1      -2.086  15.992  45.626  1.00  0.00    -0.080 C 
ATOM      9  C   UNL     1      -0.917  16.635  44.917  1.00  0.00     0.039 C 
ENDBRANCH   5   6
ENDBRANCH   4   5
ENDBRANCH   1   4
BRANCH   2  10
ATOM     10  C   UNL     1       2.753  11.294  46.321  1.00  0.00     0.035 C 
BRANCH  10  11
ATOM     11  C   UNL     1       3.229  11.263  47.781  1.00  0.00     0.079 C 
BRANCH  11  12
ATOM     12  C   UNL     1       4.356  12.222  48.091  1.00  0.00     0.130 C 
ATOM     13  O   UNL     1       5.016  12.033  49.102  1.00  0.00    -0.300 OA
ATOM     14  C   UNL     1       4.703  13.392  47.212  1.00  0.00     0.087 C 
ENDBRANCH  11  12
ENDBRANCH  10  11
ENDBRANCH   2  10
TORSDOF 6
ENDMDL
