MODEL 1
REMARK VINA RESULT:    -8.181      0.000      0.000
REMARK INTER + INTRA:          -9.615
REMARK INTER:                  -9.616
REMARK INTRA:                   0.001
REMARK UNBOUND:                 0.001
REMARK SMILES O=c1c(O)c(-c2ccc(O)cc2)oc2cc(O)cc(O)c12
REMARK SMILES IDX 5 1 3 2 2 3 1 4 21 5 19 6 18 7 16 8 15 9 14 10 13 11 6 12
REMARK SMILES IDX 7 13 8 14 9 15 12 16 11 17 10 18 4 20 20 22 17 24
REMARK H PARENT 10 19 4 21 20 23 17 25
REMARK Flexibility Score: inf
ROOT
ATOM      1  C   UNL     1       5.210 -55.981 -28.369  1.00  0.00     0.180 A 
ATOM      2  C   UNL     1       4.726 -55.954 -29.688  1.00  0.00     0.208 A 
ATOM      3  C   UNL     1       5.631 -55.747 -30.742  1.00  0.00     0.238 A 
ATOM      4  O   UNL     1       5.200 -55.778 -31.923  1.00  0.00    -0.285 OA
ATOM      5  C   UNL     1       7.006 -55.554 -30.461  1.00  0.00     0.111 A 
ATOM      6  C   UNL     1       8.005 -55.297 -31.447  1.00  0.00     0.134 A 
ATOM      7  C   UNL     1       9.352 -55.252 -31.069  1.00  0.00     0.093 A 
ATOM      8  C   UNL     1       9.730 -55.390 -29.731  1.00  0.00     0.123 A 
ATOM      9  C   UNL     1       8.757 -55.582 -28.754  1.00  0.00     0.094 A 
ATOM     10  C   UNL     1       7.407 -55.668 -29.105  1.00  0.00     0.146 A 
ATOM     11  O   UNL     1       6.514 -55.863 -28.143  1.00  0.00    -0.452 OA
ENDROOT
BRANCH   1  12
ATOM     12  C   UNL     1       4.314 -56.169 -27.205  1.00  0.00     0.021 A 
ATOM     13  C   UNL     1       3.156 -55.387 -27.037  1.00  0.00     0.016 A 
ATOM     14  C   UNL     1       2.339 -55.567 -25.916  1.00  0.00     0.047 A 
ATOM     15  C   UNL     1       2.675 -56.518 -24.945  1.00  0.00     0.115 A 
ATOM     16  C   UNL     1       4.654 -57.107 -26.214  1.00  0.00     0.016 A 
ATOM     17  C   UNL     1       3.834 -57.284 -25.096  1.00  0.00     0.047 A 
BRANCH  15  18
ATOM     18  O   UNL     1       1.866 -56.706 -23.825  1.00  0.00    -0.508 OA
ATOM     19  H   UNL     1       2.165 -56.415 -22.902  1.00  0.00     0.293 HD
ENDBRANCH  15  18
ENDBRANCH   1  12
BRANCH   2  20
ATOM     20  O   UNL     1       3.369 -56.169 -29.944  1.00  0.00    -0.502 OA
ATOM     21  H   UNL     1       2.943 -57.085 -29.882  1.00  0.00     0.293 HD
ENDBRANCH   2  20
BRANCH   6  22
ATOM     22  O   UNL     1       7.727 -55.052 -32.795  1.00  0.00    -0.507 OA
ATOM     23  H   UNL     1       7.280 -54.218 -33.148  1.00  0.00     0.293 HD
ENDBRANCH   6  22
BRANCH   8  24
ATOM     24  O   UNL     1      11.073 -55.328 -29.362  1.00  0.00    -0.508 OA
ATOM     25  H   UNL     1      11.363 -54.901 -28.491  1.00  0.00     0.293 HD
ENDBRANCH   8  24
TORSDOF 5
ENDMDL
MODEL 2
REMARK VINA RESULT:    -7.863      2.371      6.603
REMARK INTER + INTRA:          -9.241
REMARK INTER:                  -8.982
REMARK INTRA:                  -0.259
REMARK UNBOUND:                 0.001
REMARK SMILES O=c1c(O)c(-c2ccc(O)cc2)oc2cc(O)cc(O)c12
REMARK SMILES IDX 5 1 3 2 2 3 1 4 21 5 19 6 18 7 16 8 15 9 14 10 13 11 6 12
REMARK SMILES IDX 7 13 8 14 9 15 12 16 11 17 10 18 4 20 20 22 17 24
REMARK H PARENT 10 19 4 21 20 23 17 25
REMARK Flexibility Score: inf
ROOT
ATOM      1  C   UNL     1       7.301 -56.292 -28.647  1.00  0.00     0.180 A 
ATOM      2  C   UNL     1       5.912 -56.083 -28.581  1.00  0.00     0.208 A 
ATOM      3  C   UNL     1       5.200 -56.582 -27.478  1.00  0.00     0.238 A 
ATOM      4  O   UNL     1       3.967 -56.345 -27.398  1.00  0.00    -0.285 OA
ATOM      5  C   UNL     1       5.882 -57.297 -26.464  1.00  0.00     0.111 A 
ATOM      6  C   UNL     1       5.255 -57.881 -25.323  1.00  0.00     0.134 A 
ATOM      7  C   UNL     1       6.046 -58.453 -24.319  1.00  0.00     0.093 A 
ATOM      8  C   UNL     1       7.435 -58.520 -24.445  1.00  0.00     0.123 A 
ATOM      9  C   UNL     1       8.051 -58.005 -25.583  1.00  0.00     0.094 A 
ATOM     10  C   UNL     1       7.293 -57.395 -26.586  1.00  0.00     0.146 A 
ATOM     11  O   UNL     1       7.922 -56.909 -27.648  1.00  0.00    -0.452 OA
ENDROOT
BRANCH   1  12
ATOM     12  C   UNL     1       8.115 -55.818 -29.790  1.00  0.00     0.021 A 
ATOM     13  C   UNL     1       8.120 -56.501 -31.020  1.00  0.00     0.016 A 
ATOM     14  C   UNL     1       8.916 -56.048 -32.076  1.00  0.00     0.047 A 
ATOM     15  C   UNL     1       9.726 -54.917 -31.913  1.00  0.00     0.115 A 
ATOM     16  C   UNL     1       8.946 -54.696 -29.628  1.00  0.00     0.016 A 
ATOM     17  C   UNL     1       9.740 -54.245 -30.687  1.00  0.00     0.047 A 
BRANCH  15  18
ATOM     18  O   UNL     1      10.522 -54.456 -32.960  1.00  0.00    -0.508 OA
ATOM     19  H   UNL     1      11.220 -55.048 -33.394  1.00  0.00     0.293 HD
ENDBRANCH  15  18
ENDBRANCH   1  12
BRANCH   2  20
ATOM     20  O   UNL     1       5.262 -55.355 -29.582  1.00  0.00    -0.502 OA
ATOM     21  H   UNL     1       4.297 -55.060 -29.499  1.00  0.00     0.293 HD
ENDBRANCH   2  20
BRANCH   6  22
ATOM     22  O   UNL     1       3.871 -57.951 -25.143  1.00  0.00    -0.507 OA
ATOM     23  H   UNL     1       3.396 -57.792 -24.267  1.00  0.00     0.293 HD
ENDBRANCH   6  22
BRANCH   8  24
ATOM     24  O   UNL     1       8.212 -59.105 -23.447  1.00  0.00    -0.508 OA
ATOM     25  H   UNL     1       9.167 -59.396 -23.621  1.00  0.00     0.293 HD
ENDBRANCH   8  24
TORSDOF 5
ENDMDL
MODEL 3
REMARK VINA RESULT:    -7.793      1.717      7.246
REMARK INTER + INTRA:          -9.159
REMARK INTER:                  -9.212
REMARK INTRA:                   0.054
REMARK UNBOUND:                 0.001
REMARK SMILES O=c1c(O)c(-c2ccc(O)cc2)oc2cc(O)cc(O)c12
REMARK SMILES IDX 5 1 3 2 2 3 1 4 21 5 19 6 18 7 16 8 15 9 14 10 13 11 6 12
REMARK SMILES IDX 7 13 8 14 9 15 12 16 11 17 10 18 4 20 20 22 17 24
REMARK H PARENT 10 19 4 21 20 23 17 25
REMARK Flexibility Score: inf
ROOT
ATOM      1  C   UNL     1       4.906 -56.068 -27.632  1.00  0.00     0.180 A 
ATOM      2  C   UNL     1       4.947 -57.078 -26.655  1.00  0.00     0.208 A 
ATOM      3  C   UNL     1       3.979 -57.082 -25.638  1.00  0.00     0.238 A 
ATOM      4  O   UNL     1       3.988 -58.019 -24.799  1.00  0.00    -0.285 OA
ATOM      5  C   UNL     1       2.994 -56.065 -25.600  1.00  0.00     0.111 A 
ATOM      6  C   UNL     1       1.990 -55.948 -24.593  1.00  0.00     0.134 A 
ATOM      7  C   UNL     1       0.988 -54.980 -24.727  1.00  0.00     0.093 A 
ATOM      8  C   UNL     1       0.991 -54.083 -25.798  1.00  0.00     0.123 A 
ATOM      9  C   UNL     1       2.000 -54.152 -26.755  1.00  0.00     0.094 A 
ATOM     10  C   UNL     1       2.994 -55.131 -26.668  1.00  0.00     0.146 A 
ATOM     11  O   UNL     1       3.931 -55.167 -27.607  1.00  0.00    -0.452 OA
ENDROOT
BRANCH   1  12
ATOM     12  C   UNL     1       5.907 -55.984 -28.721  1.00  0.00     0.021 A 
ATOM     13  C   UNL     1       7.284 -56.109 -28.462  1.00  0.00     0.016 A 
ATOM     14  C   UNL     1       8.211 -56.001 -29.504  1.00  0.00     0.047 A 
ATOM     15  C   UNL     1       7.775 -55.755 -30.812  1.00  0.00     0.115 A 
ATOM     16  C   UNL     1       5.480 -55.716 -30.033  1.00  0.00     0.016 A 
ATOM     17  C   UNL     1       6.409 -55.610 -31.072  1.00  0.00     0.047 A 
BRANCH  15  18
ATOM     18  O   UNL     1       8.691 -55.647 -31.857  1.00  0.00    -0.508 OA
ATOM     19  H   UNL     1       9.679 -55.816 -31.714  1.00  0.00     0.293 HD
ENDBRANCH  15  18
ENDBRANCH   1  12
BRANCH   2  20
ATOM     20  O   UNL     1       5.915 -58.084 -26.725  1.00  0.00    -0.502 OA
ATOM     21  H   UNL     1       5.967 -58.736 -27.498  1.00  0.00     0.293 HD
ENDBRANCH   2  20
BRANCH   6  22
ATOM     22  O   UNL     1       1.950 -56.732 -23.436  1.00  0.00    -0.507 OA
ATOM     23  H   UNL     1       1.378 -57.555 -23.319  1.00  0.00     0.293 HD
ENDBRANCH   6  22
BRANCH   8  24
ATOM     24  O   UNL     1      -0.003 -53.112 -25.915  1.00  0.00    -0.508 OA
ATOM     25  H   UNL     1       0.147 -52.161 -25.603  1.00  0.00     0.293 HD
ENDBRANCH   8  24
TORSDOF 5
ENDMDL
MODEL 4
REMARK VINA RESULT:    -7.560      1.703      6.497
REMARK INTER + INTRA:          -8.885
REMARK INTER:                  -9.391
REMARK INTRA:                   0.506
REMARK UNBOUND:                 0.001
REMARK SMILES O=c1c(O)c(-c2ccc(O)cc2)oc2cc(O)cc(O)c12
REMARK SMILES IDX 5 1 3 2 2 3 1 4 21 5 19 6 18 7 16 8 15 9 14 10 13 11 6 12
REMARK SMILES IDX 7 13 8 14 9 15 12 16 11 17 10 18 4 20 20 22 17 24
REMARK H PARENT 10 19 4 21 20 23 17 25
REMARK Flexibility Score: inf
ROOT
ATOM      1  C   UNL     1       5.607 -55.949 -28.927  1.00  0.00     0.180 A 
ATOM      2  C   UNL     1       4.330 -55.394 -28.732  1.00  0.00     0.208 A 
ATOM      3  C   UNL     1       3.636 -55.681 -27.546  1.00  0.00     0.238 A 
ATOM      4  O   UNL     1       2.518 -55.137 -27.353  1.00  0.00    -0.285 OA
ATOM      5  C   UNL     1       4.220 -56.533 -26.577  1.00  0.00     0.111 A 
ATOM      6  C   UNL     1       3.590 -56.924 -25.358  1.00  0.00     0.134 A 
ATOM      7  C   UNL     1       4.313 -57.666 -24.415  1.00  0.00     0.093 A 
ATOM      8  C   UNL     1       5.619 -58.086 -24.677  1.00  0.00     0.123 A 
ATOM      9  C   UNL     1       6.221 -57.759 -25.888  1.00  0.00     0.094 A 
ATOM     10  C   UNL     1       5.539 -56.989 -26.834  1.00  0.00     0.146 A 
ATOM     11  O   UNL     1       6.154 -56.691 -27.972  1.00  0.00    -0.452 OA
ENDROOT
BRANCH   1  12
ATOM     12  C   UNL     1       6.388 -55.712 -30.163  1.00  0.00     0.021 A 
ATOM     13  C   UNL     1       7.775 -55.946 -30.210  1.00  0.00     0.016 A 
ATOM     14  C   UNL     1       8.495 -55.692 -31.381  1.00  0.00     0.047 A 
ATOM     15  C   UNL     1       7.843 -55.188 -32.514  1.00  0.00     0.115 A 
ATOM     16  C   UNL     1       5.746 -55.186 -31.297  1.00  0.00     0.016 A 
ATOM     17  C   UNL     1       6.468 -54.934 -32.467  1.00  0.00     0.047 A 
BRANCH  15  18
ATOM     18  O   UNL     1       8.551 -54.931 -33.686  1.00  0.00    -0.508 OA
ATOM     19  H   UNL     1       9.370 -54.336 -33.690  1.00  0.00     0.293 HD
ENDBRANCH  15  18
ENDBRANCH   1  12
BRANCH   2  20
ATOM     20  O   UNL     1       3.782 -54.536 -29.691  1.00  0.00    -0.502 OA
ATOM     21  H   UNL     1       4.335 -53.840 -30.177  1.00  0.00     0.293 HD
ENDBRANCH   2  20
BRANCH   6  22
ATOM     22  O   UNL     1       2.260 -56.637 -25.040  1.00  0.00    -0.507 OA
ATOM     23  H   UNL     1       1.492 -57.285 -25.140  1.00  0.00     0.293 HD
ENDBRANCH   6  22
BRANCH   8  24
ATOM     24  O   UNL     1       6.325 -58.837 -23.738  1.00  0.00    -0.508 OA
ATOM     25  H   UNL     1       5.897 -59.139 -22.872  1.00  0.00     0.293 HD
ENDBRANCH   8  24
TORSDOF 5
ENDMDL
MODEL 5
REMARK VINA RESULT:    -7.473      1.680      7.122
REMARK INTER + INTRA:          -8.783
REMARK INTER:                  -8.983
REMARK INTRA:                   0.200
REMARK UNBOUND:                 0.001
REMARK SMILES O=c1c(O)c(-c2ccc(O)cc2)oc2cc(O)cc(O)c12
REMARK SMILES IDX 5 1 3 2 2 3 1 4 21 5 19 6 18 7 16 8 15 9 14 10 13 11 6 12
REMARK SMILES IDX 7 13 8 14 9 15 12 16 11 17 10 18 4 20 20 22 17 24
REMARK H PARENT 10 19 4 21 20 23 17 25
REMARK Flexibility Score: inf
ROOT
ATOM      1  C   UNL     1       5.529 -55.856 -28.472  1.00  0.00     0.180 A 
ATOM      2  C   UNL     1       6.012 -56.677 -27.438  1.00  0.00     0.208 A 
ATOM      3  C   UNL     1       5.206 -56.893 -26.308  1.00  0.00     0.238 A 
ATOM      4  O   UNL     1       5.620 -57.672 -25.411  1.00  0.00    -0.285 OA
ATOM      5  C   UNL     1       3.936 -56.273 -26.220  1.00  0.00     0.111 A 
ATOM      6  C   UNL     1       3.054 -56.390 -25.105  1.00  0.00     0.134 A 
ATOM      7  C   UNL     1       1.768 -55.840 -25.181  1.00  0.00     0.093 A 
ATOM      8  C   UNL     1       1.358 -55.122 -26.306  1.00  0.00     0.123 A 
ATOM      9  C   UNL     1       2.233 -54.952 -27.376  1.00  0.00     0.094 A 
ATOM     10  C   UNL     1       3.509 -55.520 -27.344  1.00  0.00     0.146 A 
ATOM     11  O   UNL     1       4.308 -55.342 -28.389  1.00  0.00    -0.452 OA
ENDROOT
BRANCH   1  12
ATOM     12  C   UNL     1       6.331 -55.561 -29.682  1.00  0.00     0.021 A 
ATOM     13  C   UNL     1       7.728 -55.400 -29.616  1.00  0.00     0.016 A 
ATOM     14  C   UNL     1       8.459 -55.097 -30.768  1.00  0.00     0.047 A 
ATOM     15  C   UNL     1       7.805 -54.939 -31.997  1.00  0.00     0.115 A 
ATOM     16  C   UNL     1       5.681 -55.380 -30.915  1.00  0.00     0.016 A 
ATOM     17  C   UNL     1       6.416 -55.078 -32.066  1.00  0.00     0.047 A 
BRANCH  15  18
ATOM     18  O   UNL     1       8.525 -54.639 -33.151  1.00  0.00    -0.508 OA
ATOM     19  H   UNL     1       9.140 -55.318 -33.583  1.00  0.00     0.293 HD
ENDBRANCH  15  18
ENDBRANCH   1  12
BRANCH   2  20
ATOM     20  O   UNL     1       7.259 -57.297 -27.556  1.00  0.00    -0.502 OA
ATOM     21  H   UNL     1       8.130 -56.793 -27.437  1.00  0.00     0.293 HD
ENDBRANCH   2  20
BRANCH   6  22
ATOM     22  O   UNL     1       3.398 -57.007 -23.898  1.00  0.00    -0.507 OA
ATOM     23  H   UNL     1       2.949 -56.827 -23.012  1.00  0.00     0.293 HD
ENDBRANCH   6  22
BRANCH   8  24
ATOM     24  O   UNL     1       0.082 -54.564 -26.367  1.00  0.00    -0.508 OA
ATOM     25  H   UNL     1      -0.680 -55.035 -26.840  1.00  0.00     0.293 HD
ENDBRANCH   8  24
TORSDOF 5
ENDMDL
MODEL 6
REMARK VINA RESULT:    -7.472      1.695      7.064
REMARK INTER + INTRA:          -8.781
REMARK INTER:                  -8.681
REMARK INTRA:                  -0.100
REMARK UNBOUND:                 0.001
REMARK SMILES O=c1c(O)c(-c2ccc(O)cc2)oc2cc(O)cc(O)c12
REMARK SMILES IDX 5 1 3 2 2 3 1 4 21 5 19 6 18 7 16 8 15 9 14 10 13 11 6 12
REMARK SMILES IDX 7 13 8 14 9 15 12 16 11 17 10 18 4 20 20 22 17 24
REMARK H PARENT 10 19 4 21 20 23 17 25
REMARK Flexibility Score: inf
ROOT
ATOM      1  C   UNL     1       6.376 -56.316 -27.889  1.00  0.00     0.180 A 
ATOM      2  C   UNL     1       6.540 -57.247 -26.849  1.00  0.00     0.208 A 
ATOM      3  C   UNL     1       5.505 -57.415 -25.915  1.00  0.00     0.238 A 
ATOM      4  O   UNL     1       5.636 -58.288 -25.019  1.00  0.00    -0.285 OA
ATOM      5  C   UNL     1       4.326 -56.638 -26.024  1.00  0.00     0.111 A 
ATOM      6  C   UNL     1       3.231 -56.696 -25.110  1.00  0.00     0.134 A 
ATOM      7  C   UNL     1       2.062 -55.977 -25.388  1.00  0.00     0.093 A 
ATOM      8  C   UNL     1       1.974 -55.152 -26.511  1.00  0.00     0.123 A 
ATOM      9  C   UNL     1       3.059 -55.042 -27.377  1.00  0.00     0.094 A 
ATOM     10  C   UNL     1       4.226 -55.776 -27.146  1.00  0.00     0.146 A 
ATOM     11  O   UNL     1       5.233 -55.650 -28.002  1.00  0.00    -0.452 OA
ENDROOT
BRANCH   1  12
ATOM     12  C   UNL     1       7.433 -56.066 -28.896  1.00  0.00     0.021 A 
ATOM     13  C   UNL     1       7.234 -56.363 -30.258  1.00  0.00     0.016 A 
ATOM     14  C   UNL     1       8.256 -56.141 -31.186  1.00  0.00     0.047 A 
ATOM     15  C   UNL     1       9.492 -55.633 -30.765  1.00  0.00     0.115 A 
ATOM     16  C   UNL     1       8.683 -55.576 -28.480  1.00  0.00     0.016 A 
ATOM     17  C   UNL     1       9.702 -55.354 -29.411  1.00  0.00     0.047 A 
BRANCH  15  18
ATOM     18  O   UNL     1      10.516 -55.407 -31.681  1.00  0.00    -0.508 OA
ATOM     19  H   UNL     1      11.191 -56.127 -31.910  1.00  0.00     0.293 HD
ENDBRANCH  15  18
ENDBRANCH   1  12
BRANCH   2  20
ATOM     20  O   UNL     1       7.703 -58.020 -26.774  1.00  0.00    -0.502 OA
ATOM     21  H   UNL     1       8.629 -57.611 -26.792  1.00  0.00     0.293 HD
ENDBRANCH   2  20
BRANCH   6  22
ATOM     22  O   UNL     1       3.251 -57.416 -23.912  1.00  0.00    -0.507 OA
ATOM     23  H   UNL     1       3.062 -57.022 -23.002  1.00  0.00     0.293 HD
ENDBRANCH   6  22
BRANCH   8  24
ATOM     24  O   UNL     1       0.811 -54.428 -26.772  1.00  0.00    -0.508 OA
ATOM     25  H   UNL     1       0.575 -54.124 -27.708  1.00  0.00     0.293 HD
ENDBRANCH   8  24
TORSDOF 5
ENDMDL
MODEL 7
REMARK VINA RESULT:    -7.063      3.989      8.026
REMARK INTER + INTRA:          -8.300
REMARK INTER:                  -8.006
REMARK INTRA:                  -0.294
REMARK UNBOUND:                 0.001
REMARK SMILES O=c1c(O)c(-c2ccc(O)cc2)oc2cc(O)cc(O)c12
REMARK SMILES IDX 5 1 3 2 2 3 1 4 21 5 19 6 18 7 16 8 15 9 14 10 13 11 6 12
REMARK SMILES IDX 7 13 8 14 9 15 12 16 11 17 10 18 4 20 20 22 17 24
REMARK H PARENT 10 19 4 21 20 23 17 25
REMARK Flexibility Score: inf
ROOT
ATOM      1  C   UNL     1       2.620 -54.180 -25.349  1.00  0.00     0.180 A 
ATOM      2  C   UNL     1       1.486 -54.506 -24.585  1.00  0.00     0.208 A 
ATOM      3  C   UNL     1       1.009 -53.580 -23.644  1.00  0.00     0.238 A 
ATOM      4  O   UNL     1      -0.038 -53.855 -23.002  1.00  0.00    -0.285 OA
ATOM      5  C   UNL     1       1.682 -52.346 -23.467  1.00  0.00     0.111 A 
ATOM      6  C   UNL     1       1.310 -51.351 -22.514  1.00  0.00     0.134 A 
ATOM      7  C   UNL     1       1.968 -50.115 -22.515  1.00  0.00     0.093 A 
ATOM      8  C   UNL     1       3.026 -49.863 -23.392  1.00  0.00     0.123 A 
ATOM      9  C   UNL     1       3.434 -50.849 -24.285  1.00  0.00     0.094 A 
ATOM     10  C   UNL     1       2.774 -52.080 -24.333  1.00  0.00     0.146 A 
ATOM     11  O   UNL     1       3.189 -52.989 -25.207  1.00  0.00    -0.452 OA
ENDROOT
BRANCH   1  12
ATOM     12  C   UNL     1       3.195 -55.115 -26.343  1.00  0.00     0.021 A 
ATOM     13  C   UNL     1       4.111 -56.115 -25.965  1.00  0.00     0.016 A 
ATOM     14  C   UNL     1       4.659 -56.970 -26.926  1.00  0.00     0.047 A 
ATOM     15  C   UNL     1       4.312 -56.828 -28.275  1.00  0.00     0.115 A 
ATOM     16  C   UNL     1       2.869 -54.967 -27.702  1.00  0.00     0.016 A 
ATOM     17  C   UNL     1       3.418 -55.824 -28.660  1.00  0.00     0.047 A 
BRANCH  15  18
ATOM     18  O   UNL     1       4.852 -57.676 -29.240  1.00  0.00    -0.508 OA
ATOM     19  H   UNL     1       4.443 -57.755 -30.164  1.00  0.00     0.293 HD
ENDBRANCH  15  18
ENDBRANCH   1  12
BRANCH   2  20
ATOM     20  O   UNL     1       0.824 -55.720 -24.792  1.00  0.00    -0.502 OA
ATOM     21  H   UNL     1      -0.046 -55.784 -25.306  1.00  0.00     0.293 HD
ENDBRANCH   2  20
BRANCH   6  22
ATOM     22  O   UNL     1       0.330 -51.535 -21.534  1.00  0.00    -0.507 OA
ATOM     23  H   UNL     1       0.201 -50.938 -20.731  1.00  0.00     0.293 HD
ENDBRANCH   6  22
BRANCH   8  24
ATOM     24  O   UNL     1       3.684 -48.634 -23.376  1.00  0.00    -0.508 OA
ATOM     25  H   UNL     1       3.174 -47.759 -23.383  1.00  0.00     0.293 HD
ENDBRANCH   8  24
TORSDOF 5
ENDMDL
MODEL 8
REMARK VINA RESULT:    -6.877      3.088      5.483
REMARK INTER + INTRA:          -8.081
REMARK INTER:                  -7.799
REMARK INTRA:                  -0.282
REMARK UNBOUND:                 0.001
REMARK SMILES O=c1c(O)c(-c2ccc(O)cc2)oc2cc(O)cc(O)c12
REMARK SMILES IDX 5 1 3 2 2 3 1 4 21 5 19 6 18 7 16 8 15 9 14 10 13 11 6 12
REMARK SMILES IDX 7 13 8 14 9 15 12 16 11 17 10 18 4 20 20 22 17 24
REMARK H PARENT 10 19 4 21 20 23 17 25
REMARK Flexibility Score: inf
ROOT
ATOM      1  C   UNL     1       3.014 -54.512 -25.238  1.00  0.00     0.180 A 
ATOM      2  C   UNL     1       3.448 -55.744 -24.719  1.00  0.00     0.208 A 
ATOM      3  C   UNL     1       3.977 -56.705 -25.597  1.00  0.00     0.238 A 
ATOM      4  O   UNL     1       4.413 -57.784 -25.119  1.00  0.00    -0.285 OA
ATOM      5  C   UNL     1       4.049 -56.428 -26.983  1.00  0.00     0.111 A 
ATOM      6  C   UNL     1       4.528 -57.342 -27.968  1.00  0.00     0.134 A 
ATOM      7  C   UNL     1       4.676 -56.915 -29.293  1.00  0.00     0.093 A 
ATOM      8  C   UNL     1       4.301 -55.626 -29.681  1.00  0.00     0.123 A 
ATOM      9  C   UNL     1       3.777 -54.746 -28.738  1.00  0.00     0.094 A 
ATOM     10  C   UNL     1       3.651 -55.131 -27.401  1.00  0.00     0.146 A 
ATOM     11  O   UNL     1       3.156 -54.257 -26.533  1.00  0.00    -0.452 OA
ENDROOT
BRANCH   1  12
ATOM     12  C   UNL     1       2.423 -53.460 -24.379  1.00  0.00     0.021 A 
ATOM     13  C   UNL     1       1.072 -53.506 -23.987  1.00  0.00     0.016 A 
ATOM     14  C   UNL     1       0.531 -52.488 -23.196  1.00  0.00     0.047 A 
ATOM     15  C   UNL     1       1.328 -51.406 -22.798  1.00  0.00     0.115 A 
ATOM     16  C   UNL     1       3.209 -52.361 -23.992  1.00  0.00     0.016 A 
ATOM     17  C   UNL     1       2.665 -51.345 -23.200  1.00  0.00     0.047 A 
BRANCH  15  18
ATOM     18  O   UNL     1       0.799 -50.387 -22.009  1.00  0.00    -0.508 OA
ATOM     19  H   UNL     1       0.608 -50.525 -21.024  1.00  0.00     0.293 HD
ENDBRANCH  15  18
ENDBRANCH   1  12
BRANCH   2  20
ATOM     20  O   UNL     1       3.388 -55.988 -23.344  1.00  0.00    -0.502 OA
ATOM     21  H   UNL     1       3.979 -55.503 -22.679  1.00  0.00     0.293 HD
ENDBRANCH   2  20
BRANCH   6  22
ATOM     22  O   UNL     1       4.843 -58.679 -27.705  1.00  0.00    -0.507 OA
ATOM     23  H   UNL     1       4.231 -59.332 -27.237  1.00  0.00     0.293 HD
ENDBRANCH   6  22
BRANCH   8  24
ATOM     24  O   UNL     1       4.438 -55.214 -31.005  1.00  0.00    -0.508 OA
ATOM     25  H   UNL     1       4.584 -55.880 -31.754  1.00  0.00     0.293 HD
ENDBRANCH   8  24
TORSDOF 5
ENDMDL
MODEL 9
REMARK VINA RESULT:    -6.704      3.250      8.554
REMARK INTER + INTRA:          -7.879
REMARK INTER:                  -7.630
REMARK INTRA:                  -0.249
REMARK UNBOUND:                 0.001
REMARK SMILES O=c1c(O)c(-c2ccc(O)cc2)oc2cc(O)cc(O)c12
REMARK SMILES IDX 5 1 3 2 2 3 1 4 21 5 19 6 18 7 16 8 15 9 14 10 13 11 6 12
REMARK SMILES IDX 7 13 8 14 9 15 12 16 11 17 10 18 4 20 20 22 17 24
REMARK H PARENT 10 19 4 21 20 23 17 25
REMARK Flexibility Score: inf
ROOT
ATOM      1  C   UNL     1       2.270 -54.738 -26.134  1.00  0.00     0.180 A 
ATOM      2  C   UNL     1       2.470 -53.629 -25.293  1.00  0.00     0.208 A 
ATOM      3  C   UNL     1       1.404 -53.176 -24.498  1.00  0.00     0.238 A 
ATOM      4  O   UNL     1       1.605 -52.218 -23.708  1.00  0.00    -0.285 OA
ATOM      5  C   UNL     1       0.149 -53.827 -24.567  1.00  0.00     0.111 A 
ATOM      6  C   UNL     1      -1.011 -53.428 -23.837  1.00  0.00     0.134 A 
ATOM      7  C   UNL     1      -2.163 -54.223 -23.883  1.00  0.00     0.093 A 
ATOM      8  C   UNL     1      -2.217 -55.367 -24.684  1.00  0.00     0.123 A 
ATOM      9  C   UNL     1      -1.111 -55.731 -25.446  1.00  0.00     0.094 A 
ATOM     10  C   UNL     1       0.066 -54.978 -25.393  1.00  0.00     0.146 A 
ATOM     11  O   UNL     1       1.101 -55.367 -26.127  1.00  0.00    -0.452 OA
ENDROOT
BRANCH   1  12
ATOM     12  C   UNL     1       3.338 -55.257 -27.019  1.00  0.00     0.021 A 
ATOM     13  C   UNL     1       3.339 -54.992 -28.401  1.00  0.00     0.016 A 
ATOM     14  C   UNL     1       4.345 -55.514 -29.220  1.00  0.00     0.047 A 
ATOM     15  C   UNL     1       5.353 -56.318 -28.672  1.00  0.00     0.115 A 
ATOM     16  C   UNL     1       4.341 -56.082 -26.482  1.00  0.00     0.016 A 
ATOM     17  C   UNL     1       5.346 -56.601 -27.303  1.00  0.00     0.047 A 
BRANCH  15  18
ATOM     18  O   UNL     1       6.361 -56.842 -29.479  1.00  0.00    -0.508 OA
ATOM     19  H   UNL     1       6.770 -56.302 -30.232  1.00  0.00     0.293 HD
ENDBRANCH  15  18
ENDBRANCH   1  12
BRANCH   2  20
ATOM     20  O   UNL     1       3.724 -53.016 -25.224  1.00  0.00    -0.502 OA
ATOM     21  H   UNL     1       3.870 -52.046 -25.478  1.00  0.00     0.293 HD
ENDBRANCH   2  20
BRANCH   6  22
ATOM     22  O   UNL     1      -1.092 -52.255 -23.081  1.00  0.00    -0.507 OA
ATOM     23  H   UNL     1      -1.424 -51.368 -23.430  1.00  0.00     0.293 HD
ENDBRANCH   6  22
BRANCH   8  24
ATOM     24  O   UNL     1      -3.373 -56.144 -24.735  1.00  0.00    -0.508 OA
ATOM     25  H   UNL     1      -3.738 -56.493 -25.613  1.00  0.00     0.293 HD
ENDBRANCH   8  24
TORSDOF 5
ENDMDL
