MODEL 1
REMARK VINA RESULT:    16.698      0.000      0.000
REMARK INTER + INTRA:          41.146
REMARK INTER:                  42.079
REMARK INTRA:                  -0.932
REMARK UNBOUND:                -0.932
REMARK SMILES CCCCCCCCCCCCCCCCCCCCCCCCCCCC(=O)[O-]
REMARK SMILES IDX 15 1 16 2 17 3 18 4 19 5 20 6 21 7 22 8 23 9 24 10 25 11
REMARK SMILES IDX 26 12 27 13 28 14 29 15 30 16 14 17 13 18 12 19 11 20 10 21
REMARK SMILES IDX 9 22 8 23 7 24 6 25 5 26 4 27 3 28 2 29 1 30
REMARK H PARENT
REMARK Flexibility Score: inf
ROOT
ATOM      1  C   UNL     1       5.396 -23.905 -12.623  1.00  0.00     0.000 C 
ENDROOT
BRANCH   1   2
ATOM      2  C   UNL     1       6.466 -22.996 -13.251  1.00  0.00     0.000 C 
BRANCH   2   3
ATOM      3  C   UNL     1       5.861 -21.902 -14.146  1.00  0.00     0.000 C 
BRANCH   3   4
ATOM      4  C   UNL     1       5.744 -20.549 -13.426  1.00  0.00     0.000 C 
BRANCH   4   5
ATOM      5  C   UNL     1       4.519 -19.767 -13.916  1.00  0.00     0.000 C 
BRANCH   5   6
ATOM      6  C   UNL     1       4.775 -18.254 -13.860  1.00  0.00     0.000 C 
BRANCH   6   7
ATOM      7  C   UNL     1       3.485 -17.438 -13.688  1.00  0.00     0.000 C 
BRANCH   7   8
ATOM      8  C   UNL     1       3.435 -16.208 -14.612  1.00  0.00     0.000 C 
BRANCH   8   9
ATOM      9  C   UNL     1       2.069 -15.504 -14.590  1.00  0.00     0.000 C 
BRANCH   9  10
ATOM     10  C   UNL     1       1.244 -15.767 -15.861  1.00  0.00     0.000 C 
BRANCH  10  11
ATOM     11  C   UNL     1       1.933 -15.204 -17.124  1.00  0.00     0.000 C 
BRANCH  11  12
ATOM     12  C   UNL     1       1.819 -13.676 -17.260  1.00  0.00     0.006 C 
BRANCH  12  13
ATOM     13  C   UNL     1       3.029 -13.046 -17.957  1.00  0.00     0.053 C 
BRANCH  13  14
ATOM     14  C   UNL     1       3.682 -14.038 -18.867  1.00  0.00     0.041 C 
ATOM     15  O   UNL     1       3.107 -14.402 -19.925  1.00  0.00    -0.550 OA
ATOM     16  O   UNL     1       4.904 -14.599 -18.521  1.00  0.00    -0.550 OA
ENDBRANCH  13  14
ENDBRANCH  12  13
ENDBRANCH  11  12
ENDBRANCH  10  11
ENDBRANCH   9  10
ENDBRANCH   8   9
ENDBRANCH   7   8
ENDBRANCH   6   7
ENDBRANCH   5   6
ENDBRANCH   4   5
ENDBRANCH   3   4
ENDBRANCH   2   3
ENDBRANCH   1   2
BRANCH   1  17
ATOM     17  C   UNL     1       4.170 -24.092 -13.531  1.00  0.00     0.000 C 
BRANCH  17  18
ATOM     18  C   UNL     1       3.918 -25.564 -13.899  1.00  0.00     0.000 C 
BRANCH  18  19
ATOM     19  C   UNL     1       4.417 -25.911 -15.311  1.00  0.00     0.000 C 
BRANCH  19  20
ATOM     20  C   UNL     1       5.339 -24.827 -15.897  1.00  0.00     0.000 C 
BRANCH  20  21
ATOM     21  C   UNL     1       6.721 -25.374 -16.289  1.00  0.00     0.000 C 
BRANCH  21  22
ATOM     22  C   UNL     1       6.966 -25.331 -17.804  1.00  0.00    -0.000 C 
BRANCH  22  23
ATOM     23  C   UNL     1       8.356 -24.766 -18.121  1.00  0.00    -0.000 C 
BRANCH  23  24
ATOM     24  C   UNL     1       8.844 -25.243 -19.497  1.00  0.00    -0.000 C 
BRANCH  24  25
ATOM     25  C   UNL     1       9.097 -24.086 -20.481  1.00  0.00    -0.000 C 
BRANCH  25  26
ATOM     26  C   UNL     1      10.141 -24.369 -21.582  1.00  0.00    -0.000 C 
BRANCH  26  27
ATOM     27  C   UNL     1      10.113 -23.398 -22.780  1.00  0.00    -0.000 C 
BRANCH  27  28
ATOM     28  C   UNL     1      11.502 -23.118 -23.396  1.00  0.00    -0.000 C 
BRANCH  28  29
ATOM     29  C   UNL     1      11.634 -23.585 -24.857  1.00  0.00    -0.003 C 
ATOM     30  C   UNL     1      12.965 -23.191 -25.490  1.00  0.00     0.004 C 
ENDBRANCH  28  29
ENDBRANCH  27  28
ENDBRANCH  26  27
ENDBRANCH  25  26
ENDBRANCH  24  25
ENDBRANCH  23  24
ENDBRANCH  22  23
ENDBRANCH  21  22
ENDBRANCH  20  21
ENDBRANCH  19  20
ENDBRANCH  18  19
ENDBRANCH  17  18
ENDBRANCH   1  17
TORSDOF 26
ENDMDL
MODEL 2
REMARK VINA RESULT:    16.773      0.812      1.379
REMARK INTER + INTRA:          41.335
REMARK INTER:                  42.090
REMARK INTRA:                  -0.755
REMARK UNBOUND:                -0.932
REMARK SMILES CCCCCCCCCCCCCCCCCCCCCCCCCCCC(=O)[O-]
REMARK SMILES IDX 15 1 16 2 17 3 18 4 19 5 20 6 21 7 22 8 23 9 24 10 25 11
REMARK SMILES IDX 26 12 27 13 28 14 29 15 30 16 14 17 13 18 12 19 11 20 10 21
REMARK SMILES IDX 9 22 8 23 7 24 6 25 5 26 4 27 3 28 2 29 1 30
REMARK H PARENT
REMARK Flexibility Score: inf
ROOT
ATOM      1  C   UNL     1       4.208 -24.104 -13.495  1.00  0.00     0.000 C 
ENDROOT
BRANCH   1   2
ATOM      2  C   UNL     1       5.565 -23.603 -12.972  1.00  0.00     0.000 C 
BRANCH   2   3
ATOM      3  C   UNL     1       6.244 -22.618 -13.938  1.00  0.00     0.000 C 
BRANCH   3   4
ATOM      4  C   UNL     1       6.354 -21.200 -13.354  1.00  0.00     0.000 C 
BRANCH   4   5
ATOM      5  C   UNL     1       5.021 -20.450 -13.469  1.00  0.00     0.000 C 
BRANCH   5   6
ATOM      6  C   UNL     1       5.253 -18.937 -13.600  1.00  0.00     0.000 C 
BRANCH   6   7
ATOM      7  C   UNL     1       3.942 -18.136 -13.637  1.00  0.00     0.000 C 
BRANCH   7   8
ATOM      8  C   UNL     1       3.921 -17.088 -14.764  1.00  0.00     0.000 C 
BRANCH   8   9
ATOM      9  C   UNL     1       2.828 -16.026 -14.566  1.00  0.00     0.000 C 
BRANCH   9  10
ATOM     10  C   UNL     1       1.789 -16.024 -15.700  1.00  0.00     0.000 C 
BRANCH  10  11
ATOM     11  C   UNL     1       1.220 -14.612 -15.960  1.00  0.00     0.000 C 
BRANCH  11  12
ATOM     12  C   UNL     1       1.836 -13.914 -17.184  1.00  0.00     0.006 C 
BRANCH  12  13
ATOM     13  C   UNL     1       2.826 -14.803 -17.944  1.00  0.00     0.053 C 
BRANCH  13  14
ATOM     14  C   UNL     1       3.547 -14.007 -18.986  1.00  0.00     0.041 C 
ATOM     15  O   UNL     1       4.032 -12.881 -18.702  1.00  0.00    -0.550 OA
ATOM     16  O   UNL     1       3.643 -14.488 -20.285  1.00  0.00    -0.550 OA
ENDBRANCH  13  14
ENDBRANCH  12  13
ENDBRANCH  11  12
ENDBRANCH  10  11
ENDBRANCH   9  10
ENDBRANCH   8   9
ENDBRANCH   7   8
ENDBRANCH   6   7
ENDBRANCH   5   6
ENDBRANCH   4   5
ENDBRANCH   3   4
ENDBRANCH   2   3
ENDBRANCH   1   2
BRANCH   1  17
ATOM     17  C   UNL     1       4.256 -25.570 -13.955  1.00  0.00     0.000 C 
BRANCH  17  18
ATOM     18  C   UNL     1       4.364 -25.714 -15.483  1.00  0.00     0.000 C 
BRANCH  18  19
ATOM     19  C   UNL     1       5.526 -24.896 -16.070  1.00  0.00     0.000 C 
BRANCH  19  20
ATOM     20  C   UNL     1       6.704 -25.778 -16.519  1.00  0.00     0.000 C 
BRANCH  20  21
ATOM     21  C   UNL     1       7.791 -24.982 -17.258  1.00  0.00     0.000 C 
BRANCH  21  22
ATOM     22  C   UNL     1       7.812 -25.269 -18.767  1.00  0.00    -0.000 C 
BRANCH  22  23
ATOM     23  C   UNL     1       8.885 -24.432 -19.473  1.00  0.00    -0.000 C 
BRANCH  23  24
ATOM     24  C   UNL     1       9.482 -25.194 -20.665  1.00  0.00    -0.000 C 
BRANCH  24  25
ATOM     25  C   UNL     1      10.640 -24.439 -21.344  1.00  0.00    -0.000 C 
BRANCH  25  26
ATOM     26  C   UNL     1      10.268 -23.675 -22.632  1.00  0.00    -0.000 C 
BRANCH  26  27
ATOM     27  C   UNL     1      11.456 -23.045 -23.389  1.00  0.00    -0.000 C 
BRANCH  27  28
ATOM     28  C   UNL     1      11.737 -23.690 -24.764  1.00  0.00    -0.000 C 
BRANCH  28  29
ATOM     29  C   UNL     1      12.878 -23.009 -25.542  1.00  0.00    -0.003 C 
ATOM     30  C   UNL     1      13.983 -23.980 -25.949  1.00  0.00     0.004 C 
ENDBRANCH  28  29
ENDBRANCH  27  28
ENDBRANCH  26  27
ENDBRANCH  25  26
ENDBRANCH  24  25
ENDBRANCH  23  24
ENDBRANCH  22  23
ENDBRANCH  21  22
ENDBRANCH  20  21
ENDBRANCH  19  20
ENDBRANCH  18  19
ENDBRANCH  17  18
ENDBRANCH   1  17
TORSDOF 26
ENDMDL
MODEL 3
REMARK VINA RESULT:    16.936      2.925     10.338
REMARK INTER + INTRA:          41.745
REMARK INTER:                  42.799
REMARK INTRA:                  -1.055
REMARK UNBOUND:                -0.932
REMARK SMILES CCCCCCCCCCCCCCCCCCCCCCCCCCCC(=O)[O-]
REMARK SMILES IDX 15 1 16 2 17 3 18 4 19 5 20 6 21 7 22 8 23 9 24 10 25 11
REMARK SMILES IDX 26 12 27 13 28 14 29 15 30 16 14 17 13 18 12 19 11 20 10 21
REMARK SMILES IDX 9 22 8 23 7 24 6 25 5 26 4 27 3 28 2 29 1 30
REMARK H PARENT
REMARK Flexibility Score: inf
ROOT
ATOM      1  C   UNL     1       6.431 -22.772 -13.202  1.00  0.00     0.000 C 
ENDROOT
BRANCH   1   2
ATOM      2  C   UNL     1       5.557 -23.969 -12.791  1.00  0.00     0.000 C 
BRANCH   2   3
ATOM      3  C   UNL     1       4.149 -23.913 -13.407  1.00  0.00     0.000 C 
BRANCH   3   4
ATOM      4  C   UNL     1       3.550 -25.310 -13.638  1.00  0.00     0.000 C 
BRANCH   4   5
ATOM      5  C   UNL     1       4.408 -26.125 -14.613  1.00  0.00     0.000 C 
BRANCH   5   6
ATOM      6  C   UNL     1       4.233 -25.622 -16.053  1.00  0.00     0.000 C 
BRANCH   6   7
ATOM      7  C   UNL     1       5.396 -24.733 -16.519  1.00  0.00     0.000 C 
BRANCH   7   8
ATOM      8  C   UNL     1       6.726 -25.090 -15.832  1.00  0.00     0.000 C 
BRANCH   8   9
ATOM      9  C   UNL     1       7.855 -25.371 -16.835  1.00  0.00     0.000 C 
BRANCH   9  10
ATOM     10  C   UNL     1       7.336 -25.927 -18.173  1.00  0.00     0.000 C 
BRANCH  10  11
ATOM     11  C   UNL     1       7.656 -24.984 -19.353  1.00  0.00     0.000 C 
BRANCH  11  12
ATOM     12  C   UNL     1       9.060 -24.361 -19.284  1.00  0.00     0.006 C 
BRANCH  12  13
ATOM     13  C   UNL     1       9.887 -24.609 -20.550  1.00  0.00     0.053 C 
BRANCH  13  14
ATOM     14  C   UNL     1       9.371 -23.777 -21.681  1.00  0.00     0.041 C 
ATOM     15  O   UNL     1       9.945 -23.802 -22.800  1.00  0.00    -0.550 OA
ATOM     16  O   UNL     1       8.284 -22.936 -21.485  1.00  0.00    -0.550 OA
ENDBRANCH  13  14
ENDBRANCH  12  13
ENDBRANCH  11  12
ENDBRANCH  10  11
ENDBRANCH   9  10
ENDBRANCH   8   9
ENDBRANCH   7   8
ENDBRANCH   6   7
ENDBRANCH   5   6
ENDBRANCH   4   5
ENDBRANCH   3   4
ENDBRANCH   2   3
ENDBRANCH   1   2
BRANCH   1  17
ATOM     17  C   UNL     1       5.624 -21.658 -13.887  1.00  0.00     0.000 C 
BRANCH  17  18
ATOM     18  C   UNL     1       6.043 -20.250 -13.431  1.00  0.00     0.000 C 
BRANCH  18  19
ATOM     19  C   UNL     1       4.837 -19.331 -13.173  1.00  0.00     0.000 C 
BRANCH  19  20
ATOM     20  C   UNL     1       4.800 -18.121 -14.123  1.00  0.00     0.000 C 
BRANCH  20  21
ATOM     21  C   UNL     1       3.477 -17.344 -14.041  1.00  0.00     0.000 C 
BRANCH  21  22
ATOM     22  C   UNL     1       3.185 -16.537 -15.314  1.00  0.00    -0.000 C 
BRANCH  22  23
ATOM     23  C   UNL     1       2.209 -15.389 -15.028  1.00  0.00    -0.000 C 
BRANCH  23  24
ATOM     24  C   UNL     1       1.152 -15.274 -16.136  1.00  0.00    -0.000 C 
BRANCH  24  25
ATOM     25  C   UNL     1       1.684 -14.587 -17.407  1.00  0.00    -0.000 C 
BRANCH  25  26
ATOM     26  C   UNL     1       3.130 -14.954 -17.803  1.00  0.00    -0.000 C 
BRANCH  26  27
ATOM     27  C   UNL     1       3.761 -14.060 -18.891  1.00  0.00    -0.000 C 
BRANCH  27  28
ATOM     28  C   UNL     1       3.233 -12.608 -18.895  1.00  0.00    -0.000 C 
BRANCH  28  29
ATOM     29  C   UNL     1       4.344 -11.548 -18.803  1.00  0.00    -0.003 C 
ATOM     30  C   UNL     1       5.007 -11.500 -17.429  1.00  0.00     0.004 C 
ENDBRANCH  28  29
ENDBRANCH  27  28
ENDBRANCH  26  27
ENDBRANCH  25  26
ENDBRANCH  24  25
ENDBRANCH  23  24
ENDBRANCH  22  23
ENDBRANCH  21  22
ENDBRANCH  20  21
ENDBRANCH  19  20
ENDBRANCH  18  19
ENDBRANCH  17  18
ENDBRANCH   1  17
TORSDOF 26
ENDMDL
MODEL 4
REMARK VINA RESULT:    17.016      1.034      1.674
REMARK INTER + INTRA:          41.947
REMARK INTER:                  43.525
REMARK INTRA:                  -1.578
REMARK UNBOUND:                -0.932
REMARK SMILES CCCCCCCCCCCCCCCCCCCCCCCCCCCC(=O)[O-]
REMARK SMILES IDX 15 1 16 2 17 3 18 4 19 5 20 6 21 7 22 8 23 9 24 10 25 11
REMARK SMILES IDX 26 12 27 13 28 14 29 15 30 16 14 17 13 18 12 19 11 20 10 21
REMARK SMILES IDX 9 22 8 23 7 24 6 25 5 26 4 27 3 28 2 29 1 30
REMARK H PARENT
REMARK Flexibility Score: inf
ROOT
ATOM      1  C   UNL     1       6.053 -23.730 -12.818  1.00  0.00     0.000 C 
ENDROOT
BRANCH   1   2
ATOM      2  C   UNL     1       6.624 -22.454 -13.459  1.00  0.00     0.000 C 
BRANCH   2   3
ATOM      3  C   UNL     1       5.529 -21.539 -14.031  1.00  0.00     0.000 C 
BRANCH   3   4
ATOM      4  C   UNL     1       5.638 -20.095 -13.516  1.00  0.00     0.000 C 
BRANCH   4   5
ATOM      5  C   UNL     1       4.332 -19.325 -13.748  1.00  0.00     0.000 C 
BRANCH   5   6
ATOM      6  C   UNL     1       4.617 -17.882 -14.190  1.00  0.00     0.000 C 
BRANCH   6   7
ATOM      7  C   UNL     1       3.465 -16.920 -13.860  1.00  0.00     0.000 C 
BRANCH   7   8
ATOM      8  C   UNL     1       3.107 -15.998 -15.039  1.00  0.00     0.000 C 
BRANCH   8   9
ATOM      9  C   UNL     1       1.612 -15.644 -15.082  1.00  0.00     0.000 C 
BRANCH   9  10
ATOM     10  C   UNL     1       1.096 -15.419 -16.514  1.00  0.00     0.000 C 
BRANCH  10  11
ATOM     11  C   UNL     1       1.895 -14.320 -17.250  1.00  0.00     0.000 C 
BRANCH  11  12
ATOM     12  C   UNL     1       2.923 -14.870 -18.253  1.00  0.00     0.006 C 
BRANCH  12  13
ATOM     13  C   UNL     1       4.212 -14.043 -18.302  1.00  0.00     0.053 C 
BRANCH  13  14
ATOM     14  C   UNL     1       3.911 -12.634 -18.709  1.00  0.00     0.041 C 
ATOM     15  O   UNL     1       4.528 -11.675 -18.177  1.00  0.00    -0.550 OA
ATOM     16  O   UNL     1       2.914 -12.377 -19.641  1.00  0.00    -0.550 OA
ENDBRANCH  13  14
ENDBRANCH  12  13
ENDBRANCH  11  12
ENDBRANCH  10  11
ENDBRANCH   9  10
ENDBRANCH   8   9
ENDBRANCH   7   8
ENDBRANCH   6   7
ENDBRANCH   5   6
ENDBRANCH   4   5
ENDBRANCH   3   4
ENDBRANCH   2   3
ENDBRANCH   1   2
BRANCH   1  17
ATOM     17  C   UNL     1       4.560 -23.604 -12.476  1.00  0.00     0.000 C 
BRANCH  17  18
ATOM     18  C   UNL     1       3.654 -24.337 -13.480  1.00  0.00     0.000 C 
BRANCH  18  19
ATOM     19  C   UNL     1       4.295 -25.626 -14.021  1.00  0.00     0.000 C 
BRANCH  19  20
ATOM     20  C   UNL     1       4.367 -25.651 -15.558  1.00  0.00     0.000 C 
BRANCH  20  21
ATOM     21  C   UNL     1       5.491 -24.761 -16.112  1.00  0.00     0.000 C 
BRANCH  21  22
ATOM     22  C   UNL     1       6.880 -25.398 -15.957  1.00  0.00    -0.000 C 
BRANCH  22  23
ATOM     23  C   UNL     1       7.785 -25.045 -17.144  1.00  0.00    -0.000 C 
BRANCH  23  24
ATOM     24  C   UNL     1       7.444 -25.903 -18.371  1.00  0.00    -0.000 C 
BRANCH  24  25
ATOM     25  C   UNL     1       7.897 -25.265 -19.697  1.00  0.00    -0.000 C 
BRANCH  25  26
ATOM     26  C   UNL     1       9.149 -24.368 -19.607  1.00  0.00    -0.000 C 
BRANCH  26  27
ATOM     27  C   UNL     1      10.204 -24.597 -20.709  1.00  0.00    -0.000 C 
BRANCH  27  28
ATOM     28  C   UNL     1       9.713 -24.246 -22.132  1.00  0.00    -0.000 C 
BRANCH  28  29
ATOM     29  C   UNL     1      10.400 -23.008 -22.733  1.00  0.00    -0.003 C 
ATOM     30  C   UNL     1      11.408 -23.358 -23.825  1.00  0.00     0.004 C 
ENDBRANCH  28  29
ENDBRANCH  27  28
ENDBRANCH  26  27
ENDBRANCH  25  26
ENDBRANCH  24  25
ENDBRANCH  23  24
ENDBRANCH  22  23
ENDBRANCH  21  22
ENDBRANCH  20  21
ENDBRANCH  19  20
ENDBRANCH  18  19
ENDBRANCH  17  18
ENDBRANCH   1  17
TORSDOF 26
ENDMDL
MODEL 5
REMARK VINA RESULT:    17.248      3.880     11.039
REMARK INTER + INTRA:          42.532
REMARK INTER:                  42.989
REMARK INTRA:                  -0.457
REMARK UNBOUND:                -0.932
REMARK SMILES CCCCCCCCCCCCCCCCCCCCCCCCCCCC(=O)[O-]
REMARK SMILES IDX 15 1 16 2 17 3 18 4 19 5 20 6 21 7 22 8 23 9 24 10 25 11
REMARK SMILES IDX 26 12 27 13 28 14 29 15 30 16 14 17 13 18 12 19 11 20 10 21
REMARK SMILES IDX 9 22 8 23 7 24 6 25 5 26 4 27 3 28 2 29 1 30
REMARK H PARENT
REMARK Flexibility Score: inf
ROOT
ATOM      1  C   UNL     1       4.620 -24.860 -13.483  1.00  0.00     0.000 C 
ENDROOT
BRANCH   1   2
ATOM      2  C   UNL     1       4.481 -25.746 -14.732  1.00  0.00     0.000 C 
BRANCH   2   3
ATOM      3  C   UNL     1       4.972 -25.047 -16.011  1.00  0.00     0.000 C 
BRANCH   3   4
ATOM      4  C   UNL     1       6.494 -24.832 -16.019  1.00  0.00     0.000 C 
BRANCH   4   5
ATOM      5  C   UNL     1       7.194 -25.865 -16.910  1.00  0.00     0.000 C 
BRANCH   5   6
ATOM      6  C   UNL     1       7.334 -25.344 -18.348  1.00  0.00     0.000 C 
BRANCH   6   7
ATOM      7  C   UNL     1       8.717 -24.736 -18.628  1.00  0.00     0.000 C 
BRANCH   7   8
ATOM      8  C   UNL     1       8.873 -24.267 -20.085  1.00  0.00     0.000 C 
BRANCH   8   9
ATOM      9  C   UNL     1      10.269 -24.561 -20.657  1.00  0.00     0.000 C 
BRANCH   9  10
ATOM     10  C   UNL     1      10.267 -24.696 -22.189  1.00  0.00     0.000 C 
BRANCH  10  11
ATOM     11  C   UNL     1      10.344 -23.322 -22.890  1.00  0.00     0.000 C 
BRANCH  11  12
ATOM     12  C   UNL     1      11.653 -23.097 -23.666  1.00  0.00     0.006 C 
BRANCH  12  13
ATOM     13  C   UNL     1      11.641 -23.740 -25.057  1.00  0.00     0.053 C 
BRANCH  13  14
ATOM     14  C   UNL     1      13.024 -23.771 -25.628  1.00  0.00     0.041 C 
ATOM     15  O   UNL     1      13.904 -22.979 -25.202  1.00  0.00    -0.550 OA
ATOM     16  O   UNL     1      13.329 -24.643 -26.665  1.00  0.00    -0.550 OA
ENDBRANCH  13  14
ENDBRANCH  12  13
ENDBRANCH  11  12
ENDBRANCH  10  11
ENDBRANCH   9  10
ENDBRANCH   8   9
ENDBRANCH   7   8
ENDBRANCH   6   7
ENDBRANCH   5   6
ENDBRANCH   4   5
ENDBRANCH   3   4
ENDBRANCH   2   3
ENDBRANCH   1   2
BRANCH   1  17
ATOM     17  C   UNL     1       4.911 -23.391 -13.828  1.00  0.00     0.000 C 
BRANCH  17  18
ATOM     18  C   UNL     1       6.343 -22.964 -13.464  1.00  0.00     0.000 C 
BRANCH  18  19
ATOM     19  C   UNL     1       6.563 -21.450 -13.614  1.00  0.00     0.000 C 
BRANCH  19  20
ATOM     20  C   UNL     1       5.253 -20.648 -13.516  1.00  0.00     0.000 C 
BRANCH  20  21
ATOM     21  C   UNL     1       5.484 -19.130 -13.566  1.00  0.00     0.000 C 
BRANCH  21  22
ATOM     22  C   UNL     1       4.175 -18.330 -13.487  1.00  0.00    -0.000 C 
BRANCH  22  23
ATOM     23  C   UNL     1       4.013 -17.416 -14.708  1.00  0.00    -0.000 C 
BRANCH  23  24
ATOM     24  C   UNL     1       3.143 -16.196 -14.371  1.00  0.00    -0.000 C 
BRANCH  24  25
ATOM     25  C   UNL     1       1.968 -16.006 -15.348  1.00  0.00    -0.000 C 
BRANCH  25  26
ATOM     26  C   UNL     1       1.817 -14.587 -15.936  1.00  0.00    -0.000 C 
BRANCH  26  27
ATOM     27  C   UNL     1       1.809 -14.511 -17.476  1.00  0.00    -0.000 C 
BRANCH  27  28
ATOM     28  C   UNL     1       3.153 -14.900 -18.132  1.00  0.00    -0.000 C 
BRANCH  28  29
ATOM     29  C   UNL     1       3.602 -13.929 -19.238  1.00  0.00    -0.003 C 
ATOM     30  C   UNL     1       3.329 -12.467 -18.894  1.00  0.00     0.004 C 
ENDBRANCH  28  29
ENDBRANCH  27  28
ENDBRANCH  26  27
ENDBRANCH  25  26
ENDBRANCH  24  25
ENDBRANCH  23  24
ENDBRANCH  22  23
ENDBRANCH  21  22
ENDBRANCH  20  21
ENDBRANCH  19  20
ENDBRANCH  18  19
ENDBRANCH  17  18
ENDBRANCH   1  17
TORSDOF 26
ENDMDL
MODEL 6
REMARK VINA RESULT:    17.277      3.054     10.361
REMARK INTER + INTRA:          42.605
REMARK INTER:                  44.230
REMARK INTRA:                  -1.624
REMARK UNBOUND:                -0.932
REMARK SMILES CCCCCCCCCCCCCCCCCCCCCCCCCCCC(=O)[O-]
REMARK SMILES IDX 15 1 16 2 17 3 18 4 19 5 20 6 21 7 22 8 23 9 24 10 25 11
REMARK SMILES IDX 26 12 27 13 28 14 29 15 30 16 14 17 13 18 12 19 11 20 10 21
REMARK SMILES IDX 9 22 8 23 7 24 6 25 5 26 4 27 3 28 2 29 1 30
REMARK H PARENT
REMARK Flexibility Score: inf
ROOT
ATOM      1  C   UNL     1       5.545 -21.548 -14.057  1.00  0.00     0.000 C 
ENDROOT
BRANCH   1   2
ATOM      2  C   UNL     1       6.564 -22.534 -13.462  1.00  0.00     0.000 C 
BRANCH   2   3
ATOM      3  C   UNL     1       5.893 -23.737 -12.778  1.00  0.00     0.000 C 
BRANCH   3   4
ATOM      4  C   UNL     1       4.393 -23.514 -12.530  1.00  0.00     0.000 C 
BRANCH   4   5
ATOM      5  C   UNL     1       3.543 -24.389 -13.459  1.00  0.00     0.000 C 
BRANCH   5   6
ATOM      6  C   UNL     1       4.228 -25.739 -13.720  1.00  0.00     0.000 C 
BRANCH   6   7
ATOM      7  C   UNL     1       4.477 -26.000 -15.214  1.00  0.00     0.000 C 
BRANCH   7   8
ATOM      8  C   UNL     1       4.977 -24.750 -15.958  1.00  0.00     0.000 C 
BRANCH   8   9
ATOM      9  C   UNL     1       6.504 -24.732 -16.128  1.00  0.00     0.000 C 
BRANCH   9  10
ATOM     10  C   UNL     1       6.993 -25.714 -17.207  1.00  0.00     0.000 C 
BRANCH  10  11
ATOM     11  C   UNL     1       8.287 -25.222 -17.892  1.00  0.00     0.000 C 
BRANCH  11  12
ATOM     12  C   UNL     1       8.139 -25.001 -19.406  1.00  0.00     0.006 C 
BRANCH  12  13
ATOM     13  C   UNL     1       9.354 -24.307 -20.032  1.00  0.00     0.053 C 
BRANCH  13  14
ATOM     14  C   UNL     1       8.987 -23.701 -21.350  1.00  0.00     0.041 C 
ATOM     15  O   UNL     1       7.916 -23.052 -21.473  1.00  0.00    -0.550 OA
ATOM     16  O   UNL     1       9.804 -23.894 -22.455  1.00  0.00    -0.550 OA
ENDBRANCH  13  14
ENDBRANCH  12  13
ENDBRANCH  11  12
ENDBRANCH  10  11
ENDBRANCH   9  10
ENDBRANCH   8   9
ENDBRANCH   7   8
ENDBRANCH   6   7
ENDBRANCH   5   6
ENDBRANCH   4   5
ENDBRANCH   3   4
ENDBRANCH   2   3
ENDBRANCH   1   2
BRANCH   1  17
ATOM     17  C   UNL     1       5.692 -20.128 -13.487  1.00  0.00     0.000 C 
BRANCH  17  18
ATOM     18  C   UNL     1       4.509 -19.214 -13.849  1.00  0.00     0.000 C 
BRANCH  18  19
ATOM     19  C   UNL     1       4.963 -17.823 -14.323  1.00  0.00     0.000 C 
BRANCH  19  20
ATOM     20  C   UNL     1       5.420 -17.818 -15.792  1.00  0.00     0.000 C 
BRANCH  20  21
ATOM     21  C   UNL     1       4.687 -16.762 -16.635  1.00  0.00     0.000 C 
BRANCH  21  22
ATOM     22  C   UNL     1       5.553 -16.214 -17.779  1.00  0.00    -0.000 C 
BRANCH  22  23
ATOM     23  C   UNL     1       5.206 -14.751 -18.082  1.00  0.00    -0.000 C 
BRANCH  23  24
ATOM     24  C   UNL     1       3.983 -14.654 -19.005  1.00  0.00    -0.000 C 
BRANCH  24  25
ATOM     25  C   UNL     1       2.783 -13.951 -18.343  1.00  0.00    -0.000 C 
BRANCH  25  26
ATOM     26  C   UNL     1       2.302 -14.571 -17.014  1.00  0.00    -0.000 C 
BRANCH  26  27
ATOM     27  C   UNL     1       0.829 -15.029 -16.997  1.00  0.00    -0.000 C 
BRANCH  27  28
ATOM     28  C   UNL     1       0.570 -16.280 -16.129  1.00  0.00    -0.000 C 
BRANCH  28  29
ATOM     29  C   UNL     1      -0.389 -17.293 -16.779  1.00  0.00    -0.003 C 
ATOM     30  C   UNL     1      -1.503 -16.627 -17.583  1.00  0.00     0.004 C 
ENDBRANCH  28  29
ENDBRANCH  27  28
ENDBRANCH  26  27
ENDBRANCH  25  26
ENDBRANCH  24  25
ENDBRANCH  23  24
ENDBRANCH  22  23
ENDBRANCH  21  22
ENDBRANCH  20  21
ENDBRANCH  19  20
ENDBRANCH  18  19
ENDBRANCH  17  18
ENDBRANCH   1  17
TORSDOF 26
ENDMDL
MODEL 7
REMARK VINA RESULT:    17.400      3.275     10.474
REMARK INTER + INTRA:          42.914
REMARK INTER:                  43.860
REMARK INTRA:                  -0.946
REMARK UNBOUND:                -0.932
REMARK SMILES CCCCCCCCCCCCCCCCCCCCCCCCCCCC(=O)[O-]
REMARK SMILES IDX 15 1 16 2 17 3 18 4 19 5 20 6 21 7 22 8 23 9 24 10 25 11
REMARK SMILES IDX 26 12 27 13 28 14 29 15 30 16 14 17 13 18 12 19 11 20 10 21
REMARK SMILES IDX 9 22 8 23 7 24 6 25 5 26 4 27 3 28 2 29 1 30
REMARK H PARENT
REMARK Flexibility Score: inf
ROOT
ATOM      1  C   UNL     1       6.122 -21.645 -14.058  1.00  0.00     0.000 C 
ENDROOT
BRANCH   1   2
ATOM      2  C   UNL     1       6.474 -22.927 -13.284  1.00  0.00     0.000 C 
BRANCH   2   3
ATOM      3  C   UNL     1       5.347 -23.376 -12.339  1.00  0.00     0.000 C 
BRANCH   3   4
ATOM      4  C   UNL     1       4.154 -23.986 -13.092  1.00  0.00     0.000 C 
BRANCH   4   5
ATOM      5  C   UNL     1       4.295 -25.508 -13.211  1.00  0.00     0.000 C 
BRANCH   5   6
ATOM      6  C   UNL     1       3.415 -26.053 -14.345  1.00  0.00     0.000 C 
BRANCH   6   7
ATOM      7  C   UNL     1       4.091 -25.959 -15.721  1.00  0.00     0.000 C 
BRANCH   7   8
ATOM      8  C   UNL     1       5.180 -24.873 -15.773  1.00  0.00     0.000 C 
BRANCH   8   9
ATOM      9  C   UNL     1       6.601 -25.458 -15.790  1.00  0.00     0.000 C 
BRANCH   9  10
ATOM     10  C   UNL     1       7.427 -24.975 -16.995  1.00  0.00     0.000 C 
BRANCH  10  11
ATOM     11  C   UNL     1       7.475 -26.029 -18.122  1.00  0.00     0.000 C 
BRANCH  11  12
ATOM     12  C   UNL     1       7.744 -25.433 -19.514  1.00  0.00     0.006 C 
BRANCH  12  13
ATOM     13  C   UNL     1       8.857 -24.381 -19.509  1.00  0.00     0.053 C 
BRANCH  13  14
ATOM     14  C   UNL     1       9.552 -24.350 -20.833  1.00  0.00     0.041 C 
ATOM     15  O   UNL     1       9.115 -23.622 -21.762  1.00  0.00    -0.550 OA
ATOM     16  O   UNL     1      10.656 -25.162 -21.059  1.00  0.00    -0.550 OA
ENDBRANCH  13  14
ENDBRANCH  12  13
ENDBRANCH  11  12
ENDBRANCH  10  11
ENDBRANCH   9  10
ENDBRANCH   8   9
ENDBRANCH   7   8
ENDBRANCH   6   7
ENDBRANCH   5   6
ENDBRANCH   4   5
ENDBRANCH   3   4
ENDBRANCH   2   3
ENDBRANCH   1   2
BRANCH   1  17
ATOM     17  C   UNL     1       5.679 -20.499 -13.135  1.00  0.00     0.000 C 
BRANCH  17  18
ATOM     18  C   UNL     1       5.450 -19.179 -13.890  1.00  0.00     0.000 C 
BRANCH  18  19
ATOM     19  C   UNL     1       4.255 -18.384 -13.338  1.00  0.00     0.000 C 
BRANCH  19  20
ATOM     20  C   UNL     1       3.840 -17.222 -14.258  1.00  0.00     0.000 C 
BRANCH  20  21
ATOM     21  C   UNL     1       2.703 -16.375 -13.666  1.00  0.00     0.000 C 
BRANCH  21  22
ATOM     22  C   UNL     1       2.338 -15.174 -14.550  1.00  0.00    -0.000 C 
BRANCH  22  23
ATOM     23  C   UNL     1       1.666 -15.631 -15.851  1.00  0.00    -0.000 C 
BRANCH  23  24
ATOM     24  C   UNL     1       1.925 -14.630 -16.986  1.00  0.00    -0.000 C 
BRANCH  24  25
ATOM     25  C   UNL     1       3.216 -14.928 -17.770  1.00  0.00    -0.000 C 
BRANCH  25  26
ATOM     26  C   UNL     1       3.096 -14.841 -19.305  1.00  0.00    -0.000 C 
BRANCH  26  27
ATOM     27  C   UNL     1       3.120 -13.412 -19.887  1.00  0.00    -0.000 C 
BRANCH  27  28
ATOM     28  C   UNL     1       3.056 -12.297 -18.819  1.00  0.00    -0.000 C 
BRANCH  28  29
ATOM     29  C   UNL     1       4.339 -11.452 -18.733  1.00  0.00    -0.003 C 
ATOM     30  C   UNL     1       5.167 -11.753 -17.487  1.00  0.00     0.004 C 
ENDBRANCH  28  29
ENDBRANCH  27  28
ENDBRANCH  26  27
ENDBRANCH  25  26
ENDBRANCH  24  25
ENDBRANCH  23  24
ENDBRANCH  22  23
ENDBRANCH  21  22
ENDBRANCH  20  21
ENDBRANCH  19  20
ENDBRANCH  18  19
ENDBRANCH  17  18
ENDBRANCH   1  17
TORSDOF 26
ENDMDL
MODEL 8
REMARK VINA RESULT:    17.758      1.556      3.080
REMARK INTER + INTRA:          43.817
REMARK INTER:                  45.486
REMARK INTRA:                  -1.669
REMARK UNBOUND:                -0.932
REMARK SMILES CCCCCCCCCCCCCCCCCCCCCCCCCCCC(=O)[O-]
REMARK SMILES IDX 15 1 16 2 17 3 18 4 19 5 20 6 21 7 22 8 23 9 24 10 25 11
REMARK SMILES IDX 26 12 27 13 28 14 29 15 30 16 14 17 13 18 12 19 11 20 10 21
REMARK SMILES IDX 9 22 8 23 7 24 6 25 5 26 4 27 3 28 2 29 1 30
REMARK H PARENT
REMARK Flexibility Score: inf
ROOT
ATOM      1  C   UNL     1       6.704 -21.903 -13.545  1.00  0.00     0.000 C 
ENDROOT
BRANCH   1   2
ATOM      2  C   UNL     1       5.409 -21.102 -13.763  1.00  0.00     0.000 C 
BRANCH   2   3
ATOM      3  C   UNL     1       5.516 -19.655 -13.251  1.00  0.00     0.000 C 
BRANCH   3   4
ATOM      4  C   UNL     1       4.562 -18.699 -13.985  1.00  0.00     0.000 C 
BRANCH   4   5
ATOM      5  C   UNL     1       3.770 -17.839 -12.992  1.00  0.00     0.000 C 
BRANCH   5   6
ATOM      6  C   UNL     1       3.479 -16.450 -13.578  1.00  0.00     0.000 C 
BRANCH   6   7
ATOM      7  C   UNL     1       2.622 -16.509 -14.852  1.00  0.00     0.000 C 
BRANCH   7   8
ATOM      8  C   UNL     1       1.826 -15.213 -15.090  1.00  0.00     0.000 C 
BRANCH   8   9
ATOM      9  C   UNL     1       0.895 -15.305 -16.310  1.00  0.00     0.000 C 
BRANCH   9  10
ATOM     10  C   UNL     1       1.438 -14.542 -17.530  1.00  0.00     0.000 C 
BRANCH  10  11
ATOM     11  C   UNL     1       2.874 -14.980 -17.893  1.00  0.00     0.000 C 
BRANCH  11  12
ATOM     12  C   UNL     1       3.247 -14.719 -19.362  1.00  0.00     0.006 C 
BRANCH  12  13
ATOM     13  C   UNL     1       4.293 -13.611 -19.526  1.00  0.00     0.053 C 
BRANCH  13  14
ATOM     14  C   UNL     1       3.778 -12.322 -18.967  1.00  0.00     0.041 C 
ATOM     15  O   UNL     1       4.315 -11.811 -17.951  1.00  0.00    -0.550 OA
ATOM     16  O   UNL     1       2.673 -11.707 -19.541  1.00  0.00    -0.550 OA
ENDBRANCH  13  14
ENDBRANCH  12  13
ENDBRANCH  11  12
ENDBRANCH  10  11
ENDBRANCH   9  10
ENDBRANCH   8   9
ENDBRANCH   7   8
ENDBRANCH   6   7
ENDBRANCH   5   6
ENDBRANCH   4   5
ENDBRANCH   3   4
ENDBRANCH   2   3
ENDBRANCH   1   2
BRANCH   1  17
ATOM     17  C   UNL     1       6.438 -23.350 -13.100  1.00  0.00     0.000 C 
BRANCH  17  18
ATOM     18  C   UNL     1       5.015 -23.553 -12.552  1.00  0.00     0.000 C 
BRANCH  18  19
ATOM     19  C   UNL     1       4.535 -25.008 -12.687  1.00  0.00     0.000 C 
BRANCH  19  20
ATOM     20  C   UNL     1       3.451 -25.176 -13.767  1.00  0.00     0.000 C 
BRANCH  20  21
ATOM     21  C   UNL     1       3.816 -26.244 -14.810  1.00  0.00     0.000 C 
BRANCH  21  22
ATOM     22  C   UNL     1       4.134 -25.641 -16.186  1.00  0.00    -0.000 C 
BRANCH  22  23
ATOM     23  C   UNL     1       5.360 -24.722 -16.116  1.00  0.00    -0.000 C 
BRANCH  23  24
ATOM     24  C   UNL     1       6.649 -25.536 -15.930  1.00  0.00    -0.000 C 
BRANCH  24  25
ATOM     25  C   UNL     1       7.763 -25.134 -16.913  1.00  0.00    -0.000 C 
BRANCH  25  26
ATOM     26  C   UNL     1       7.623 -25.701 -18.342  1.00  0.00    -0.000 C 
BRANCH  26  27
ATOM     27  C   UNL     1       7.924 -24.703 -19.478  1.00  0.00    -0.000 C 
BRANCH  27  28
ATOM     28  C   UNL     1       9.428 -24.417 -19.682  1.00  0.00    -0.000 C 
BRANCH  28  29
ATOM     29  C   UNL     1       9.951 -24.826 -21.071  1.00  0.00    -0.003 C 
ATOM     30  C   UNL     1       9.801 -23.720 -22.112  1.00  0.00     0.004 C 
ENDBRANCH  28  29
ENDBRANCH  27  28
ENDBRANCH  26  27
ENDBRANCH  25  26
ENDBRANCH  24  25
ENDBRANCH  23  24
ENDBRANCH  22  23
ENDBRANCH  21  22
ENDBRANCH  20  21
ENDBRANCH  19  20
ENDBRANCH  18  19
ENDBRANCH  17  18
ENDBRANCH   1  17
TORSDOF 26
ENDMDL
MODEL 9
REMARK VINA RESULT:    17.841      3.313     10.646
REMARK INTER + INTRA:          44.026
REMARK INTER:                  45.106
REMARK INTRA:                  -1.080
REMARK UNBOUND:                -0.932
REMARK SMILES CCCCCCCCCCCCCCCCCCCCCCCCCCCC(=O)[O-]
REMARK SMILES IDX 15 1 16 2 17 3 18 4 19 5 20 6 21 7 22 8 23 9 24 10 25 11
REMARK SMILES IDX 26 12 27 13 28 14 29 15 30 16 14 17 13 18 12 19 11 20 10 21
REMARK SMILES IDX 9 22 8 23 7 24 6 25 5 26 4 27 3 28 2 29 1 30
REMARK H PARENT
REMARK Flexibility Score: inf
ROOT
ATOM      1  C   UNL     1       5.263 -23.019 -14.064  1.00  0.00     0.000 C 
ENDROOT
BRANCH   1   2
ATOM      2  C   UNL     1       4.585 -24.001 -13.093  1.00  0.00     0.000 C 
BRANCH   2   3
ATOM      3  C   UNL     1       3.708 -25.037 -13.816  1.00  0.00     0.000 C 
BRANCH   3   4
ATOM      4  C   UNL     1       4.536 -26.131 -14.507  1.00  0.00     0.000 C 
BRANCH   4   5
ATOM      5  C   UNL     1       4.553 -25.935 -16.028  1.00  0.00     0.000 C 
BRANCH   5   6
ATOM      6  C   UNL     1       5.645 -24.936 -16.441  1.00  0.00     0.000 C 
BRANCH   6   7
ATOM      7  C   UNL     1       6.986 -25.617 -16.754  1.00  0.00     0.000 C 
BRANCH   7   8
ATOM      8  C   UNL     1       7.291 -25.658 -18.262  1.00  0.00     0.000 C 
BRANCH   8   9
ATOM      9  C   UNL     1       8.471 -24.755 -18.653  1.00  0.00     0.000 C 
BRANCH   9  10
ATOM     10  C   UNL     1       8.724 -24.731 -20.170  1.00  0.00     0.000 C 
BRANCH  10  11
ATOM     11  C   UNL     1      10.175 -24.324 -20.507  1.00  0.00     0.000 C 
BRANCH  11  12
ATOM     12  C   UNL     1      10.604 -24.692 -21.937  1.00  0.00     0.006 C 
BRANCH  12  13
ATOM     13  C   UNL     1      10.295 -23.590 -22.956  1.00  0.00     0.053 C 
BRANCH  13  14
ATOM     14  C   UNL     1      11.529 -23.223 -23.717  1.00  0.00     0.041 C 
ATOM     15  O   UNL     1      12.473 -22.620 -23.143  1.00  0.00    -0.550 OA
ATOM     16  O   UNL     1      11.619 -23.503 -25.074  1.00  0.00    -0.550 OA
ENDBRANCH  13  14
ENDBRANCH  12  13
ENDBRANCH  11  12
ENDBRANCH  10  11
ENDBRANCH   9  10
ENDBRANCH   8   9
ENDBRANCH   7   8
ENDBRANCH   6   7
ENDBRANCH   5   6
ENDBRANCH   4   5
ENDBRANCH   3   4
ENDBRANCH   2   3
ENDBRANCH   1   2
BRANCH   1  17
ATOM     17  C   UNL     1       6.543 -22.399 -13.482  1.00  0.00     0.000 C 
BRANCH  17  18
ATOM     18  C   UNL     1       6.373 -20.915 -13.114  1.00  0.00     0.000 C 
BRANCH  18  19
ATOM     19  C   UNL     1       5.332 -20.205 -13.995  1.00  0.00     0.000 C 
BRANCH  19  20
ATOM     20  C   UNL     1       5.131 -18.731 -13.603  1.00  0.00     0.000 C 
BRANCH  20  21
ATOM     21  C   UNL     1       3.658 -18.297 -13.671  1.00  0.00     0.000 C 
BRANCH  21  22
ATOM     22  C   UNL     1       3.496 -16.785 -13.885  1.00  0.00    -0.000 C 
BRANCH  22  23
ATOM     23  C   UNL     1       2.232 -16.475 -14.696  1.00  0.00    -0.000 C 
BRANCH  23  24
ATOM     24  C   UNL     1       2.382 -15.157 -15.470  1.00  0.00    -0.000 C 
BRANCH  24  25
ATOM     25  C   UNL     1       1.386 -15.026 -16.636  1.00  0.00    -0.000 C 
BRANCH  25  26
ATOM     26  C   UNL     1       1.330 -13.639 -17.309  1.00  0.00    -0.000 C 
BRANCH  26  27
ATOM     27  C   UNL     1       2.697 -12.957 -17.524  1.00  0.00    -0.000 C 
BRANCH  27  28
ATOM     28  C   UNL     1       3.196 -12.995 -18.986  1.00  0.00    -0.000 C 
BRANCH  28  29
ATOM     29  C   UNL     1       3.681 -14.385 -19.436  1.00  0.00    -0.003 C 
ATOM     30  C   UNL     1       4.649 -15.027 -18.445  1.00  0.00     0.004 C 
ENDBRANCH  28  29
ENDBRANCH  27  28
ENDBRANCH  26  27
ENDBRANCH  25  26
ENDBRANCH  24  25
ENDBRANCH  23  24
ENDBRANCH  22  23
ENDBRANCH  21  22
ENDBRANCH  20  21
ENDBRANCH  19  20
ENDBRANCH  18  19
ENDBRANCH  17  18
ENDBRANCH   1  17
TORSDOF 26
ENDMDL
