MODEL 1
REMARK VINA RESULT:    -4.372      0.000      0.000
REMARK INTER + INTRA:          -8.309
REMARK INTER:                  -7.440
REMARK INTRA:                  -0.869
REMARK UNBOUND:                -0.869
REMARK SMILES CCCCCCCCCCCCCC(=O)[O-]
REMARK SMILES IDX 8 1 9 2 10 3 11 4 12 5 13 6 14 7 15 8 16 9 7 10 6 11 5 12
REMARK SMILES IDX 4 13 3 14 2 15 1 16
REMARK H PARENT
REMARK Flexibility Score: inf
ROOT
ATOM      1  C   UNL     1       6.313  -1.676  -4.274  1.00  0.00     0.000 C 
ENDROOT
BRANCH   1   2
ATOM      2  C   UNL     1       6.340  -1.543  -2.742  1.00  0.00     0.000 C 
BRANCH   2   3
ATOM      3  C   UNL     1       5.125  -0.782  -2.190  1.00  0.00     0.000 C 
BRANCH   3   4
ATOM      4  C   UNL     1       5.424  -0.205  -0.799  1.00  0.00     0.000 C 
BRANCH   4   5
ATOM      5  C   UNL     1       6.581  -0.929  -0.093  1.00  0.00     0.006 C 
BRANCH   5   6
ATOM      6  C   UNL     1       7.221  -0.081   1.015  1.00  0.00     0.053 C 
BRANCH   6   7
ATOM      7  C   UNL     1       6.169   0.448   1.939  1.00  0.00     0.041 C 
ATOM      8  O   UNL     1       5.963   1.686   2.023  1.00  0.00    -0.550 OA
ATOM      9  O   UNL     1       5.382  -0.433   2.671  1.00  0.00    -0.550 OA
ENDBRANCH   6   7
ENDBRANCH   5   6
ENDBRANCH   4   5
ENDBRANCH   3   4
ENDBRANCH   2   3
ENDBRANCH   1   2
BRANCH   1  10
ATOM     10  C   UNL     1       5.185  -0.852  -4.918  1.00  0.00     0.000 C 
BRANCH  10  11
ATOM     11  C   UNL     1       4.058  -1.735  -5.481  1.00  0.00    -0.000 C 
BRANCH  11  12
ATOM     12  C   UNL     1       2.678  -1.374  -4.910  1.00  0.00    -0.000 C 
BRANCH  12  13
ATOM     13  C   UNL     1       2.187  -2.459  -3.939  1.00  0.00    -0.000 C 
BRANCH  13  14
ATOM     14  C   UNL     1       1.990  -3.826  -4.618  1.00  0.00    -0.000 C 
BRANCH  14  15
ATOM     15  C   UNL     1       1.427  -4.928  -3.702  1.00  0.00    -0.003 C 
ATOM     16  C   UNL     1       0.308  -4.432  -2.787  1.00  0.00     0.004 C 
ENDBRANCH  14  15
ENDBRANCH  13  14
ENDBRANCH  12  13
ENDBRANCH  11  12
ENDBRANCH  10  11
ENDBRANCH   1  10
TORSDOF 12
ENDMDL
MODEL 2
REMARK VINA RESULT:    -4.278      1.128      1.938
REMARK INTER + INTRA:          -8.149
REMARK INTER:                  -7.064
REMARK INTRA:                  -1.084
REMARK UNBOUND:                -0.869
REMARK SMILES CCCCCCCCCCCCCC(=O)[O-]
REMARK SMILES IDX 8 1 9 2 10 3 11 4 12 5 13 6 14 7 15 8 16 9 7 10 6 11 5 12
REMARK SMILES IDX 4 13 3 14 2 15 1 16
REMARK H PARENT
REMARK Flexibility Score: inf
ROOT
ATOM      1  C   UNL     1       7.744  -1.224  -3.044  1.00  0.00     0.000 C 
ENDROOT
BRANCH   1   2
ATOM      2  C   UNL     1       7.280  -2.616  -2.583  1.00  0.00     0.000 C 
BRANCH   2   3
ATOM      3  C   UNL     1       7.588  -2.885  -1.102  1.00  0.00     0.000 C 
BRANCH   3   4
ATOM      4  C   UNL     1       7.636  -1.572  -0.305  1.00  0.00     0.000 C 
BRANCH   4   5
ATOM      5  C   UNL     1       6.248  -1.113   0.167  1.00  0.00     0.006 C 
BRANCH   5   6
ATOM      6  C   UNL     1       6.164   0.407   0.365  1.00  0.00     0.053 C 
BRANCH   6   7
ATOM      7  C   UNL     1       5.739   0.727   1.764  1.00  0.00     0.041 C 
ATOM      8  O   UNL     1       5.674   1.923   2.149  1.00  0.00    -0.550 OA
ATOM      9  O   UNL     1       5.368  -0.296   2.628  1.00  0.00    -0.550 OA
ENDBRANCH   6   7
ENDBRANCH   5   6
ENDBRANCH   4   5
ENDBRANCH   3   4
ENDBRANCH   2   3
ENDBRANCH   1   2
BRANCH   1  10
ATOM     10  C   UNL     1       6.573  -0.323  -3.470  1.00  0.00     0.000 C 
BRANCH  10  11
ATOM     11  C   UNL     1       5.263  -1.107  -3.656  1.00  0.00    -0.000 C 
BRANCH  11  12
ATOM     12  C   UNL     1       4.698  -0.991  -5.080  1.00  0.00    -0.000 C 
BRANCH  12  13
ATOM     13  C   UNL     1       3.255  -1.517  -5.140  1.00  0.00    -0.000 C 
BRANCH  13  14
ATOM     14  C   UNL     1       2.698  -1.901  -3.758  1.00  0.00    -0.000 C 
BRANCH  14  15
ATOM     15  C   UNL     1       1.771  -3.130  -3.753  1.00  0.00    -0.003 C 
ATOM     16  C   UNL     1       2.093  -4.127  -4.866  1.00  0.00     0.004 C 
ENDBRANCH  14  15
ENDBRANCH  13  14
ENDBRANCH  12  13
ENDBRANCH  11  12
ENDBRANCH  10  11
ENDBRANCH   1  10
TORSDOF 12
ENDMDL
MODEL 3
REMARK VINA RESULT:    -4.253      1.220      2.455
REMARK INTER + INTRA:          -8.106
REMARK INTER:                  -7.349
REMARK INTRA:                  -0.757
REMARK UNBOUND:                -0.869
REMARK SMILES CCCCCCCCCCCCCC(=O)[O-]
REMARK SMILES IDX 8 1 9 2 10 3 11 4 12 5 13 6 14 7 15 8 16 9 7 10 6 11 5 12
REMARK SMILES IDX 4 13 3 14 2 15 1 16
REMARK H PARENT
REMARK Flexibility Score: inf
ROOT
ATOM      1  C   UNL     1       2.612  -1.196  -4.607  1.00  0.00     0.000 C 
ENDROOT
BRANCH   1   2
ATOM      2  C   UNL     1       3.595  -1.544  -3.476  1.00  0.00     0.000 C 
BRANCH   2   3
ATOM      3  C   UNL     1       5.038  -1.122  -3.794  1.00  0.00     0.000 C 
BRANCH   3   4
ATOM      4  C   UNL     1       5.925  -1.216  -2.543  1.00  0.00     0.000 C 
BRANCH   4   5
ATOM      5  C   UNL     1       5.299  -0.528  -1.319  1.00  0.00     0.006 C 
BRANCH   5   6
ATOM      6  C   UNL     1       6.101  -0.765  -0.033  1.00  0.00     0.053 C 
BRANCH   6   7
ATOM      7  C   UNL     1       5.681   0.201   1.029  1.00  0.00     0.041 C 
ATOM      8  O   UNL     1       5.578   1.427   0.766  1.00  0.00    -0.550 OA
ATOM      9  O   UNL     1       5.355  -0.261   2.299  1.00  0.00    -0.550 OA
ENDBRANCH   6   7
ENDBRANCH   5   6
ENDBRANCH   4   5
ENDBRANCH   3   4
ENDBRANCH   2   3
ENDBRANCH   1   2
BRANCH   1  10
ATOM     10  C   UNL     1       2.375  -2.374  -5.567  1.00  0.00     0.000 C 
BRANCH  10  11
ATOM     11  C   UNL     1       2.701  -3.733  -4.924  1.00  0.00    -0.000 C 
BRANCH  11  12
ATOM     12  C   UNL     1       1.443  -4.543  -4.575  1.00  0.00    -0.000 C 
BRANCH  12  13
ATOM     13  C   UNL     1       0.996  -4.264  -3.132  1.00  0.00    -0.000 C 
BRANCH  13  14
ATOM     14  C   UNL     1      -0.333  -4.954  -2.772  1.00  0.00    -0.000 C 
BRANCH  14  15
ATOM     15  C   UNL     1      -0.187  -6.256  -1.963  1.00  0.00    -0.003 C 
ATOM     16  C   UNL     1       1.207  -6.435  -1.364  1.00  0.00     0.004 C 
ENDBRANCH  14  15
ENDBRANCH  13  14
ENDBRANCH  12  13
ENDBRANCH  11  12
ENDBRANCH  10  11
ENDBRANCH   1  10
TORSDOF 12
ENDMDL
MODEL 4
REMARK VINA RESULT:    -4.079      3.991      6.979
REMARK INTER + INTRA:          -7.810
REMARK INTER:                  -6.870
REMARK INTRA:                  -0.940
REMARK UNBOUND:                -0.869
REMARK SMILES CCCCCCCCCCCCCC(=O)[O-]
REMARK SMILES IDX 8 1 9 2 10 3 11 4 12 5 13 6 14 7 15 8 16 9 7 10 6 11 5 12
REMARK SMILES IDX 4 13 3 14 2 15 1 16
REMARK H PARENT
REMARK Flexibility Score: inf
ROOT
ATOM      1  C   UNL     1       4.847  -1.389  -3.671  1.00  0.00     0.000 C 
ENDROOT
BRANCH   1   2
ATOM      2  C   UNL     1       4.116  -1.190  -5.010  1.00  0.00     0.000 C 
BRANCH   2   3
ATOM      3  C   UNL     1       2.607  -1.462  -4.909  1.00  0.00     0.000 C 
BRANCH   3   4
ATOM      4  C   UNL     1       2.290  -2.354  -3.699  1.00  0.00     0.000 C 
BRANCH   4   5
ATOM      5  C   UNL     1       1.889  -3.781  -4.103  1.00  0.00     0.006 C 
BRANCH   5   6
ATOM      6  C   UNL     1       0.844  -4.391  -3.159  1.00  0.00     0.053 C 
BRANCH   6   7
ATOM      7  C   UNL     1       0.116  -5.507  -3.838  1.00  0.00     0.041 C 
ATOM      8  O   UNL     1       0.018  -5.530  -5.092  1.00  0.00    -0.550 OA
ATOM      9  O   UNL     1      -0.412  -6.550  -3.087  1.00  0.00    -0.550 OA
ENDBRANCH   6   7
ENDBRANCH   5   6
ENDBRANCH   4   5
ENDBRANCH   3   4
ENDBRANCH   2   3
ENDBRANCH   1   2
BRANCH   1  10
ATOM     10  C   UNL     1       6.165  -0.600  -3.595  1.00  0.00     0.000 C 
BRANCH  10  11
ATOM     11  C   UNL     1       6.358   0.095  -2.237  1.00  0.00    -0.000 C 
BRANCH  11  12
ATOM     12  C   UNL     1       5.502  -0.528  -1.124  1.00  0.00    -0.000 C 
BRANCH  12  13
ATOM     13  C   UNL     1       6.370  -0.917   0.082  1.00  0.00    -0.000 C 
BRANCH  13  14
ATOM     14  C   UNL     1       7.682  -1.614  -0.323  1.00  0.00    -0.000 C 
BRANCH  14  15
ATOM     15  C   UNL     1       7.526  -3.085  -0.750  1.00  0.00    -0.003 C 
ATOM     16  C   UNL     1       8.719  -3.604  -1.553  1.00  0.00     0.004 C 
ENDBRANCH  14  15
ENDBRANCH  13  14
ENDBRANCH  12  13
ENDBRANCH  11  12
ENDBRANCH  10  11
ENDBRANCH   1  10
TORSDOF 12
ENDMDL
MODEL 5
REMARK VINA RESULT:    -4.076      0.958      1.859
REMARK INTER + INTRA:          -7.805
REMARK INTER:                  -6.641
REMARK INTRA:                  -1.164
REMARK UNBOUND:                -0.869
REMARK SMILES CCCCCCCCCCCCCC(=O)[O-]
REMARK SMILES IDX 8 1 9 2 10 3 11 4 12 5 13 6 14 7 15 8 16 9 7 10 6 11 5 12
REMARK SMILES IDX 4 13 3 14 2 15 1 16
REMARK H PARENT
REMARK Flexibility Score: inf
ROOT
ATOM      1  C   UNL     1       5.730  -1.267  -4.228  1.00  0.00     0.000 C 
ENDROOT
BRANCH   1   2
ATOM      2  C   UNL     1       4.972  -1.114  -2.898  1.00  0.00     0.000 C 
BRANCH   2   3
ATOM      3  C   UNL     1       5.817  -0.440  -1.807  1.00  0.00     0.000 C 
BRANCH   3   4
ATOM      4  C   UNL     1       6.724  -1.464  -1.106  1.00  0.00     0.000 C 
BRANCH   4   5
ATOM      5  C   UNL     1       6.766  -1.274   0.418  1.00  0.00     0.006 C 
BRANCH   5   6
ATOM      6  C   UNL     1       6.917   0.198   0.827  1.00  0.00     0.053 C 
BRANCH   6   7
ATOM      7  C   UNL     1       5.933   0.544   1.900  1.00  0.00     0.041 C 
ATOM      8  O   UNL     1       5.279  -0.363   2.477  1.00  0.00    -0.550 OA
ATOM      9  O   UNL     1       5.777   1.866   2.298  1.00  0.00    -0.550 OA
ENDBRANCH   6   7
ENDBRANCH   5   6
ENDBRANCH   4   5
ENDBRANCH   3   4
ENDBRANCH   2   3
ENDBRANCH   1   2
BRANCH   1  10
ATOM     10  C   UNL     1       6.122  -2.726  -4.519  1.00  0.00     0.000 C 
BRANCH  10  11
ATOM     11  C   UNL     1       5.307  -3.337  -5.671  1.00  0.00    -0.000 C 
BRANCH  11  12
ATOM     12  C   UNL     1       4.518  -2.284  -6.465  1.00  0.00    -0.000 C 
BRANCH  12  13
ATOM     13  C   UNL     1       3.013  -2.591  -6.433  1.00  0.00    -0.000 C 
BRANCH  13  14
ATOM     14  C   UNL     1       2.268  -1.824  -5.325  1.00  0.00    -0.000 C 
BRANCH  14  15
ATOM     15  C   UNL     1       2.003  -2.635  -4.043  1.00  0.00    -0.003 C 
ATOM     16  C   UNL     1       1.897  -4.138  -4.298  1.00  0.00     0.004 C 
ENDBRANCH  14  15
ENDBRANCH  13  14
ENDBRANCH  12  13
ENDBRANCH  11  12
ENDBRANCH  10  11
ENDBRANCH   1  10
TORSDOF 12
ENDMDL
MODEL 6
REMARK VINA RESULT:    -4.024      1.204      1.756
REMARK INTER + INTRA:          -7.715
REMARK INTER:                  -6.586
REMARK INTRA:                  -1.129
REMARK UNBOUND:                -0.869
REMARK SMILES CCCCCCCCCCCCCC(=O)[O-]
REMARK SMILES IDX 8 1 9 2 10 3 11 4 12 5 13 6 14 7 15 8 16 9 7 10 6 11 5 12
REMARK SMILES IDX 4 13 3 14 2 15 1 16
REMARK H PARENT
REMARK Flexibility Score: inf
ROOT
ATOM      1  C   UNL     1       5.916  -1.921  -4.561  1.00  0.00     0.000 C 
ENDROOT
BRANCH   1   2
ATOM      2  C   UNL     1       6.328  -1.938  -3.079  1.00  0.00     0.000 C 
BRANCH   2   3
ATOM      3  C   UNL     1       6.124  -0.580  -2.390  1.00  0.00     0.000 C 
BRANCH   3   4
ATOM      4  C   UNL     1       6.275  -0.710  -0.867  1.00  0.00     0.000 C 
BRANCH   4   5
ATOM      5  C   UNL     1       5.452   0.335  -0.098  1.00  0.00     0.006 C 
BRANCH   5   6
ATOM      6  C   UNL     1       6.285   1.095   0.943  1.00  0.00     0.053 C 
BRANCH   6   7
ATOM      7  C   UNL     1       6.365   0.315   2.217  1.00  0.00     0.041 C 
ATOM      8  O   UNL     1       5.354  -0.296   2.651  1.00  0.00    -0.550 OA
ATOM      9  O   UNL     1       7.572   0.221   2.899  1.00  0.00    -0.550 OA
ENDBRANCH   6   7
ENDBRANCH   5   6
ENDBRANCH   4   5
ENDBRANCH   3   4
ENDBRANCH   2   3
ENDBRANCH   1   2
BRANCH   1  10
ATOM     10  C   UNL     1       4.855  -0.850  -4.865  1.00  0.00     0.000 C 
BRANCH  10  11
ATOM     11  C   UNL     1       3.451  -1.449  -5.053  1.00  0.00    -0.000 C 
BRANCH  11  12
ATOM     12  C   UNL     1       2.784  -1.831  -3.723  1.00  0.00    -0.000 C 
BRANCH  12  13
ATOM     13  C   UNL     1       1.852  -3.039  -3.906  1.00  0.00    -0.000 C 
BRANCH  13  14
ATOM     14  C   UNL     1       2.156  -3.845  -5.182  1.00  0.00    -0.000 C 
BRANCH  14  15
ATOM     15  C   UNL     1       2.937  -5.151  -4.950  1.00  0.00    -0.003 C 
ATOM     16  C   UNL     1       4.343  -5.121  -5.549  1.00  0.00     0.004 C 
ENDBRANCH  14  15
ENDBRANCH  13  14
ENDBRANCH  12  13
ENDBRANCH  11  12
ENDBRANCH  10  11
ENDBRANCH   1  10
TORSDOF 12
ENDMDL
MODEL 7
REMARK VINA RESULT:    -3.980      3.384      6.576
REMARK INTER + INTRA:          -7.641
REMARK INTER:                  -6.160
REMARK INTRA:                  -1.481
REMARK UNBOUND:                -0.869
REMARK SMILES CCCCCCCCCCCCCC(=O)[O-]
REMARK SMILES IDX 8 1 9 2 10 3 11 4 12 5 13 6 14 7 15 8 16 9 7 10 6 11 5 12
REMARK SMILES IDX 4 13 3 14 2 15 1 16
REMARK H PARENT
REMARK Flexibility Score: inf
ROOT
ATOM      1  C   UNL     1       7.266  -2.930  -2.494  1.00  0.00     0.000 C 
ENDROOT
BRANCH   1   2
ATOM      2  C   UNL     1       7.615  -1.630  -3.239  1.00  0.00     0.000 C 
BRANCH   2   3
ATOM      3  C   UNL     1       6.402  -1.011  -3.951  1.00  0.00     0.000 C 
BRANCH   3   4
ATOM      4  C   UNL     1       5.265  -2.034  -4.087  1.00  0.00     0.000 C 
BRANCH   4   5
ATOM      5  C   UNL     1       3.931  -1.516  -3.527  1.00  0.00     0.006 C 
BRANCH   5   6
ATOM      6  C   UNL     1       2.782  -1.626  -4.538  1.00  0.00     0.053 C 
BRANCH   6   7
ATOM      7  C   UNL     1       2.212  -3.009  -4.530  1.00  0.00     0.041 C 
ATOM      8  O   UNL     1       2.527  -3.830  -5.429  1.00  0.00    -0.550 OA
ATOM      9  O   UNL     1       1.369  -3.406  -3.499  1.00  0.00    -0.550 OA
ENDBRANCH   6   7
ENDBRANCH   5   6
ENDBRANCH   4   5
ENDBRANCH   3   4
ENDBRANCH   2   3
ENDBRANCH   1   2
BRANCH   1  10
ATOM     10  C   UNL     1       7.521  -2.829  -0.980  1.00  0.00     0.000 C 
BRANCH  10  11
ATOM     11  C   UNL     1       7.581  -1.373  -0.488  1.00  0.00    -0.000 C 
BRANCH  11  12
ATOM     12  C   UNL     1       6.339  -0.966   0.317  1.00  0.00    -0.000 C 
BRANCH  12  13
ATOM     13  C   UNL     1       5.482   0.038  -0.469  1.00  0.00    -0.000 C 
BRANCH  13  14
ATOM     14  C   UNL     1       6.298   1.222  -1.020  1.00  0.00    -0.000 C 
BRANCH  14  15
ATOM     15  C   UNL     1       6.005   2.577  -0.351  1.00  0.00    -0.003 C 
ATOM     16  C   UNL     1       5.216   2.443   0.951  1.00  0.00     0.004 C 
ENDBRANCH  14  15
ENDBRANCH  13  14
ENDBRANCH  12  13
ENDBRANCH  11  12
ENDBRANCH  10  11
ENDBRANCH   1  10
TORSDOF 12
ENDMDL
MODEL 8
REMARK VINA RESULT:    -3.771      3.619      6.476
REMARK INTER + INTRA:          -7.286
REMARK INTER:                  -5.840
REMARK INTRA:                  -1.446
REMARK UNBOUND:                -0.869
REMARK SMILES CCCCCCCCCCCCCC(=O)[O-]
REMARK SMILES IDX 8 1 9 2 10 3 11 4 12 5 13 6 14 7 15 8 16 9 7 10 6 11 5 12
REMARK SMILES IDX 4 13 3 14 2 15 1 16
REMARK H PARENT
REMARK Flexibility Score: inf
ROOT
ATOM      1  C   UNL     1       6.269  -3.008  -4.251  1.00  0.00     0.000 C 
ENDROOT
BRANCH   1   2
ATOM      2  C   UNL     1       6.453  -1.516  -4.574  1.00  0.00     0.000 C 
BRANCH   2   3
ATOM      3  C   UNL     1       5.121  -0.752  -4.627  1.00  0.00     0.000 C 
BRANCH   3   4
ATOM      4  C   UNL     1       4.048  -1.461  -3.787  1.00  0.00     0.000 C 
BRANCH   4   5
ATOM      5  C   UNL     1       2.725  -1.644  -4.546  1.00  0.00     0.006 C 
BRANCH   5   6
ATOM      6  C   UNL     1       1.885  -2.805  -3.998  1.00  0.00     0.053 C 
BRANCH   6   7
ATOM      7  C   UNL     1       2.237  -4.079  -4.699  1.00  0.00     0.041 C 
ATOM      8  O   UNL     1       2.769  -4.050  -5.839  1.00  0.00    -0.550 OA
ATOM      9  O   UNL     1       2.023  -5.300  -4.070  1.00  0.00    -0.550 OA
ENDBRANCH   6   7
ENDBRANCH   5   6
ENDBRANCH   4   5
ENDBRANCH   3   4
ENDBRANCH   2   3
ENDBRANCH   1   2
BRANCH   1  10
ATOM     10  C   UNL     1       7.431  -3.579  -3.419  1.00  0.00     0.000 C 
BRANCH  10  11
ATOM     11  C   UNL     1       8.475  -2.510  -3.053  1.00  0.00    -0.000 C 
BRANCH  11  12
ATOM     12  C   UNL     1       8.706  -2.399  -1.539  1.00  0.00    -0.000 C 
BRANCH  12  13
ATOM     13  C   UNL     1       7.419  -2.723  -0.764  1.00  0.00    -0.000 C 
BRANCH  13  14
ATOM     14  C   UNL     1       6.840  -1.502  -0.025  1.00  0.00    -0.000 C 
BRANCH  14  15
ATOM     15  C   UNL     1       5.856  -0.653  -0.850  1.00  0.00    -0.003 C 
ATOM     16  C   UNL     1       5.753   0.790  -0.357  1.00  0.00     0.004 C 
ENDBRANCH  14  15
ENDBRANCH  13  14
ENDBRANCH  12  13
ENDBRANCH  11  12
ENDBRANCH  10  11
ENDBRANCH   1  10
TORSDOF 12
ENDMDL
MODEL 9
REMARK VINA RESULT:    -3.758      1.544      2.709
REMARK INTER + INTRA:          -7.263
REMARK INTER:                  -6.181
REMARK INTRA:                  -1.082
REMARK UNBOUND:                -0.869
REMARK SMILES CCCCCCCCCCCCCC(=O)[O-]
REMARK SMILES IDX 8 1 9 2 10 3 11 4 12 5 13 6 14 7 15 8 16 9 7 10 6 11 5 12
REMARK SMILES IDX 4 13 3 14 2 15 1 16
REMARK H PARENT
REMARK Flexibility Score: inf
ROOT
ATOM      1  C   UNL     1       4.728  -1.083  -4.936  1.00  0.00     0.000 C 
ENDROOT
BRANCH   1   2
ATOM      2  C   UNL     1       5.378  -1.751  -3.712  1.00  0.00     0.000 C 
BRANCH   2   3
ATOM      3  C   UNL     1       5.987  -0.735  -2.734  1.00  0.00     0.000 C 
BRANCH   3   4
ATOM      4  C   UNL     1       6.875  -1.437  -1.696  1.00  0.00     0.000 C 
BRANCH   4   5
ATOM      5  C   UNL     1       6.500  -1.073  -0.251  1.00  0.00     0.006 C 
BRANCH   5   6
ATOM      6  C   UNL     1       5.303  -0.116  -0.175  1.00  0.00     0.053 C 
BRANCH   6   7
ATOM      7  C   UNL     1       5.719   1.193   0.420  1.00  0.00     0.041 C 
ATOM      8  O   UNL     1       5.873   1.304   1.664  1.00  0.00    -0.550 OA
ATOM      9  O   UNL     1       5.986   2.278  -0.406  1.00  0.00    -0.550 OA
ENDBRANCH   6   7
ENDBRANCH   5   6
ENDBRANCH   4   5
ENDBRANCH   3   4
ENDBRANCH   2   3
ENDBRANCH   1   2
BRANCH   1  10
ATOM     10  C   UNL     1       3.192  -1.157  -4.902  1.00  0.00     0.000 C 
BRANCH  10  11
ATOM     11  C   UNL     1       2.667  -1.980  -3.714  1.00  0.00    -0.000 C 
BRANCH  11  12
ATOM     12  C   UNL     1       1.944  -3.262  -4.153  1.00  0.00    -0.000 C 
BRANCH  12  13
ATOM     13  C   UNL     1       2.701  -3.953  -5.297  1.00  0.00    -0.000 C 
BRANCH  13  14
ATOM     14  C   UNL     1       1.819  -4.206  -6.533  1.00  0.00    -0.000 C 
BRANCH  14  15
ATOM     15  C   UNL     1       2.110  -3.289  -7.735  1.00  0.00    -0.003 C 
ATOM     16  C   UNL     1       3.604  -3.075  -7.976  1.00  0.00     0.004 C 
ENDBRANCH  14  15
ENDBRANCH  13  14
ENDBRANCH  12  13
ENDBRANCH  11  12
ENDBRANCH  10  11
ENDBRANCH   1  10
TORSDOF 12
ENDMDL
