MODEL 1
REMARK VINA RESULT:    60.366      0.000      0.000
REMARK INTER + INTRA:          83.582
REMARK INTER:                  83.304
REMARK INTRA:                   0.277
REMARK UNBOUND:                 0.277
REMARK SMILES CC[C@H](CC[C@H](C)[C@@H]1CC[C@H]2C3=CC[C@@H]4C[C@@H](O)CC[C@]4(C)[C@@H]3CC[C@]21C)C(C)C
REMARK SMILES IDX 5 1 4 2 3 3 2 4 1 5 28 6 29 7 30 8 6 9 7 10 8 11 9 12 26 13
REMARK SMILES IDX 10 14 11 15 25 16 27 17 12 18 24 19 23 20 13 21 21 22 14 23
REMARK SMILES IDX 15 24 20 25 22 26 16 27 19 28 17 29 18 30
REMARK H PARENT 18 31
REMARK Flexibility Score: inf
ROOT
ATOM      1  C   UNL     1     -30.881  26.523   6.605  1.00  0.00     0.004 C 
ENDROOT
BRANCH   1   2
ATOM      2  C   UNL     1     -30.570  27.899   5.974  1.00  0.00     0.004 C 
BRANCH   2   3
ATOM      3  C   UNL     1     -29.425  27.932   4.914  1.00  0.00    -0.009 C 
BRANCH   3   4
ATOM      4  C   UNL     1     -28.171  27.168   5.433  1.00  0.00     0.000 C 
ATOM      5  C   UNL     1     -26.842  27.676   4.872  1.00  0.00     0.004 C 
ENDBRANCH   3   4
BRANCH   3   6
ATOM      6  C   UNL     1     -29.985  27.431   3.533  1.00  0.00    -0.014 C 
ATOM      7  C   UNL     1     -28.999  26.563   2.735  1.00  0.00     0.007 C 
ATOM      8  C   UNL     1     -30.550  28.565   2.662  1.00  0.00     0.007 C 
ENDBRANCH   3   6
ENDBRANCH   2   3
ENDBRANCH   1   2
BRANCH   1   9
ATOM      9  C   UNL     1     -32.200  26.431   7.423  1.00  0.00    -0.011 C 
ATOM     10  C   UNL     1     -31.910  25.984   8.870  1.00  0.00     0.008 C 
BRANCH   9  11
ATOM     11  C   UNL     1     -33.413  25.694   6.724  1.00  0.00    -0.002 C 
ATOM     12  C   UNL     1     -33.965  26.564   5.579  1.00  0.00     0.005 C 
ATOM     13  C   UNL     1     -34.688  25.268   7.545  1.00  0.00    -0.023 C 
ATOM     14  C   UNL     1     -35.270  27.184   6.069  1.00  0.00     0.009 C 
ATOM     15  C   UNL     1     -35.661  26.463   7.370  1.00  0.00     0.021 C 
ATOM     16  C   UNL     1     -35.295  23.929   6.966  1.00  0.00     0.008 C 
ATOM     17  C   UNL     1     -34.441  25.007   9.052  1.00  0.00     0.012 C 
ATOM     18  C   UNL     1     -37.118  26.022   7.368  1.00  0.00    -0.067 C 
ATOM     19  C   UNL     1     -36.370  24.113   5.881  1.00  0.00     0.009 C 
ATOM     20  C   UNL     1     -37.571  24.992   6.343  1.00  0.00     0.021 C 
ATOM     21  C   UNL     1     -37.991  26.625   8.191  1.00  0.00    -0.027 C 
ATOM     22  C   UNL     1     -38.877  24.201   6.742  1.00  0.00    -0.023 C 
ATOM     23  C   UNL     1     -39.378  26.121   8.426  1.00  0.00     0.031 C 
ATOM     24  C   UNL     1     -39.935  25.213   7.303  1.00  0.00     0.002 C 
ATOM     25  C   UNL     1     -38.592  23.110   7.814  1.00  0.00     0.010 C 
ATOM     26  C   UNL     1     -39.446  23.539   5.447  1.00  0.00     0.012 C 
ATOM     27  C   UNL     1     -41.223  24.508   7.800  1.00  0.00     0.036 C 
ATOM     28  C   UNL     1     -39.865  22.385   8.286  1.00  0.00     0.032 C 
ATOM     29  C   UNL     1     -40.940  23.361   8.797  1.00  0.00     0.114 C 
BRANCH  29  30
ATOM     30  O   UNL     1     -42.125  22.668   9.098  1.00  0.00    -0.393 OA
ATOM     31  H   UNL     1     -42.328  22.068   8.334  1.00  0.00     0.210 HD
ENDBRANCH  29  30
ENDBRANCH   9  11
ENDBRANCH   1   9
TORSDOF 7
ENDMDL
MODEL 2
REMARK VINA RESULT:    62.031      3.101      9.055
REMARK INTER + INTRA:          85.880
REMARK INTER:                  84.668
REMARK INTRA:                   1.212
REMARK UNBOUND:                 0.277
REMARK SMILES CC[C@H](CC[C@H](C)[C@@H]1CC[C@H]2C3=CC[C@@H]4C[C@@H](O)CC[C@]4(C)[C@@H]3CC[C@]21C)C(C)C
REMARK SMILES IDX 5 1 4 2 3 3 2 4 1 5 28 6 29 7 30 8 6 9 7 10 8 11 9 12 26 13
REMARK SMILES IDX 10 14 11 15 25 16 27 17 12 18 24 19 23 20 13 21 21 22 14 23
REMARK SMILES IDX 15 24 20 25 22 26 16 27 19 28 17 29 18 30
REMARK H PARENT 18 31
REMARK Flexibility Score: inf
ROOT
ATOM      1  C   UNL     1     -40.712  25.129   8.177  1.00  0.00     0.004 C 
ENDROOT
BRANCH   1   2
ATOM      2  C   UNL     1     -41.339  24.882   6.787  1.00  0.00     0.004 C 
BRANCH   2   3
ATOM      3  C   UNL     1     -41.813  23.426   6.489  1.00  0.00    -0.009 C 
BRANCH   3   4
ATOM      4  C   UNL     1     -40.876  22.741   5.451  1.00  0.00     0.000 C 
ATOM      5  C   UNL     1     -40.602  23.573   4.198  1.00  0.00     0.004 C 
ENDBRANCH   3   4
BRANCH   3   6
ATOM      6  C   UNL     1     -41.981  22.650   7.846  1.00  0.00    -0.014 C 
ATOM      7  C   UNL     1     -40.926  23.005   8.907  1.00  0.00     0.007 C 
ATOM      8  C   UNL     1     -42.088  21.127   7.663  1.00  0.00     0.007 C 
ENDBRANCH   3   6
ENDBRANCH   2   3
ENDBRANCH   1   2
BRANCH   1   9
ATOM      9  C   UNL     1     -39.410  25.978   8.196  1.00  0.00    -0.011 C 
ATOM     10  C   UNL     1     -39.740  27.479   8.064  1.00  0.00     0.008 C 
BRANCH   9  11
ATOM     11  C   UNL     1     -38.223  25.470   7.282  1.00  0.00    -0.002 C 
ATOM     12  C   UNL     1     -38.024  23.956   7.475  1.00  0.00     0.005 C 
ATOM     13  C   UNL     1     -36.776  26.078   7.415  1.00  0.00    -0.023 C 
ATOM     14  C   UNL     1     -36.780  23.768   8.337  1.00  0.00     0.009 C 
ATOM     15  C   UNL     1     -36.061  25.126   8.410  1.00  0.00     0.021 C 
ATOM     16  C   UNL     1     -36.056  26.103   6.009  1.00  0.00     0.008 C 
ATOM     17  C   UNL     1     -36.721  27.531   7.947  1.00  0.00     0.012 C 
ATOM     18  C   UNL     1     -34.572  25.006   8.120  1.00  0.00    -0.067 C 
ATOM     19  C   UNL     1     -35.223  24.852   5.677  1.00  0.00     0.009 C 
ATOM     20  C   UNL     1     -34.128  24.539   6.741  1.00  0.00     0.021 C 
ATOM     21  C   UNL     1     -33.690  25.205   9.112  1.00  0.00    -0.027 C 
ATOM     22  C   UNL     1     -32.660  24.962   6.347  1.00  0.00    -0.023 C 
ATOM     23  C   UNL     1     -32.217  25.331   8.885  1.00  0.00     0.031 C 
ATOM     24  C   UNL     1     -31.710  24.699   7.567  1.00  0.00     0.002 C 
ATOM     25  C   UNL     1     -32.574  26.462   5.943  1.00  0.00     0.010 C 
ATOM     26  C   UNL     1     -32.210  24.062   5.153  1.00  0.00     0.012 C 
ATOM     27  C   UNL     1     -30.256  25.167   7.297  1.00  0.00     0.036 C 
ATOM     28  C   UNL     1     -31.136  26.921   5.642  1.00  0.00     0.032 C 
ATOM     29  C   UNL     1     -30.172  26.631   6.807  1.00  0.00     0.114 C 
BRANCH  29  30
ATOM     30  O   UNL     1     -28.853  26.951   6.440  1.00  0.00    -0.393 OA
ATOM     31  H   UNL     1     -28.879  27.803   5.931  1.00  0.00     0.210 HD
ENDBRANCH  29  30
ENDBRANCH   9  11
ENDBRANCH   1   9
TORSDOF 7
ENDMDL
MODEL 3
REMARK VINA RESULT:    63.008      3.101      9.349
REMARK INTER + INTRA:          87.227
REMARK INTER:                  85.904
REMARK INTRA:                   1.323
REMARK UNBOUND:                 0.277
REMARK SMILES CC[C@H](CC[C@H](C)[C@@H]1CC[C@H]2C3=CC[C@@H]4C[C@@H](O)CC[C@]4(C)[C@@H]3CC[C@]21C)C(C)C
REMARK SMILES IDX 5 1 4 2 3 3 2 4 1 5 28 6 29 7 30 8 6 9 7 10 8 11 9 12 26 13
REMARK SMILES IDX 10 14 11 15 25 16 27 17 12 18 24 19 23 20 13 21 21 22 14 23
REMARK SMILES IDX 15 24 20 25 22 26 16 27 19 28 17 29 18 30
REMARK H PARENT 18 31
REMARK Flexibility Score: inf
ROOT
ATOM      1  C   UNL     1     -39.743  25.650   7.209  1.00  0.00     0.004 C 
ENDROOT
BRANCH   1   2
ATOM      2  C   UNL     1     -40.743  24.752   7.971  1.00  0.00     0.004 C 
BRANCH   2   3
ATOM      3  C   UNL     1     -42.039  24.349   7.202  1.00  0.00    -0.009 C 
BRANCH   3   4
ATOM      4  C   UNL     1     -42.124  25.093   5.836  1.00  0.00     0.000 C 
ATOM      5  C   UNL     1     -42.067  24.179   4.612  1.00  0.00     0.004 C 
ENDBRANCH   3   4
BRANCH   3   6
ATOM      6  C   UNL     1     -42.121  22.782   7.112  1.00  0.00    -0.014 C 
ATOM      7  C   UNL     1     -41.312  22.048   8.194  1.00  0.00     0.007 C 
ATOM      8  C   UNL     1     -41.789  22.238   5.712  1.00  0.00     0.007 C 
ENDBRANCH   3   6
ENDBRANCH   2   3
ENDBRANCH   1   2
BRANCH   1   9
ATOM      9  C   UNL     1     -38.529  24.925   6.565  1.00  0.00    -0.011 C 
ATOM     10  C   UNL     1     -38.909  23.484   6.165  1.00  0.00     0.008 C 
BRANCH   9  11
ATOM     11  C   UNL     1     -37.143  25.070   7.313  1.00  0.00    -0.002 C 
ATOM     12  C   UNL     1     -37.189  26.271   8.274  1.00  0.00     0.005 C 
ATOM     13  C   UNL     1     -35.801  25.260   6.509  1.00  0.00    -0.023 C 
ATOM     14  C   UNL     1     -36.393  27.401   7.628  1.00  0.00     0.009 C 
ATOM     15  C   UNL     1     -35.621  26.799   6.442  1.00  0.00     0.021 C 
ATOM     16  C   UNL     1     -34.601  24.563   7.265  1.00  0.00     0.008 C 
ATOM     17  C   UNL     1     -35.804  24.668   5.078  1.00  0.00     0.012 C 
ATOM     18  C   UNL     1     -34.155  27.206   6.443  1.00  0.00    -0.067 C 
ATOM     19  C   UNL     1     -33.839  25.462   8.253  1.00  0.00     0.009 C 
ATOM     20  C   UNL     1     -33.270  26.757   7.597  1.00  0.00     0.021 C 
ATOM     21  C   UNL     1     -33.701  28.039   5.494  1.00  0.00    -0.027 C 
ATOM     22  C   UNL     1     -31.727  26.728   7.267  1.00  0.00    -0.023 C 
ATOM     23  C   UNL     1     -32.248  28.319   5.275  1.00  0.00     0.031 C 
ATOM     24  C   UNL     1     -31.346  28.041   6.500  1.00  0.00     0.002 C 
ATOM     25  C   UNL     1     -31.340  25.496   6.400  1.00  0.00     0.010 C 
ATOM     26  C   UNL     1     -30.951  26.689   8.622  1.00  0.00     0.012 C 
ATOM     27  C   UNL     1     -29.858  28.059   6.060  1.00  0.00     0.036 C 
ATOM     28  C   UNL     1     -29.857  25.493   5.988  1.00  0.00     0.032 C 
ATOM     29  C   UNL     1     -29.444  26.793   5.275  1.00  0.00     0.114 C 
BRANCH  29  30
ATOM     30  O   UNL     1     -28.060  26.798   5.031  1.00  0.00    -0.393 OA
ATOM     31  H   UNL     1     -27.825  27.676   4.631  1.00  0.00     0.210 HD
ENDBRANCH  29  30
ENDBRANCH   9  11
ENDBRANCH   1   9
TORSDOF 7
ENDMDL
