MODEL 1
REMARK VINA RESULT:    -4.165      0.000      0.000
REMARK INTER + INTRA:          -8.156
REMARK INTER:                  -7.330
REMARK INTRA:                  -0.826
REMARK UNBOUND:                -0.826
REMARK SMILES CCCCCCC=CCCCCCCCC(=O)[O-]
REMARK SMILES IDX 10 1 11 2 12 3 13 4 14 5 15 6 16 7 17 8 18 9 9 10 8 11 7 12
REMARK SMILES IDX 6 13 5 14 4 15 3 16 2 17 1 18
REMARK H PARENT
REMARK Flexibility Score: inf
ROOT
ATOM      1  C   UNL     1      60.995  19.215  49.439  1.00  0.00     0.004 C 
ENDROOT
BRANCH   1   2
ATOM      2  C   UNL     1      60.488  17.764  49.312  1.00  0.00     0.000 C 
BRANCH   2   3
ATOM      3  C   UNL     1      59.286  17.575  48.369  1.00  0.00     0.000 C 
BRANCH   3   4
ATOM      4  C   UNL     1      58.098  16.876  49.046  1.00  0.00     0.000 C 
BRANCH   4   5
ATOM      5  C   UNL     1      57.823  17.480  50.431  1.00  0.00     0.006 C 
BRANCH   5   6
ATOM      6  C   UNL     1      57.180  18.871  50.341  1.00  0.00     0.053 C 
BRANCH   6   7
ATOM      7  C   UNL     1      56.307  19.155  51.525  1.00  0.00     0.041 C 
ATOM      8  O   UNL     1      55.054  19.134  51.410  1.00  0.00    -0.550 OA
ATOM      9  O   UNL     1      56.880  19.476  52.750  1.00  0.00    -0.550 OA
ENDBRANCH   6   7
ENDBRANCH   5   6
ENDBRANCH   4   5
ENDBRANCH   3   4
ENDBRANCH   2   3
ENDBRANCH   1   2
BRANCH   1  10
ATOM     10  C   UNL     1      60.278  20.221  48.525  1.00  0.00     0.027 C 
BRANCH  10  11
ATOM     11  C   UNL     1      60.828  21.612  48.693  1.00  0.00    -0.031 C 
ATOM     12  C   UNL     1      60.594  22.336  49.797  1.00  0.00    -0.031 C 
BRANCH  12  13
ATOM     13  C   UNL     1      61.107  23.742  49.940  1.00  0.00     0.027 C 
BRANCH  13  14
ATOM     14  C   UNL     1      59.973  24.713  50.288  1.00  0.00     0.004 C 
BRANCH  14  15
ATOM     15  C   UNL     1      60.339  26.150  49.896  1.00  0.00     0.000 C 
BRANCH  15  16
ATOM     16  C   UNL     1      59.092  26.946  49.494  1.00  0.00    -0.000 C 
BRANCH  16  17
ATOM     17  C   UNL     1      59.461  28.378  49.089  1.00  0.00    -0.003 C 
ATOM     18  C   UNL     1      58.529  29.394  49.744  1.00  0.00     0.004 C 
ENDBRANCH  16  17
ENDBRANCH  15  16
ENDBRANCH  14  15
ENDBRANCH  13  14
ENDBRANCH  12  13
ENDBRANCH  10  11
ENDBRANCH   1  10
TORSDOF 13
ENDMDL
MODEL 2
REMARK VINA RESULT:    -3.965     16.294     19.080
REMARK INTER + INTRA:          -7.805
REMARK INTER:                  -5.494
REMARK INTRA:                  -2.311
REMARK UNBOUND:                -0.826
REMARK SMILES CCCCCCC=CCCCCCCCC(=O)[O-]
REMARK SMILES IDX 10 1 11 2 12 3 13 4 14 5 15 6 16 7 17 8 18 9 9 10 8 11 7 12
REMARK SMILES IDX 6 13 5 14 4 15 3 16 2 17 1 18
REMARK H PARENT
REMARK Flexibility Score: inf
ROOT
ATOM      1  C   UNL     1      72.555  28.529  61.646  1.00  0.00     0.004 C 
ENDROOT
BRANCH   1   2
ATOM      2  C   UNL     1      72.995  29.052  60.263  1.00  0.00     0.000 C 
BRANCH   2   3
ATOM      3  C   UNL     1      71.861  29.202  59.233  1.00  0.00     0.000 C 
BRANCH   3   4
ATOM      4  C   UNL     1      71.241  30.607  59.225  1.00  0.00     0.000 C 
BRANCH   4   5
ATOM      5  C   UNL     1      72.322  31.683  59.404  1.00  0.00     0.006 C 
BRANCH   5   6
ATOM      6  C   UNL     1      71.991  32.654  60.545  1.00  0.00     0.053 C 
BRANCH   6   7
ATOM      7  C   UNL     1      71.425  33.942  60.031  1.00  0.00     0.041 C 
ATOM      8  O   UNL     1      71.325  34.143  58.792  1.00  0.00    -0.550 OA
ATOM      9  O   UNL     1      71.035  34.935  60.922  1.00  0.00    -0.550 OA
ENDBRANCH   6   7
ENDBRANCH   5   6
ENDBRANCH   4   5
ENDBRANCH   3   4
ENDBRANCH   2   3
ENDBRANCH   1   2
BRANCH   1  10
ATOM     10  C   UNL     1      72.120  29.626  62.630  1.00  0.00     0.027 C 
BRANCH  10  11
ATOM     11  C   UNL     1      70.621  29.707  62.743  1.00  0.00    -0.031 C 
ATOM     12  C   UNL     1      69.829  28.692  62.366  1.00  0.00    -0.031 C 
BRANCH  12  13
ATOM     13  C   UNL     1      68.331  28.796  62.437  1.00  0.00     0.027 C 
BRANCH  13  14
ATOM     14  C   UNL     1      67.688  28.496  61.078  1.00  0.00     0.004 C 
BRANCH  14  15
ATOM     15  C   UNL     1      68.098  27.108  60.571  1.00  0.00     0.000 C 
BRANCH  15  16
ATOM     16  C   UNL     1      68.641  27.183  59.139  1.00  0.00    -0.000 C 
BRANCH  16  17
ATOM     17  C   UNL     1      69.810  26.210  58.943  1.00  0.00    -0.003 C 
ATOM     18  C   UNL     1      70.385  25.761  60.282  1.00  0.00     0.004 C 
ENDBRANCH  16  17
ENDBRANCH  15  16
ENDBRANCH  14  15
ENDBRANCH  13  14
ENDBRANCH  12  13
ENDBRANCH  10  11
ENDBRANCH   1  10
TORSDOF 13
ENDMDL
MODEL 3
REMARK VINA RESULT:    -3.939      7.011      9.365
REMARK INTER + INTRA:          -7.760
REMARK INTER:                  -6.034
REMARK INTRA:                  -1.726
REMARK UNBOUND:                -0.826
REMARK SMILES CCCCCCC=CCCCCCCCC(=O)[O-]
REMARK SMILES IDX 10 1 11 2 12 3 13 4 14 5 15 6 16 7 17 8 18 9 9 10 8 11 7 12
REMARK SMILES IDX 6 13 5 14 4 15 3 16 2 17 1 18
REMARK H PARENT
REMARK Flexibility Score: inf
ROOT
ATOM      1  C   UNL     1      55.631  26.284  50.724  1.00  0.00     0.004 C 
ENDROOT
BRANCH   1   2
ATOM      2  C   UNL     1      56.981  26.855  50.243  1.00  0.00     0.000 C 
BRANCH   2   3
ATOM      3  C   UNL     1      57.508  28.052  51.054  1.00  0.00     0.000 C 
BRANCH   3   4
ATOM      4  C   UNL     1      57.751  29.300  50.192  1.00  0.00     0.000 C 
BRANCH   4   5
ATOM      5  C   UNL     1      58.876  29.053  49.176  1.00  0.00     0.006 C 
BRANCH   5   6
ATOM      6  C   UNL     1      60.267  29.141  49.817  1.00  0.00     0.053 C 
BRANCH   6   7
ATOM      7  C   UNL     1      61.057  27.886  49.603  1.00  0.00     0.041 C 
ATOM      8  O   UNL     1      62.290  27.945  49.356  1.00  0.00    -0.550 OA
ATOM      9  O   UNL     1      60.423  26.650  49.647  1.00  0.00    -0.550 OA
ENDBRANCH   6   7
ENDBRANCH   5   6
ENDBRANCH   4   5
ENDBRANCH   3   4
ENDBRANCH   2   3
ENDBRANCH   1   2
BRANCH   1  10
ATOM     10  C   UNL     1      54.560  26.174  49.628  1.00  0.00     0.027 C 
BRANCH  10  11
ATOM     11  C   UNL     1      53.753  27.439  49.513  1.00  0.00    -0.031 C 
ATOM     12  C   UNL     1      53.905  28.455  50.376  1.00  0.00    -0.031 C 
BRANCH  12  13
ATOM     13  C   UNL     1      53.064  29.698  50.284  1.00  0.00     0.027 C 
BRANCH  13  14
ATOM     14  C   UNL     1      53.465  30.720  51.354  1.00  0.00     0.004 C 
BRANCH  14  15
ATOM     15  C   UNL     1      54.632  30.200  52.201  1.00  0.00     0.000 C 
BRANCH  15  16
ATOM     16  C   UNL     1      55.392  31.357  52.860  1.00  0.00    -0.000 C 
BRANCH  16  17
ATOM     17  C   UNL     1      56.754  30.890  53.389  1.00  0.00    -0.003 C 
ATOM     18  C   UNL     1      57.862  31.859  52.990  1.00  0.00     0.004 C 
ENDBRANCH  16  17
ENDBRANCH  15  16
ENDBRANCH  14  15
ENDBRANCH  13  14
ENDBRANCH  12  13
ENDBRANCH  10  11
ENDBRANCH   1  10
TORSDOF 13
ENDMDL
MODEL 4
REMARK VINA RESULT:    -3.939      2.272      4.480
REMARK INTER + INTRA:          -7.759
REMARK INTER:                  -6.851
REMARK INTRA:                  -0.908
REMARK UNBOUND:                -0.826
REMARK SMILES CCCCCCC=CCCCCCCCC(=O)[O-]
REMARK SMILES IDX 10 1 11 2 12 3 13 4 14 5 15 6 16 7 17 8 18 9 9 10 8 11 7 12
REMARK SMILES IDX 6 13 5 14 4 15 3 16 2 17 1 18
REMARK H PARENT
REMARK Flexibility Score: inf
ROOT
ATOM      1  C   UNL     1      61.058  23.726  49.964  1.00  0.00     0.004 C 
ENDROOT
BRANCH   1   2
ATOM      2  C   UNL     1      61.289  22.540  50.922  1.00  0.00     0.000 C 
BRANCH   2   3
ATOM      3  C   UNL     1      61.588  21.195  50.233  1.00  0.00     0.000 C 
BRANCH   3   4
ATOM      4  C   UNL     1      61.190  21.180  48.751  1.00  0.00     0.000 C 
BRANCH   4   5
ATOM      5  C   UNL     1      59.960  20.288  48.523  1.00  0.00     0.006 C 
BRANCH   5   6
ATOM      6  C   UNL     1      59.610  19.454  49.762  1.00  0.00     0.053 C 
BRANCH   6   7
ATOM      7  C   UNL     1      59.231  18.051  49.397  1.00  0.00     0.041 C 
ATOM      8  O   UNL     1      58.930  17.220  50.294  1.00  0.00    -0.550 OA
ATOM      9  O   UNL     1      59.242  17.652  48.066  1.00  0.00    -0.550 OA
ENDBRANCH   6   7
ENDBRANCH   5   6
ENDBRANCH   4   5
ENDBRANCH   3   4
ENDBRANCH   2   3
ENDBRANCH   1   2
BRANCH   1  10
ATOM     10  C   UNL     1      59.857  24.612  50.328  1.00  0.00     0.027 C 
BRANCH  10  11
ATOM     11  C   UNL     1      60.199  26.075  50.234  1.00  0.00    -0.031 C 
ATOM     12  C   UNL     1      59.520  26.908  49.432  1.00  0.00    -0.031 C 
BRANCH  12  13
ATOM     13  C   UNL     1      59.895  28.359  49.306  1.00  0.00     0.027 C 
BRANCH  13  14
ATOM     14  C   UNL     1      58.657  29.260  49.370  1.00  0.00     0.004 C 
BRANCH  14  15
ATOM     15  C   UNL     1      57.896  29.058  50.685  1.00  0.00     0.000 C 
BRANCH  15  16
ATOM     16  C   UNL     1      56.385  28.976  50.440  1.00  0.00    -0.000 C 
BRANCH  16  17
ATOM     17  C   UNL     1      55.925  27.518  50.319  1.00  0.00    -0.003 C 
ATOM     18  C   UNL     1      54.438  27.434  49.992  1.00  0.00     0.004 C 
ENDBRANCH  16  17
ENDBRANCH  15  16
ENDBRANCH  14  15
ENDBRANCH  13  14
ENDBRANCH  12  13
ENDBRANCH  10  11
ENDBRANCH   1  10
TORSDOF 13
ENDMDL
MODEL 5
REMARK VINA RESULT:    -3.914      6.497      9.143
REMARK INTER + INTRA:          -7.715
REMARK INTER:                  -5.804
REMARK INTRA:                  -1.911
REMARK UNBOUND:                -0.826
REMARK SMILES CCCCCCC=CCCCCCCCC(=O)[O-]
REMARK SMILES IDX 10 1 11 2 12 3 13 4 14 5 15 6 16 7 17 8 18 9 9 10 8 11 7 12
REMARK SMILES IDX 6 13 5 14 4 15 3 16 2 17 1 18
REMARK H PARENT
REMARK Flexibility Score: inf
ROOT
ATOM      1  C   UNL     1      58.696  29.858  51.115  1.00  0.00     0.004 C 
ENDROOT
BRANCH   1   2
ATOM      2  C   UNL     1      58.653  29.649  49.587  1.00  0.00     0.000 C 
BRANCH   2   3
ATOM      3  C   UNL     1      59.498  28.471  49.068  1.00  0.00     0.000 C 
BRANCH   3   4
ATOM      4  C   UNL     1      58.958  27.104  49.511  1.00  0.00     0.000 C 
BRANCH   4   5
ATOM      5  C   UNL     1      60.108  26.134  49.819  1.00  0.00     0.006 C 
BRANCH   5   6
ATOM      6  C   UNL     1      60.761  26.420  51.178  1.00  0.00     0.053 C 
BRANCH   6   7
ATOM      7  C   UNL     1      62.200  26.810  51.030  1.00  0.00     0.041 C 
ATOM      8  O   UNL     1      62.779  26.696  49.918  1.00  0.00    -0.550 OA
ATOM      9  O   UNL     1      62.911  27.271  52.131  1.00  0.00    -0.550 OA
ENDBRANCH   6   7
ENDBRANCH   5   6
ENDBRANCH   4   5
ENDBRANCH   3   4
ENDBRANCH   2   3
ENDBRANCH   1   2
BRANCH   1  10
ATOM     10  C   UNL     1      57.365  29.584  51.831  1.00  0.00     0.027 C 
BRANCH  10  11
ATOM     11  C   UNL     1      56.204  29.618  50.874  1.00  0.00    -0.031 C 
ATOM     12  C   UNL     1      54.935  29.677  51.306  1.00  0.00    -0.031 C 
BRANCH  12  13
ATOM     13  C   UNL     1      53.777  29.663  50.347  1.00  0.00     0.027 C 
BRANCH  13  14
ATOM     14  C   UNL     1      52.996  28.346  50.439  1.00  0.00     0.004 C 
BRANCH  14  15
ATOM     15  C   UNL     1      53.556  27.305  49.463  1.00  0.00     0.000 C 
BRANCH  15  16
ATOM     16  C   UNL     1      54.077  26.073  50.212  1.00  0.00    -0.000 C 
BRANCH  16  17
ATOM     17  C   UNL     1      55.610  26.048  50.229  1.00  0.00    -0.003 C 
ATOM     18  C   UNL     1      56.145  26.000  51.657  1.00  0.00     0.004 C 
ENDBRANCH  16  17
ENDBRANCH  15  16
ENDBRANCH  14  15
ENDBRANCH  13  14
ENDBRANCH  12  13
ENDBRANCH  10  11
ENDBRANCH   1  10
TORSDOF 13
ENDMDL
MODEL 6
REMARK VINA RESULT:    -3.899      1.047      2.163
REMARK INTER + INTRA:          -7.688
REMARK INTER:                  -7.073
REMARK INTRA:                  -0.615
REMARK UNBOUND:                -0.826
REMARK SMILES CCCCCCC=CCCCCCCCC(=O)[O-]
REMARK SMILES IDX 10 1 11 2 12 3 13 4 14 5 15 6 16 7 17 8 18 9 9 10 8 11 7 12
REMARK SMILES IDX 6 13 5 14 4 15 3 16 2 17 1 18
REMARK H PARENT
REMARK Flexibility Score: inf
ROOT
ATOM      1  C   UNL     1      60.839  21.303  48.612  1.00  0.00     0.004 C 
ENDROOT
BRANCH   1   2
ATOM      2  C   UNL     1      60.020  20.004  48.460  1.00  0.00     0.000 C 
BRANCH   2   3
ATOM      3  C   UNL     1      59.952  19.127  49.724  1.00  0.00     0.000 C 
BRANCH   3   4
ATOM      4  C   UNL     1      58.649  18.321  49.824  1.00  0.00     0.000 C 
BRANCH   4   5
ATOM      5  C   UNL     1      57.738  18.889  50.923  1.00  0.00     0.006 C 
BRANCH   5   6
ATOM      6  C   UNL     1      56.285  18.418  50.773  1.00  0.00     0.053 C 
BRANCH   6   7
ATOM      7  C   UNL     1      55.363  19.166  51.687  1.00  0.00     0.041 C 
ATOM      8  O   UNL     1      55.504  19.087  52.936  1.00  0.00    -0.550 OA
ATOM      9  O   UNL     1      54.327  19.926  51.159  1.00  0.00    -0.550 OA
ENDBRANCH   6   7
ENDBRANCH   5   6
ENDBRANCH   4   5
ENDBRANCH   3   4
ENDBRANCH   2   3
ENDBRANCH   1   2
BRANCH   1  10
ATOM     10  C   UNL     1      60.591  22.060  49.925  1.00  0.00     0.027 C 
BRANCH  10  11
ATOM     11  C   UNL     1      60.895  23.527  49.785  1.00  0.00    -0.031 C 
ATOM     12  C   UNL     1      60.081  24.468  50.286  1.00  0.00    -0.031 C 
BRANCH  12  13
ATOM     13  C   UNL     1      60.365  25.933  50.102  1.00  0.00     0.027 C 
BRANCH  13  14
ATOM     14  C   UNL     1      59.142  26.670  49.542  1.00  0.00     0.004 C 
BRANCH  14  15
ATOM     15  C   UNL     1      59.482  28.127  49.209  1.00  0.00     0.000 C 
BRANCH  15  16
ATOM     16  C   UNL     1      58.469  29.087  49.843  1.00  0.00    -0.000 C 
BRANCH  16  17
ATOM     17  C   UNL     1      57.212  28.338  50.299  1.00  0.00    -0.003 C 
ATOM     18  C   UNL     1      56.129  29.308  50.762  1.00  0.00     0.004 C 
ENDBRANCH  16  17
ENDBRANCH  15  16
ENDBRANCH  14  15
ENDBRANCH  13  14
ENDBRANCH  12  13
ENDBRANCH  10  11
ENDBRANCH   1  10
TORSDOF 13
ENDMDL
MODEL 7
REMARK VINA RESULT:    -3.872      6.567      8.970
REMARK INTER + INTRA:          -7.641
REMARK INTER:                  -5.762
REMARK INTRA:                  -1.879
REMARK UNBOUND:                -0.826
REMARK SMILES CCCCCCC=CCCCCCCCC(=O)[O-]
REMARK SMILES IDX 10 1 11 2 12 3 13 4 14 5 15 6 16 7 17 8 18 9 9 10 8 11 7 12
REMARK SMILES IDX 6 13 5 14 4 15 3 16 2 17 1 18
REMARK H PARENT
REMARK Flexibility Score: inf
ROOT
ATOM      1  C   UNL     1      58.862  26.062  50.761  1.00  0.00     0.004 C 
ENDROOT
BRANCH   1   2
ATOM      2  C   UNL     1      59.070  26.700  49.373  1.00  0.00     0.000 C 
BRANCH   2   3
ATOM      3  C   UNL     1      59.913  27.989  49.369  1.00  0.00     0.000 C 
BRANCH   3   4
ATOM      4  C   UNL     1      59.101  29.233  48.980  1.00  0.00     0.000 C 
BRANCH   4   5
ATOM      5  C   UNL     1      58.327  29.782  50.188  1.00  0.00     0.006 C 
BRANCH   5   6
ATOM      6  C   UNL     1      59.235  30.015  51.403  1.00  0.00     0.053 C 
BRANCH   6   7
ATOM      7  C   UNL     1      58.448  30.090  52.676  1.00  0.00     0.041 C 
ATOM      8  O   UNL     1      57.989  31.192  53.076  1.00  0.00    -0.550 OA
ATOM      9  O   UNL     1      58.249  28.945  53.438  1.00  0.00    -0.550 OA
ENDBRANCH   6   7
ENDBRANCH   5   6
ENDBRANCH   4   5
ENDBRANCH   3   4
ENDBRANCH   2   3
ENDBRANCH   1   2
BRANCH   1  10
ATOM     10  C   UNL     1      57.441  26.213  51.323  1.00  0.00     0.027 C 
BRANCH  10  11
ATOM     11  C   UNL     1      56.432  26.430  50.228  1.00  0.00    -0.031 C 
ATOM     12  C   UNL     1      55.197  25.911  50.292  1.00  0.00    -0.031 C 
BRANCH  12  13
ATOM     13  C   UNL     1      54.208  26.092  49.174  1.00  0.00     0.027 C 
BRANCH  13  14
ATOM     14  C   UNL     1      52.962  26.847  49.651  1.00  0.00     0.004 C 
BRANCH  14  15
ATOM     15  C   UNL     1      53.194  28.362  49.626  1.00  0.00     0.000 C 
BRANCH  15  16
ATOM     16  C   UNL     1      53.345  28.919  51.047  1.00  0.00    -0.000 C 
BRANCH  16  17
ATOM     17  C   UNL     1      54.681  29.653  51.211  1.00  0.00    -0.003 C 
ATOM     18  C   UNL     1      54.702  30.480  52.493  1.00  0.00     0.004 C 
ENDBRANCH  16  17
ENDBRANCH  15  16
ENDBRANCH  14  15
ENDBRANCH  13  14
ENDBRANCH  12  13
ENDBRANCH  10  11
ENDBRANCH   1  10
TORSDOF 13
ENDMDL
MODEL 8
REMARK VINA RESULT:    -3.859      5.580      8.550
REMARK INTER + INTRA:          -7.618
REMARK INTER:                  -5.741
REMARK INTRA:                  -1.877
REMARK UNBOUND:                -0.826
REMARK SMILES CCCCCCC=CCCCCCCCC(=O)[O-]
REMARK SMILES IDX 10 1 11 2 12 3 13 4 14 5 15 6 16 7 17 8 18 9 9 10 8 11 7 12
REMARK SMILES IDX 6 13 5 14 4 15 3 16 2 17 1 18
REMARK H PARENT
REMARK Flexibility Score: inf
ROOT
ATOM      1  C   UNL     1      55.539  30.137  51.914  1.00  0.00     0.004 C 
ENDROOT
BRANCH   1   2
ATOM      2  C   UNL     1      54.235  29.330  51.750  1.00  0.00     0.000 C 
BRANCH   2   3
ATOM      3  C   UNL     1      53.631  29.350  50.333  1.00  0.00     0.000 C 
BRANCH   3   4
ATOM      4  C   UNL     1      53.432  27.945  49.747  1.00  0.00     0.000 C 
BRANCH   4   5
ATOM      5  C   UNL     1      54.223  26.900  50.548  1.00  0.00     0.006 C 
BRANCH   5   6
ATOM      6  C   UNL     1      55.440  26.374  49.775  1.00  0.00     0.053 C 
BRANCH   6   7
ATOM      7  C   UNL     1      56.561  25.999  50.695  1.00  0.00     0.041 C 
ATOM      8  O   UNL     1      57.731  25.860  50.249  1.00  0.00    -0.550 OA
ATOM      9  O   UNL     1      56.308  25.772  52.042  1.00  0.00    -0.550 OA
ENDBRANCH   6   7
ENDBRANCH   5   6
ENDBRANCH   4   5
ENDBRANCH   3   4
ENDBRANCH   2   3
ENDBRANCH   1   2
BRANCH   1  10
ATOM     10  C   UNL     1      56.703  29.344  52.527  1.00  0.00     0.027 C 
BRANCH  10  11
ATOM     11  C   UNL     1      57.885  29.287  51.596  1.00  0.00    -0.031 C 
ATOM     12  C   UNL     1      57.754  29.483  50.276  1.00  0.00    -0.031 C 
BRANCH  12  13
ATOM     13  C   UNL     1      58.930  29.379  49.344  1.00  0.00     0.027 C 
BRANCH  13  14
ATOM     14  C   UNL     1      60.220  29.851  50.025  1.00  0.00     0.004 C 
BRANCH  14  15
ATOM     15  C   UNL     1      61.362  28.854  49.791  1.00  0.00     0.000 C 
BRANCH  15  16
ATOM     16  C   UNL     1      60.827  27.422  49.677  1.00  0.00    -0.000 C 
BRANCH  16  17
ATOM     17  C   UNL     1      61.265  26.575  50.878  1.00  0.00    -0.003 C 
ATOM     18  C   UNL     1      61.419  25.107  50.491  1.00  0.00     0.004 C 
ENDBRANCH  16  17
ENDBRANCH  15  16
ENDBRANCH  14  15
ENDBRANCH  13  14
ENDBRANCH  12  13
ENDBRANCH  10  11
ENDBRANCH   1  10
TORSDOF 13
ENDMDL
