MODEL 1
REMARK VINA RESULT:    -3.769      0.000      0.000
REMARK INTER + INTRA:          -5.700
REMARK INTER:                  -5.090
REMARK INTRA:                  -0.610
REMARK UNBOUND:                -0.610
REMARK SMILES CCCCCCC=CC(=O)[O-]
REMARK SMILES IDX 5 1 6 2 7 3 8 4 9 5 10 6 11 7 4 8 3 9 2 10 1 11
REMARK H PARENT
REMARK Flexibility Score: inf
ROOT
ATOM      1  C   UNL     1       7.175   7.748  -1.956  1.00  0.00     0.004 C 
ENDROOT
BRANCH   1   2
ATOM      2  C   UNL     1       5.951   8.436  -1.316  1.00  0.00     0.027 C 
BRANCH   2   3
ATOM      3  C   UNL     1       5.238   9.362  -2.268  1.00  0.00    -0.025 C 
ATOM      4  C   UNL     1       3.966   9.238  -2.682  1.00  0.00     0.020 C 
BRANCH   4   5
ATOM      5  C   UNL     1       3.002   8.199  -2.267  1.00  0.00     0.064 C 
ATOM      6  O   UNL     1       3.325   6.987  -2.168  1.00  0.00    -0.545 OA
ATOM      7  O   UNL     1       1.702   8.576  -1.954  1.00  0.00    -0.545 OA
ENDBRANCH   4   5
ENDBRANCH   2   3
ENDBRANCH   1   2
BRANCH   1   8
ATOM      8  C   UNL     1       6.883   6.339  -2.501  1.00  0.00     0.000 C 
BRANCH   8   9
ATOM      9  C   UNL     1       7.164   6.210  -4.007  1.00  0.00    -0.000 C 
BRANCH   9  10
ATOM     10  C   UNL     1       5.906   6.430  -4.861  1.00  0.00    -0.003 C 
ATOM     11  C   UNL     1       5.902   7.783  -5.574  1.00  0.00     0.004 C 
ENDBRANCH   9  10
ENDBRANCH   8   9
ENDBRANCH   1   8
TORSDOF 6
ENDMDL
MODEL 2
REMARK VINA RESULT:    -3.624      1.127      1.930
REMARK INTER + INTRA:          -5.506
REMARK INTER:                  -4.717
REMARK INTRA:                  -0.789
REMARK UNBOUND:                -0.610
REMARK SMILES CCCCCCC=CC(=O)[O-]
REMARK SMILES IDX 5 1 6 2 7 3 8 4 9 5 10 6 11 7 4 8 3 9 2 10 1 11
REMARK H PARENT
REMARK Flexibility Score: inf
ROOT
ATOM      1  C   UNL     1       6.715   8.497  -1.254  1.00  0.00     0.004 C 
ENDROOT
BRANCH   1   2
ATOM      2  C   UNL     1       5.892   9.578  -1.985  1.00  0.00     0.027 C 
BRANCH   2   3
ATOM      3  C   UNL     1       5.387   9.118  -3.328  1.00  0.00    -0.025 C 
ATOM      4  C   UNL     1       4.228   8.477  -3.557  1.00  0.00     0.020 C 
BRANCH   4   5
ATOM      5  C   UNL     1       3.203   8.125  -2.552  1.00  0.00     0.064 C 
ATOM      6  O   UNL     1       2.217   8.868  -2.313  1.00  0.00    -0.545 OA
ATOM      7  O   UNL     1       3.322   6.923  -1.866  1.00  0.00    -0.545 OA
ENDBRANCH   4   5
ENDBRANCH   2   3
ENDBRANCH   1   2
BRANCH   1   8
ATOM      8  C   UNL     1       8.067   8.187  -1.921  1.00  0.00     0.000 C 
BRANCH   8   9
ATOM      9  C   UNL     1       8.349   6.679  -2.029  1.00  0.00    -0.000 C 
BRANCH   9  10
ATOM     10  C   UNL     1       7.135   5.890  -2.543  1.00  0.00    -0.003 C 
ATOM     11  C   UNL     1       7.041   5.873  -4.068  1.00  0.00     0.004 C 
ENDBRANCH   9  10
ENDBRANCH   8   9
ENDBRANCH   1   8
TORSDOF 6
ENDMDL
MODEL 3
REMARK VINA RESULT:    -3.613     13.410     14.732
REMARK INTER + INTRA:          -5.490
REMARK INTER:                  -4.690
REMARK INTRA:                  -0.800
REMARK UNBOUND:                -0.610
REMARK SMILES CCCCCCC=CC(=O)[O-]
REMARK SMILES IDX 5 1 6 2 7 3 8 4 9 5 10 6 11 7 4 8 3 9 2 10 1 11
REMARK H PARENT
REMARK Flexibility Score: inf
ROOT
ATOM      1  C   UNL     1      -6.425   4.056  -7.216  1.00  0.00     0.004 C 
ENDROOT
BRANCH   1   2
ATOM      2  C   UNL     1      -7.133   3.851  -5.861  1.00  0.00     0.027 C 
BRANCH   2   3
ATOM      3  C   UNL     1      -8.581   3.464  -6.013  1.00  0.00    -0.025 C 
ATOM      4  C   UNL     1      -9.183   2.417  -5.423  1.00  0.00     0.020 C 
BRANCH   4   5
ATOM      5  C   UNL     1      -8.562   1.457  -4.487  1.00  0.00     0.064 C 
ATOM      6  O   UNL     1      -8.784   1.491  -3.249  1.00  0.00    -0.545 OA
ATOM      7  O   UNL     1      -7.724   0.472  -4.994  1.00  0.00    -0.545 OA
ENDBRANCH   4   5
ENDBRANCH   2   3
ENDBRANCH   1   2
BRANCH   1   8
ATOM      8  C   UNL     1      -7.355   3.910  -8.433  1.00  0.00     0.000 C 
BRANCH   8   9
ATOM      9  C   UNL     1      -6.948   2.754  -9.362  1.00  0.00    -0.000 C 
BRANCH   9  10
ATOM     10  C   UNL     1      -7.039   1.385  -8.671  1.00  0.00    -0.003 C 
ATOM     11  C   UNL     1      -8.446   0.790  -8.716  1.00  0.00     0.004 C 
ENDBRANCH   9  10
ENDBRANCH   8   9
ENDBRANCH   1   8
TORSDOF 6
ENDMDL
MODEL 4
REMARK VINA RESULT:    -3.565      1.234      2.616
REMARK INTER + INTRA:          -5.426
REMARK INTER:                  -4.637
REMARK INTRA:                  -0.789
REMARK UNBOUND:                -0.610
REMARK SMILES CCCCCCC=CC(=O)[O-]
REMARK SMILES IDX 5 1 6 2 7 3 8 4 9 5 10 6 11 7 4 8 3 9 2 10 1 11
REMARK H PARENT
REMARK Flexibility Score: inf
ROOT
ATOM      1  C   UNL     1       7.338   7.969  -4.350  1.00  0.00     0.004 C 
ENDROOT
BRANCH   1   2
ATOM      2  C   UNL     1       5.857   8.356  -4.541  1.00  0.00     0.027 C 
BRANCH   2   3
ATOM      3  C   UNL     1       5.385   9.368  -3.529  1.00  0.00    -0.025 C 
ATOM      4  C   UNL     1       4.459   9.159  -2.577  1.00  0.00     0.020 C 
BRANCH   4   5
ATOM      5  C   UNL     1       3.746   7.894  -2.307  1.00  0.00     0.064 C 
ATOM      6  O   UNL     1       4.354   6.834  -2.005  1.00  0.00    -0.545 OA
ATOM      7  O   UNL     1       2.358   7.880  -2.365  1.00  0.00    -0.545 OA
ENDBRANCH   4   5
ENDBRANCH   2   3
ENDBRANCH   1   2
BRANCH   1   8
ATOM      8  C   UNL     1       7.544   6.657  -3.571  1.00  0.00     0.000 C 
BRANCH   8   9
ATOM      9  C   UNL     1       7.829   6.888  -2.078  1.00  0.00    -0.000 C 
BRANCH   9  10
ATOM     10  C   UNL     1       8.522   8.234  -1.812  1.00  0.00    -0.003 C 
ATOM     11  C   UNL     1       7.813   9.064  -0.742  1.00  0.00     0.004 C 
ENDBRANCH   9  10
ENDBRANCH   8   9
ENDBRANCH   1   8
TORSDOF 6
ENDMDL
MODEL 5
REMARK VINA RESULT:    -3.535     12.809     14.407
REMARK INTER + INTRA:          -5.385
REMARK INTER:                  -4.847
REMARK INTRA:                  -0.538
REMARK UNBOUND:                -0.610
REMARK SMILES CCCCCCC=CC(=O)[O-]
REMARK SMILES IDX 5 1 6 2 7 3 8 4 9 5 10 6 11 7 4 8 3 9 2 10 1 11
REMARK H PARENT
REMARK Flexibility Score: inf
ROOT
ATOM      1  C   UNL     1      -6.435   2.573  -6.056  1.00  0.00     0.004 C 
ENDROOT
BRANCH   1   2
ATOM      2  C   UNL     1      -7.422   1.525  -6.613  1.00  0.00     0.027 C 
BRANCH   2   3
ATOM      3  C   UNL     1      -8.858   1.846  -6.286  1.00  0.00    -0.025 C 
ATOM      4  C   UNL     1      -9.539   1.406  -5.214  1.00  0.00     0.020 C 
BRANCH   4   5
ATOM      5  C   UNL     1      -9.015   0.552  -4.128  1.00  0.00     0.064 C 
ATOM      6  O   UNL     1      -8.923  -0.697  -4.243  1.00  0.00    -0.545 OA
ATOM      7  O   UNL     1      -8.589   1.152  -2.950  1.00  0.00    -0.545 OA
ENDBRANCH   4   5
ENDBRANCH   2   3
ENDBRANCH   1   2
BRANCH   1   8
ATOM      8  C   UNL     1      -6.813   4.026  -6.395  1.00  0.00     0.000 C 
BRANCH   8   9
ATOM      9  C   UNL     1      -6.541   4.387  -7.864  1.00  0.00    -0.000 C 
BRANCH   9  10
ATOM     10  C   UNL     1      -5.046   4.339  -8.215  1.00  0.00    -0.003 C 
ATOM     11  C   UNL     1      -4.729   3.337  -9.325  1.00  0.00     0.004 C 
ENDBRANCH   9  10
ENDBRANCH   8   9
ENDBRANCH   1   8
TORSDOF 6
ENDMDL
MODEL 6
REMARK VINA RESULT:    -3.518      2.147      3.946
REMARK INTER + INTRA:          -5.362
REMARK INTER:                  -4.761
REMARK INTRA:                  -0.600
REMARK UNBOUND:                -0.610
REMARK SMILES CCCCCCC=CC(=O)[O-]
REMARK SMILES IDX 5 1 6 2 7 3 8 4 9 5 10 6 11 7 4 8 3 9 2 10 1 11
REMARK H PARENT
REMARK Flexibility Score: inf
ROOT
ATOM      1  C   UNL     1       5.566   7.212  -1.628  1.00  0.00     0.004 C 
ENDROOT
BRANCH   1   2
ATOM      2  C   UNL     1       6.710   6.425  -2.301  1.00  0.00     0.027 C 
BRANCH   2   3
ATOM      3  C   UNL     1       7.364   7.192  -3.421  1.00  0.00    -0.025 C 
ATOM      4  C   UNL     1       7.018   7.140  -4.719  1.00  0.00     0.020 C 
BRANCH   4   5
ATOM      5  C   UNL     1       5.913   6.353  -5.304  1.00  0.00     0.064 C 
ATOM      6  O   UNL     1       5.922   5.095  -5.320  1.00  0.00    -0.545 OA
ATOM      7  O   UNL     1       4.818   7.024  -5.833  1.00  0.00    -0.545 OA
ENDBRANCH   4   5
ENDBRANCH   2   3
ENDBRANCH   1   2
BRANCH   1   8
ATOM      8  C   UNL     1       5.712   8.740  -1.736  1.00  0.00     0.000 C 
BRANCH   8   9
ATOM      9  C   UNL     1       4.657   9.378  -2.654  1.00  0.00    -0.000 C 
BRANCH   9  10
ATOM     10  C   UNL     1       3.471   8.439  -2.928  1.00  0.00    -0.003 C 
ATOM     11  C   UNL     1       2.188   8.885  -2.228  1.00  0.00     0.004 C 
ENDBRANCH   9  10
ENDBRANCH   8   9
ENDBRANCH   1   8
TORSDOF 6
ENDMDL
MODEL 7
REMARK VINA RESULT:    -3.499     12.829     14.792
REMARK INTER + INTRA:          -5.336
REMARK INTER:                  -4.928
REMARK INTRA:                  -0.409
REMARK UNBOUND:                -0.610
REMARK SMILES CCCCCCC=CC(=O)[O-]
REMARK SMILES IDX 5 1 6 2 7 3 8 4 9 5 10 6 11 7 4 8 3 9 2 10 1 11
REMARK H PARENT
REMARK Flexibility Score: inf
ROOT
ATOM      1  C   UNL     1      -7.807   1.411  -5.962  1.00  0.00     0.004 C 
ENDROOT
BRANCH   1   2
ATOM      2  C   UNL     1      -7.294   2.771  -5.445  1.00  0.00     0.027 C 
BRANCH   2   3
ATOM      3  C   UNL     1      -7.608   3.908  -6.383  1.00  0.00    -0.025 C 
ATOM      4  C   UNL     1      -6.867   4.287  -7.437  1.00  0.00     0.020 C 
BRANCH   4   5
ATOM      5  C   UNL     1      -5.620   3.652  -7.911  1.00  0.00     0.064 C 
ATOM      6  O   UNL     1      -4.485   4.040  -7.531  1.00  0.00    -0.545 OA
ATOM      7  O   UNL     1      -5.705   2.577  -8.786  1.00  0.00    -0.545 OA
ENDBRANCH   4   5
ENDBRANCH   2   3
ENDBRANCH   1   2
BRANCH   1   8
ATOM      8  C   UNL     1      -8.638   0.626  -4.932  1.00  0.00     0.000 C 
BRANCH   8   9
ATOM      9  C   UNL     1      -9.023   1.471  -3.706  1.00  0.00    -0.000 C 
BRANCH   9  10
ATOM     10  C   UNL     1      -9.575   0.617  -2.554  1.00  0.00    -0.003 C 
ATOM     11  C   UNL     1      -9.499  -0.883  -2.838  1.00  0.00     0.004 C 
ENDBRANCH   9  10
ENDBRANCH   8   9
ENDBRANCH   1   8
TORSDOF 6
ENDMDL
MODEL 8
REMARK VINA RESULT:    -3.475      2.625      4.373
REMARK INTER + INTRA:          -5.304
REMARK INTER:                  -4.328
REMARK INTRA:                  -0.976
REMARK UNBOUND:                -0.610
REMARK SMILES CCCCCCC=CC(=O)[O-]
REMARK SMILES IDX 5 1 6 2 7 3 8 4 9 5 10 6 11 7 4 8 3 9 2 10 1 11
REMARK H PARENT
REMARK Flexibility Score: inf
ROOT
ATOM      1  C   UNL     1       4.647   8.400  -3.457  1.00  0.00     0.004 C 
ENDROOT
BRANCH   1   2
ATOM      2  C   UNL     1       5.017   7.674  -4.767  1.00  0.00     0.027 C 
BRANCH   2   3
ATOM      3  C   UNL     1       6.503   7.639  -5.015  1.00  0.00    -0.025 C 
ATOM      4  C   UNL     1       7.325   6.614  -4.733  1.00  0.00     0.020 C 
BRANCH   4   5
ATOM      5  C   UNL     1       6.940   5.309  -4.159  1.00  0.00     0.064 C 
ATOM      6  O   UNL     1       7.055   5.057  -2.932  1.00  0.00    -0.545 OA
ATOM      7  O   UNL     1       6.411   4.336  -4.998  1.00  0.00    -0.545 OA
ENDBRANCH   4   5
ENDBRANCH   2   3
ENDBRANCH   1   2
BRANCH   1   8
ATOM      8  C   UNL     1       4.442   7.457  -2.258  1.00  0.00     0.000 C 
BRANCH   8   9
ATOM      9  C   UNL     1       5.525   7.619  -1.178  1.00  0.00    -0.000 C 
BRANCH   9  10
ATOM     10  C   UNL     1       6.488   8.777  -1.481  1.00  0.00    -0.003 C 
ATOM     11  C   UNL     1       7.953   8.342  -1.493  1.00  0.00     0.004 C 
ENDBRANCH   9  10
ENDBRANCH   8   9
ENDBRANCH   1   8
TORSDOF 6
ENDMDL
MODEL 9
REMARK VINA RESULT:    -3.461     13.432     15.101
REMARK INTER + INTRA:          -5.285
REMARK INTER:                  -4.654
REMARK INTRA:                  -0.631
REMARK UNBOUND:                -0.610
REMARK SMILES CCCCCCC=CC(=O)[O-]
REMARK SMILES IDX 5 1 6 2 7 3 8 4 9 5 10 6 11 7 4 8 3 9 2 10 1 11
REMARK H PARENT
REMARK Flexibility Score: inf
ROOT
ATOM      1  C   UNL     1      -8.492   0.725  -8.787  1.00  0.00     0.004 C 
ENDROOT
BRANCH   1   2
ATOM      2  C   UNL     1      -9.466   0.734  -7.591  1.00  0.00     0.027 C 
BRANCH   2   3
ATOM      3  C   UNL     1      -9.579   2.090  -6.942  1.00  0.00    -0.025 C 
ATOM      4  C   UNL     1      -9.071   2.436  -5.747  1.00  0.00     0.020 C 
BRANCH   4   5
ATOM      5  C   UNL     1      -8.275   1.576  -4.846  1.00  0.00     0.064 C 
ATOM      6  O   UNL     1      -8.643   1.314  -3.672  1.00  0.00    -0.545 OA
ATOM      7  O   UNL     1      -7.093   1.021  -5.320  1.00  0.00    -0.545 OA
ENDBRANCH   4   5
ENDBRANCH   2   3
ENDBRANCH   1   2
BRANCH   1   8
ATOM      8  C   UNL     1      -7.788   2.072  -9.028  1.00  0.00     0.000 C 
BRANCH   8   9
ATOM      9  C   UNL     1      -6.312   2.061  -8.597  1.00  0.00    -0.000 C 
BRANCH   9  10
ATOM     10  C   UNL     1      -5.754   3.475  -8.371  1.00  0.00    -0.003 C 
ATOM     11  C   UNL     1      -5.939   3.961  -6.934  1.00  0.00     0.004 C 
ENDBRANCH   9  10
ENDBRANCH   8   9
ENDBRANCH   1   8
TORSDOF 6
ENDMDL
