MODEL 1
REMARK VINA RESULT:    -2.884      0.000      0.000
REMARK INTER + INTRA:          -6.054
REMARK INTER:                  -5.414
REMARK INTRA:                  -0.640
REMARK UNBOUND:                -0.640
REMARK SMILES O=C([O-])CCCCCCCCCCCCCCC(=O)[O-]
REMARK SMILES IDX 10 1 9 2 8 3 7 4 6 5 5 6 4 7 2 8 1 9 3 10 11 11 12 12 13 13
REMARK SMILES IDX 14 14 15 15 16 16 17 17 18 18 19 19 20 20
REMARK H PARENT
REMARK Flexibility Score: inf
ROOT
ATOM      1  C   UNL     1       8.464  -6.381  -6.848  1.00  0.00     0.000 C 
ENDROOT
BRANCH   1   2
ATOM      2  C   UNL     1       9.137  -7.743  -6.611  1.00  0.00     0.000 C 
BRANCH   2   3
ATOM      3  C   UNL     1      10.293  -8.009  -7.592  1.00  0.00     0.000 C 
BRANCH   3   4
ATOM      4  C   UNL     1      11.656  -8.094  -6.886  1.00  0.00     0.000 C 
BRANCH   4   5
ATOM      5  C   UNL     1      11.539  -7.954  -5.359  1.00  0.00     0.000 C 
BRANCH   5   6
ATOM      6  C   UNL     1      12.124  -6.631  -4.840  1.00  0.00     0.006 C 
BRANCH   6   7
ATOM      7  C   UNL     1      12.111  -6.535  -3.309  1.00  0.00     0.053 C 
BRANCH   7   8
ATOM      8  C   UNL     1      11.868  -5.123  -2.877  1.00  0.00     0.041 C 
ATOM      9  O   UNL     1      11.652  -4.859  -1.665  1.00  0.00    -0.550 OA
ATOM     10  O   UNL     1      11.928  -4.092  -3.807  1.00  0.00    -0.550 OA
ENDBRANCH   7   8
ENDBRANCH   6   7
ENDBRANCH   5   6
ENDBRANCH   4   5
ENDBRANCH   3   4
ENDBRANCH   2   3
ENDBRANCH   1   2
BRANCH   1  11
ATOM     11  C   UNL     1       9.480  -5.239  -7.038  1.00  0.00     0.000 C 
BRANCH  11  12
ATOM     12  C   UNL     1      10.226  -5.346  -8.385  1.00  0.00     0.000 C 
BRANCH  12  13
ATOM     13  C   UNL     1       9.324  -5.115  -9.611  1.00  0.00     0.000 C 
BRANCH  13  14
ATOM     14  C   UNL     1       9.110  -3.624  -9.918  1.00  0.00     0.000 C 
BRANCH  14  15
ATOM     15  C   UNL     1       7.629  -3.261 -10.125  1.00  0.00     0.000 C 
BRANCH  15  16
ATOM     16  C   UNL     1       6.625  -4.406  -9.882  1.00  0.00     0.006 C 
BRANCH  16  17
ATOM     17  C   UNL     1       5.584  -4.107  -8.787  1.00  0.00     0.053 C 
BRANCH  17  18
ATOM     18  C   UNL     1       4.351  -3.449  -9.333  1.00  0.00     0.041 C 
ATOM     19  O   UNL     1       3.393  -4.149  -9.754  1.00  0.00    -0.550 OA
ATOM     20  O   UNL     1       4.243  -2.064  -9.338  1.00  0.00    -0.550 OA
ENDBRANCH  17  18
ENDBRANCH  16  17
ENDBRANCH  15  16
ENDBRANCH  14  15
ENDBRANCH  13  14
ENDBRANCH  12  13
ENDBRANCH  11  12
ENDBRANCH   1  11
TORSDOF 15
ENDMDL
MODEL 2
REMARK VINA RESULT:    -2.864      1.191      7.544
REMARK INTER + INTRA:          -6.015
REMARK INTER:                  -5.341
REMARK INTRA:                  -0.673
REMARK UNBOUND:                -0.640
REMARK SMILES O=C([O-])CCCCCCCCCCCCCCC(=O)[O-]
REMARK SMILES IDX 10 1 9 2 8 3 7 4 6 5 5 6 4 7 2 8 1 9 3 10 11 11 12 12 13 13
REMARK SMILES IDX 14 14 15 15 16 16 17 17 18 18 19 19 20 20
REMARK H PARENT
REMARK Flexibility Score: inf
ROOT
ATOM      1  C   UNL     1       8.003  -6.851  -7.373  1.00  0.00     0.000 C 
ENDROOT
BRANCH   1   2
ATOM      2  C   UNL     1       8.397  -5.366  -7.435  1.00  0.00     0.000 C 
BRANCH   2   3
ATOM      3  C   UNL     1       9.426  -5.073  -8.542  1.00  0.00     0.000 C 
BRANCH   3   4
ATOM      4  C   UNL     1       8.788  -5.018  -9.939  1.00  0.00     0.000 C 
BRANCH   4   5
ATOM      5  C   UNL     1       7.880  -3.790 -10.124  1.00  0.00     0.000 C 
BRANCH   5   6
ATOM      6  C   UNL     1       6.486  -3.988  -9.509  1.00  0.00     0.006 C 
BRANCH   6   7
ATOM      7  C   UNL     1       5.490  -2.900  -9.931  1.00  0.00     0.053 C 
BRANCH   7   8
ATOM      8  C   UNL     1       4.148  -3.158  -9.322  1.00  0.00     0.041 C 
ATOM      9  O   UNL     1       3.790  -2.534  -8.289  1.00  0.00    -0.550 OA
ATOM     10  O   UNL     1       3.272  -4.054  -9.923  1.00  0.00    -0.550 OA
ENDBRANCH   7   8
ENDBRANCH   6   7
ENDBRANCH   5   6
ENDBRANCH   4   5
ENDBRANCH   3   4
ENDBRANCH   2   3
ENDBRANCH   1   2
BRANCH   1  11
ATOM     11  C   UNL     1       9.220  -7.786  -7.258  1.00  0.00     0.000 C 
BRANCH  11  12
ATOM     12  C   UNL     1      10.008  -7.555  -5.950  1.00  0.00     0.000 C 
BRANCH  12  13
ATOM     13  C   UNL     1      11.533  -7.510  -6.147  1.00  0.00     0.000 C 
BRANCH  13  14
ATOM     14  C   UNL     1      12.125  -6.116  -5.884  1.00  0.00     0.000 C 
BRANCH  14  15
ATOM     15  C   UNL     1      11.052  -5.055  -5.580  1.00  0.00     0.000 C 
BRANCH  15  16
ATOM     16  C   UNL     1      11.494  -3.915  -4.641  1.00  0.00     0.006 C 
BRANCH  16  17
ATOM     17  C   UNL     1      12.069  -4.395  -3.297  1.00  0.00     0.053 C 
BRANCH  17  18
ATOM     18  C   UNL     1      11.130  -5.308  -2.565  1.00  0.00     0.041 C 
ATOM     19  O   UNL     1      10.190  -4.830  -1.876  1.00  0.00    -0.550 OA
ATOM     20  O   UNL     1      11.265  -6.686  -2.677  1.00  0.00    -0.550 OA
ENDBRANCH  17  18
ENDBRANCH  16  17
ENDBRANCH  15  16
ENDBRANCH  14  15
ENDBRANCH  13  14
ENDBRANCH  12  13
ENDBRANCH  11  12
ENDBRANCH   1  11
TORSDOF 15
ENDMDL
MODEL 3
REMARK VINA RESULT:    -2.000      1.377      2.130
REMARK INTER + INTRA:          -4.394
REMARK INTER:                  -5.517
REMARK INTRA:                   1.123
REMARK UNBOUND:                -0.640
REMARK SMILES O=C([O-])CCCCCCCCCCCCCCC(=O)[O-]
REMARK SMILES IDX 10 1 9 2 8 3 7 4 6 5 5 6 4 7 2 8 1 9 3 10 11 11 12 12 13 13
REMARK SMILES IDX 14 14 15 15 16 16 17 17 18 18 19 19 20 20
REMARK H PARENT
REMARK Flexibility Score: inf
ROOT
ATOM      1  C   UNL     1       8.643  -6.865  -6.891  1.00  0.00     0.000 C 
ENDROOT
BRANCH   1   2
ATOM      2  C   UNL     1       9.829  -6.422  -6.019  1.00  0.00     0.000 C 
BRANCH   2   3
ATOM      3  C   UNL     1      10.550  -7.608  -5.354  1.00  0.00     0.000 C 
BRANCH   3   4
ATOM      4  C   UNL     1      10.613  -7.476  -3.824  1.00  0.00     0.000 C 
BRANCH   4   5
ATOM      5  C   UNL     1      11.771  -6.577  -3.357  1.00  0.00     0.000 C 
BRANCH   5   6
ATOM      6  C   UNL     1      11.294  -5.403  -2.487  1.00  0.00     0.006 C 
BRANCH   6   7
ATOM      7  C   UNL     1      12.093  -4.117  -2.735  1.00  0.00     0.053 C 
BRANCH   7   8
ATOM      8  C   UNL     1      11.724  -3.522  -4.057  1.00  0.00     0.041 C 
ATOM      9  O   UNL     1      11.802  -2.278  -4.237  1.00  0.00    -0.550 OA
ATOM     10  O   UNL     1      11.339  -4.346  -5.108  1.00  0.00    -0.550 OA
ENDBRANCH   7   8
ENDBRANCH   6   7
ENDBRANCH   5   6
ENDBRANCH   4   5
ENDBRANCH   3   4
ENDBRANCH   2   3
ENDBRANCH   1   2
BRANCH   1  11
ATOM     11  C   UNL     1       9.074  -7.730  -8.090  1.00  0.00     0.000 C 
BRANCH  11  12
ATOM     12  C   UNL     1      10.515  -7.410  -8.546  1.00  0.00     0.000 C 
BRANCH  12  13
ATOM     13  C   UNL     1      10.772  -5.910  -8.771  1.00  0.00     0.000 C 
BRANCH  13  14
ATOM     14  C   UNL     1      10.149  -5.390 -10.077  1.00  0.00     0.000 C 
BRANCH  14  15
ATOM     15  C   UNL     1       8.611  -5.436 -10.069  1.00  0.00     0.000 C 
BRANCH  15  16
ATOM     16  C   UNL     1       7.909  -4.090  -9.798  1.00  0.00     0.006 C 
BRANCH  16  17
ATOM     17  C   UNL     1       6.631  -4.209  -8.949  1.00  0.00     0.053 C 
BRANCH  17  18
ATOM     18  C   UNL     1       5.429  -3.631  -9.637  1.00  0.00     0.041 C 
ATOM     19  O   UNL     1       4.373  -4.308  -9.744  1.00  0.00    -0.550 OA
ATOM     20  O   UNL     1       5.462  -2.330 -10.124  1.00  0.00    -0.550 OA
ENDBRANCH  17  18
ENDBRANCH  16  17
ENDBRANCH  15  16
ENDBRANCH  14  15
ENDBRANCH  13  14
ENDBRANCH  12  13
ENDBRANCH  11  12
ENDBRANCH   1  11
TORSDOF 15
ENDMDL
MODEL 4
REMARK VINA RESULT:    -1.466     14.454     16.210
REMARK INTER + INTRA:          -3.392
REMARK INTER:                  -3.321
REMARK INTRA:                  -0.071
REMARK UNBOUND:                -0.640
REMARK SMILES O=C([O-])CCCCCCCCCCCCCCC(=O)[O-]
REMARK SMILES IDX 10 1 9 2 8 3 7 4 6 5 5 6 4 7 2 8 1 9 3 10 11 11 12 12 13 13
REMARK SMILES IDX 14 14 15 15 16 16 17 17 18 18 19 19 20 20
REMARK H PARENT
REMARK Flexibility Score: inf
ROOT
ATOM      1  C   UNL     1      -8.125  -5.655  -5.770  1.00  0.00     0.000 C 
ENDROOT
BRANCH   1   2
ATOM      2  C   UNL     1      -8.062  -7.107  -5.269  1.00  0.00     0.000 C 
BRANCH   2   3
ATOM      3  C   UNL     1      -7.928  -8.123  -6.417  1.00  0.00     0.000 C 
BRANCH   3   4
ATOM      4  C   UNL     1      -7.337  -7.497  -7.691  1.00  0.00     0.000 C 
BRANCH   4   5
ATOM      5  C   UNL     1      -5.989  -8.125  -8.085  1.00  0.00     0.000 C 
BRANCH   5   6
ATOM      6  C   UNL     1      -4.874  -7.814  -7.075  1.00  0.00     0.006 C 
BRANCH   6   7
ATOM      7  C   UNL     1      -5.081  -6.474  -6.356  1.00  0.00     0.053 C 
BRANCH   7   8
ATOM      8  C   UNL     1      -4.649  -6.579  -4.927  1.00  0.00     0.041 C 
ATOM      9  O   UNL     1      -4.671  -5.564  -4.182  1.00  0.00    -0.550 OA
ATOM     10  O   UNL     1      -4.268  -7.808  -4.404  1.00  0.00    -0.550 OA
ENDBRANCH   7   8
ENDBRANCH   6   7
ENDBRANCH   5   6
ENDBRANCH   4   5
ENDBRANCH   3   4
ENDBRANCH   2   3
ENDBRANCH   1   2
BRANCH   1  11
ATOM     11  C   UNL     1      -7.582  -4.645  -4.741  1.00  0.00     0.000 C 
BRANCH  11  12
ATOM     12  C   UNL     1      -6.993  -3.389  -5.418  1.00  0.00     0.000 C 
BRANCH  12  13
ATOM     13  C   UNL     1      -8.057  -2.371  -5.864  1.00  0.00     0.000 C 
BRANCH  13  14
ATOM     14  C   UNL     1      -7.474  -1.239  -6.725  1.00  0.00     0.000 C 
BRANCH  14  15
ATOM     15  C   UNL     1      -8.123  -1.148  -8.118  1.00  0.00     0.000 C 
BRANCH  15  16
ATOM     16  C   UNL     1      -7.276  -1.700  -9.282  1.00  0.00     0.006 C 
BRANCH  16  17
ATOM     17  C   UNL     1      -7.823  -3.002  -9.894  1.00  0.00     0.053 C 
BRANCH  17  18
ATOM     18  C   UNL     1      -7.179  -4.225  -9.309  1.00  0.00     0.041 C 
ATOM     19  O   UNL     1      -6.136  -4.120  -8.611  1.00  0.00    -0.550 OA
ATOM     20  O   UNL     1      -7.753  -5.475  -9.501  1.00  0.00    -0.550 OA
ENDBRANCH  17  18
ENDBRANCH  16  17
ENDBRANCH  15  16
ENDBRANCH  14  15
ENDBRANCH  13  14
ENDBRANCH  12  13
ENDBRANCH  11  12
ENDBRANCH   1  11
TORSDOF 15
ENDMDL
MODEL 5
REMARK VINA RESULT:    -1.454      2.303      8.884
REMARK INTER + INTRA:          -3.369
REMARK INTER:                  -2.618
REMARK INTRA:                  -0.751
REMARK UNBOUND:                -0.640
REMARK SMILES O=C([O-])CCCCCCCCCCCCCCC(=O)[O-]
REMARK SMILES IDX 10 1 9 2 8 3 7 4 6 5 5 6 4 7 2 8 1 9 3 10 11 11 12 12 13 13
REMARK SMILES IDX 14 14 15 15 16 16 17 17 18 18 19 19 20 20
REMARK H PARENT
REMARK Flexibility Score: inf
ROOT
ATOM      1  C   UNL     1       7.675  -4.959  -8.346  1.00  0.00     0.000 C 
ENDROOT
BRANCH   1   2
ATOM      2  C   UNL     1       6.845  -3.826  -8.971  1.00  0.00     0.000 C 
BRANCH   2   3
ATOM      3  C   UNL     1       5.569  -4.339  -9.662  1.00  0.00     0.000 C 
BRANCH   3   4
ATOM      4  C   UNL     1       4.321  -3.530  -9.270  1.00  0.00     0.000 C 
BRANCH   4   5
ATOM      5  C   UNL     1       3.038  -4.077  -9.919  1.00  0.00     0.000 C 
BRANCH   5   6
ATOM      6  C   UNL     1       3.004  -5.612  -9.961  1.00  0.00     0.006 C 
BRANCH   6   7
ATOM      7  C   UNL     1       1.585  -6.171 -10.124  1.00  0.00     0.053 C 
BRANCH   7   8
ATOM      8  C   UNL     1       1.255  -7.094  -8.993  1.00  0.00     0.041 C 
ATOM      9  O   UNL     1       1.826  -6.961  -7.879  1.00  0.00    -0.550 OA
ATOM     10  O   UNL     1       0.280  -8.071  -9.155  1.00  0.00    -0.550 OA
ENDBRANCH   7   8
ENDBRANCH   6   7
ENDBRANCH   5   6
ENDBRANCH   4   5
ENDBRANCH   3   4
ENDBRANCH   2   3
ENDBRANCH   1   2
BRANCH   1  11
ATOM     11  C   UNL     1       9.144  -4.562  -8.109  1.00  0.00     0.000 C 
BRANCH  11  12
ATOM     12  C   UNL     1       9.989  -5.748  -7.596  1.00  0.00     0.000 C 
BRANCH  12  13
ATOM     13  C   UNL     1       9.402  -6.430  -6.347  1.00  0.00     0.000 C 
BRANCH  13  14
ATOM     14  C   UNL     1       9.917  -7.866  -6.157  1.00  0.00     0.000 C 
BRANCH  14  15
ATOM     15  C   UNL     1      11.451  -7.950  -6.089  1.00  0.00     0.000 C 
BRANCH  15  16
ATOM     16  C   UNL     1      12.119  -7.054  -5.026  1.00  0.00     0.006 C 
BRANCH  16  17
ATOM     17  C   UNL     1      11.849  -7.493  -3.576  1.00  0.00     0.053 C 
BRANCH  17  18
ATOM     18  C   UNL     1      11.417  -6.353  -2.702  1.00  0.00     0.041 C 
ATOM     19  O   UNL     1      10.425  -5.648  -3.025  1.00  0.00    -0.550 OA
ATOM     20  O   UNL     1      12.084  -6.093  -1.512  1.00  0.00    -0.550 OA
ENDBRANCH  17  18
ENDBRANCH  16  17
ENDBRANCH  15  16
ENDBRANCH  14  15
ENDBRANCH  13  14
ENDBRANCH  12  13
ENDBRANCH  11  12
ENDBRANCH   1  11
TORSDOF 15
ENDMDL
MODEL 6
REMARK VINA RESULT:    -1.372      2.417      8.445
REMARK INTER + INTRA:          -3.215
REMARK INTER:                  -2.395
REMARK INTRA:                  -0.820
REMARK UNBOUND:                -0.640
REMARK SMILES O=C([O-])CCCCCCCCCCCCCCC(=O)[O-]
REMARK SMILES IDX 10 1 9 2 8 3 7 4 6 5 5 6 4 7 2 8 1 9 3 10 11 11 12 12 13 13
REMARK SMILES IDX 14 14 15 15 16 16 17 17 18 18 19 19 20 20
REMARK H PARENT
REMARK Flexibility Score: inf
ROOT
ATOM      1  C   UNL     1       7.530  -3.911  -8.807  1.00  0.00     0.000 C 
ENDROOT
BRANCH   1   2
ATOM      2  C   UNL     1       6.076  -4.134  -9.256  1.00  0.00     0.000 C 
BRANCH   2   3
ATOM      3  C   UNL     1       5.089  -3.179  -8.561  1.00  0.00     0.000 C 
BRANCH   3   4
ATOM      4  C   UNL     1       3.754  -3.063  -9.314  1.00  0.00     0.000 C 
BRANCH   4   5
ATOM      5  C   UNL     1       3.423  -4.327 -10.125  1.00  0.00     0.000 C 
BRANCH   5   6
ATOM      6  C   UNL     1       2.876  -5.465  -9.248  1.00  0.00     0.006 C 
BRANCH   6   7
ATOM      7  C   UNL     1       2.353  -6.650 -10.071  1.00  0.00     0.053 C 
BRANCH   7   8
ATOM      8  C   UNL     1       1.138  -7.236  -9.424  1.00  0.00     0.041 C 
ATOM      9  O   UNL     1       0.255  -7.798 -10.124  1.00  0.00    -0.550 OA
ATOM     10  O   UNL     1       1.003  -7.205  -8.041  1.00  0.00    -0.550 OA
ENDBRANCH   7   8
ENDBRANCH   6   7
ENDBRANCH   5   6
ENDBRANCH   4   5
ENDBRANCH   3   4
ENDBRANCH   2   3
ENDBRANCH   1   2
BRANCH   1  11
ATOM     11  C   UNL     1       8.556  -4.330  -9.876  1.00  0.00     0.000 C 
BRANCH  11  12
ATOM     12  C   UNL     1       8.708  -5.864  -9.962  1.00  0.00     0.000 C 
BRANCH  12  13
ATOM     13  C   UNL     1       8.519  -6.580  -8.613  1.00  0.00     0.000 C 
BRANCH  13  14
ATOM     14  C   UNL     1       9.674  -7.538  -8.281  1.00  0.00     0.000 C 
BRANCH  14  15
ATOM     15  C   UNL     1      11.049  -6.845  -8.285  1.00  0.00     0.000 C 
BRANCH  15  16
ATOM     16  C   UNL     1      11.302  -5.867  -7.120  1.00  0.00     0.006 C 
BRANCH  16  17
ATOM     17  C   UNL     1      10.802  -6.373  -5.755  1.00  0.00     0.053 C 
BRANCH  17  18
ATOM     18  C   UNL     1      10.902  -5.327  -4.685  1.00  0.00     0.041 C 
ATOM     19  O   UNL     1      10.825  -5.653  -3.471  1.00  0.00    -0.550 OA
ATOM     20  O   UNL     1      11.123  -3.999  -5.025  1.00  0.00    -0.550 OA
ENDBRANCH  17  18
ENDBRANCH  16  17
ENDBRANCH  15  16
ENDBRANCH  14  15
ENDBRANCH  13  14
ENDBRANCH  12  13
ENDBRANCH  11  12
ENDBRANCH   1  11
TORSDOF 15
ENDMDL
