MODEL 1
REMARK VINA RESULT:    -5.261      0.000      0.000
REMARK INTER + INTRA:          -5.898
REMARK INTER:                  -5.722
REMARK INTRA:                  -0.175
REMARK UNBOUND:                -0.175
REMARK SMILES C=C1C[C@]2(O)O[C@]3(C[C@H]2C(C)C)[C@H](C)CC[C@@H]13
REMARK SMILES IDX 14 1 13 2 15 3 16 4 17 5 7 6 8 7 9 8 4 9 6 10 3 11 2 12 1 13
REMARK SMILES IDX 10 14 11 15 12 16 5 17
REMARK H PARENT 5 18
REMARK Flexibility Score: inf
ROOT
ATOM      1  C   UNL     1       8.160 -23.016 -11.354  1.00  0.00     0.011 C 
ATOM      2  C   UNL     1       8.889 -22.342 -10.178  1.00  0.00     0.019 C 
ATOM      3  C   UNL     1       8.136 -22.556  -8.839  1.00  0.00     0.007 C 
ATOM      4  C   UNL     1       7.503 -21.208  -8.443  1.00  0.00     0.011 C 
ATOM      5  C   UNL     1       7.644 -20.354  -9.693  1.00  0.00     0.047 C 
ATOM      6  C   UNL     1       8.964 -20.809 -10.317  1.00  0.00     0.081 C 
ATOM      7  C   UNL     1      10.219 -20.229  -9.613  1.00  0.00     0.046 C 
ATOM      8  C   UNL     1      10.590 -18.993 -10.447  1.00  0.00     0.054 C 
ATOM      9  C   UNL     1       9.398 -18.954 -11.449  1.00  0.00     0.173 C 
ATOM     10  O   UNL     1       9.003 -20.305 -11.630  1.00  0.00    -0.342 OA
ATOM     11  C   UNL     1       8.204 -18.135 -10.825  1.00  0.00     0.096 C 
ATOM     12  C   UNL     1       7.622 -18.850  -9.617  1.00  0.00    -0.066 C 
ATOM     13  C   UNL     1       6.943 -18.184  -8.673  1.00  0.00     0.008 C 
ENDROOT
BRANCH   8  14
ATOM     14  C   UNL     1      12.040 -19.107 -11.045  1.00  0.00    -0.009 C 
ATOM     15  C   UNL     1      12.745 -17.741 -11.198  1.00  0.00     0.008 C 
ATOM     16  C   UNL     1      12.934 -19.989 -10.143  1.00  0.00     0.008 C 
ENDBRANCH   8  14
BRANCH   9  17
ATOM     17  O   UNL     1       9.735 -18.419 -12.701  1.00  0.00    -0.365 OA
ATOM     18  H   UNL     1       8.890 -18.189 -13.170  1.00  0.00     0.214 HD
ENDBRANCH   9  17
TORSDOF 2
ENDMDL
MODEL 2
REMARK VINA RESULT:    -5.028      2.025      3.428
REMARK INTER + INTRA:          -5.644
REMARK INTER:                  -5.396
REMARK INTRA:                  -0.249
REMARK UNBOUND:                -0.175
REMARK SMILES C=C1C[C@]2(O)O[C@]3(C[C@H]2C(C)C)[C@H](C)CC[C@@H]13
REMARK SMILES IDX 14 1 13 2 15 3 16 4 17 5 7 6 8 7 9 8 4 9 6 10 3 11 2 12 1 13
REMARK SMILES IDX 10 14 11 15 12 16 5 17
REMARK H PARENT 5 18
REMARK Flexibility Score: inf
ROOT
ATOM      1  C   UNL     1       4.030 -20.511  -8.953  1.00  0.00     0.011 C 
ATOM      2  C   UNL     1       5.307 -20.541  -8.095  1.00  0.00     0.019 C 
ATOM      3  C   UNL     1       5.021 -20.124  -6.629  1.00  0.00     0.007 C 
ATOM      4  C   UNL     1       5.629 -18.723  -6.420  1.00  0.00     0.011 C 
ATOM      5  C   UNL     1       5.965 -18.254  -7.826  1.00  0.00     0.047 C 
ATOM      6  C   UNL     1       6.370 -19.529  -8.565  1.00  0.00     0.081 C 
ATOM      7  C   UNL     1       7.807 -20.012  -8.235  1.00  0.00     0.046 C 
ATOM      8  C   UNL     1       8.675 -19.434  -9.363  1.00  0.00     0.054 C 
ATOM      9  C   UNL     1       7.622 -18.571 -10.122  1.00  0.00     0.173 C 
ATOM     10  O   UNL     1       6.380 -19.233  -9.940  1.00  0.00    -0.342 OA
ATOM     11  C   UNL     1       7.552 -17.132  -9.482  1.00  0.00     0.096 C 
ATOM     12  C   UNL     1       7.003 -17.189  -8.066  1.00  0.00    -0.066 C 
ATOM     13  C   UNL     1       7.262 -16.219  -7.179  1.00  0.00     0.008 C 
ENDROOT
BRANCH   8  14
ATOM     14  C   UNL     1       9.409 -20.565 -10.173  1.00  0.00    -0.009 C 
ATOM     15  C   UNL     1      10.907 -20.694  -9.818  1.00  0.00     0.008 C 
ATOM     16  C   UNL     1       8.752 -21.939  -9.907  1.00  0.00     0.008 C 
ENDBRANCH   8  14
BRANCH   9  17
ATOM     17  O   UNL     1       7.871 -18.465 -11.498  1.00  0.00    -0.365 OA
ATOM     18  H   UNL     1       8.013 -17.505 -11.708  1.00  0.00     0.214 HD
ENDBRANCH   9  17
TORSDOF 2
ENDMDL
MODEL 3
REMARK VINA RESULT:    -4.790      2.169      4.467
REMARK INTER + INTRA:          -5.385
REMARK INTER:                  -5.201
REMARK INTRA:                  -0.184
REMARK UNBOUND:                -0.175
REMARK SMILES C=C1C[C@]2(O)O[C@]3(C[C@H]2C(C)C)[C@H](C)CC[C@@H]13
REMARK SMILES IDX 14 1 13 2 15 3 16 4 17 5 7 6 8 7 9 8 4 9 6 10 3 11 2 12 1 13
REMARK SMILES IDX 10 14 11 15 12 16 5 17
REMARK H PARENT 5 18
REMARK Flexibility Score: inf
ROOT
ATOM      1  C   UNL     1      11.052 -21.587  -7.823  1.00  0.00     0.011 C 
ATOM      2  C   UNL     1       9.953 -21.952  -8.836  1.00  0.00     0.019 C 
ATOM      3  C   UNL     1      10.549 -22.568 -10.129  1.00  0.00     0.007 C 
ATOM      4  C   UNL     1      10.404 -21.521 -11.251  1.00  0.00     0.011 C 
ATOM      5  C   UNL     1      10.024 -20.246 -10.516  1.00  0.00     0.047 C 
ATOM      6  C   UNL     1       9.170 -20.724  -9.342  1.00  0.00     0.081 C 
ATOM      7  C   UNL     1       7.717 -21.093  -9.737  1.00  0.00     0.046 C 
ATOM      8  C   UNL     1       6.902 -19.826  -9.431  1.00  0.00     0.054 C 
ATOM      9  C   UNL     1       8.041 -18.844  -9.026  1.00  0.00     0.173 C 
ATOM     10  O   UNL     1       9.054 -19.648  -8.442  1.00  0.00    -0.342 OA
ATOM     11  C   UNL     1       8.611 -18.128 -10.310  1.00  0.00     0.096 C 
ATOM     12  C   UNL     1       9.313 -19.121 -11.223  1.00  0.00    -0.066 C 
ATOM     13  C   UNL     1       9.470 -18.875 -12.530  1.00  0.00     0.008 C 
ENDROOT
BRANCH   8  14
ATOM     14  C   UNL     1       5.769 -20.101  -8.376  1.00  0.00    -0.009 C 
ATOM     15  C   UNL     1       4.506 -19.241  -8.600  1.00  0.00     0.008 C 
ATOM     16  C   UNL     1       5.331 -21.584  -8.421  1.00  0.00     0.008 C 
ENDBRANCH   8  14
BRANCH   9  17
ATOM     17  O   UNL     1       7.644 -17.881  -8.086  1.00  0.00    -0.365 OA
ATOM     18  H   UNL     1       6.822 -18.214  -7.640  1.00  0.00     0.214 HD
ENDBRANCH   9  17
TORSDOF 2
ENDMDL
MODEL 4
REMARK VINA RESULT:    -4.706      1.598      4.382
REMARK INTER + INTRA:          -5.294
REMARK INTER:                  -5.052
REMARK INTRA:                  -0.242
REMARK UNBOUND:                -0.175
REMARK SMILES C=C1C[C@]2(O)O[C@]3(C[C@H]2C(C)C)[C@H](C)CC[C@@H]13
REMARK SMILES IDX 14 1 13 2 15 3 16 4 17 5 7 6 8 7 9 8 4 9 6 10 3 11 2 12 1 13
REMARK SMILES IDX 10 14 11 15 12 16 5 17
REMARK H PARENT 5 18
REMARK Flexibility Score: inf
ROOT
ATOM      1  C   UNL     1      13.117 -17.940 -10.851  1.00  0.00     0.011 C 
ATOM      2  C   UNL     1      12.303 -18.647  -9.753  1.00  0.00     0.019 C 
ATOM      3  C   UNL     1      13.071 -19.857  -9.160  1.00  0.00     0.007 C 
ATOM      4  C   UNL     1      12.378 -21.137  -9.666  1.00  0.00     0.011 C 
ATOM      5  C   UNL     1      11.446 -20.643 -10.760  1.00  0.00     0.047 C 
ATOM      6  C   UNL     1      10.993 -19.264 -10.280  1.00  0.00     0.081 C 
ATOM      7  C   UNL     1       9.900 -19.315  -9.181  1.00  0.00     0.046 C 
ATOM      8  C   UNL     1       8.577 -19.157  -9.947  1.00  0.00     0.054 C 
ATOM      9  C   UNL     1       9.094 -19.176 -11.416  1.00  0.00     0.173 C 
ATOM     10  O   UNL     1      10.396 -18.614 -11.374  1.00  0.00    -0.342 OA
ATOM     11  C   UNL     1       9.178 -20.663 -11.933  1.00  0.00     0.096 C 
ATOM     12  C   UNL     1      10.241 -21.444 -11.179  1.00  0.00    -0.066 C 
ATOM     13  C   UNL     1      10.199 -22.781 -11.102  1.00  0.00     0.008 C 
ENDROOT
BRANCH   8  14
ATOM     14  C   UNL     1       7.776 -17.889  -9.473  1.00  0.00    -0.009 C 
ATOM     15  C   UNL     1       6.650 -18.220  -8.469  1.00  0.00     0.008 C 
ATOM     16  C   UNL     1       8.720 -16.872  -8.789  1.00  0.00     0.008 C 
ENDBRANCH   8  14
BRANCH   9  17
ATOM     17  O   UNL     1       8.310 -18.413 -12.296  1.00  0.00    -0.365 OA
ATOM     18  H   UNL     1       8.158 -18.955 -13.114  1.00  0.00     0.214 HD
ENDBRANCH   9  17
TORSDOF 2
ENDMDL
MODEL 5
REMARK VINA RESULT:    -4.594      3.216      5.333
REMARK INTER + INTRA:          -5.172
REMARK INTER:                  -4.926
REMARK INTRA:                  -0.246
REMARK UNBOUND:                -0.175
REMARK SMILES C=C1C[C@]2(O)O[C@]3(C[C@H]2C(C)C)[C@H](C)CC[C@@H]13
REMARK SMILES IDX 14 1 13 2 15 3 16 4 17 5 7 6 8 7 9 8 4 9 6 10 3 11 2 12 1 13
REMARK SMILES IDX 10 14 11 15 12 16 5 17
REMARK H PARENT 5 18
REMARK Flexibility Score: inf
ROOT
ATOM      1  C   UNL     1       2.965 -21.105  -8.252  1.00  0.00     0.011 C 
ATOM      2  C   UNL     1       4.126 -20.854  -7.274  1.00  0.00     0.019 C 
ATOM      3  C   UNL     1       4.124 -19.396  -6.744  1.00  0.00     0.007 C 
ATOM      4  C   UNL     1       5.307 -18.661  -7.405  1.00  0.00     0.011 C 
ATOM      5  C   UNL     1       5.757 -19.606  -8.507  1.00  0.00     0.047 C 
ATOM      6  C   UNL     1       5.511 -21.002  -7.936  1.00  0.00     0.081 C 
ATOM      7  C   UNL     1       6.588 -21.458  -6.917  1.00  0.00     0.046 C 
ATOM      8  C   UNL     1       7.574 -22.294  -7.748  1.00  0.00     0.054 C 
ATOM      9  C   UNL     1       6.992 -22.084  -9.178  1.00  0.00     0.173 C 
ATOM     10  O   UNL     1       5.594 -21.914  -9.004  1.00  0.00    -0.342 OA
ATOM     11  C   UNL     1       7.607 -20.782  -9.819  1.00  0.00     0.096 C 
ATOM     12  C   UNL     1       7.153 -19.538  -9.071  1.00  0.00    -0.066 C 
ATOM     13  C   UNL     1       7.860 -18.401  -9.115  1.00  0.00     0.008 C 
ENDROOT
BRANCH   8  14
ATOM     14  C   UNL     1       7.682 -23.769  -7.215  1.00  0.00    -0.009 C 
ATOM     15  C   UNL     1       8.944 -24.017  -6.360  1.00  0.00     0.008 C 
ATOM     16  C   UNL     1       6.456 -24.124  -6.340  1.00  0.00     0.008 C 
ENDBRANCH   8  14
BRANCH   9  17
ATOM     17  O   UNL     1       7.202 -23.176 -10.034  1.00  0.00    -0.365 OA
ATOM     18  H   UNL     1       7.988 -22.968 -10.605  1.00  0.00     0.214 HD
ENDBRANCH   9  17
TORSDOF 2
ENDMDL
MODEL 6
REMARK VINA RESULT:    -4.510      1.700      4.324
REMARK INTER + INTRA:          -5.081
REMARK INTER:                  -4.854
REMARK INTRA:                  -0.227
REMARK UNBOUND:                -0.175
REMARK SMILES C=C1C[C@]2(O)O[C@]3(C[C@H]2C(C)C)[C@H](C)CC[C@@H]13
REMARK SMILES IDX 14 1 13 2 15 3 16 4 17 5 7 6 8 7 9 8 4 9 6 10 3 11 2 12 1 13
REMARK SMILES IDX 10 14 11 15 12 16 5 17
REMARK H PARENT 5 18
REMARK Flexibility Score: inf
ROOT
ATOM      1  C   UNL     1       9.474 -18.848 -12.754  1.00  0.00     0.011 C 
ATOM      2  C   UNL     1       9.966 -18.762 -11.298  1.00  0.00     0.019 C 
ATOM      3  C   UNL     1      11.203 -19.666 -11.057  1.00  0.00     0.007 C 
ATOM      4  C   UNL     1      10.741 -20.863 -10.202  1.00  0.00     0.011 C 
ATOM      5  C   UNL     1       9.224 -20.778 -10.239  1.00  0.00     0.047 C 
ATOM      6  C   UNL     1       8.928 -19.278 -10.282  1.00  0.00     0.081 C 
ATOM      7  C   UNL     1       9.072 -18.575  -8.907  1.00  0.00     0.046 C 
ATOM      8  C   UNL     1       7.643 -18.541  -8.342  1.00  0.00     0.054 C 
ATOM      9  C   UNL     1       6.887 -19.365  -9.426  1.00  0.00     0.173 C 
ATOM     10  O   UNL     1       7.577 -19.127 -10.642  1.00  0.00    -0.342 OA
ATOM     11  C   UNL     1       6.956 -20.900  -9.073  1.00  0.00     0.096 C 
ATOM     12  C   UNL     1       8.381 -21.420  -9.169  1.00  0.00    -0.066 C 
ATOM     13  C   UNL     1       8.769 -22.517  -8.504  1.00  0.00     0.008 C 
ENDROOT
BRANCH   8  14
ATOM     14  C   UNL     1       7.156 -17.069  -8.075  1.00  0.00    -0.009 C 
ATOM     15  C   UNL     1       6.451 -16.899  -6.712  1.00  0.00     0.008 C 
ATOM     16  C   UNL     1       8.350 -16.086  -8.103  1.00  0.00     0.008 C 
ENDBRANCH   8  14
BRANCH   9  17
ATOM     17  O   UNL     1       5.549 -18.978  -9.593  1.00  0.00    -0.365 OA
ATOM     18  H   UNL     1       5.230 -19.351 -10.457  1.00  0.00     0.214 HD
ENDBRANCH   9  17
TORSDOF 2
ENDMDL
MODEL 7
REMARK VINA RESULT:    -4.451      3.279      4.764
REMARK INTER + INTRA:          -5.017
REMARK INTER:                  -4.765
REMARK INTRA:                  -0.252
REMARK UNBOUND:                -0.175
REMARK SMILES C=C1C[C@]2(O)O[C@]3(C[C@H]2C(C)C)[C@H](C)CC[C@@H]13
REMARK SMILES IDX 14 1 13 2 15 3 16 4 17 5 7 6 8 7 9 8 4 9 6 10 3 11 2 12 1 13
REMARK SMILES IDX 10 14 11 15 12 16 5 17
REMARK H PARENT 5 18
REMARK Flexibility Score: inf
ROOT
ATOM      1  C   UNL     1       6.707 -23.100 -10.107  1.00  0.00     0.011 C 
ATOM      2  C   UNL     1       7.254 -22.390  -8.856  1.00  0.00     0.019 C 
ATOM      3  C   UNL     1       7.517 -23.389  -7.699  1.00  0.00     0.007 C 
ATOM      4  C   UNL     1       6.433 -23.153  -6.629  1.00  0.00     0.011 C 
ATOM      5  C   UNL     1       5.417 -22.262  -7.324  1.00  0.00     0.047 C 
ATOM      6  C   UNL     1       6.255 -21.382  -8.252  1.00  0.00     0.081 C 
ATOM      7  C   UNL     1       6.981 -20.221  -7.524  1.00  0.00     0.046 C 
ATOM      8  C   UNL     1       6.049 -19.013  -7.704  1.00  0.00     0.054 C 
ATOM      9  C   UNL     1       4.833 -19.691  -8.403  1.00  0.00     0.173 C 
ATOM     10  O   UNL     1       5.372 -20.766  -9.157  1.00  0.00    -0.342 OA
ATOM     11  C   UNL     1       3.839 -20.254  -7.317  1.00  0.00     0.096 C 
ATOM     12  C   UNL     1       4.473 -21.393  -6.535  1.00  0.00    -0.066 C 
ATOM     13  C   UNL     1       4.042 -21.722  -5.309  1.00  0.00     0.008 C 
ENDROOT
BRANCH   8  14
ATOM     14  C   UNL     1       6.761 -17.835  -8.464  1.00  0.00    -0.009 C 
ATOM     15  C   UNL     1       7.012 -16.598  -7.573  1.00  0.00     0.008 C 
ATOM     16  C   UNL     1       8.132 -18.291  -9.015  1.00  0.00     0.008 C 
ENDBRANCH   8  14
BRANCH   9  17
ATOM     17  O   UNL     1       4.142 -18.839  -9.279  1.00  0.00    -0.365 OA
ATOM     18  H   UNL     1       4.407 -17.906  -9.066  1.00  0.00     0.214 HD
ENDBRANCH   9  17
TORSDOF 2
ENDMDL
MODEL 8
REMARK VINA RESULT:    -4.389      2.024      3.934
REMARK INTER + INTRA:          -4.949
REMARK INTER:                  -4.729
REMARK INTRA:                  -0.220
REMARK UNBOUND:                -0.175
REMARK SMILES C=C1C[C@]2(O)O[C@]3(C[C@H]2C(C)C)[C@H](C)CC[C@@H]13
REMARK SMILES IDX 14 1 13 2 15 3 16 4 17 5 7 6 8 7 9 8 4 9 6 10 3 11 2 12 1 13
REMARK SMILES IDX 10 14 11 15 12 16 5 17
REMARK H PARENT 5 18
REMARK Flexibility Score: inf
ROOT
ATOM      1  C   UNL     1       5.387 -19.611  -8.987  1.00  0.00     0.011 C 
ATOM      2  C   UNL     1       6.821 -19.302  -8.523  1.00  0.00     0.019 C 
ATOM      3  C   UNL     1       7.130 -17.784  -8.588  1.00  0.00     0.007 C 
ATOM      4  C   UNL     1       8.099 -17.559  -9.765  1.00  0.00     0.011 C 
ATOM      5  C   UNL     1       8.075 -18.879 -10.519  1.00  0.00     0.047 C 
ATOM      6  C   UNL     1       7.896 -19.936  -9.429  1.00  0.00     0.081 C 
ATOM      7  C   UNL     1       9.196 -20.250  -8.644  1.00  0.00     0.046 C 
ATOM      8  C   UNL     1       9.775 -21.491  -9.340  1.00  0.00     0.054 C 
ATOM      9  C   UNL     1       8.784 -21.638 -10.533  1.00  0.00     0.173 C 
ATOM     10  O   UNL     1       7.541 -21.139 -10.065  1.00  0.00    -0.342 OA
ATOM     11  C   UNL     1       9.279 -20.765 -11.749  1.00  0.00     0.096 C 
ATOM     12  C   UNL     1       9.212 -19.283 -11.420  1.00  0.00    -0.066 C 
ATOM     13  C   UNL     1       9.972 -18.390 -12.070  1.00  0.00     0.008 C 
ENDROOT
BRANCH   8  14
ATOM     14  C   UNL     1       9.909 -22.706  -8.351  1.00  0.00    -0.009 C 
ATOM     15  C   UNL     1      11.224 -23.495  -8.529  1.00  0.00     0.008 C 
ATOM     16  C   UNL     1       9.857 -22.222  -6.883  1.00  0.00     0.008 C 
ENDBRANCH   8  14
BRANCH   9  17
ATOM     17  O   UNL     1       8.599 -22.966 -10.949  1.00  0.00    -0.365 OA
ATOM     18  H   UNL     1       8.897 -23.559 -10.210  1.00  0.00     0.214 HD
ENDBRANCH   9  17
TORSDOF 2
ENDMDL
MODEL 9
REMARK VINA RESULT:    -4.240      3.114      5.397
REMARK INTER + INTRA:          -4.787
REMARK INTER:                  -4.647
REMARK INTRA:                  -0.140
REMARK UNBOUND:                -0.175
REMARK SMILES C=C1C[C@]2(O)O[C@]3(C[C@H]2C(C)C)[C@H](C)CC[C@@H]13
REMARK SMILES IDX 14 1 13 2 15 3 16 4 17 5 7 6 8 7 9 8 4 9 6 10 3 11 2 12 1 13
REMARK SMILES IDX 10 14 11 15 12 16 5 17
REMARK H PARENT 5 18
REMARK Flexibility Score: inf
ROOT
ATOM      1  C   UNL     1       5.248 -18.525  -7.462  1.00  0.00     0.011 C 
ATOM      2  C   UNL     1       4.942 -19.712  -8.392  1.00  0.00     0.019 C 
ATOM      3  C   UNL     1       3.467 -20.174  -8.265  1.00  0.00     0.007 C 
ATOM      4  C   UNL     1       3.467 -21.525  -7.523  1.00  0.00     0.011 C 
ATOM      5  C   UNL     1       4.882 -21.647  -6.981  1.00  0.00     0.047 C 
ATOM      6  C   UNL     1       5.754 -20.975  -8.042  1.00  0.00     0.081 C 
ATOM      7  C   UNL     1       6.009 -21.858  -9.291  1.00  0.00     0.046 C 
ATOM      8  C   UNL     1       7.367 -22.525  -9.020  1.00  0.00     0.054 C 
ATOM      9  C   UNL     1       7.643 -22.031  -7.568  1.00  0.00     0.173 C 
ATOM     10  O   UNL     1       7.021 -20.760  -7.469  1.00  0.00    -0.342 OA
ATOM     11  C   UNL     1       6.986 -23.023  -6.533  1.00  0.00     0.096 C 
ATOM     12  C   UNL     1       5.470 -22.989  -6.631  1.00  0.00    -0.066 C 
ATOM     13  C   UNL     1       4.722 -24.019  -6.214  1.00  0.00     0.008 C 
ENDROOT
BRANCH   8  14
ATOM     14  C   UNL     1       8.425 -22.164 -10.125  1.00  0.00    -0.009 C 
ATOM     15  C   UNL     1       8.235 -22.963 -11.434  1.00  0.00     0.008 C 
ATOM     16  C   UNL     1       8.346 -20.663 -10.487  1.00  0.00     0.008 C 
ENDBRANCH   8  14
BRANCH   9  17
ATOM     17  O   UNL     1       9.008 -21.880  -7.278  1.00  0.00    -0.365 OA
ATOM     18  H   UNL     1       9.397 -21.268  -7.955  1.00  0.00     0.214 HD
ENDBRANCH   9  17
TORSDOF 2
ENDMDL
