MODEL 1
REMARK VINA RESULT:    -6.719      0.000      0.000
REMARK INTER + INTRA:         -10.420
REMARK INTER:                  -9.469
REMARK INTRA:                  -0.951
REMARK UNBOUND:                -0.951
REMARK SMILES OC[C@H]1O[C@H](O[C@H]2OC=C[C@@H]3[C@H](O)[C@@H]4O[C@]4(CO)[C@H]23)[C@@H](O)[C@@H](O)[C@@H]1O
REMARK SMILES IDX 6 1 7 2 10 3 9 4 11 5 8 6 19 7 12 8 16 9 14 10 15 11 13 12
REMARK SMILES IDX 17 14 18 15 5 17 20 18 4 19 22 20 3 21 24 22 21 23 23 25
REMARK SMILES IDX 2 27 1 28 25 30
REMARK H PARENT 13 13 18 16 21 24 23 26 1 29 25 31
REMARK Flexibility Score: inf
ROOT
ATOM      1  O   UNL     1     -12.770 -30.581 -11.754  1.00  0.00    -0.310 OA
ENDROOT
BRANCH   1   2
ATOM      2  C   UNL     1     -13.934 -29.771 -11.671  1.00  0.00     0.315 C 
ATOM      3  C   UNL     1     -12.643 -27.374 -12.509  1.00  0.00     0.018 C 
ATOM      4  C   UNL     1     -12.848 -27.613 -11.215  1.00  0.00     0.186 C 
ATOM      5  C   UNL     1     -13.340 -28.164 -13.604  1.00  0.00     0.059 C 
ATOM      6  O   UNL     1     -13.649 -28.678 -10.805  1.00  0.00    -0.472 OA
ATOM      7  C   UNL     1     -14.321 -29.238 -13.070  1.00  0.00     0.105 C 
ATOM      8  C   UNL     1     -14.221 -27.258 -14.488  1.00  0.00     0.154 C 
ATOM      9  C   UNL     1     -15.712 -28.593 -13.100  1.00  0.00     0.130 C 
ATOM     10  C   UNL     1     -15.654 -27.420 -13.990  1.00  0.00     0.183 C 
ATOM     11  O   UNL     1     -15.803 -27.279 -12.592  1.00  0.00    -0.360 OA
BRANCH   8  12
ATOM     12  O   UNL     1     -13.830 -25.909 -14.448  1.00  0.00    -0.390 OA
ATOM     13  H   UNL     1     -14.665 -25.372 -14.477  1.00  0.00     0.211 HD
ENDBRANCH   8  12
BRANCH   9  14
ATOM     14  C   UNL     1     -17.021 -29.387 -13.212  1.00  0.00     0.195 C 
BRANCH  14  15
ATOM     15  O   UNL     1     -16.768 -30.766 -13.224  1.00  0.00    -0.393 OA
ATOM     16  H   UNL     1     -15.804 -30.877 -13.430  1.00  0.00     0.210 HD
ENDBRANCH  14  15
ENDBRANCH   9  14
ENDBRANCH   1   2
BRANCH   1  17
ATOM     17  C   UNL     1     -13.002 -31.925 -11.346  1.00  0.00     0.286 C 
ATOM     18  C   UNL     1     -11.660 -32.676 -11.233  1.00  0.00     0.202 C 
ATOM     19  O   UNL     1     -13.886 -32.594 -12.237  1.00  0.00    -0.341 OA
ATOM     20  C   UNL     1     -11.033 -32.851 -12.629  1.00  0.00     0.179 C 
ATOM     21  C   UNL     1     -13.371 -32.642 -13.561  1.00  0.00     0.178 C 
ATOM     22  C   UNL     1     -12.059 -33.462 -13.607  1.00  0.00     0.177 C 
BRANCH  18  23
ATOM     23  O   UNL     1     -11.888 -33.927 -10.633  1.00  0.00    -0.385 OA
ATOM     24  H   UNL     1     -11.205 -34.551 -10.993  1.00  0.00     0.211 HD
ENDBRANCH  18  23
BRANCH  20  25
ATOM     25  O   UNL     1      -9.855 -33.617 -12.569  1.00  0.00    -0.387 OA
ATOM     26  H   UNL     1      -9.325 -33.306 -11.790  1.00  0.00     0.211 HD
ENDBRANCH  20  25
BRANCH  21  27
ATOM     27  C   UNL     1     -14.435 -33.271 -14.474  1.00  0.00     0.191 C 
BRANCH  27  28
ATOM     28  O   UNL     1     -15.252 -32.278 -15.033  1.00  0.00    -0.394 OA
ATOM     29  H   UNL     1     -15.149 -31.472 -14.463  1.00  0.00     0.210 HD
ENDBRANCH  27  28
ENDBRANCH  21  27
BRANCH  22  30
ATOM     30  O   UNL     1     -11.529 -33.513 -14.909  1.00  0.00    -0.387 OA
ATOM     31  H   UNL     1     -10.602 -33.158 -14.872  1.00  0.00     0.211 HD
ENDBRANCH  22  30
ENDBRANCH   1  17
TORSDOF 10
ENDMDL
MODEL 2
REMARK VINA RESULT:    -6.417      2.325      5.780
REMARK INTER + INTRA:          -9.993
REMARK INTER:                  -9.272
REMARK INTRA:                  -0.721
REMARK UNBOUND:                -0.951
REMARK SMILES OC[C@H]1O[C@H](O[C@H]2OC=C[C@@H]3[C@H](O)[C@@H]4O[C@]4(CO)[C@H]23)[C@@H](O)[C@@H](O)[C@@H]1O
REMARK SMILES IDX 6 1 7 2 10 3 9 4 11 5 8 6 19 7 12 8 16 9 14 10 15 11 13 12
REMARK SMILES IDX 17 14 18 15 5 17 20 18 4 19 22 20 3 21 24 22 21 23 23 25
REMARK SMILES IDX 2 27 1 28 25 30
REMARK H PARENT 13 13 18 16 21 24 23 26 1 29 25 31
REMARK Flexibility Score: inf
ROOT
ATOM      1  O   UNL     1     -13.314 -30.240 -11.656  1.00  0.00    -0.310 OA
ENDROOT
BRANCH   1   2
ATOM      2  C   UNL     1     -12.052 -30.767 -11.270  1.00  0.00     0.315 C 
ATOM      3  C   UNL     1     -11.630 -28.903  -9.157  1.00  0.00     0.018 C 
ATOM      4  C   UNL     1     -11.065 -28.713 -10.348  1.00  0.00     0.186 C 
ATOM      5  C   UNL     1     -12.245 -30.231  -8.750  1.00  0.00     0.059 C 
ATOM      6  O   UNL     1     -11.100 -29.710 -11.322  1.00  0.00    -0.472 OA
ATOM      7  C   UNL     1     -12.122 -31.333  -9.832  1.00  0.00     0.105 C 
ATOM      8  C   UNL     1     -11.537 -30.834  -7.520  1.00  0.00     0.154 C 
ATOM      9  C   UNL     1     -10.887 -32.161  -9.456  1.00  0.00     0.130 C 
ATOM     10  C   UNL     1     -10.564 -31.884  -8.046  1.00  0.00     0.183 C 
ATOM     11  O   UNL     1      -9.733 -31.433  -9.096  1.00  0.00    -0.360 OA
BRANCH   8  12
ATOM     12  O   UNL     1     -10.862 -29.871  -6.751  1.00  0.00    -0.390 OA
ATOM     13  H   UNL     1     -11.552 -29.410  -6.205  1.00  0.00     0.211 HD
ENDBRANCH   8  12
BRANCH   9  14
ATOM     14  C   UNL     1     -10.686 -33.629  -9.858  1.00  0.00     0.195 C 
BRANCH  14  15
ATOM     15  O   UNL     1     -11.909 -34.225 -10.194  1.00  0.00    -0.393 OA
ATOM     16  H   UNL     1     -12.507 -33.495 -10.503  1.00  0.00     0.210 HD
ENDBRANCH  14  15
ENDBRANCH   9  14
ENDBRANCH   1   2
BRANCH   1  17
ATOM     17  C   UNL     1     -13.451 -30.114 -13.068  1.00  0.00     0.286 C 
ATOM     18  C   UNL     1     -14.221 -28.822 -13.405  1.00  0.00     0.202 C 
ATOM     19  O   UNL     1     -14.092 -31.251 -13.632  1.00  0.00    -0.341 OA
ATOM     20  C   UNL     1     -15.683 -28.940 -12.935  1.00  0.00     0.179 C 
ATOM     21  C   UNL     1     -15.397 -31.443 -13.101  1.00  0.00     0.178 C 
ATOM     22  C   UNL     1     -16.313 -30.248 -13.458  1.00  0.00     0.177 C 
BRANCH  18  23
ATOM     23  O   UNL     1     -14.165 -28.608 -14.794  1.00  0.00    -0.385 OA
ATOM     24  H   UNL     1     -14.455 -29.451 -15.231  1.00  0.00     0.211 HD
ENDBRANCH  18  23
BRANCH  20  25
ATOM     25  O   UNL     1     -16.436 -27.814 -13.314  1.00  0.00    -0.387 OA
ATOM     26  H   UNL     1     -17.384 -28.094 -13.404  1.00  0.00     0.211 HD
ENDBRANCH  20  25
BRANCH  21  27
ATOM     27  C   UNL     1     -15.966 -32.751 -13.673  1.00  0.00     0.191 C 
BRANCH  27  28
ATOM     28  O   UNL     1     -15.252 -33.141 -14.815  1.00  0.00    -0.394 OA
ATOM     29  H   UNL     1     -14.291 -32.995 -14.613  1.00  0.00     0.210 HD
ENDBRANCH  27  28
ENDBRANCH  21  27
BRANCH  22  30
ATOM     30  O   UNL     1     -17.607 -30.416 -12.932  1.00  0.00    -0.387 OA
ATOM     31  H   UNL     1     -18.204 -29.762 -13.382  1.00  0.00     0.211 HD
ENDBRANCH  22  30
ENDBRANCH   1  17
TORSDOF 10
ENDMDL
MODEL 3
REMARK VINA RESULT:    -6.284      2.624      5.803
REMARK INTER + INTRA:          -9.806
REMARK INTER:                  -8.899
REMARK INTRA:                  -0.907
REMARK UNBOUND:                -0.951
REMARK SMILES OC[C@H]1O[C@H](O[C@H]2OC=C[C@@H]3[C@H](O)[C@@H]4O[C@]4(CO)[C@H]23)[C@@H](O)[C@@H](O)[C@@H]1O
REMARK SMILES IDX 6 1 7 2 10 3 9 4 11 5 8 6 19 7 12 8 16 9 14 10 15 11 13 12
REMARK SMILES IDX 17 14 18 15 5 17 20 18 4 19 22 20 3 21 24 22 21 23 23 25
REMARK SMILES IDX 2 27 1 28 25 30
REMARK H PARENT 13 13 18 16 21 24 23 26 1 29 25 31
REMARK Flexibility Score: inf
ROOT
ATOM      1  O   UNL     1     -13.257 -29.156 -11.549  1.00  0.00    -0.310 OA
ENDROOT
BRANCH   1   2
ATOM      2  C   UNL     1     -11.921 -28.937 -11.118  1.00  0.00     0.315 C 
ATOM      3  C   UNL     1     -12.590 -28.589  -8.371  1.00  0.00     0.018 C 
ATOM      4  C   UNL     1     -12.396 -27.531  -9.157  1.00  0.00     0.186 C 
ATOM      5  C   UNL     1     -12.169 -29.992  -8.773  1.00  0.00     0.059 C 
ATOM      6  O   UNL     1     -11.877 -27.685 -10.443  1.00  0.00    -0.472 OA
ATOM      7  C   UNL     1     -11.473 -30.062 -10.156  1.00  0.00     0.105 C 
ATOM      8  C   UNL     1     -11.125 -30.575  -7.799  1.00  0.00     0.154 C 
ATOM      9  C   UNL     1      -9.966 -30.041  -9.874  1.00  0.00     0.130 C 
ATOM     10  C   UNL     1      -9.761 -30.392  -8.458  1.00  0.00     0.183 C 
ATOM     11  O   UNL     1      -9.518 -29.086  -8.938  1.00  0.00    -0.360 OA
BRANCH   8  12
ATOM     12  O   UNL     1     -11.154 -29.961  -6.536  1.00  0.00    -0.390 OA
ATOM     13  H   UNL     1     -11.779 -29.193  -6.609  1.00  0.00     0.211 HD
ENDBRANCH   8  12
BRANCH   9  14
ATOM     14  C   UNL     1      -8.912 -30.640 -10.816  1.00  0.00     0.195 C 
BRANCH  14  15
ATOM     15  O   UNL     1      -9.516 -31.436 -11.799  1.00  0.00    -0.393 OA
ATOM     16  H   UNL     1      -9.606 -30.869 -12.608  1.00  0.00     0.210 HD
ENDBRANCH  14  15
ENDBRANCH   9  14
ENDBRANCH   1   2
BRANCH   1  17
ATOM     17  C   UNL     1     -13.367 -29.289 -12.963  1.00  0.00     0.286 C 
ATOM     18  C   UNL     1     -14.435 -28.317 -13.498  1.00  0.00     0.202 C 
ATOM     19  O   UNL     1     -13.664 -30.629 -13.337  1.00  0.00    -0.341 OA
ATOM     20  C   UNL     1     -15.833 -28.746 -13.011  1.00  0.00     0.179 C 
ATOM     21  C   UNL     1     -14.891 -31.077 -12.779  1.00  0.00     0.178 C 
ATOM     22  C   UNL     1     -16.075 -30.239 -13.318  1.00  0.00     0.177 C 
BRANCH  18  23
ATOM     23  O   UNL     1     -14.383 -28.312 -14.904  1.00  0.00    -0.385 OA
ATOM     24  H   UNL     1     -15.022 -27.619 -15.217  1.00  0.00     0.211 HD
ENDBRANCH  18  23
BRANCH  20  25
ATOM     25  O   UNL     1     -16.840 -27.933 -13.562  1.00  0.00    -0.387 OA
ATOM     26  H   UNL     1     -17.452 -27.662 -12.829  1.00  0.00     0.211 HD
ENDBRANCH  20  25
BRANCH  21  27
ATOM     27  C   UNL     1     -15.074 -32.561 -13.134  1.00  0.00     0.191 C 
BRANCH  27  28
ATOM     28  O   UNL     1     -15.794 -32.696 -14.330  1.00  0.00    -0.394 OA
ATOM     29  H   UNL     1     -15.417 -32.033 -14.965  1.00  0.00     0.210 HD
ENDBRANCH  27  28
ENDBRANCH  21  27
BRANCH  22  30
ATOM     30  O   UNL     1     -17.299 -30.662 -12.769  1.00  0.00    -0.387 OA
ATOM     31  H   UNL     1     -17.856 -29.854 -12.612  1.00  0.00     0.211 HD
ENDBRANCH  22  30
ENDBRANCH   1  17
TORSDOF 10
ENDMDL
MODEL 4
REMARK VINA RESULT:    -6.224      2.651      5.966
REMARK INTER + INTRA:          -9.721
REMARK INTER:                  -8.864
REMARK INTRA:                  -0.857
REMARK UNBOUND:                -0.951
REMARK SMILES OC[C@H]1O[C@H](O[C@H]2OC=C[C@@H]3[C@H](O)[C@@H]4O[C@]4(CO)[C@H]23)[C@@H](O)[C@@H](O)[C@@H]1O
REMARK SMILES IDX 6 1 7 2 10 3 9 4 11 5 8 6 19 7 12 8 16 9 14 10 15 11 13 12
REMARK SMILES IDX 17 14 18 15 5 17 20 18 4 19 22 20 3 21 24 22 21 23 23 25
REMARK SMILES IDX 2 27 1 28 25 30
REMARK H PARENT 13 13 18 16 21 24 23 26 1 29 25 31
REMARK Flexibility Score: inf
ROOT
ATOM      1  O   UNL     1     -11.902 -29.489 -11.573  1.00  0.00    -0.310 OA
ENDROOT
BRANCH   1   2
ATOM      2  C   UNL     1     -11.014 -30.512 -11.142  1.00  0.00     0.315 C 
ATOM      3  C   UNL     1     -10.046 -29.076  -8.880  1.00  0.00     0.018 C 
ATOM      4  C   UNL     1      -9.348 -29.098 -10.014  1.00  0.00     0.186 C 
ATOM      5  C   UNL     1     -11.191 -30.036  -8.609  1.00  0.00     0.059 C 
ATOM      6  O   UNL     1      -9.708 -29.952 -11.056  1.00  0.00    -0.472 OA
ATOM      7  C   UNL     1     -11.442 -31.048  -9.756  1.00  0.00     0.105 C 
ATOM      8  C   UNL     1     -10.912 -30.925  -7.380  1.00  0.00     0.154 C 
ATOM      9  C   UNL     1     -10.702 -32.331  -9.358  1.00  0.00     0.130 C 
ATOM     10  C   UNL     1     -10.421 -32.267  -7.913  1.00  0.00     0.183 C 
ATOM     11  O   UNL     1      -9.388 -32.170  -8.871  1.00  0.00    -0.360 OA
BRANCH   8  12
ATOM     12  O   UNL     1      -9.970 -30.363  -6.503  1.00  0.00    -0.390 OA
ATOM     13  H   UNL     1     -10.366 -30.410  -5.593  1.00  0.00     0.211 HD
ENDBRANCH   8  12
BRANCH   9  14
ATOM     14  C   UNL     1     -11.096 -33.731  -9.848  1.00  0.00     0.195 C 
BRANCH  14  15
ATOM     15  O   UNL     1     -12.237 -33.673 -10.659  1.00  0.00    -0.393 OA
ATOM     16  H   UNL     1     -12.966 -34.123 -10.158  1.00  0.00     0.210 HD
ENDBRANCH  14  15
ENDBRANCH   9  14
ENDBRANCH   1   2
BRANCH   1  17
ATOM     17  C   UNL     1     -13.272 -29.834 -11.392  1.00  0.00     0.286 C 
ATOM     18  C   UNL     1     -13.705 -30.841 -12.475  1.00  0.00     0.202 C 
ATOM     19  O   UNL     1     -14.104 -28.681 -11.406  1.00  0.00    -0.341 OA
ATOM     20  C   UNL     1     -13.709 -30.161 -13.858  1.00  0.00     0.179 C 
ATOM     21  C   UNL     1     -14.010 -27.972 -12.635  1.00  0.00     0.178 C 
ATOM     22  C   UNL     1     -14.515 -28.846 -13.809  1.00  0.00     0.177 C 
BRANCH  18  23
ATOM     23  O   UNL     1     -14.987 -31.325 -12.160  1.00  0.00    -0.385 OA
ATOM     24  H   UNL     1     -14.901 -31.858 -11.327  1.00  0.00     0.211 HD
ENDBRANCH  18  23
BRANCH  20  25
ATOM     25  O   UNL     1     -14.193 -31.028 -14.854  1.00  0.00    -0.387 OA
ATOM     26  H   UNL     1     -13.712 -30.827 -15.698  1.00  0.00     0.211 HD
ENDBRANCH  20  25
BRANCH  21  27
ATOM     27  C   UNL     1     -14.844 -26.686 -12.520  1.00  0.00     0.191 C 
BRANCH  27  28
ATOM     28  O   UNL     1     -14.607 -25.847 -13.618  1.00  0.00    -0.394 OA
ATOM     29  H   UNL     1     -13.685 -26.042 -13.931  1.00  0.00     0.210 HD
ENDBRANCH  27  28
ENDBRANCH  21  27
BRANCH  22  30
ATOM     30  O   UNL     1     -14.421 -28.164 -15.036  1.00  0.00    -0.387 OA
ATOM     31  H   UNL     1     -15.213 -28.414 -15.582  1.00  0.00     0.211 HD
ENDBRANCH  22  30
ENDBRANCH   1  17
TORSDOF 10
ENDMDL
MODEL 5
REMARK VINA RESULT:    -6.154      2.631      6.047
REMARK INTER + INTRA:          -9.624
REMARK INTER:                  -8.909
REMARK INTRA:                  -0.714
REMARK UNBOUND:                -0.951
REMARK SMILES OC[C@H]1O[C@H](O[C@H]2OC=C[C@@H]3[C@H](O)[C@@H]4O[C@]4(CO)[C@H]23)[C@@H](O)[C@@H](O)[C@@H]1O
REMARK SMILES IDX 6 1 7 2 10 3 9 4 11 5 8 6 19 7 12 8 16 9 14 10 15 11 13 12
REMARK SMILES IDX 17 14 18 15 5 17 20 18 4 19 22 20 3 21 24 22 21 23 23 25
REMARK SMILES IDX 2 27 1 28 25 30
REMARK H PARENT 13 13 18 16 21 24 23 26 1 29 25 31
REMARK Flexibility Score: inf
ROOT
ATOM      1  O   UNL     1     -13.293 -29.064 -11.576  1.00  0.00    -0.310 OA
ENDROOT
BRANCH   1   2
ATOM      2  C   UNL     1     -11.970 -28.809 -11.125  1.00  0.00     0.315 C 
ATOM      3  C   UNL     1     -12.685 -28.506  -8.384  1.00  0.00     0.018 C 
ATOM      4  C   UNL     1     -12.512 -27.436  -9.158  1.00  0.00     0.186 C 
ATOM      5  C   UNL     1     -12.217 -29.892  -8.793  1.00  0.00     0.059 C 
ATOM      6  O   UNL     1     -11.972 -27.562 -10.438  1.00  0.00    -0.472 OA
ATOM      7  C   UNL     1     -11.501 -29.929 -10.167  1.00  0.00     0.105 C 
ATOM      8  C   UNL     1     -11.169 -30.453  -7.810  1.00  0.00     0.154 C 
ATOM      9  C   UNL     1      -9.999 -29.866  -9.864  1.00  0.00     0.130 C 
ATOM     10  C   UNL     1      -9.803 -30.224  -8.448  1.00  0.00     0.183 C 
ATOM     11  O   UNL     1      -9.592 -28.906  -8.914  1.00  0.00    -0.360 OA
BRANCH   8  12
ATOM     12  O   UNL     1     -11.233 -29.852  -6.542  1.00  0.00    -0.390 OA
ATOM     13  H   UNL     1     -10.978 -28.900  -6.666  1.00  0.00     0.211 HD
ENDBRANCH   8  12
BRANCH   9  14
ATOM     14  C   UNL     1      -8.915 -30.425 -10.797  1.00  0.00     0.195 C 
BRANCH  14  15
ATOM     15  O   UNL     1      -9.480 -31.248 -11.781  1.00  0.00    -0.393 OA
ATOM     16  H   UNL     1      -9.036 -32.132 -11.702  1.00  0.00     0.210 HD
ENDBRANCH  14  15
ENDBRANCH   9  14
ENDBRANCH   1   2
BRANCH   1  17
ATOM     17  C   UNL     1     -13.376 -29.213 -12.990  1.00  0.00     0.286 C 
ATOM     18  C   UNL     1     -13.553 -27.832 -13.651  1.00  0.00     0.202 C 
ATOM     19  O   UNL     1     -14.429 -30.094 -13.358  1.00  0.00    -0.341 OA
ATOM     20  C   UNL     1     -14.933 -27.248 -13.294  1.00  0.00     0.179 C 
ATOM     21  C   UNL     1     -15.695 -29.625 -12.913  1.00  0.00     0.178 C 
ATOM     22  C   UNL     1     -16.046 -28.277 -13.587  1.00  0.00     0.177 C 
BRANCH  18  23
ATOM     23  O   UNL     1     -13.425 -27.976 -15.045  1.00  0.00    -0.385 OA
ATOM     24  H   UNL     1     -13.181 -27.084 -15.408  1.00  0.00     0.211 HD
ENDBRANCH  18  23
BRANCH  20  25
ATOM     25  O   UNL     1     -15.164 -26.032 -13.961  1.00  0.00    -0.387 OA
ATOM     26  H   UNL     1     -16.111 -25.774 -13.814  1.00  0.00     0.211 HD
ENDBRANCH  20  25
BRANCH  21  27
ATOM     27  C   UNL     1     -16.753 -30.689 -13.248  1.00  0.00     0.191 C 
BRANCH  27  28
ATOM     28  O   UNL     1     -16.139 -31.898 -13.603  1.00  0.00    -0.394 OA
ATOM     29  H   UNL     1     -16.700 -32.624 -13.223  1.00  0.00     0.210 HD
ENDBRANCH  27  28
ENDBRANCH  21  27
BRANCH  22  30
ATOM     30  O   UNL     1     -17.292 -27.792 -13.150  1.00  0.00    -0.387 OA
ATOM     31  H   UNL     1     -17.273 -27.758 -12.158  1.00  0.00     0.211 HD
ENDBRANCH  22  30
ENDBRANCH   1  17
TORSDOF 10
ENDMDL
MODEL 6
REMARK VINA RESULT:    -6.109      1.720      6.137
REMARK INTER + INTRA:          -9.559
REMARK INTER:                  -8.610
REMARK INTRA:                  -0.950
REMARK UNBOUND:                -0.951
REMARK SMILES OC[C@H]1O[C@H](O[C@H]2OC=C[C@@H]3[C@H](O)[C@@H]4O[C@]4(CO)[C@H]23)[C@@H](O)[C@@H](O)[C@@H]1O
REMARK SMILES IDX 6 1 7 2 10 3 9 4 11 5 8 6 19 7 12 8 16 9 14 10 15 11 13 12
REMARK SMILES IDX 17 14 18 15 5 17 20 18 4 19 22 20 3 21 24 22 21 23 23 25
REMARK SMILES IDX 2 27 1 28 25 30
REMARK H PARENT 13 13 18 16 21 24 23 26 1 29 25 31
REMARK Flexibility Score: inf
ROOT
ATOM      1  O   UNL     1     -14.447 -30.048 -12.410  1.00  0.00    -0.310 OA
ENDROOT
BRANCH   1   2
ATOM      2  C   UNL     1     -14.156 -31.362 -11.957  1.00  0.00     0.315 C 
ATOM      3  C   UNL     1     -14.456 -32.589 -14.511  1.00  0.00     0.018 C 
ATOM      4  C   UNL     1     -15.452 -32.619 -13.626  1.00  0.00     0.186 C 
ATOM      5  C   UNL     1     -13.037 -32.205 -14.127  1.00  0.00     0.059 C 
ATOM      6  O   UNL     1     -15.250 -32.201 -12.311  1.00  0.00    -0.472 OA
ATOM      7  C   UNL     1     -12.862 -31.888 -12.620  1.00  0.00     0.105 C 
ATOM      8  C   UNL     1     -12.046 -33.357 -14.385  1.00  0.00     0.154 C 
ATOM      9  C   UNL     1     -12.341 -33.178 -11.974  1.00  0.00     0.130 C 
ATOM     10  C   UNL     1     -11.813 -34.043 -13.043  1.00  0.00     0.183 C 
ATOM     11  O   UNL     1     -12.996 -34.371 -12.344  1.00  0.00    -0.360 OA
BRANCH   8  12
ATOM     12  O   UNL     1     -12.512 -34.277 -15.339  1.00  0.00    -0.390 OA
ATOM     13  H   UNL     1     -12.320 -35.182 -14.978  1.00  0.00     0.211 HD
ENDBRANCH   8  12
BRANCH   9  14
ATOM     14  C   UNL     1     -11.508 -33.212 -10.685  1.00  0.00     0.195 C 
BRANCH  14  15
ATOM     15  O   UNL     1     -11.165 -31.915 -10.278  1.00  0.00    -0.393 OA
ATOM     16  H   UNL     1     -11.523 -31.296 -10.967  1.00  0.00     0.210 HD
ENDBRANCH  14  15
ENDBRANCH   9  14
ENDBRANCH   1   2
BRANCH   1  17
ATOM     17  C   UNL     1     -13.326 -29.173 -12.325  1.00  0.00     0.286 C 
ATOM     18  C   UNL     1     -13.577 -28.104 -11.245  1.00  0.00     0.202 C 
ATOM     19  O   UNL     1     -13.041 -28.571 -13.582  1.00  0.00    -0.341 OA
ATOM     20  C   UNL     1     -14.709 -27.157 -11.690  1.00  0.00     0.179 C 
ATOM     21  C   UNL     1     -14.135 -27.802 -14.063  1.00  0.00     0.178 C 
ATOM     22  C   UNL     1     -14.433 -26.619 -13.110  1.00  0.00     0.177 C 
BRANCH  18  23
ATOM     23  O   UNL     1     -12.388 -27.384 -11.031  1.00  0.00    -0.385 OA
ATOM     24  H   UNL     1     -12.214 -27.391 -10.054  1.00  0.00     0.211 HD
ENDBRANCH  18  23
BRANCH  20  25
ATOM     25  O   UNL     1     -14.896 -26.113 -10.767  1.00  0.00    -0.387 OA
ATOM     26  H   UNL     1     -15.242 -26.505  -9.924  1.00  0.00     0.211 HD
ENDBRANCH  20  25
BRANCH  21  27
ATOM     27  C   UNL     1     -13.787 -27.289 -15.469  1.00  0.00     0.191 C 
BRANCH  27  28
ATOM     28  O   UNL     1     -13.224 -26.006 -15.400  1.00  0.00    -0.394 OA
ATOM     29  H   UNL     1     -12.981 -25.854 -14.449  1.00  0.00     0.210 HD
ENDBRANCH  27  28
ENDBRANCH  21  27
BRANCH  22  30
ATOM     30  O   UNL     1     -15.520 -25.851 -13.565  1.00  0.00    -0.387 OA
ATOM     31  H   UNL     1     -16.160 -26.467 -14.011  1.00  0.00     0.211 HD
ENDBRANCH  22  30
ENDBRANCH   1  17
TORSDOF 10
ENDMDL
MODEL 7
REMARK VINA RESULT:    -6.036      2.814      6.223
REMARK INTER + INTRA:          -9.457
REMARK INTER:                  -8.621
REMARK INTRA:                  -0.836
REMARK UNBOUND:                -0.951
REMARK SMILES OC[C@H]1O[C@H](O[C@H]2OC=C[C@@H]3[C@H](O)[C@@H]4O[C@]4(CO)[C@H]23)[C@@H](O)[C@@H](O)[C@@H]1O
REMARK SMILES IDX 6 1 7 2 10 3 9 4 11 5 8 6 19 7 12 8 16 9 14 10 15 11 13 12
REMARK SMILES IDX 17 14 18 15 5 17 20 18 4 19 22 20 3 21 24 22 21 23 23 25
REMARK SMILES IDX 2 27 1 28 25 30
REMARK H PARENT 13 13 18 16 21 24 23 26 1 29 25 31
REMARK Flexibility Score: inf
ROOT
ATOM      1  O   UNL     1     -13.406 -28.408 -10.689  1.00  0.00    -0.310 OA
ENDROOT
BRANCH   1   2
ATOM      2  C   UNL     1     -12.420 -28.053  -9.730  1.00  0.00     0.315 C 
ATOM      3  C   UNL     1     -11.760 -30.735  -9.031  1.00  0.00     0.018 C 
ATOM      4  C   UNL     1     -12.597 -30.027  -8.275  1.00  0.00     0.186 C 
ATOM      5  C   UNL     1     -10.878 -30.094 -10.089  1.00  0.00     0.059 C 
ATOM      6  O   UNL     1     -12.773 -28.661  -8.492  1.00  0.00    -0.472 OA
ATOM      7  C   UNL     1     -11.027 -28.554 -10.176  1.00  0.00     0.105 C 
ATOM      8  C   UNL     1      -9.381 -30.309  -9.790  1.00  0.00     0.154 C 
ATOM      9  C   UNL     1      -9.885 -27.970  -9.336  1.00  0.00     0.130 C 
ATOM     10  C   UNL     1      -8.875 -29.025  -9.141  1.00  0.00     0.183 C 
ATOM     11  O   UNL     1      -9.673 -28.560  -8.072  1.00  0.00    -0.360 OA
BRANCH   8  12
ATOM     12  O   UNL     1      -9.144 -31.415  -8.957  1.00  0.00    -0.390 OA
ATOM     13  H   UNL     1      -9.966 -31.541  -8.413  1.00  0.00     0.211 HD
ENDBRANCH   8  12
BRANCH   9  14
ATOM     14  C   UNL     1      -9.283 -26.575  -9.561  1.00  0.00     0.195 C 
BRANCH  14  15
ATOM     15  O   UNL     1      -9.746 -25.670  -8.596  1.00  0.00    -0.393 OA
ATOM     16  H   UNL     1      -9.943 -26.200  -7.780  1.00  0.00     0.210 HD
ENDBRANCH  14  15
ENDBRANCH   9  14
ENDBRANCH   1   2
BRANCH   1  17
ATOM     17  C   UNL     1     -12.939 -28.291 -12.030  1.00  0.00     0.286 C 
ATOM     18  C   UNL     1     -13.541 -27.032 -12.685  1.00  0.00     0.202 C 
ATOM     19  O   UNL     1     -13.243 -29.455 -12.789  1.00  0.00    -0.341 OA
ATOM     20  C   UNL     1     -15.060 -27.208 -12.871  1.00  0.00     0.179 C 
ATOM     21  C   UNL     1     -14.642 -29.698 -12.853  1.00  0.00     0.178 C 
ATOM     22  C   UNL     1     -15.364 -28.542 -13.586  1.00  0.00     0.177 C 
BRANCH  18  23
ATOM     23  O   UNL     1     -12.913 -26.820 -13.925  1.00  0.00    -0.385 OA
ATOM     24  H   UNL     1     -13.604 -26.469 -14.545  1.00  0.00     0.211 HD
ENDBRANCH  18  23
BRANCH  20  25
ATOM     25  O   UNL     1     -15.623 -26.115 -13.554  1.00  0.00    -0.387 OA
ATOM     26  H   UNL     1     -14.919 -25.423 -13.661  1.00  0.00     0.211 HD
ENDBRANCH  20  25
BRANCH  21  27
ATOM     27  C   UNL     1     -14.870 -31.029 -13.586  1.00  0.00     0.191 C 
BRANCH  27  28
ATOM     28  O   UNL     1     -16.007 -31.679 -13.082  1.00  0.00    -0.394 OA
ATOM     29  H   UNL     1     -16.735 -31.004 -13.064  1.00  0.00     0.210 HD
ENDBRANCH  27  28
ENDBRANCH  21  27
BRANCH  22  30
ATOM     30  O   UNL     1     -16.752 -28.760 -13.650  1.00  0.00    -0.387 OA
ATOM     31  H   UNL     1     -16.898 -29.713 -13.893  1.00  0.00     0.211 HD
ENDBRANCH  22  30
ENDBRANCH   1  17
TORSDOF 10
ENDMDL
MODEL 8
REMARK VINA RESULT:    -6.029      2.264      4.531
REMARK INTER + INTRA:          -9.448
REMARK INTER:                  -8.835
REMARK INTRA:                  -0.612
REMARK UNBOUND:                -0.951
REMARK SMILES OC[C@H]1O[C@H](O[C@H]2OC=C[C@@H]3[C@H](O)[C@@H]4O[C@]4(CO)[C@H]23)[C@@H](O)[C@@H](O)[C@@H]1O
REMARK SMILES IDX 6 1 7 2 10 3 9 4 11 5 8 6 19 7 12 8 16 9 14 10 15 11 13 12
REMARK SMILES IDX 17 14 18 15 5 17 20 18 4 19 22 20 3 21 24 22 21 23 23 25
REMARK SMILES IDX 2 27 1 28 25 30
REMARK H PARENT 13 13 18 16 21 24 23 26 1 29 25 31
REMARK Flexibility Score: inf
ROOT
ATOM      1  O   UNL     1     -12.855 -31.589 -11.804  1.00  0.00    -0.310 OA
ENDROOT
BRANCH   1   2
ATOM      2  C   UNL     1     -13.056 -30.512 -10.900  1.00  0.00     0.315 C 
ATOM      3  C   UNL     1     -10.583 -30.859  -9.530  1.00  0.00     0.018 C 
ATOM      4  C   UNL     1     -11.711 -31.354  -9.023  1.00  0.00     0.186 C 
ATOM      5  C   UNL     1     -10.575 -29.837 -10.654  1.00  0.00     0.059 C 
ATOM      6  O   UNL     1     -12.947 -31.023  -9.576  1.00  0.00    -0.472 OA
ATOM      7  C   UNL     1     -11.990 -29.414 -11.123  1.00  0.00     0.105 C 
ATOM      8  C   UNL     1      -9.914 -28.514 -10.217  1.00  0.00     0.154 C 
ATOM      9  C   UNL     1     -12.310 -28.111 -10.379  1.00  0.00     0.130 C 
ATOM     10  C   UNL     1     -11.045 -27.553  -9.870  1.00  0.00     0.183 C 
ATOM     11  O   UNL     1     -12.019 -28.091  -8.999  1.00  0.00    -0.360 OA
BRANCH   8  12
ATOM     12  O   UNL     1      -9.043 -28.673  -9.127  1.00  0.00    -0.390 OA
ATOM     13  H   UNL     1      -8.465 -27.865  -9.106  1.00  0.00     0.211 HD
ENDBRANCH   8  12
BRANCH   9  14
ATOM     14  C   UNL     1     -13.288 -27.048 -10.899  1.00  0.00     0.195 C 
BRANCH  14  15
ATOM     15  O   UNL     1     -13.235 -26.964 -12.297  1.00  0.00    -0.393 OA
ATOM     16  H   UNL     1     -14.170 -26.863 -12.613  1.00  0.00     0.210 HD
ENDBRANCH  14  15
ENDBRANCH   9  14
ENDBRANCH   1   2
BRANCH   1  17
ATOM     17  C   UNL     1     -12.899 -31.181 -13.168  1.00  0.00     0.286 C 
ATOM     18  C   UNL     1     -14.133 -30.290 -13.408  1.00  0.00     0.202 C 
ATOM     19  O   UNL     1     -12.901 -32.300 -14.046  1.00  0.00    -0.341 OA
ATOM     20  C   UNL     1     -15.422 -31.122 -13.264  1.00  0.00     0.179 C 
ATOM     21  C   UNL     1     -14.022 -33.146 -13.826  1.00  0.00     0.178 C 
ATOM     22  C   UNL     1     -15.341 -32.396 -14.131  1.00  0.00     0.177 C 
BRANCH  18  23
ATOM     23  O   UNL     1     -14.048 -29.731 -14.696  1.00  0.00    -0.385 OA
ATOM     24  H   UNL     1     -14.007 -28.746 -14.584  1.00  0.00     0.211 HD
ENDBRANCH  18  23
BRANCH  20  25
ATOM     25  O   UNL     1     -16.562 -30.358 -13.571  1.00  0.00    -0.387 OA
ATOM     26  H   UNL     1     -16.335 -29.400 -13.445  1.00  0.00     0.211 HD
ENDBRANCH  20  25
BRANCH  21  27
ATOM     27  C   UNL     1     -13.882 -34.383 -14.728  1.00  0.00     0.191 C 
BRANCH  27  28
ATOM     28  O   UNL     1     -14.633 -35.451 -14.218  1.00  0.00    -0.394 OA
ATOM     29  H   UNL     1     -14.030 -36.240 -14.201  1.00  0.00     0.210 HD
ENDBRANCH  27  28
ENDBRANCH  21  27
BRANCH  22  30
ATOM     30  O   UNL     1     -16.463 -33.215 -13.910  1.00  0.00    -0.387 OA
ATOM     31  H   UNL     1     -16.154 -34.028 -13.430  1.00  0.00     0.211 HD
ENDBRANCH  22  30
ENDBRANCH   1  17
TORSDOF 10
ENDMDL
MODEL 9
REMARK VINA RESULT:    -6.016      2.265      4.075
REMARK INTER + INTRA:          -9.429
REMARK INTER:                  -8.681
REMARK INTRA:                  -0.748
REMARK UNBOUND:                -0.951
REMARK SMILES OC[C@H]1O[C@H](O[C@H]2OC=C[C@@H]3[C@H](O)[C@@H]4O[C@]4(CO)[C@H]23)[C@@H](O)[C@@H](O)[C@@H]1O
REMARK SMILES IDX 6 1 7 2 10 3 9 4 11 5 8 6 19 7 12 8 16 9 14 10 15 11 13 12
REMARK SMILES IDX 17 14 18 15 5 17 20 18 4 19 22 20 3 21 24 22 21 23 23 25
REMARK SMILES IDX 2 27 1 28 25 30
REMARK H PARENT 13 13 18 16 21 24 23 26 1 29 25 31
REMARK Flexibility Score: inf
ROOT
ATOM      1  O   UNL     1     -12.350 -31.526 -11.159  1.00  0.00    -0.310 OA
ENDROOT
BRANCH   1   2
ATOM      2  C   UNL     1     -12.764 -30.401 -10.397  1.00  0.00     0.315 C 
ATOM      3  C   UNL     1     -10.349 -30.200  -8.899  1.00  0.00     0.018 C 
ATOM      4  C   UNL     1     -11.416 -30.808  -8.382  1.00  0.00     0.186 C 
ATOM      5  C   UNL     1     -10.432 -29.321 -10.135  1.00  0.00     0.059 C 
ATOM      6  O   UNL     1     -12.655 -30.739  -9.019  1.00  0.00    -0.472 OA
ATOM      7  C   UNL     1     -11.866 -29.180 -10.706  1.00  0.00     0.105 C 
ATOM      8  C   UNL     1     -10.006 -27.870  -9.832  1.00  0.00     0.154 C 
ATOM      9  C   UNL     1     -12.423 -27.870 -10.135  1.00  0.00     0.130 C 
ATOM     10  C   UNL     1     -11.289 -27.066  -9.645  1.00  0.00     0.183 C 
ATOM     11  O   UNL     1     -12.218 -27.651  -8.756  1.00  0.00    -0.360 OA
BRANCH   8  12
ATOM     12  O   UNL     1      -9.185 -27.767  -8.696  1.00  0.00    -0.390 OA
ATOM     13  H   UNL     1      -8.279 -27.523  -9.023  1.00  0.00     0.211 HD
ENDBRANCH   8  12
BRANCH   9  14
ATOM     14  C   UNL     1     -13.519 -27.038 -10.815  1.00  0.00     0.195 C 
BRANCH  14  15
ATOM     15  O   UNL     1     -13.352 -27.037 -12.207  1.00  0.00    -0.393 OA
ATOM     16  H   UNL     1     -12.597 -27.650 -12.404  1.00  0.00     0.210 HD
ENDBRANCH  14  15
ENDBRANCH   9  14
ENDBRANCH   1   2
BRANCH   1  17
ATOM     17  C   UNL     1     -13.428 -32.395 -11.492  1.00  0.00     0.286 C 
ATOM     18  C   UNL     1     -13.012 -33.322 -12.651  1.00  0.00     0.202 C 
ATOM     19  O   UNL     1     -14.603 -31.665 -11.821  1.00  0.00    -0.341 OA
ATOM     20  C   UNL     1     -12.829 -32.504 -13.944  1.00  0.00     0.179 C 
ATOM     21  C   UNL     1     -14.401 -30.805 -12.934  1.00  0.00     0.178 C 
ATOM     22  C   UNL     1     -14.070 -31.625 -14.205  1.00  0.00     0.177 C 
BRANCH  18  23
ATOM     23  O   UNL     1     -14.003 -34.305 -12.826  1.00  0.00    -0.385 OA
ATOM     24  H   UNL     1     -13.886 -34.679 -13.738  1.00  0.00     0.211 HD
ENDBRANCH  18  23
BRANCH  20  25
ATOM     25  O   UNL     1     -12.543 -33.336 -15.041  1.00  0.00    -0.387 OA
ATOM     26  H   UNL     1     -12.953 -32.931 -15.849  1.00  0.00     0.211 HD
ENDBRANCH  20  25
BRANCH  21  27
ATOM     27  C   UNL     1     -15.675 -29.972 -13.144  1.00  0.00     0.191 C 
BRANCH  27  28
ATOM     28  O   UNL     1     -15.373 -28.763 -13.786  1.00  0.00    -0.394 OA
ATOM     29  H   UNL     1     -16.155 -28.541 -14.357  1.00  0.00     0.210 HD
ENDBRANCH  27  28
ENDBRANCH  21  27
BRANCH  22  30
ATOM     30  O   UNL     1     -13.857 -30.789 -15.316  1.00  0.00    -0.387 OA
ATOM     31  H   UNL     1     -12.981 -31.034 -15.715  1.00  0.00     0.211 HD
ENDBRANCH  22  30
ENDBRANCH   1  17
TORSDOF 10
ENDMDL
