MODEL 1
REMARK VINA RESULT:    -6.130      0.000      0.000
REMARK INTER + INTRA:          -7.756
REMARK INTER:                  -7.026
REMARK INTRA:                  -0.730
REMARK UNBOUND:                -0.730
REMARK SMILES C=C(C)[C@H]1CC[C@]2(C(=O)[O-])CC[C@@]3(C)[C@@H](CC[C@H]4[C@]5(C)CC[C@H](O)C(C)(C)[C@H]5CC[C@@]43C)[C@H]12
REMARK SMILES IDX 7 1 6 2 33 3 11 4 5 5 15 6 4 7 12 8 16 9 13 10 17 11 31 12
REMARK SMILES IDX 14 13 18 14 30 15 32 16 19 17 29 18 21 19 20 20 28 21 22 22
REMARK SMILES IDX 25 23 23 24 26 25 27 26 8 27 9 28 10 29 2 30 3 31 1 32 24 33
REMARK H PARENT 24 34
REMARK Flexibility Score: inf
ROOT
ATOM      1  C   UNL     1       1.732  24.667  31.204  1.00  0.00     0.014 C 
ATOM      2  C   UNL     1       0.605  24.653  30.152  1.00  0.00     0.014 C 
ATOM      3  C   UNL     1       1.427  25.958  32.025  1.00  0.00     0.012 C 
ATOM      4  C   UNL     1       1.763  23.347  32.023  1.00  0.00     0.014 C 
ATOM      5  C   UNL     1       0.388  26.106  29.759  1.00  0.00     0.009 C 
ATOM      6  C   UNL     1       0.402  25.737  33.197  1.00  0.00     0.000 C 
ATOM      7  C   UNL     1       0.848  26.954  30.967  1.00  0.00     0.018 C 
ATOM      8  C   UNL     1       0.674  23.248  33.093  1.00  0.00     0.008 C 
ATOM      9  C   UNL     1       0.296  26.996  34.080  1.00  0.00     0.005 C 
ATOM     10  C   UNL     1       0.662  24.457  34.078  1.00  0.00    -0.024 C 
ATOM     11  C   UNL     1      -0.865  26.873  35.064  1.00  0.00     0.005 C 
ATOM     12  C   UNL     1      -0.505  24.305  35.203  1.00  0.00    -0.024 C 
ATOM     13  C   UNL     1       2.085  24.532  34.740  1.00  0.00     0.012 C 
ATOM     14  C   UNL     1      -0.648  25.671  36.014  1.00  0.00     0.002 C 
ATOM     15  C   UNL     1      -0.161  23.170  36.223  1.00  0.00     0.008 C 
ATOM     16  C   UNL     1      -1.854  23.902  34.519  1.00  0.00     0.012 C 
ATOM     17  C   UNL     1      -1.582  25.656  37.307  1.00  0.00    -0.026 C 
ATOM     18  C   UNL     1      -1.096  23.114  37.445  1.00  0.00     0.005 C 
ATOM     19  C   UNL     1      -1.368  26.982  38.113  1.00  0.00     0.010 C 
ATOM     20  C   UNL     1      -3.095  25.570  36.924  1.00  0.00     0.012 C 
ATOM     21  C   UNL     1      -1.081  24.462  38.212  1.00  0.00     0.003 C 
ATOM     22  C   UNL     1      -1.965  26.963  39.530  1.00  0.00     0.033 C 
ATOM     23  C   UNL     1      -1.657  24.409  39.684  1.00  0.00    -0.006 C 
ATOM     24  C   UNL     1      -1.431  25.794  40.372  1.00  0.00     0.120 C 
ATOM     25  C   UNL     1      -0.891  23.343  40.520  1.00  0.00     0.014 C 
ATOM     26  C   UNL     1      -3.155  24.021  39.749  1.00  0.00     0.014 C 
ENDROOT
BRANCH   1  27
ATOM     27  C   UNL     1       3.093  24.795  30.526  1.00  0.00     0.048 C 
ATOM     28  O   UNL     1       3.286  24.352  29.361  1.00  0.00    -0.550 OA
ATOM     29  O   UNL     1       4.176  25.314  31.231  1.00  0.00    -0.550 OA
ENDBRANCH   1  27
BRANCH   7  30
ATOM     30  C   UNL     1       1.835  28.060  30.603  1.00  0.00    -0.077 C 
ATOM     31  C   UNL     1       2.854  28.528  31.618  1.00  0.00     0.039 C 
ATOM     32  C   UNL     1       1.837  28.606  29.371  1.00  0.00     0.008 C 
ENDBRANCH   7  30
BRANCH  24  33
ATOM     33  O   UNL     1      -0.059  25.996  40.615  1.00  0.00    -0.393 OA
ATOM     34  H   UNL     1       0.036  26.897  41.023  1.00  0.00     0.210 HD
ENDBRANCH  24  33
TORSDOF 3
ENDMDL
MODEL 2
REMARK VINA RESULT:    -5.946      1.679      8.300
REMARK INTER + INTRA:          -7.545
REMARK INTER:                  -6.848
REMARK INTRA:                  -0.698
REMARK UNBOUND:                -0.730
REMARK SMILES C=C(C)[C@H]1CC[C@]2(C(=O)[O-])CC[C@@]3(C)[C@@H](CC[C@H]4[C@]5(C)CC[C@H](O)C(C)(C)[C@H]5CC[C@@]43C)[C@H]12
REMARK SMILES IDX 7 1 6 2 33 3 11 4 5 5 15 6 4 7 12 8 16 9 13 10 17 11 31 12
REMARK SMILES IDX 14 13 18 14 30 15 32 16 19 17 29 18 21 19 20 20 28 21 22 22
REMARK SMILES IDX 25 23 23 24 26 25 27 26 8 27 9 28 10 29 2 30 3 31 1 32 24 33
REMARK H PARENT 24 34
REMARK Flexibility Score: inf
ROOT
ATOM      1  C   UNL     1      -2.545  24.835  38.362  1.00  0.00     0.014 C 
ATOM      2  C   UNL     1      -2.996  23.361  38.360  1.00  0.00     0.014 C 
ATOM      3  C   UNL     1      -0.989  24.724  38.335  1.00  0.00     0.012 C 
ATOM      4  C   UNL     1      -3.178  25.625  37.184  1.00  0.00     0.014 C 
ATOM      5  C   UNL     1      -1.994  22.621  39.232  1.00  0.00     0.009 C 
ATOM      6  C   UNL     1      -0.388  24.592  36.889  1.00  0.00     0.000 C 
ATOM      7  C   UNL     1      -0.685  23.441  39.177  1.00  0.00     0.018 C 
ATOM      8  C   UNL     1      -2.525  25.357  35.826  1.00  0.00     0.008 C 
ATOM      9  C   UNL     1       1.151  24.681  36.921  1.00  0.00     0.005 C 
ATOM     10  C   UNL     1      -0.982  25.590  35.825  1.00  0.00    -0.024 C 
ATOM     11  C   UNL     1       1.746  24.313  35.565  1.00  0.00     0.005 C 
ATOM     12  C   UNL     1      -0.331  25.302  34.360  1.00  0.00    -0.024 C 
ATOM     13  C   UNL     1      -0.736  27.075  36.275  1.00  0.00     0.012 C 
ATOM     14  C   UNL     1       1.259  25.297  34.473  1.00  0.00     0.002 C 
ATOM     15  C   UNL     1      -0.741  26.408  33.333  1.00  0.00     0.008 C 
ATOM     16  C   UNL     1      -0.870  23.943  33.798  1.00  0.00     0.012 C 
ATOM     17  C   UNL     1       2.086  25.253  33.110  1.00  0.00    -0.026 C 
ATOM     18  C   UNL     1       0.013  26.336  31.993  1.00  0.00     0.005 C 
ATOM     19  C   UNL     1       3.595  25.542  33.412  1.00  0.00     0.010 C 
ATOM     20  C   UNL     1       1.996  23.850  32.426  1.00  0.00     0.012 C 
ATOM     21  C   UNL     1       1.544  26.437  32.216  1.00  0.00     0.003 C 
ATOM     22  C   UNL     1       4.444  25.838  32.165  1.00  0.00     0.033 C 
ATOM     23  C   UNL     1       2.393  26.789  30.928  1.00  0.00    -0.006 C 
ATOM     24  C   UNL     1       3.883  27.009  31.343  1.00  0.00     0.120 C 
ATOM     25  C   UNL     1       1.883  28.118  30.297  1.00  0.00     0.014 C 
ATOM     26  C   UNL     1       2.302  25.715  29.816  1.00  0.00     0.014 C 
ENDROOT
BRANCH   1  27
ATOM     27  C   UNL     1      -2.992  25.529  39.645  1.00  0.00     0.048 C 
ATOM     28  O   UNL     1      -4.034  25.163  40.257  1.00  0.00    -0.550 OA
ATOM     29  O   UNL     1      -2.307  26.650  40.106  1.00  0.00    -0.550 OA
ENDBRANCH   1  27
BRANCH   7  30
ATOM     30  C   UNL     1      -0.106  23.768  40.552  1.00  0.00    -0.077 C 
ATOM     31  C   UNL     1      -0.304  22.808  41.703  1.00  0.00     0.039 C 
ATOM     32  C   UNL     1       0.616  24.888  40.749  1.00  0.00     0.008 C 
ENDBRANCH   7  30
BRANCH  24  33
ATOM     33  O   UNL     1       4.008  28.194  32.093  1.00  0.00    -0.393 OA
ATOM     34  H   UNL     1       4.503  28.846  31.529  1.00  0.00     0.210 HD
ENDBRANCH  24  33
TORSDOF 3
ENDMDL
MODEL 3
REMARK VINA RESULT:    -5.717      2.577      4.649
REMARK INTER + INTRA:          -7.283
REMARK INTER:                  -6.684
REMARK INTRA:                  -0.599
REMARK UNBOUND:                -0.730
REMARK SMILES C=C(C)[C@H]1CC[C@]2(C(=O)[O-])CC[C@@]3(C)[C@@H](CC[C@H]4[C@]5(C)CC[C@H](O)C(C)(C)[C@H]5CC[C@@]43C)[C@H]12
REMARK SMILES IDX 7 1 6 2 33 3 11 4 5 5 15 6 4 7 12 8 16 9 13 10 17 11 31 12
REMARK SMILES IDX 14 13 18 14 30 15 32 16 19 17 29 18 21 19 20 20 28 21 22 22
REMARK SMILES IDX 25 23 23 24 26 25 27 26 8 27 9 28 10 29 2 30 3 31 1 32 24 33
REMARK H PARENT 24 34
REMARK Flexibility Score: inf
ROOT
ATOM      1  C   UNL     1       3.053  24.899  28.566  1.00  0.00     0.014 C 
ATOM      2  C   UNL     1       3.573  23.449  28.602  1.00  0.00     0.014 C 
ATOM      3  C   UNL     1       1.504  24.715  28.581  1.00  0.00     0.012 C 
ATOM      4  C   UNL     1       3.637  25.743  29.732  1.00  0.00     0.014 C 
ATOM      5  C   UNL     1       2.616  22.644  27.737  1.00  0.00     0.009 C 
ATOM      6  C   UNL     1       0.896  24.584  30.025  1.00  0.00     0.000 C 
ATOM      7  C   UNL     1       1.269  23.403  27.764  1.00  0.00     0.018 C 
ATOM      8  C   UNL     1       2.984  25.472  31.090  1.00  0.00     0.008 C 
ATOM      9  C   UNL     1      -0.645  24.600  29.977  1.00  0.00     0.005 C 
ATOM     10  C   UNL     1       1.432  25.632  31.073  1.00  0.00    -0.024 C 
ATOM     11  C   UNL     1      -1.235  24.233  31.336  1.00  0.00     0.005 C 
ATOM     12  C   UNL     1       0.781  25.342  32.537  1.00  0.00    -0.024 C 
ATOM     13  C   UNL     1       1.120  27.094  30.589  1.00  0.00     0.012 C 
ATOM     14  C   UNL     1      -0.806  25.260  32.411  1.00  0.00     0.002 C 
ATOM     15  C   UNL     1       1.129  26.488  33.545  1.00  0.00     0.008 C 
ATOM     16  C   UNL     1       1.377  24.023  33.132  1.00  0.00     0.012 C 
ATOM     17  C   UNL     1      -1.643  25.205  33.767  1.00  0.00    -0.026 C 
ATOM     18  C   UNL     1       0.366  26.407  34.880  1.00  0.00     0.005 C 
ATOM     19  C   UNL     1      -3.161  25.416  33.446  1.00  0.00     0.010 C 
ATOM     20  C   UNL     1      -1.494  23.823  34.481  1.00  0.00     0.012 C 
ATOM     21  C   UNL     1      -1.166  26.432  34.642  1.00  0.00     0.003 C 
ATOM     22  C   UNL     1      -4.035  25.698  34.679  1.00  0.00     0.033 C 
ATOM     23  C   UNL     1      -2.043  26.769  35.914  1.00  0.00    -0.006 C 
ATOM     24  C   UNL     1      -3.538  26.910  35.482  1.00  0.00     0.120 C 
ATOM     25  C   UNL     1      -1.603  28.133  36.521  1.00  0.00     0.014 C 
ATOM     26  C   UNL     1      -1.913  25.723  37.049  1.00  0.00     0.014 C 
ENDROOT
BRANCH   1  27
ATOM     27  C   UNL     1       3.480  25.587  27.272  1.00  0.00     0.048 C 
ATOM     28  O   UNL     1       4.319  25.054  26.495  1.00  0.00    -0.550 OA
ATOM     29  O   UNL     1       3.021  26.869  26.981  1.00  0.00    -0.550 OA
ENDBRANCH   1  27
BRANCH   7  30
ATOM     30  C   UNL     1       0.688  23.673  26.377  1.00  0.00    -0.077 C 
ATOM     31  C   UNL     1       1.275  22.986  25.165  1.00  0.00     0.039 C 
ATOM     32  C   UNL     1      -0.369  24.493  26.220  1.00  0.00     0.008 C 
ENDBRANCH   7  30
BRANCH  24  33
ATOM     33  O   UNL     1      -3.711  28.072  34.706  1.00  0.00    -0.393 OA
ATOM     34  H   UNL     1      -3.780  27.783  33.758  1.00  0.00     0.210 HD
ENDBRANCH  24  33
TORSDOF 3
ENDMDL
MODEL 4
REMARK VINA RESULT:    -5.652      4.681      8.172
REMARK INTER + INTRA:          -7.208
REMARK INTER:                  -6.512
REMARK INTRA:                  -0.696
REMARK UNBOUND:                -0.730
REMARK SMILES C=C(C)[C@H]1CC[C@]2(C(=O)[O-])CC[C@@]3(C)[C@@H](CC[C@H]4[C@]5(C)CC[C@H](O)C(C)(C)[C@H]5CC[C@@]43C)[C@H]12
REMARK SMILES IDX 7 1 6 2 33 3 11 4 5 5 15 6 4 7 12 8 16 9 13 10 17 11 31 12
REMARK SMILES IDX 14 13 18 14 30 15 32 16 19 17 29 18 21 19 20 20 28 21 22 22
REMARK SMILES IDX 25 23 23 24 26 25 27 26 8 27 9 28 10 29 2 30 3 31 1 32 24 33
REMARK H PARENT 24 34
REMARK Flexibility Score: inf
ROOT
ATOM      1  C   UNL     1      -1.035  25.900  36.781  1.00  0.00     0.014 C 
ATOM      2  C   UNL     1      -0.993  27.317  37.387  1.00  0.00     0.014 C 
ATOM      3  C   UNL     1      -2.303  25.275  37.442  1.00  0.00     0.012 C 
ATOM      4  C   UNL     1      -1.044  25.944  35.229  1.00  0.00     0.014 C 
ATOM      5  C   UNL     1      -1.441  27.163  38.832  1.00  0.00     0.009 C 
ATOM      6  C   UNL     1      -3.638  25.590  36.674  1.00  0.00     0.000 C 
ATOM      7  C   UNL     1      -2.332  25.900  38.875  1.00  0.00     0.018 C 
ATOM      8  C   UNL     1      -2.398  26.316  34.620  1.00  0.00     0.008 C 
ATOM      9  C   UNL     1      -4.816  24.790  37.264  1.00  0.00     0.005 C 
ATOM     10  C   UNL     1      -3.568  25.408  35.110  1.00  0.00    -0.024 C 
ATOM     11  C   UNL     1      -6.144  25.270  36.686  1.00  0.00     0.005 C 
ATOM     12  C   UNL     1      -4.985  25.834  34.432  1.00  0.00    -0.024 C 
ATOM     13  C   UNL     1      -3.188  23.926  34.752  1.00  0.00     0.012 C 
ATOM     14  C   UNL     1      -6.178  25.060  35.153  1.00  0.00     0.002 C 
ATOM     15  C   UNL     1      -5.017  25.465  32.912  1.00  0.00     0.008 C 
ATOM     16  C   UNL     1      -5.173  27.386  34.523  1.00  0.00     0.012 C 
ATOM     17  C   UNL     1      -7.624  25.169  34.490  1.00  0.00    -0.026 C 
ATOM     18  C   UNL     1      -6.399  25.624  32.252  1.00  0.00     0.005 C 
ATOM     19  C   UNL     1      -8.581  24.128  35.164  1.00  0.00     0.010 C 
ATOM     20  C   UNL     1      -8.245  26.589  34.693  1.00  0.00     0.012 C 
ATOM     21  C   UNL     1      -7.459  24.753  32.975  1.00  0.00     0.003 C 
ATOM     22  C   UNL     1      -9.906  23.911  34.414  1.00  0.00     0.033 C 
ATOM     23  C   UNL     1      -8.795  24.504  32.166  1.00  0.00    -0.006 C 
ATOM     24  C   UNL     1      -9.687  23.490  32.953  1.00  0.00     0.120 C 
ATOM     25  C   UNL     1      -8.472  23.865  30.783  1.00  0.00     0.014 C 
ATOM     26  C   UNL     1      -9.591  25.799  31.874  1.00  0.00     0.014 C 
ENDROOT
BRANCH   1  27
ATOM     27  C   UNL     1       0.204  25.108  37.190  1.00  0.00     0.048 C 
ATOM     28  O   UNL     1       1.323  25.674  37.332  1.00  0.00    -0.550 OA
ATOM     29  O   UNL     1       0.136  23.723  37.312  1.00  0.00    -0.550 OA
ENDBRANCH   1  27
BRANCH   7  30
ATOM     30  C   UNL     1      -1.930  24.901  39.957  1.00  0.00    -0.077 C 
ATOM     31  C   UNL     1      -0.585  25.023  40.637  1.00  0.00     0.039 C 
ATOM     32  C   UNL     1      -2.774  23.925  40.345  1.00  0.00     0.008 C 
ENDBRANCH   7  30
BRANCH  24  33
ATOM     33  O   UNL     1      -9.102  22.209  32.930  1.00  0.00    -0.393 OA
ATOM     34  H   UNL     1      -8.789  22.048  32.001  1.00  0.00     0.210 HD
ENDBRANCH  24  33
TORSDOF 3
ENDMDL
MODEL 5
REMARK VINA RESULT:    -5.529      1.727      3.026
REMARK INTER + INTRA:          -7.067
REMARK INTER:                  -6.321
REMARK INTRA:                  -0.746
REMARK UNBOUND:                -0.730
REMARK SMILES C=C(C)[C@H]1CC[C@]2(C(=O)[O-])CC[C@@]3(C)[C@@H](CC[C@H]4[C@]5(C)CC[C@H](O)C(C)(C)[C@H]5CC[C@@]43C)[C@H]12
REMARK SMILES IDX 7 1 6 2 33 3 11 4 5 5 15 6 4 7 12 8 16 9 13 10 17 11 31 12
REMARK SMILES IDX 14 13 18 14 30 15 32 16 19 17 29 18 21 19 20 20 28 21 22 22
REMARK SMILES IDX 25 23 23 24 26 25 27 26 8 27 9 28 10 29 2 30 3 31 1 32 24 33
REMARK H PARENT 24 34
REMARK Flexibility Score: inf
ROOT
ATOM      1  C   UNL     1       0.445  25.883  31.980  1.00  0.00     0.014 C 
ATOM      2  C   UNL     1       0.750  27.384  31.809  1.00  0.00     0.014 C 
ATOM      3  C   UNL     1       1.322  25.486  33.208  1.00  0.00     0.012 C 
ATOM      4  C   UNL     1      -1.078  25.625  32.135  1.00  0.00     0.014 C 
ATOM      5  C   UNL     1       2.229  27.545  32.124  1.00  0.00     0.009 C 
ATOM      6  C   UNL     1       0.621  25.736  34.593  1.00  0.00     0.000 C 
ATOM      7  C   UNL     1       2.599  26.378  33.068  1.00  0.00     0.018 C 
ATOM      8  C   UNL     1      -1.633  25.963  33.521  1.00  0.00     0.008 C 
ATOM      9  C   UNL     1       1.457  25.148  35.747  1.00  0.00     0.005 C 
ATOM     10  C   UNL     1      -0.875  25.249  34.682  1.00  0.00    -0.024 C 
ATOM     11  C   UNL     1       0.908  25.596  37.099  1.00  0.00     0.005 C 
ATOM     12  C   UNL     1      -1.503  25.631  36.135  1.00  0.00    -0.024 C 
ATOM     13  C   UNL     1      -0.961  23.703  34.413  1.00  0.00     0.012 C 
ATOM     14  C   UNL     1      -0.544  25.094  37.290  1.00  0.00     0.002 C 
ATOM     15  C   UNL     1      -2.910  24.977  36.331  1.00  0.00     0.008 C 
ATOM     16  C   UNL     1      -1.708  27.180  36.235  1.00  0.00     0.012 C 
ATOM     17  C   UNL     1      -1.091  25.171  38.786  1.00  0.00    -0.026 C 
ATOM     18  C   UNL     1      -3.470  25.099  37.760  1.00  0.00     0.005 C 
ATOM     19  C   UNL     1      -0.145  24.348  39.725  1.00  0.00     0.010 C 
ATOM     20  C   UNL     1      -1.125  26.642  39.313  1.00  0.00     0.012 C 
ATOM     21  C   UNL     1      -2.501  24.459  38.788  1.00  0.00     0.003 C 
ATOM     22  C   UNL     1      -0.722  24.080  41.125  1.00  0.00     0.033 C 
ATOM     23  C   UNL     1      -3.129  24.148  40.206  1.00  0.00    -0.006 C 
ATOM     24  C   UNL     1      -2.084  23.370  41.068  1.00  0.00     0.120 C 
ATOM     25  C   UNL     1      -4.379  23.233  40.050  1.00  0.00     0.014 C 
ATOM     26  C   UNL     1      -3.606  25.413  40.961  1.00  0.00     0.014 C 
ENDROOT
BRANCH   1  27
ATOM     27  C   UNL     1       0.898  25.103  30.749  1.00  0.00     0.048 C 
ATOM     28  O   UNL     1       1.307  23.913  30.843  1.00  0.00    -0.550 OA
ATOM     29  O   UNL     1       0.963  25.735  29.509  1.00  0.00    -0.550 OA
ENDBRANCH   1  27
BRANCH   7  30
ATOM     30  C   UNL     1       3.821  25.583  32.614  1.00  0.00    -0.077 C 
ATOM     31  C   UNL     1       4.527  25.950  31.329  1.00  0.00     0.039 C 
ATOM     32  C   UNL     1       4.305  24.574  33.364  1.00  0.00     0.008 C 
ENDBRANCH   7  30
BRANCH  24  33
ATOM     33  O   UNL     1      -1.900  22.072  40.553  1.00  0.00    -0.393 OA
ATOM     34  H   UNL     1      -2.029  21.438  41.307  1.00  0.00     0.210 HD
ENDBRANCH  24  33
TORSDOF 3
ENDMDL
MODEL 6
REMARK VINA RESULT:    -5.494      2.355      8.587
REMARK INTER + INTRA:          -7.027
REMARK INTER:                  -6.282
REMARK INTRA:                  -0.745
REMARK UNBOUND:                -0.730
REMARK SMILES C=C(C)[C@H]1CC[C@]2(C(=O)[O-])CC[C@@]3(C)[C@@H](CC[C@H]4[C@]5(C)CC[C@H](O)C(C)(C)[C@H]5CC[C@@]43C)[C@H]12
REMARK SMILES IDX 7 1 6 2 33 3 11 4 5 5 15 6 4 7 12 8 16 9 13 10 17 11 31 12
REMARK SMILES IDX 14 13 18 14 30 15 32 16 19 17 29 18 21 19 20 20 28 21 22 22
REMARK SMILES IDX 25 23 23 24 26 25 27 26 8 27 9 28 10 29 2 30 3 31 1 32 24 33
REMARK H PARENT 24 34
REMARK Flexibility Score: inf
ROOT
ATOM      1  C   UNL     1      -1.160  26.068  35.316  1.00  0.00     0.014 C 
ATOM      2  C   UNL     1      -1.636  27.534  35.312  1.00  0.00     0.014 C 
ATOM      3  C   UNL     1      -1.825  25.482  34.032  1.00  0.00     0.012 C 
ATOM      4  C   UNL     1       0.389  25.972  35.369  1.00  0.00     0.014 C 
ATOM      5  C   UNL     1      -3.070  27.503  34.809  1.00  0.00     0.009 C 
ATOM      6  C   UNL     1      -0.980  25.702  32.725  1.00  0.00     0.000 C 
ATOM      7  C   UNL     1      -3.194  26.233  33.936  1.00  0.00     0.018 C 
ATOM      8  C   UNL     1       1.081  26.263  34.036  1.00  0.00     0.008 C 
ATOM      9  C   UNL     1      -1.595  24.936  31.536  1.00  0.00     0.005 C 
ATOM     10  C   UNL     1       0.556  25.380  32.861  1.00  0.00    -0.024 C 
ATOM     11  C   UNL     1      -0.924  25.337  30.226  1.00  0.00     0.005 C 
ATOM     12  C   UNL     1       1.325  25.717  31.466  1.00  0.00    -0.024 C 
ATOM     13  C   UNL     1       0.764  23.880  33.278  1.00  0.00     0.012 C 
ATOM     14  C   UNL     1       0.583  24.989  30.257  1.00  0.00     0.002 C 
ATOM     15  C   UNL     1       2.805  25.212  31.501  1.00  0.00     0.008 C 
ATOM     16  C   UNL     1       1.383  27.267  31.252  1.00  0.00     0.012 C 
ATOM     17  C   UNL     1       1.310  25.011  28.837  1.00  0.00    -0.026 C 
ATOM     18  C   UNL     1       3.530  25.286  30.145  1.00  0.00     0.005 C 
ATOM     19  C   UNL     1       0.582  24.017  27.869  1.00  0.00     0.010 C 
ATOM     20  C   UNL     1       1.261  26.432  28.187  1.00  0.00     0.012 C 
ATOM     21  C   UNL     1       2.773  24.464  29.070  1.00  0.00     0.003 C 
ATOM     22  C   UNL     1       1.360  23.709  26.579  1.00  0.00     0.033 C 
ATOM     23  C   UNL     1       3.608  24.117  27.772  1.00  0.00    -0.006 C 
ATOM     24  C   UNL     1       2.768  23.163  26.864  1.00  0.00     0.120 C 
ATOM     25  C   UNL     1       4.913  23.363  28.160  1.00  0.00     0.014 C 
ATOM     26  C   UNL     1       4.047  25.367  26.968  1.00  0.00     0.014 C 
ENDROOT
BRANCH   1  27
ATOM     27  C   UNL     1      -1.687  25.340  36.549  1.00  0.00     0.048 C 
ATOM     28  O   UNL     1      -1.921  24.100  36.526  1.00  0.00    -0.550 OA
ATOM     29  O   UNL     1      -2.015  26.059  37.696  1.00  0.00    -0.550 OA
ENDBRANCH   1  27
BRANCH   7  30
ATOM     30  C   UNL     1      -4.377  25.342  34.309  1.00  0.00    -0.077 C 
ATOM     31  C   UNL     1      -5.284  25.731  35.455  1.00  0.00     0.039 C 
ATOM     32  C   UNL     1      -4.649  24.226  33.606  1.00  0.00     0.008 C 
ENDBRANCH   7  30
BRANCH  24  33
ATOM     33  O   UNL     1       2.652  21.896  27.468  1.00  0.00    -0.393 OA
ATOM     34  H   UNL     1       1.785  21.510  27.174  1.00  0.00     0.210 HD
ENDBRANCH  24  33
TORSDOF 3
ENDMDL
MODEL 7
REMARK VINA RESULT:    -5.468      2.003      8.217
REMARK INTER + INTRA:          -6.997
REMARK INTER:                  -6.264
REMARK INTRA:                  -0.733
REMARK UNBOUND:                -0.730
REMARK SMILES C=C(C)[C@H]1CC[C@]2(C(=O)[O-])CC[C@@]3(C)[C@@H](CC[C@H]4[C@]5(C)CC[C@H](O)C(C)(C)[C@H]5CC[C@@]43C)[C@H]12
REMARK SMILES IDX 7 1 6 2 33 3 11 4 5 5 15 6 4 7 12 8 16 9 13 10 17 11 31 12
REMARK SMILES IDX 14 13 18 14 30 15 32 16 19 17 29 18 21 19 20 20 28 21 22 22
REMARK SMILES IDX 25 23 23 24 26 25 27 26 8 27 9 28 10 29 2 30 3 31 1 32 24 33
REMARK H PARENT 24 34
REMARK Flexibility Score: inf
ROOT
ATOM      1  C   UNL     1       0.094  23.745  36.699  1.00  0.00     0.014 C 
ATOM      2  C   UNL     1       1.244  24.046  37.680  1.00  0.00     0.014 C 
ATOM      3  C   UNL     1      -0.098  25.105  35.959  1.00  0.00     0.012 C 
ATOM      4  C   UNL     1       0.424  22.530  35.790  1.00  0.00     0.014 C 
ATOM      5  C   UNL     1       1.012  25.468  38.166  1.00  0.00     0.009 C 
ATOM      6  C   UNL     1       0.848  25.289  34.717  1.00  0.00     0.000 C 
ATOM      7  C   UNL     1       0.212  26.180  37.052  1.00  0.00     0.018 C 
ATOM      8  C   UNL     1       1.400  22.845  34.654  1.00  0.00     0.008 C 
ATOM      9  C   UNL     1       0.475  26.557  33.923  1.00  0.00     0.005 C 
ATOM     10  C   UNL     1       0.945  24.041  33.761  1.00  0.00    -0.024 C 
ATOM     11  C   UNL     1       1.533  26.869  32.868  1.00  0.00     0.005 C 
ATOM     12  C   UNL     1       2.008  24.335  32.562  1.00  0.00    -0.024 C 
ATOM     13  C   UNL     1      -0.474  23.681  33.189  1.00  0.00     0.012 C 
ATOM     14  C   UNL     1       1.640  25.711  31.847  1.00  0.00     0.002 C 
ATOM     15  C   UNL     1       1.968  23.202  31.483  1.00  0.00     0.008 C 
ATOM     16  C   UNL     1       3.464  24.359  33.137  1.00  0.00     0.012 C 
ATOM     17  C   UNL     1       2.425  26.067  30.505  1.00  0.00    -0.026 C 
ATOM     18  C   UNL     1       2.772  23.516  30.209  1.00  0.00     0.005 C 
ATOM     19  C   UNL     1       1.733  27.290  29.811  1.00  0.00     0.010 C 
ATOM     20  C   UNL     1       3.911  26.459  30.792  1.00  0.00     0.012 C 
ATOM     21  C   UNL     1       2.266  24.823  29.545  1.00  0.00     0.003 C 
ATOM     22  C   UNL     1       2.192  27.538  28.365  1.00  0.00     0.033 C 
ATOM     23  C   UNL     1       2.710  25.034  28.042  1.00  0.00    -0.006 C 
ATOM     24  C   UNL     1       1.998  26.303  27.472  1.00  0.00     0.120 C 
ATOM     25  C   UNL     1       2.265  23.820  27.175  1.00  0.00     0.014 C 
ATOM     26  C   UNL     1       4.244  25.159  27.863  1.00  0.00     0.014 C 
ENDROOT
BRANCH   1  27
ATOM     27  C   UNL     1      -1.179  23.388  37.462  1.00  0.00     0.048 C 
ATOM     28  O   UNL     1      -2.319  23.653  36.991  1.00  0.00    -0.550 OA
ATOM     29  O   UNL     1      -1.095  22.851  38.744  1.00  0.00    -0.550 OA
ENDBRANCH   1  27
BRANCH   7  30
ATOM     30  C   UNL     1      -1.048  26.885  37.552  1.00  0.00    -0.077 C 
ATOM     31  C   UNL     1      -1.490  26.712  38.988  1.00  0.00     0.039 C 
ATOM     32  C   UNL     1      -1.756  27.692  36.739  1.00  0.00     0.008 C 
ENDBRANCH   7  30
BRANCH  24  33
ATOM     33  O   UNL     1       0.619  26.059  27.324  1.00  0.00    -0.393 OA
ATOM     34  H   UNL     1       0.146  26.900  27.562  1.00  0.00     0.210 HD
ENDBRANCH  24  33
TORSDOF 3
ENDMDL
MODEL 8
REMARK VINA RESULT:    -5.348      1.718      3.077
REMARK INTER + INTRA:          -6.859
REMARK INTER:                  -6.141
REMARK INTRA:                  -0.719
REMARK UNBOUND:                -0.730
REMARK SMILES C=C(C)[C@H]1CC[C@]2(C(=O)[O-])CC[C@@]3(C)[C@@H](CC[C@H]4[C@]5(C)CC[C@H](O)C(C)(C)[C@H]5CC[C@@]43C)[C@H]12
REMARK SMILES IDX 7 1 6 2 33 3 11 4 5 5 15 6 4 7 12 8 16 9 13 10 17 11 31 12
REMARK SMILES IDX 14 13 18 14 30 15 32 16 19 17 29 18 21 19 20 20 28 21 22 22
REMARK SMILES IDX 25 23 23 24 26 25 27 26 8 27 9 28 10 29 2 30 3 31 1 32 24 33
REMARK H PARENT 24 34
REMARK Flexibility Score: inf
ROOT
ATOM      1  C   UNL     1       1.937  25.765  30.714  1.00  0.00     0.014 C 
ATOM      2  C   UNL     1       2.599  24.467  30.213  1.00  0.00     0.014 C 
ATOM      3  C   UNL     1       0.461  25.328  30.972  1.00  0.00     0.012 C 
ATOM      4  C   UNL     1       2.685  26.348  31.943  1.00  0.00     0.014 C 
ATOM      5  C   UNL     1       1.554  23.777  29.349  1.00  0.00     0.009 C 
ATOM      6  C   UNL     1       0.224  24.714  32.399  1.00  0.00     0.000 C 
ATOM      7  C   UNL     1       0.180  24.264  29.861  1.00  0.00     0.018 C 
ATOM      8  C   UNL     1       2.399  25.617  33.256  1.00  0.00     0.008 C 
ATOM      9  C   UNL     1      -1.279  24.485  32.657  1.00  0.00     0.005 C 
ATOM     10  C   UNL     1       0.878  25.514  33.588  1.00  0.00    -0.024 C 
ATOM     11  C   UNL     1      -1.494  23.671  33.931  1.00  0.00     0.005 C 
ATOM     12  C   UNL     1       0.621  24.736  34.996  1.00  0.00    -0.024 C 
ATOM     13  C   UNL     1       0.312  26.979  33.635  1.00  0.00     0.012 C 
ATOM     14  C   UNL     1      -0.934  24.428  35.160  1.00  0.00     0.002 C 
ATOM     15  C   UNL     1       1.073  25.609  36.213  1.00  0.00     0.008 C 
ATOM     16  C   UNL     1       1.473  23.424  35.042  1.00  0.00     0.012 C 
ATOM     17  C   UNL     1      -1.422  23.871  36.573  1.00  0.00    -0.026 C 
ATOM     18  C   UNL     1       0.656  25.046  37.584  1.00  0.00     0.005 C 
ATOM     19  C   UNL     1      -2.987  23.904  36.629  1.00  0.00     0.010 C 
ATOM     20  C   UNL     1      -0.968  22.392  36.797  1.00  0.00     0.012 C 
ATOM     21  C   UNL     1      -0.884  24.877  37.665  1.00  0.00     0.003 C 
ATOM     22  C   UNL     1      -3.573  23.692  38.035  1.00  0.00     0.033 C 
ATOM     23  C   UNL     1      -1.470  24.708  39.124  1.00  0.00    -0.006 C 
ATOM     24  C   UNL     1      -3.031  24.709  39.052  1.00  0.00     0.120 C 
ATOM     25  C   UNL     1      -1.044  25.912  40.015  1.00  0.00     0.014 C 
ATOM     26  C   UNL     1      -0.971  23.432  39.846  1.00  0.00     0.014 C 
ENDROOT
BRANCH   1  27
ATOM     27  C   UNL     1       1.976  26.837  29.629  1.00  0.00     0.048 C 
ATOM     28  O   UNL     1       1.137  27.779  29.610  1.00  0.00    -0.550 OA
ATOM     29  O   UNL     1       2.883  26.731  28.577  1.00  0.00    -0.550 OA
ENDBRANCH   1  27
BRANCH   7  30
ATOM     30  C   UNL     1      -0.733  24.798  28.759  1.00  0.00    -0.077 C 
ATOM     31  C   UNL     1      -0.259  24.807  27.323  1.00  0.00     0.039 C 
ATOM     32  C   UNL     1      -1.977  25.231  29.042  1.00  0.00     0.008 C 
ENDBRANCH   7  30
BRANCH  24  33
ATOM     33  O   UNL     1      -3.500  25.991  38.709  1.00  0.00    -0.393 OA
ATOM     34  H   UNL     1      -2.709  26.590  38.665  1.00  0.00     0.210 HD
ENDBRANCH  24  33
TORSDOF 3
ENDMDL
MODEL 9
REMARK VINA RESULT:    -5.320      3.123      4.443
REMARK INTER + INTRA:          -6.828
REMARK INTER:                  -6.089
REMARK INTRA:                  -0.739
REMARK UNBOUND:                -0.730
REMARK SMILES C=C(C)[C@H]1CC[C@]2(C(=O)[O-])CC[C@@]3(C)[C@@H](CC[C@H]4[C@]5(C)CC[C@H](O)C(C)(C)[C@H]5CC[C@@]43C)[C@H]12
REMARK SMILES IDX 7 1 6 2 33 3 11 4 5 5 15 6 4 7 12 8 16 9 13 10 17 11 31 12
REMARK SMILES IDX 14 13 18 14 30 15 32 16 19 17 29 18 21 19 20 20 28 21 22 22
REMARK SMILES IDX 25 23 23 24 26 25 27 26 8 27 9 28 10 29 2 30 3 31 1 32 24 33
REMARK H PARENT 24 34
REMARK Flexibility Score: inf
ROOT
ATOM      1  C   UNL     1      -3.894  24.053  30.177  1.00  0.00     0.014 C 
ATOM      2  C   UNL     1      -4.129  25.402  29.470  1.00  0.00     0.014 C 
ATOM      3  C   UNL     1      -2.411  24.160  30.650  1.00  0.00     0.012 C 
ATOM      4  C   UNL     1      -4.938  23.811  31.302  1.00  0.00     0.014 C 
ATOM      5  C   UNL     1      -2.830  25.721  28.747  1.00  0.00     0.009 C 
ATOM      6  C   UNL     1      -2.240  24.865  32.044  1.00  0.00     0.000 C 
ATOM      7  C   UNL     1      -1.712  24.989  29.524  1.00  0.00     0.018 C 
ATOM      8  C   UNL     1      -4.674  24.604  32.583  1.00  0.00     0.008 C 
ATOM      9  C   UNL     1      -0.783  24.764  32.538  1.00  0.00     0.005 C 
ATOM     10  C   UNL     1      -3.242  24.386  33.162  1.00  0.00    -0.024 C 
ATOM     11  C   UNL     1      -0.561  25.649  33.762  1.00  0.00     0.005 C 
ATOM     12  C   UNL     1      -3.008  25.242  34.528  1.00  0.00    -0.024 C 
ATOM     13  C   UNL     1      -3.074  22.845  33.420  1.00  0.00     0.012 C 
ATOM     14  C   UNL     1      -1.467  25.195  34.932  1.00  0.00     0.002 C 
ATOM     15  C   UNL     1      -3.839  24.649  35.714  1.00  0.00     0.008 C 
ATOM     16  C   UNL     1      -3.502  26.714  34.324  1.00  0.00     0.012 C 
ATOM     17  C   UNL     1      -1.069  25.785  36.359  1.00  0.00    -0.026 C 
ATOM     18  C   UNL     1      -3.500  25.257  37.087  1.00  0.00     0.005 C 
ATOM     19  C   UNL     1       0.412  25.393  36.686  1.00  0.00     0.010 C 
ATOM     20  C   UNL     1      -1.167  27.345  36.386  1.00  0.00     0.012 C 
ATOM     21  C   UNL     1      -1.997  25.068  37.418  1.00  0.00     0.003 C 
ATOM     22  C   UNL     1       0.818  25.625  38.150  1.00  0.00     0.033 C 
ATOM     23  C   UNL     1      -1.609  25.266  38.939  1.00  0.00    -0.006 C 
ATOM     24  C   UNL     1      -0.105  24.891  39.135  1.00  0.00     0.120 C 
ATOM     25  C   UNL     1      -2.449  24.309  39.835  1.00  0.00     0.014 C 
ATOM     26  C   UNL     1      -1.873  26.699  39.462  1.00  0.00     0.014 C 
ENDROOT
BRANCH   1  27
ATOM     27  C   UNL     1      -4.040  22.900  29.189  1.00  0.00     0.048 C 
ATOM     28  O   UNL     1      -3.308  21.875  29.267  1.00  0.00    -0.550 OA
ATOM     29  O   UNL     1      -4.921  23.009  28.116  1.00  0.00    -0.550 OA
ENDBRANCH   1  27
BRANCH   7  30
ATOM     30  C   UNL     1      -0.809  24.130  28.640  1.00  0.00    -0.077 C 
ATOM     31  C   UNL     1       0.040  23.043  29.258  1.00  0.00     0.039 C 
ATOM     32  C   UNL     1      -0.785  24.303  27.304  1.00  0.00     0.008 C 
ENDBRANCH   7  30
BRANCH  24  33
ATOM     33  O   UNL     1       0.074  23.503  38.979  1.00  0.00    -0.393 OA
ATOM     34  H   UNL     1      -0.429  23.059  39.712  1.00  0.00     0.210 HD
ENDBRANCH  24  33
TORSDOF 3
ENDMDL
