MODEL 1
REMARK VINA RESULT:    -6.822      0.000      0.000
REMARK INTER + INTRA:          -7.620
REMARK INTER:                  -7.620
REMARK INTRA:                   0.000
REMARK UNBOUND:                 0.000
REMARK SMILES Oc1cc(O)c2c(c1)CCc1cc(O)c(O)cc1-2
REMARK SMILES IDX 10 1 9 2 7 3 6 4 18 5 17 6 15 7 13 8 12 9 11 10 4 11 3 12
REMARK SMILES IDX 2 13 8 14 14 15 5 17 1 19 16 21
REMARK H PARENT 14 16 5 18 1 20 16 22
REMARK Flexibility Score: inf
ROOT
ATOM      1  C   UNL     1      49.269  50.261  34.797  1.00  0.00     0.041 C 
ATOM      2  C   UNL     1      47.753  50.228  35.019  1.00  0.00     0.041 C 
ATOM      3  C   UNL     1      47.329  48.895  35.586  1.00  0.00    -0.032 A 
ATOM      4  C   UNL     1      48.168  48.215  36.502  1.00  0.00     0.027 A 
ATOM      5  C   UNL     1      49.454  48.873  36.902  1.00  0.00    -0.007 A 
ATOM      6  C   UNL     1      50.094  48.605  38.129  1.00  0.00     0.059 A 
ATOM      7  C   UNL     1      51.298  49.239  38.462  1.00  0.00     0.158 A 
ATOM      8  C   UNL     1      51.865  50.173  37.582  1.00  0.00     0.157 A 
ATOM      9  C   UNL     1      51.208  50.490  36.391  1.00  0.00     0.054 A 
ATOM     10  C   UNL     1      49.993  49.874  36.061  1.00  0.00    -0.036 A 
ATOM     11  C   UNL     1      47.791  46.920  36.936  1.00  0.00     0.127 A 
ATOM     12  C   UNL     1      46.547  46.391  36.561  1.00  0.00     0.093 A 
ATOM     13  C   UNL     1      45.693  47.106  35.722  1.00  0.00     0.119 A 
ATOM     14  C   UNL     1      46.087  48.352  35.228  1.00  0.00     0.050 A 
ENDROOT
BRANCH   8  15
ATOM     15  O   UNL     1      53.070  50.806  37.881  1.00  0.00    -0.504 OA
ATOM     16  H   UNL     1      53.881  50.295  38.209  1.00  0.00     0.293 HD
ENDBRANCH   8  15
BRANCH  11  17
ATOM     17  O   UNL     1      48.656  46.136  37.699  1.00  0.00    -0.507 OA
ATOM     18  H   UNL     1      49.321  45.502  37.271  1.00  0.00     0.293 HD
ENDBRANCH  11  17
BRANCH  13  19
ATOM     19  O   UNL     1      44.459  46.561  35.373  1.00  0.00    -0.508 OA
ATOM     20  H   UNL     1      44.041  46.734  34.467  1.00  0.00     0.293 HD
ENDBRANCH  13  19
BRANCH   7  21
ATOM     21  O   UNL     1      51.930  48.949  39.672  1.00  0.00    -0.504 OA
ATOM     22  H   UNL     1      52.482  49.642  40.162  1.00  0.00     0.293 HD
ENDBRANCH   7  21
TORSDOF 4
ENDMDL
MODEL 2
REMARK VINA RESULT:    -6.729      3.474      6.816
REMARK INTER + INTRA:          -7.516
REMARK INTER:                  -7.516
REMARK INTRA:                   0.000
REMARK UNBOUND:                 0.000
REMARK SMILES Oc1cc(O)c2c(c1)CCc1cc(O)c(O)cc1-2
REMARK SMILES IDX 10 1 9 2 7 3 6 4 18 5 17 6 15 7 13 8 12 9 11 10 4 11 3 12
REMARK SMILES IDX 2 13 8 14 14 15 5 17 1 19 16 21
REMARK H PARENT 14 16 5 18 1 20 16 22
REMARK Flexibility Score: inf
ROOT
ATOM      1  C   UNL     1      45.667  46.283  35.614  1.00  0.00     0.041 C 
ATOM      2  C   UNL     1      45.552  47.794  35.384  1.00  0.00     0.041 C 
ATOM      3  C   UNL     1      46.834  48.341  34.806  1.00  0.00    -0.032 A 
ATOM      4  C   UNL     1      47.586  47.567  33.889  1.00  0.00     0.027 A 
ATOM      5  C   UNL     1      47.053  46.222  33.500  1.00  0.00    -0.007 A 
ATOM      6  C   UNL     1      47.373  45.604  32.274  1.00  0.00     0.059 A 
ATOM      7  C   UNL     1      46.856  44.342  31.950  1.00  0.00     0.158 A 
ATOM      8  C   UNL     1      45.987  43.693  32.840  1.00  0.00     0.157 A 
ATOM      9  C   UNL     1      45.616  44.322  34.030  1.00  0.00     0.054 A 
ATOM     10  C   UNL     1      46.114  45.593  34.350  1.00  0.00    -0.036 A 
ATOM     11  C   UNL     1      48.836  48.065  33.443  1.00  0.00     0.127 A 
ATOM     12  C   UNL     1      49.244  49.356  33.808  1.00  0.00     0.093 A 
ATOM     13  C   UNL     1      48.456  50.142  34.649  1.00  0.00     0.119 A 
ATOM     14  C   UNL     1      47.257  49.632  35.153  1.00  0.00     0.050 A 
ENDROOT
BRANCH   8  15
ATOM     15  O   UNL     1      45.471  42.430  32.551  1.00  0.00    -0.504 OA
ATOM     16  H   UNL     1      46.050  41.598  32.551  1.00  0.00     0.293 HD
ENDBRANCH   8  15
BRANCH  11  17
ATOM     17  O   UNL     1      49.693  47.276  32.679  1.00  0.00    -0.507 OA
ATOM     18  H   UNL     1      49.428  46.351  32.361  1.00  0.00     0.293 HD
ENDBRANCH  11  17
BRANCH  13  19
ATOM     19  O   UNL     1      48.881  51.424  34.988  1.00  0.00    -0.508 OA
ATOM     20  H   UNL     1      49.626  51.887  34.481  1.00  0.00     0.293 HD
ENDBRANCH  13  19
BRANCH   7  21
ATOM     21  O   UNL     1      47.197  43.735  30.742  1.00  0.00    -0.504 OA
ATOM     22  H   UNL     1      47.106  44.222  29.858  1.00  0.00     0.293 HD
ENDBRANCH   7  21
TORSDOF 4
ENDMDL
MODEL 3
REMARK VINA RESULT:    -6.264      1.077      5.427
REMARK INTER + INTRA:          -6.996
REMARK INTER:                  -6.996
REMARK INTRA:                   0.000
REMARK UNBOUND:                 0.000
REMARK SMILES Oc1cc(O)c2c(c1)CCc1cc(O)c(O)cc1-2
REMARK SMILES IDX 10 1 9 2 7 3 6 4 18 5 17 6 15 7 13 8 12 9 11 10 4 11 3 12
REMARK SMILES IDX 2 13 8 14 14 15 5 17 1 19 16 21
REMARK H PARENT 14 16 5 18 1 20 16 22
REMARK Flexibility Score: inf
ROOT
ATOM      1  C   UNL     1      47.723  50.093  35.017  1.00  0.00     0.041 C 
ATOM      2  C   UNL     1      49.204  50.488  34.984  1.00  0.00     0.041 C 
ATOM      3  C   UNL     1      49.899  50.043  36.248  1.00  0.00    -0.032 A 
ATOM      4  C   UNL     1      49.531  48.824  36.868  1.00  0.00     0.027 A 
ATOM      5  C   UNL     1      48.467  47.995  36.215  1.00  0.00    -0.007 A 
ATOM      6  C   UNL     1      48.378  46.599  36.391  1.00  0.00     0.059 A 
ATOM      7  C   UNL     1      47.363  45.862  35.766  1.00  0.00     0.158 A 
ATOM      8  C   UNL     1      46.439  46.509  34.932  1.00  0.00     0.157 A 
ATOM      9  C   UNL     1      46.555  47.881  34.704  1.00  0.00     0.054 A 
ATOM     10  C   UNL     1      47.579  48.622  35.310  1.00  0.00    -0.036 A 
ATOM     11  C   UNL     1      50.129  48.483  38.107  1.00  0.00     0.127 A 
ATOM     12  C   UNL     1      51.156  49.282  38.630  1.00  0.00     0.093 A 
ATOM     13  C   UNL     1      51.567  50.440  37.968  1.00  0.00     0.119 A 
ATOM     14  C   UNL     1      50.933  50.824  36.784  1.00  0.00     0.050 A 
ENDROOT
BRANCH   8  15
ATOM     15  O   UNL     1      45.410  45.802  34.310  1.00  0.00    -0.504 OA
ATOM     16  H   UNL     1      45.587  45.127  33.577  1.00  0.00     0.293 HD
ENDBRANCH   8  15
BRANCH  11  17
ATOM     17  O   UNL     1      49.684  47.388  38.844  1.00  0.00    -0.507 OA
ATOM     18  H   UNL     1      48.700  47.152  38.911  1.00  0.00     0.293 HD
ENDBRANCH  11  17
BRANCH  13  19
ATOM     19  O   UNL     1      52.596  51.210  38.505  1.00  0.00    -0.508 OA
ATOM     20  H   UNL     1      52.639  52.211  38.361  1.00  0.00     0.293 HD
ENDBRANCH  13  19
BRANCH   7  21
ATOM     21  O   UNL     1      47.276  44.484  35.964  1.00  0.00    -0.504 OA
ATOM     22  H   UNL     1      46.414  43.977  35.804  1.00  0.00     0.293 HD
ENDBRANCH   7  21
TORSDOF 4
ENDMDL
MODEL 4
REMARK VINA RESULT:    -6.231      3.129      4.130
REMARK INTER + INTRA:          -6.959
REMARK INTER:                  -6.959
REMARK INTRA:                   0.000
REMARK UNBOUND:                 0.000
REMARK SMILES Oc1cc(O)c2c(c1)CCc1cc(O)c(O)cc1-2
REMARK SMILES IDX 10 1 9 2 7 3 6 4 18 5 17 6 15 7 13 8 12 9 11 10 4 11 3 12
REMARK SMILES IDX 2 13 8 14 14 15 5 17 1 19 16 21
REMARK H PARENT 14 16 5 18 1 20 16 22
REMARK Flexibility Score: inf
ROOT
ATOM      1  C   UNL     1      45.860  48.204  35.394  1.00  0.00     0.041 C 
ATOM      2  C   UNL     1      45.526  46.710  35.481  1.00  0.00     0.041 C 
ATOM      3  C   UNL     1      46.048  45.979  34.268  1.00  0.00    -0.032 A 
ATOM      4  C   UNL     1      47.275  46.370  33.678  1.00  0.00     0.027 A 
ATOM      5  C   UNL     1      48.033  47.497  34.311  1.00  0.00    -0.007 A 
ATOM      6  C   UNL     1      49.429  47.638  34.183  1.00  0.00     0.059 A 
ATOM      7  C   UNL     1      50.099  48.711  34.787  1.00  0.00     0.158 A 
ATOM      8  C   UNL     1      49.382  49.643  35.552  1.00  0.00     0.157 A 
ATOM      9  C   UNL     1      48.008  49.479  35.734  1.00  0.00     0.054 A 
ATOM     10  C   UNL     1      47.335  48.397  35.149  1.00  0.00    -0.036 A 
ATOM     11  C   UNL     1      47.688  45.732  32.482  1.00  0.00     0.127 A 
ATOM     12  C   UNL     1      46.953  44.648  31.979  1.00  0.00     0.093 A 
ATOM     13  C   UNL     1      45.789  44.219  32.615  1.00  0.00     0.119 A 
ATOM     14  C   UNL     1      45.333  44.888  33.754  1.00  0.00     0.050 A 
ENDROOT
BRANCH   8  15
ATOM     15  O   UNL     1      50.021  50.728  36.151  1.00  0.00    -0.504 OA
ATOM     16  H   UNL     1      49.517  51.559  36.437  1.00  0.00     0.293 HD
ENDBRANCH   8  15
BRANCH  11  17
ATOM     17  O   UNL     1      48.793  46.190  31.767  1.00  0.00    -0.507 OA
ATOM     18  H   UNL     1      49.642  46.491  32.230  1.00  0.00     0.293 HD
ENDBRANCH  11  17
BRANCH  13  19
ATOM     19  O   UNL     1      45.084  43.134  32.098  1.00  0.00    -0.508 OA
ATOM     20  H   UNL     1      45.006  42.262  32.607  1.00  0.00     0.293 HD
ENDBRANCH  13  19
BRANCH   7  21
ATOM     21  O   UNL     1      51.479  48.848  34.637  1.00  0.00    -0.504 OA
ATOM     22  H   UNL     1      52.126  48.530  35.349  1.00  0.00     0.293 HD
ENDBRANCH   7  21
TORSDOF 4
ENDMDL
MODEL 5
REMARK VINA RESULT:    -5.962      3.977      7.210
REMARK INTER + INTRA:          -6.659
REMARK INTER:                  -6.659
REMARK INTRA:                   0.000
REMARK UNBOUND:                 0.000
REMARK SMILES Oc1cc(O)c2c(c1)CCc1cc(O)c(O)cc1-2
REMARK SMILES IDX 10 1 9 2 7 3 6 4 18 5 17 6 15 7 13 8 12 9 11 10 4 11 3 12
REMARK SMILES IDX 2 13 8 14 14 15 5 17 1 19 16 21
REMARK H PARENT 14 16 5 18 1 20 16 22
REMARK Flexibility Score: inf
ROOT
ATOM      1  C   UNL     1      47.748  45.681  31.238  1.00  0.00     0.041 C 
ATOM      2  C   UNL     1      48.693  46.439  32.177  1.00  0.00     0.041 C 
ATOM      3  C   UNL     1      47.920  47.069  33.311  1.00  0.00    -0.032 A 
ATOM      4  C   UNL     1      46.800  46.401  33.863  1.00  0.00     0.027 A 
ATOM      5  C   UNL     1      46.438  45.057  33.309  1.00  0.00    -0.007 A 
ATOM      6  C   UNL     1      45.739  44.090  34.060  1.00  0.00     0.059 A 
ATOM      7  C   UNL     1      45.416  42.846  33.502  1.00  0.00     0.158 A 
ATOM      8  C   UNL     1      45.813  42.542  32.191  1.00  0.00     0.157 A 
ATOM      9  C   UNL     1      46.557  43.469  31.460  1.00  0.00     0.054 A 
ATOM     10  C   UNL     1      46.901  44.708  32.020  1.00  0.00    -0.036 A 
ATOM     11  C   UNL     1      46.035  47.063  34.855  1.00  0.00     0.127 A 
ATOM     12  C   UNL     1      46.467  48.298  35.362  1.00  0.00     0.093 A 
ATOM     13  C   UNL     1      47.618  48.909  34.867  1.00  0.00     0.119 A 
ATOM     14  C   UNL     1      48.339  48.300  33.837  1.00  0.00     0.050 A 
ENDROOT
BRANCH   8  15
ATOM     15  O   UNL     1      45.491  41.318  31.605  1.00  0.00    -0.504 OA
ATOM     16  H   UNL     1      44.548  40.946  31.618  1.00  0.00     0.293 HD
ENDBRANCH   8  15
BRANCH  11  17
ATOM     17  O   UNL     1      44.830  46.530  35.310  1.00  0.00    -0.507 OA
ATOM     18  H   UNL     1      44.357  46.900  36.127  1.00  0.00     0.293 HD
ENDBRANCH  11  17
BRANCH  13  19
ATOM     19  O   UNL     1      48.029  50.131  35.395  1.00  0.00    -0.508 OA
ATOM     20  H   UNL     1      48.225  50.242  36.382  1.00  0.00     0.293 HD
ENDBRANCH  13  19
BRANCH   7  21
ATOM     21  O   UNL     1      44.707  41.906  34.250  1.00  0.00    -0.504 OA
ATOM     22  H   UNL     1      45.100  41.000  34.475  1.00  0.00     0.293 HD
ENDBRANCH   7  21
TORSDOF 4
ENDMDL
MODEL 6
REMARK VINA RESULT:    -5.928      1.480      2.866
REMARK INTER + INTRA:          -6.622
REMARK INTER:                  -6.622
REMARK INTRA:                   0.000
REMARK UNBOUND:                 0.000
REMARK SMILES Oc1cc(O)c2c(c1)CCc1cc(O)c(O)cc1-2
REMARK SMILES IDX 10 1 9 2 7 3 6 4 18 5 17 6 15 7 13 8 12 9 11 10 4 11 3 12
REMARK SMILES IDX 2 13 8 14 14 15 5 17 1 19 16 21
REMARK H PARENT 14 16 5 18 1 20 16 22
REMARK Flexibility Score: inf
ROOT
ATOM      1  C   UNL     1      49.324  47.333  39.312  1.00  0.00     0.041 C 
ATOM      2  C   UNL     1      48.577  46.349  38.404  1.00  0.00     0.041 C 
ATOM      3  C   UNL     1      47.843  47.089  37.312  1.00  0.00    -0.032 A 
ATOM      4  C   UNL     1      48.412  48.251  36.736  1.00  0.00     0.027 A 
ATOM      5  C   UNL     1      49.759  48.691  37.224  1.00  0.00    -0.007 A 
ATOM      6  C   UNL     1      50.642  49.452  36.431  1.00  0.00     0.059 A 
ATOM      7  C   UNL     1      51.891  49.847  36.928  1.00  0.00     0.158 A 
ATOM      8  C   UNL     1      52.286  49.461  38.217  1.00  0.00     0.157 A 
ATOM      9  C   UNL     1      51.445  48.657  38.988  1.00  0.00     0.054 A 
ATOM     10  C   UNL     1      50.202  48.242  38.490  1.00  0.00    -0.036 A 
ATOM     11  C   UNL     1      47.654  48.981  35.787  1.00  0.00     0.127 A 
ATOM     12  C   UNL     1      46.424  48.478  35.340  1.00  0.00     0.093 A 
ATOM     13  C   UNL     1      45.910  47.288  35.856  1.00  0.00     0.119 A 
ATOM     14  C   UNL     1      46.614  46.599  36.846  1.00  0.00     0.050 A 
ENDROOT
BRANCH   8  15
ATOM     15  O   UNL     1      53.517  49.854  38.742  1.00  0.00    -0.504 OA
ATOM     16  H   UNL     1      54.381  49.381  38.504  1.00  0.00     0.293 HD
ENDBRANCH   8  15
BRANCH  11  17
ATOM     17  O   UNL     1      48.089  50.218  35.317  1.00  0.00    -0.507 OA
ATOM     18  H   UNL     1      47.452  50.882  34.890  1.00  0.00     0.293 HD
ENDBRANCH  11  17
BRANCH  13  19
ATOM     19  O   UNL     1      44.689  46.807  35.387  1.00  0.00    -0.508 OA
ATOM     20  H   UNL     1      44.064  47.389  34.843  1.00  0.00     0.293 HD
ENDBRANCH  13  19
BRANCH   7  21
ATOM     21  O   UNL     1      52.746  50.617  36.139  1.00  0.00    -0.504 OA
ATOM     22  H   UNL     1      52.436  51.033  35.269  1.00  0.00     0.293 HD
ENDBRANCH   7  21
TORSDOF 4
ENDMDL
MODEL 7
REMARK VINA RESULT:    -5.723      7.747      9.099
REMARK INTER + INTRA:          -6.392
REMARK INTER:                  -6.392
REMARK INTRA:                   0.000
REMARK UNBOUND:                 0.000
REMARK SMILES Oc1cc(O)c2c(c1)CCc1cc(O)c(O)cc1-2
REMARK SMILES IDX 10 1 9 2 7 3 6 4 18 5 17 6 15 7 13 8 12 9 11 10 4 11 3 12
REMARK SMILES IDX 2 13 8 14 14 15 5 17 1 19 16 21
REMARK H PARENT 14 16 5 18 1 20 16 22
REMARK Flexibility Score: inf
ROOT
ATOM      1  C   UNL     1      44.049  53.005  35.070  1.00  0.00     0.041 C 
ATOM      2  C   UNL     1      43.125  52.741  33.876  1.00  0.00     0.041 C 
ATOM      3  C   UNL     1      41.715  52.474  34.346  1.00  0.00    -0.032 A 
ATOM      4  C   UNL     1      41.199  53.167  35.468  1.00  0.00     0.027 A 
ATOM      5  C   UNL     1      42.080  54.176  36.139  1.00  0.00    -0.007 A 
ATOM      6  C   UNL     1      41.565  55.263  36.874  1.00  0.00     0.059 A 
ATOM      7  C   UNL     1      42.424  56.183  37.490  1.00  0.00     0.158 A 
ATOM      8  C   UNL     1      43.813  56.042  37.355  1.00  0.00     0.157 A 
ATOM      9  C   UNL     1      44.333  55.004  36.580  1.00  0.00     0.054 A 
ATOM     10  C   UNL     1      43.478  54.092  35.944  1.00  0.00    -0.036 A 
ATOM     11  C   UNL     1      39.911  52.821  35.946  1.00  0.00     0.127 A 
ATOM     12  C   UNL     1      39.123  51.905  35.234  1.00  0.00     0.093 A 
ATOM     13  C   UNL     1      39.612  51.288  34.082  1.00  0.00     0.119 A 
ATOM     14  C   UNL     1      40.909  51.566  33.643  1.00  0.00     0.050 A 
ENDROOT
BRANCH   8  15
ATOM     15  O   UNL     1      44.691  56.933  37.971  1.00  0.00    -0.504 OA
ATOM     16  H   UNL     1      44.574  57.227  38.933  1.00  0.00     0.293 HD
ENDBRANCH   8  15
BRANCH  11  17
ATOM     17  O   UNL     1      39.423  53.344  37.142  1.00  0.00    -0.507 OA
ATOM     18  H   UNL     1      39.334  54.343  37.292  1.00  0.00     0.293 HD
ENDBRANCH  11  17
BRANCH  13  19
ATOM     19  O   UNL     1      38.806  50.388  33.389  1.00  0.00    -0.508 OA
ATOM     20  H   UNL     1      39.203  49.651  32.820  1.00  0.00     0.293 HD
ENDBRANCH  13  19
BRANCH   7  21
ATOM     21  O   UNL     1      41.900  57.243  38.230  1.00  0.00    -0.504 OA
ATOM     22  H   UNL     1      42.332  58.159  38.224  1.00  0.00     0.293 HD
ENDBRANCH   7  21
TORSDOF 4
ENDMDL
MODEL 8
REMARK VINA RESULT:    -5.562      7.622     10.470
REMARK INTER + INTRA:          -6.212
REMARK INTER:                  -6.212
REMARK INTRA:                   0.000
REMARK UNBOUND:                 0.000
REMARK SMILES Oc1cc(O)c2c(c1)CCc1cc(O)c(O)cc1-2
REMARK SMILES IDX 10 1 9 2 7 3 6 4 18 5 17 6 15 7 13 8 12 9 11 10 4 11 3 12
REMARK SMILES IDX 2 13 8 14 14 15 5 17 1 19 16 21
REMARK H PARENT 14 16 5 18 1 20 16 22
REMARK Flexibility Score: inf
ROOT
ATOM      1  C   UNL     1      43.483  53.026  34.206  1.00  0.00     0.041 C 
ATOM      2  C   UNL     1      44.368  53.247  35.438  1.00  0.00     0.041 C 
ATOM      3  C   UNL     1      43.826  54.374  36.284  1.00  0.00    -0.032 A 
ATOM      4  C   UNL     1      42.428  54.561  36.406  1.00  0.00     0.027 A 
ATOM      5  C   UNL     1      41.524  53.596  35.700  1.00  0.00    -0.007 A 
ATOM      6  C   UNL     1      40.209  53.333  36.132  1.00  0.00     0.059 A 
ATOM      7  C   UNL     1      39.395  52.426  35.440  1.00  0.00     0.158 A 
ATOM      8  C   UNL     1      39.897  51.748  34.320  1.00  0.00     0.157 A 
ATOM      9  C   UNL     1      41.218  51.956  33.919  1.00  0.00     0.054 A 
ATOM     10  C   UNL     1      42.044  52.847  34.619  1.00  0.00    -0.036 A 
ATOM     11  C   UNL     1      41.952  55.687  37.121  1.00  0.00     0.127 A 
ATOM     12  C   UNL     1      42.857  56.517  37.800  1.00  0.00     0.093 A 
ATOM     13  C   UNL     1      44.230  56.275  37.740  1.00  0.00     0.119 A 
ATOM     14  C   UNL     1      44.714  55.210  36.976  1.00  0.00     0.050 A 
ENDROOT
BRANCH   8  15
ATOM     15  O   UNL     1      39.104  50.853  33.603  1.00  0.00    -0.504 OA
ATOM     16  H   UNL     1      39.197  50.732  32.602  1.00  0.00     0.293 HD
ENDBRANCH   8  15
BRANCH  11  17
ATOM     17  O   UNL     1      40.598  56.016  37.130  1.00  0.00    -0.507 OA
ATOM     18  H   UNL     1      40.268  56.930  36.840  1.00  0.00     0.293 HD
ENDBRANCH  11  17
BRANCH  13  19
ATOM     19  O   UNL     1      45.105  57.109  38.431  1.00  0.00    -0.508 OA
ATOM     20  H   UNL     1      45.503  56.838  39.322  1.00  0.00     0.293 HD
ENDBRANCH  13  19
BRANCH   7  21
ATOM     21  O   UNL     1      38.088  52.191  35.869  1.00  0.00    -0.504 OA
ATOM     22  H   UNL     1      37.884  51.540  36.618  1.00  0.00     0.293 HD
ENDBRANCH   7  21
TORSDOF 4
ENDMDL
MODEL 9
REMARK VINA RESULT:    -5.552      7.780     10.898
REMARK INTER + INTRA:          -6.202
REMARK INTER:                  -6.202
REMARK INTRA:                   0.000
REMARK UNBOUND:                 0.000
REMARK SMILES Oc1cc(O)c2c(c1)CCc1cc(O)c(O)cc1-2
REMARK SMILES IDX 10 1 9 2 7 3 6 4 18 5 17 6 15 7 13 8 12 9 11 10 4 11 3 12
REMARK SMILES IDX 2 13 8 14 14 15 5 17 1 19 16 21
REMARK H PARENT 14 16 5 18 1 20 16 22
REMARK Flexibility Score: inf
ROOT
ATOM      1  C   UNL     1      38.681  53.602  33.343  1.00  0.00     0.041 C 
ATOM      2  C   UNL     1      39.904  54.484  33.066  1.00  0.00     0.041 C 
ATOM      3  C   UNL     1      41.091  54.011  33.870  1.00  0.00    -0.032 A 
ATOM      4  C   UNL     1      41.285  52.627  34.102  1.00  0.00     0.027 A 
ATOM      5  C   UNL     1      40.301  51.668  33.503  1.00  0.00    -0.007 A 
ATOM      6  C   UNL     1      40.632  50.332  33.201  1.00  0.00     0.059 A 
ATOM      7  C   UNL     1      39.681  49.466  32.646  1.00  0.00     0.158 A 
ATOM      8  C   UNL     1      38.390  49.935  32.359  1.00  0.00     0.157 A 
ATOM      9  C   UNL     1      38.070  51.272  32.599  1.00  0.00     0.054 A 
ATOM     10  C   UNL     1      39.023  52.149  33.135  1.00  0.00    -0.036 A 
ATOM     11  C   UNL     1      42.349  52.222  34.945  1.00  0.00     0.127 A 
ATOM     12  C   UNL     1      43.261  53.174  35.425  1.00  0.00     0.093 A 
ATOM     13  C   UNL     1      43.106  54.527  35.123  1.00  0.00     0.119 A 
ATOM     14  C   UNL     1      42.017  54.946  34.353  1.00  0.00     0.050 A 
ENDROOT
BRANCH   8  15
ATOM     15  O   UNL     1      37.419  49.091  31.822  1.00  0.00    -0.504 OA
ATOM     16  H   UNL     1      37.565  48.582  30.958  1.00  0.00     0.293 HD
ENDBRANCH   8  15
BRANCH  11  17
ATOM     17  O   UNL     1      42.485  50.895  35.345  1.00  0.00    -0.507 OA
ATOM     18  H   UNL     1      42.395  50.617  36.316  1.00  0.00     0.293 HD
ENDBRANCH  11  17
BRANCH  13  19
ATOM     19  O   UNL     1      44.031  55.449  35.606  1.00  0.00    -0.508 OA
ATOM     20  H   UNL     1      44.048  56.406  35.275  1.00  0.00     0.293 HD
ENDBRANCH  13  19
BRANCH   7  21
ATOM     21  O   UNL     1      40.017  48.141  32.370  1.00  0.00    -0.504 OA
ATOM     22  H   UNL     1      39.312  47.418  32.293  1.00  0.00     0.293 HD
ENDBRANCH   7  21
TORSDOF 4
ENDMDL
