MODEL 1
REMARK VINA RESULT:    -5.854      0.000      0.000
REMARK INTER + INTRA:          -8.619
REMARK INTER:                  -7.907
REMARK INTRA:                  -0.712
REMARK UNBOUND:                -0.712
REMARK SMILES CC(=O)CCC=C(C)CCC=C(C)C
REMARK SMILES IDX 7 1 6 2 8 3 9 4 10 5 11 6 13 7 12 8 14 9 5 10 4 11 2 12 3 13
REMARK SMILES IDX 1 14
REMARK H PARENT
REMARK Flexibility Score: inf
ROOT
ATOM      1  C   UNL     1     -32.880 -21.677  21.572  1.00  0.00    -0.077 C 
ATOM      2  C   UNL     1     -33.420 -22.896  21.348  1.00  0.00    -0.028 C 
ATOM      3  C   UNL     1     -32.489 -21.219  22.958  1.00  0.00     0.039 C 
ENDROOT
BRANCH   1   4
ATOM      4  C   UNL     1     -32.676 -20.737  20.404  1.00  0.00     0.034 C 
BRANCH   4   5
ATOM      5  C   UNL     1     -31.856 -19.514  20.826  1.00  0.00     0.032 C 
BRANCH   5   6
ATOM      6  C   UNL     1     -32.614 -18.239  20.551  1.00  0.00    -0.028 C 
ATOM      7  C   UNL     1     -33.754 -16.116  21.114  1.00  0.00     0.039 C 
ATOM      8  C   UNL     1     -32.972 -17.345  21.500  1.00  0.00    -0.080 C 
ATOM      9  C   UNL     1     -32.576 -17.509  22.946  1.00  0.00     0.039 C 
ENDBRANCH   5   6
ENDBRANCH   4   5
ENDBRANCH   1   4
BRANCH   2  10
ATOM     10  C   UNL     1     -33.631 -23.945  22.411  1.00  0.00     0.035 C 
BRANCH  10  11
ATOM     11  C   UNL     1     -33.036 -25.290  21.967  1.00  0.00     0.079 C 
BRANCH  11  12
ATOM     12  C   UNL     1     -31.558 -25.442  22.247  1.00  0.00     0.130 C 
ATOM     13  O   UNL     1     -30.993 -26.449  21.844  1.00  0.00    -0.300 OA
ATOM     14  C   UNL     1     -30.754 -24.412  22.991  1.00  0.00     0.087 C 
ENDBRANCH  11  12
ENDBRANCH  10  11
ENDBRANCH   2  10
TORSDOF 6
ENDMDL
MODEL 2
REMARK VINA RESULT:    -5.834      2.714      6.815
REMARK INTER + INTRA:          -8.592
REMARK INTER:                  -8.017
REMARK INTRA:                  -0.575
REMARK UNBOUND:                -0.712
REMARK SMILES CC(=O)CCC=C(C)CCC=C(C)C
REMARK SMILES IDX 7 1 6 2 8 3 9 4 10 5 11 6 13 7 12 8 14 9 5 10 4 11 2 12 3 13
REMARK SMILES IDX 1 14
REMARK H PARENT
REMARK Flexibility Score: inf
ROOT
ATOM      1  C   UNL     1     -33.072 -21.989  21.623  1.00  0.00    -0.077 C 
ATOM      2  C   UNL     1     -32.655 -21.101  20.692  1.00  0.00    -0.028 C 
ATOM      3  C   UNL     1     -32.990 -21.694  23.102  1.00  0.00     0.039 C 
ENDROOT
BRANCH   1   4
ATOM      4  C   UNL     1     -33.621 -23.325  21.170  1.00  0.00     0.034 C 
BRANCH   4   5
ATOM      5  C   UNL     1     -33.589 -24.342  22.315  1.00  0.00     0.032 C 
BRANCH   5   6
ATOM      6  C   UNL     1     -32.624 -25.461  22.010  1.00  0.00    -0.028 C 
ATOM      7  C   UNL     1     -30.429 -26.603  21.947  1.00  0.00     0.039 C 
ATOM      8  C   UNL     1     -31.309 -25.440  22.325  1.00  0.00    -0.080 C 
ATOM      9  C   UNL     1     -30.685 -24.298  23.089  1.00  0.00     0.039 C 
ENDBRANCH   5   6
ENDBRANCH   4   5
ENDBRANCH   1   4
BRANCH   2  10
ATOM     10  C   UNL     1     -32.135 -19.720  21.003  1.00  0.00     0.035 C 
BRANCH  10  11
ATOM     11  C   UNL     1     -32.591 -18.718  19.932  1.00  0.00     0.079 C 
BRANCH  11  12
ATOM     12  C   UNL     1     -33.186 -17.442  20.483  1.00  0.00     0.130 C 
ATOM     13  O   UNL     1     -32.884 -17.105  21.618  1.00  0.00    -0.300 OA
ATOM     14  C   UNL     1     -34.125 -16.569  19.696  1.00  0.00     0.087 C 
ENDBRANCH  11  12
ENDBRANCH  10  11
ENDBRANCH   2  10
TORSDOF 6
ENDMDL
MODEL 3
REMARK VINA RESULT:    -5.805      2.838      6.468
REMARK INTER + INTRA:          -8.553
REMARK INTER:                  -7.926
REMARK INTRA:                  -0.627
REMARK UNBOUND:                -0.712
REMARK SMILES CC(=O)CCC=C(C)CCC=C(C)C
REMARK SMILES IDX 7 1 6 2 8 3 9 4 10 5 11 6 13 7 12 8 14 9 5 10 4 11 2 12 3 13
REMARK SMILES IDX 1 14
REMARK H PARENT
REMARK Flexibility Score: inf
ROOT
ATOM      1  C   UNL     1     -32.987 -21.877  21.626  1.00  0.00    -0.077 C 
ATOM      2  C   UNL     1     -32.625 -20.986  20.675  1.00  0.00    -0.028 C 
ATOM      3  C   UNL     1     -32.803 -21.592  23.098  1.00  0.00     0.039 C 
ENDROOT
BRANCH   1   4
ATOM      4  C   UNL     1     -33.578 -23.204  21.202  1.00  0.00     0.034 C 
BRANCH   4   5
ATOM      5  C   UNL     1     -33.569 -24.199  22.367  1.00  0.00     0.032 C 
BRANCH   5   6
ATOM      6  C   UNL     1     -32.698 -25.389  22.048  1.00  0.00    -0.028 C 
ATOM      7  C   UNL     1     -30.596 -26.691  21.939  1.00  0.00     0.039 C 
ATOM      8  C   UNL     1     -31.377 -25.463  22.329  1.00  0.00    -0.080 C 
ATOM      9  C   UNL     1     -30.650 -24.365  23.066  1.00  0.00     0.039 C 
ENDBRANCH   5   6
ENDBRANCH   4   5
ENDBRANCH   1   4
BRANCH   2  10
ATOM     10  C   UNL     1     -32.071 -19.612  20.959  1.00  0.00     0.035 C 
BRANCH  10  11
ATOM     11  C   UNL     1     -30.676 -19.453  20.337  1.00  0.00     0.079 C 
BRANCH  11  12
ATOM     12  C   UNL     1     -29.845 -18.343  20.941  1.00  0.00     0.130 C 
ATOM     13  O   UNL     1     -30.395 -17.553  21.695  1.00  0.00    -0.300 OA
ATOM     14  C   UNL     1     -28.378 -18.171  20.659  1.00  0.00     0.087 C 
ENDBRANCH  11  12
ENDBRANCH  10  11
ENDBRANCH   2  10
TORSDOF 6
ENDMDL
MODEL 4
REMARK VINA RESULT:    -5.793      1.440      2.045
REMARK INTER + INTRA:          -8.537
REMARK INTER:                  -7.867
REMARK INTRA:                  -0.670
REMARK UNBOUND:                -0.712
REMARK SMILES CC(=O)CCC=C(C)CCC=C(C)C
REMARK SMILES IDX 7 1 6 2 8 3 9 4 10 5 11 6 13 7 12 8 14 9 5 10 4 11 2 12 3 13
REMARK SMILES IDX 1 14
REMARK H PARENT
REMARK Flexibility Score: inf
ROOT
ATOM      1  C   UNL     1     -32.840 -21.616  21.563  1.00  0.00    -0.077 C 
ATOM      2  C   UNL     1     -33.419 -22.818  21.346  1.00  0.00    -0.028 C 
ATOM      3  C   UNL     1     -32.361 -21.197  22.933  1.00  0.00     0.039 C 
ENDROOT
BRANCH   1   4
ATOM      4  C   UNL     1     -32.681 -20.657  20.404  1.00  0.00     0.034 C 
BRANCH   4   5
ATOM      5  C   UNL     1     -32.078 -19.330  20.875  1.00  0.00     0.032 C 
BRANCH   5   6
ATOM      6  C   UNL     1     -30.674 -19.162  20.349  1.00  0.00    -0.028 C 
ATOM      7  C   UNL     1     -28.360 -18.286  20.313  1.00  0.00     0.039 C 
ATOM      8  C   UNL     1     -29.724 -18.404  20.942  1.00  0.00    -0.080 C 
ATOM      9  C   UNL     1     -29.965 -17.695  22.252  1.00  0.00     0.039 C 
ENDBRANCH   5   6
ENDBRANCH   4   5
ENDBRANCH   1   4
BRANCH   2  10
ATOM     10  C   UNL     1     -33.594 -23.885  22.398  1.00  0.00     0.035 C 
BRANCH  10  11
ATOM     11  C   UNL     1     -33.035 -25.227  21.904  1.00  0.00     0.079 C 
BRANCH  11  12
ATOM     12  C   UNL     1     -31.569 -25.442  22.208  1.00  0.00     0.130 C 
ATOM     13  O   UNL     1     -31.037 -26.464  21.798  1.00  0.00    -0.300 OA
ATOM     14  C   UNL     1     -30.739 -24.457  22.983  1.00  0.00     0.087 C 
ENDBRANCH  11  12
ENDBRANCH  10  11
ENDBRANCH   2  10
TORSDOF 6
ENDMDL
MODEL 5
REMARK VINA RESULT:    -5.756      3.107      7.302
REMARK INTER + INTRA:          -8.487
REMARK INTER:                  -8.034
REMARK INTRA:                  -0.454
REMARK UNBOUND:                -0.712
REMARK SMILES CC(=O)CCC=C(C)CCC=C(C)C
REMARK SMILES IDX 7 1 6 2 8 3 9 4 10 5 11 6 13 7 12 8 14 9 5 10 4 11 2 12 3 13
REMARK SMILES IDX 1 14
REMARK H PARENT
REMARK Flexibility Score: inf
ROOT
ATOM      1  C   UNL     1     -31.620 -25.181  22.431  1.00  0.00    -0.077 C 
ATOM      2  C   UNL     1     -31.395 -23.882  22.733  1.00  0.00    -0.028 C 
ATOM      3  C   UNL     1     -33.019 -25.738  22.296  1.00  0.00     0.039 C 
ENDROOT
BRANCH   1   4
ATOM      4  C   UNL     1     -30.439 -26.107  22.239  1.00  0.00     0.034 C 
BRANCH   4   5
ATOM      5  C   UNL     1     -29.167 -25.496  22.837  1.00  0.00     0.032 C 
BRANCH   5   6
ATOM      6  C   UNL     1     -28.268 -26.572  23.393  1.00  0.00    -0.028 C 
ATOM      7  C   UNL     1     -26.212 -27.501  24.411  1.00  0.00     0.039 C 
ATOM      8  C   UNL     1     -27.037 -26.346  23.907  1.00  0.00    -0.080 C 
ATOM      9  C   UNL     1     -26.465 -24.955  24.036  1.00  0.00     0.039 C 
ENDBRANCH   5   6
ENDBRANCH   4   5
ENDBRANCH   1   4
BRANCH   2  10
ATOM     10  C   UNL     1     -32.476 -22.844  22.901  1.00  0.00     0.035 C 
BRANCH  10  11
ATOM     11  C   UNL     1     -32.807 -22.187  21.553  1.00  0.00     0.079 C 
BRANCH  11  12
ATOM     12  C   UNL     1     -32.519 -20.703  21.493  1.00  0.00     0.130 C 
ATOM     13  O   UNL     1     -32.322 -20.109  22.543  1.00  0.00    -0.300 OA
ATOM     14  C   UNL     1     -32.461 -19.931  20.204  1.00  0.00     0.087 C 
ENDBRANCH  11  12
ENDBRANCH  10  11
ENDBRANCH   2  10
TORSDOF 6
ENDMDL
MODEL 6
REMARK VINA RESULT:    -5.700      3.200      7.010
REMARK INTER + INTRA:          -8.412
REMARK INTER:                  -7.763
REMARK INTRA:                  -0.648
REMARK UNBOUND:                -0.712
REMARK SMILES CC(=O)CCC=C(C)CCC=C(C)C
REMARK SMILES IDX 7 1 6 2 8 3 9 4 10 5 11 6 13 7 12 8 14 9 5 10 4 11 2 12 3 13
REMARK SMILES IDX 1 14
REMARK H PARENT
REMARK Flexibility Score: inf
ROOT
ATOM      1  C   UNL     1     -32.549 -20.643  21.304  1.00  0.00    -0.077 C 
ATOM      2  C   UNL     1     -32.172 -19.957  22.406  1.00  0.00    -0.028 C 
ATOM      3  C   UNL     1     -32.572 -20.004  19.935  1.00  0.00     0.039 C 
ENDROOT
BRANCH   1   4
ATOM      4  C   UNL     1     -32.977 -22.087  21.448  1.00  0.00     0.034 C 
BRANCH   4   5
ATOM      5  C   UNL     1     -32.613 -22.626  22.835  1.00  0.00     0.032 C 
BRANCH   5   6
ATOM      6  C   UNL     1     -31.429 -23.557  22.754  1.00  0.00    -0.028 C 
ATOM      7  C   UNL     1     -30.268 -25.723  22.461  1.00  0.00     0.039 C 
ATOM      8  C   UNL     1     -31.516 -24.881  22.490  1.00  0.00    -0.080 C 
ATOM      9  C   UNL     1     -32.832 -25.551  22.178  1.00  0.00     0.039 C 
ENDBRANCH   5   6
ENDBRANCH   4   5
ENDBRANCH   1   4
BRANCH   2  10
ATOM     10  C   UNL     1     -31.677 -18.532  22.397  1.00  0.00     0.035 C 
BRANCH  10  11
ATOM     11  C   UNL     1     -32.744 -17.587  22.970  1.00  0.00     0.079 C 
BRANCH  11  12
ATOM     12  C   UNL     1     -33.076 -16.408  22.083  1.00  0.00     0.130 C 
ATOM     13  O   UNL     1     -32.818 -15.285  22.491  1.00  0.00    -0.300 OA
ATOM     14  C   UNL     1     -33.703 -16.556  20.724  1.00  0.00     0.087 C 
ENDBRANCH  11  12
ENDBRANCH  10  11
ENDBRANCH   2  10
TORSDOF 6
ENDMDL
MODEL 7
REMARK VINA RESULT:    -5.615      2.787      6.473
REMARK INTER + INTRA:          -8.297
REMARK INTER:                  -7.616
REMARK INTRA:                  -0.681
REMARK UNBOUND:                -0.712
REMARK SMILES CC(=O)CCC=C(C)CCC=C(C)C
REMARK SMILES IDX 7 1 6 2 8 3 9 4 10 5 11 6 13 7 12 8 14 9 5 10 4 11 2 12 3 13
REMARK SMILES IDX 1 14
REMARK H PARENT
REMARK Flexibility Score: inf
ROOT
ATOM      1  C   UNL     1     -32.494 -20.721  21.438  1.00  0.00    -0.077 C 
ATOM      2  C   UNL     1     -32.228 -20.125  20.254  1.00  0.00    -0.028 C 
ATOM      3  C   UNL     1     -32.224 -20.034  22.756  1.00  0.00     0.039 C 
ENDROOT
BRANCH   1   4
ATOM      4  C   UNL     1     -33.061 -22.124  21.443  1.00  0.00     0.034 C 
BRANCH   4   5
ATOM      5  C   UNL     1     -32.763 -22.826  22.772  1.00  0.00     0.032 C 
BRANCH   5   6
ATOM      6  C   UNL     1     -31.643 -23.824  22.611  1.00  0.00    -0.028 C 
ATOM      7  C   UNL     1     -30.633 -26.052  22.240  1.00  0.00     0.039 C 
ATOM      8  C   UNL     1     -31.826 -25.139  22.354  1.00  0.00    -0.080 C 
ATOM      9  C   UNL     1     -33.196 -25.730  22.133  1.00  0.00     0.039 C 
ENDBRANCH   5   6
ENDBRANCH   4   5
ENDBRANCH   1   4
BRANCH   2  10
ATOM     10  C   UNL     1     -31.709 -18.716  20.104  1.00  0.00     0.035 C 
BRANCH  10  11
ATOM     11  C   UNL     1     -30.253 -18.727  19.615  1.00  0.00     0.079 C 
BRANCH  11  12
ATOM     12  C   UNL     1     -29.248 -18.238  20.634  1.00  0.00     0.130 C 
ATOM     13  O   UNL     1     -28.059 -18.383  20.391  1.00  0.00    -0.300 OA
ATOM     14  C   UNL     1     -29.645 -17.579  21.926  1.00  0.00     0.087 C 
ENDBRANCH  11  12
ENDBRANCH  10  11
ENDBRANCH   2  10
TORSDOF 6
ENDMDL
MODEL 8
REMARK VINA RESULT:    -5.566      3.082      6.444
REMARK INTER + INTRA:          -8.231
REMARK INTER:                  -7.526
REMARK INTRA:                  -0.704
REMARK UNBOUND:                -0.712
REMARK SMILES CC(=O)CCC=C(C)CCC=C(C)C
REMARK SMILES IDX 7 1 6 2 8 3 9 4 10 5 11 6 13 7 12 8 14 9 5 10 4 11 2 12 3 13
REMARK SMILES IDX 1 14
REMARK H PARENT
REMARK Flexibility Score: inf
ROOT
ATOM      1  C   UNL     1     -31.871 -19.913  21.370  1.00  0.00    -0.077 C 
ATOM      2  C   UNL     1     -32.232 -19.111  22.396  1.00  0.00    -0.028 C 
ATOM      3  C   UNL     1     -30.740 -19.553  20.434  1.00  0.00     0.039 C 
ENDROOT
BRANCH   1   4
ATOM      4  C   UNL     1     -32.631 -21.202  21.141  1.00  0.00     0.034 C 
BRANCH   4   5
ATOM      5  C   UNL     1     -33.051 -21.829  22.475  1.00  0.00     0.032 C 
BRANCH   5   6
ATOM      6  C   UNL     1     -33.454 -23.270  22.285  1.00  0.00    -0.028 C 
ATOM      7  C   UNL     1     -33.104 -25.714  22.111  1.00  0.00     0.039 C 
ATOM      8  C   UNL     1     -32.597 -24.314  22.344  1.00  0.00    -0.080 C 
ATOM      9  C   UNL     1     -31.137 -24.136  22.680  1.00  0.00     0.039 C 
ENDBRANCH   5   6
ENDBRANCH   4   5
ENDBRANCH   1   4
BRANCH   2  10
ATOM     10  C   UNL     1     -31.531 -17.828  22.764  1.00  0.00     0.035 C 
BRANCH  10  11
ATOM     11  C   UNL     1     -30.740 -18.001  24.070  1.00  0.00     0.079 C 
BRANCH  11  12
ATOM     12  C   UNL     1     -29.266 -17.682  23.955  1.00  0.00     0.130 C 
ATOM     13  O   UNL     1     -28.574 -17.770  24.959  1.00  0.00    -0.300 OA
ATOM     14  C   UNL     1     -28.616 -17.267  22.664  1.00  0.00     0.087 C 
ENDBRANCH  11  12
ENDBRANCH  10  11
ENDBRANCH   2  10
TORSDOF 6
ENDMDL
MODEL 9
REMARK VINA RESULT:    -5.498      3.234      6.972
REMARK INTER + INTRA:          -8.138
REMARK INTER:                  -7.445
REMARK INTRA:                  -0.693
REMARK UNBOUND:                -0.712
REMARK SMILES CC(=O)CCC=C(C)CCC=C(C)C
REMARK SMILES IDX 7 1 6 2 8 3 9 4 10 5 11 6 13 7 12 8 14 9 5 10 4 11 2 12 3 13
REMARK SMILES IDX 1 14
REMARK H PARENT
REMARK Flexibility Score: inf
ROOT
ATOM      1  C   UNL     1     -31.986 -19.952  21.364  1.00  0.00    -0.077 C 
ATOM      2  C   UNL     1     -32.363 -19.264  22.465  1.00  0.00    -0.028 C 
ATOM      3  C   UNL     1     -31.029 -19.371  20.349  1.00  0.00     0.039 C 
ENDROOT
BRANCH   1   4
ATOM      4  C   UNL     1     -32.551 -21.336  21.132  1.00  0.00     0.034 C 
BRANCH   4   5
ATOM      5  C   UNL     1     -33.040 -21.951  22.448  1.00  0.00     0.032 C 
BRANCH   5   6
ATOM      6  C   UNL     1     -33.539 -23.357  22.229  1.00  0.00    -0.028 C 
ATOM      7  C   UNL     1     -33.356 -25.815  22.001  1.00  0.00     0.039 C 
ATOM      8  C   UNL     1     -32.755 -24.458  22.262  1.00  0.00    -0.080 C 
ATOM      9  C   UNL     1     -31.285 -24.386  22.597  1.00  0.00     0.039 C 
ENDBRANCH   5   6
ENDBRANCH   4   5
ENDBRANCH   1   4
BRANCH   2  10
ATOM     10  C   UNL     1     -31.839 -17.901  22.841  1.00  0.00     0.035 C 
BRANCH  10  11
ATOM     11  C   UNL     1     -32.977 -16.869  22.847  1.00  0.00     0.079 C 
BRANCH  11  12
ATOM     12  C   UNL     1     -33.133 -16.103  21.553  1.00  0.00     0.130 C 
ATOM     13  O   UNL     1     -32.583 -15.016  21.453  1.00  0.00    -0.300 OA
ATOM     14  C   UNL     1     -33.927 -16.620  20.385  1.00  0.00     0.087 C 
ENDBRANCH  11  12
ENDBRANCH  10  11
ENDBRANCH   2  10
TORSDOF 6
ENDMDL
