MODEL 1
REMARK VINA RESULT:    -3.795      0.000      0.000
REMARK INTER + INTRA:          -3.795
REMARK INTER:                  -3.795
REMARK INTRA:                   0.000
REMARK UNBOUND:                 0.000
REMARK SMILES CC1(C)O[C@]2(C)CC[C@H]1CC2
REMARK SMILES IDX 1 1 2 2 9 3 8 4 7 5 5 6 4 7 11 8 10 9 6 10 3 11
REMARK H PARENT
REMARK Flexibility Score: inf
ROOT
ATOM      1  C   UNL     1      10.351  24.659   5.658  1.00  0.00     0.042 C 
ATOM      2  C   UNL     1      11.386  25.626   5.042  1.00  0.00     0.066 C 
ATOM      3  C   UNL     1      10.673  26.899   4.443  1.00  0.00     0.021 C 
ATOM      4  C   UNL     1      11.758  27.852   3.889  1.00  0.00     0.009 C 
ATOM      5  C   UNL     1      12.826  28.097   4.982  1.00  0.00     0.035 C 
ATOM      6  C   UNL     1      12.406  27.382   6.298  1.00  0.00     0.066 C 
ATOM      7  O   UNL     1      12.331  25.975   6.063  1.00  0.00    -0.369 OA
ATOM      8  C   UNL     1      11.006  27.903   6.734  1.00  0.00     0.035 C 
ATOM      9  C   UNL     1       9.982  27.662   5.599  1.00  0.00     0.009 C 
ATOM     10  C   UNL     1      13.439  27.644   7.400  1.00  0.00     0.042 C 
ATOM     11  C   UNL     1      12.136  24.850   3.937  1.00  0.00     0.042 C 
ENDROOT
TORSDOF 0
ENDMDL
MODEL 2
REMARK VINA RESULT:    -3.786      2.299      4.259
REMARK INTER + INTRA:          -3.786
REMARK INTER:                  -3.786
REMARK INTRA:                   0.000
REMARK UNBOUND:                 0.000
REMARK SMILES CC1(C)O[C@]2(C)CC[C@H]1CC2
REMARK SMILES IDX 1 1 2 2 9 3 8 4 7 5 5 6 4 7 11 8 10 9 6 10 3 11
REMARK H PARENT
REMARK Flexibility Score: inf
ROOT
ATOM      1  C   UNL     1      10.117  27.915   9.013  1.00  0.00     0.042 C 
ATOM      2  C   UNL     1      11.266  28.778   8.446  1.00  0.00     0.066 C 
ATOM      3  C   UNL     1      12.625  28.445   9.173  1.00  0.00     0.021 C 
ATOM      4  C   UNL     1      13.745  29.299   8.532  1.00  0.00     0.009 C 
ATOM      5  C   UNL     1      13.709  29.113   6.995  1.00  0.00     0.035 C 
ATOM      6  C   UNL     1      12.625  28.063   6.617  1.00  0.00     0.066 C 
ATOM      7  O   UNL     1      11.345  28.542   7.033  1.00  0.00    -0.369 OA
ATOM      8  C   UNL     1      12.936  26.727   7.351  1.00  0.00     0.035 C 
ATOM      9  C   UNL     1      12.989  26.969   8.878  1.00  0.00     0.009 C 
ATOM     10  C   UNL     1      12.601  27.845   5.100  1.00  0.00     0.042 C 
ATOM     11  C   UNL     1      10.878  30.257   8.665  1.00  0.00     0.042 C 
ENDROOT
TORSDOF 0
ENDMDL
MODEL 3
REMARK VINA RESULT:    -3.777      0.826      3.189
REMARK INTER + INTRA:          -3.777
REMARK INTER:                  -3.777
REMARK INTRA:                   0.000
REMARK UNBOUND:                 0.000
REMARK SMILES CC1(C)O[C@]2(C)CC[C@H]1CC2
REMARK SMILES IDX 1 1 2 2 9 3 8 4 7 5 5 6 4 7 11 8 10 9 6 10 3 11
REMARK H PARENT
REMARK Flexibility Score: inf
ROOT
ATOM      1  C   UNL     1      13.455  27.722   7.322  1.00  0.00     0.042 C 
ATOM      2  C   UNL     1      12.090  27.172   6.855  1.00  0.00     0.066 C 
ATOM      3  C   UNL     1      11.267  28.287   6.102  1.00  0.00     0.021 C 
ATOM      4  C   UNL     1       9.936  27.667   5.614  1.00  0.00     0.009 C 
ATOM      5  C   UNL     1      10.239  26.369   4.826  1.00  0.00     0.035 C 
ATOM      6  C   UNL     1      11.777  26.171   4.709  1.00  0.00     0.066 C 
ATOM      7  O   UNL     1      12.332  26.032   6.018  1.00  0.00    -0.369 OA
ATOM      8  C   UNL     1      12.398  27.420   4.020  1.00  0.00     0.035 C 
ATOM      9  C   UNL     1      12.045  28.692   4.827  1.00  0.00     0.009 C 
ATOM     10  C   UNL     1      12.092  24.906   3.902  1.00  0.00     0.042 C 
ATOM     11  C   UNL     1      11.335  26.692   8.113  1.00  0.00     0.042 C 
ENDROOT
TORSDOF 0
ENDMDL
MODEL 4
REMARK VINA RESULT:    -3.741      1.479      2.532
REMARK INTER + INTRA:          -3.741
REMARK INTER:                  -3.741
REMARK INTRA:                   0.000
REMARK UNBOUND:                 0.000
REMARK SMILES CC1(C)O[C@]2(C)CC[C@H]1CC2
REMARK SMILES IDX 1 1 2 2 9 3 8 4 7 5 5 6 4 7 11 8 10 9 6 10 3 11
REMARK H PARENT
REMARK Flexibility Score: inf
ROOT
ATOM      1  C   UNL     1      12.383  26.626   3.756  1.00  0.00     0.042 C 
ATOM      2  C   UNL     1      11.804  27.755   4.637  1.00  0.00     0.066 C 
ATOM      3  C   UNL     1      10.700  27.191   5.613  1.00  0.00     0.021 C 
ATOM      4  C   UNL     1      10.195  28.351   6.503  1.00  0.00     0.009 C 
ATOM      5  C   UNL     1      11.409  29.059   7.153  1.00  0.00     0.035 C 
ATOM      6  C   UNL     1      12.720  28.314   6.770  1.00  0.00     0.066 C 
ATOM      7  O   UNL     1      12.889  28.362   5.353  1.00  0.00    -0.369 OA
ATOM      8  C   UNL     1      12.609  26.830   7.223  1.00  0.00     0.035 C 
ATOM      9  C   UNL     1      11.368  26.175   6.571  1.00  0.00     0.009 C 
ATOM     10  C   UNL     1      13.927  28.985   7.435  1.00  0.00     0.042 C 
ATOM     11  C   UNL     1      11.203  28.814   3.688  1.00  0.00     0.042 C 
ENDROOT
TORSDOF 0
ENDMDL
MODEL 5
REMARK VINA RESULT:    -3.699      1.281      3.220
REMARK INTER + INTRA:          -3.699
REMARK INTER:                  -3.699
REMARK INTRA:                   0.000
REMARK UNBOUND:                 0.000
REMARK SMILES CC1(C)O[C@]2(C)CC[C@H]1CC2
REMARK SMILES IDX 1 1 2 2 9 3 8 4 7 5 5 6 4 7 11 8 10 9 6 10 3 11
REMARK H PARENT
REMARK Flexibility Score: inf
ROOT
ATOM      1  C   UNL     1      12.739  26.450   6.949  1.00  0.00     0.042 C 
ATOM      2  C   UNL     1      12.032  27.471   6.031  1.00  0.00     0.066 C 
ATOM      3  C   UNL     1      12.505  27.299   4.537  1.00  0.00     0.021 C 
ATOM      4  C   UNL     1      11.729  28.309   3.659  1.00  0.00     0.009 C 
ATOM      5  C   UNL     1      10.213  28.161   3.933  1.00  0.00     0.035 C 
ATOM      6  C   UNL     1       9.969  26.989   4.927  1.00  0.00     0.066 C 
ATOM      7  O   UNL     1      10.616  27.285   6.167  1.00  0.00    -0.369 OA
ATOM      8  C   UNL     1      10.576  25.686   4.331  1.00  0.00     0.035 C 
ATOM      9  C   UNL     1      12.083  25.892   4.048  1.00  0.00     0.009 C 
ATOM     10  C   UNL     1       8.469  26.810   5.183  1.00  0.00     0.042 C 
ATOM     11  C   UNL     1      12.383  28.880   6.557  1.00  0.00     0.042 C 
ENDROOT
TORSDOF 0
ENDMDL
MODEL 6
REMARK VINA RESULT:    -3.689      1.344      2.869
REMARK INTER + INTRA:          -3.689
REMARK INTER:                  -3.689
REMARK INTRA:                   0.000
REMARK UNBOUND:                 0.000
REMARK SMILES CC1(C)O[C@]2(C)CC[C@H]1CC2
REMARK SMILES IDX 1 1 2 2 9 3 8 4 7 5 5 6 4 7 11 8 10 9 6 10 3 11
REMARK H PARENT
REMARK Flexibility Score: inf
ROOT
ATOM      1  C   UNL     1      10.083  29.416   6.176  1.00  0.00     0.042 C 
ATOM      2  C   UNL     1      10.517  28.293   5.209  1.00  0.00     0.066 C 
ATOM      3  C   UNL     1      11.976  28.554   4.669  1.00  0.00     0.021 C 
ATOM      4  C   UNL     1      12.375  27.375   3.750  1.00  0.00     0.009 C 
ATOM      5  C   UNL     1      12.135  26.042   4.499  1.00  0.00     0.035 C 
ATOM      6  C   UNL     1      11.662  26.333   5.953  1.00  0.00     0.066 C 
ATOM      7  O   UNL     1      10.423  27.043   5.908  1.00  0.00    -0.369 OA
ATOM      8  C   UNL     1      12.730  27.210   6.666  1.00  0.00     0.035 C 
ATOM      9  C   UNL     1      12.956  28.515   5.866  1.00  0.00     0.009 C 
ATOM     10  C   UNL     1      11.452  25.021   6.717  1.00  0.00     0.042 C 
ATOM     11  C   UNL     1       9.500  28.270   4.048  1.00  0.00     0.042 C 
ENDROOT
TORSDOF 0
ENDMDL
MODEL 7
REMARK VINA RESULT:    -3.688      1.699      3.380
REMARK INTER + INTRA:          -3.688
REMARK INTER:                  -3.688
REMARK INTRA:                   0.000
REMARK UNBOUND:                 0.000
REMARK SMILES CC1(C)O[C@]2(C)CC[C@H]1CC2
REMARK SMILES IDX 1 1 2 2 9 3 8 4 7 5 5 6 4 7 11 8 10 9 6 10 3 11
REMARK H PARENT
REMARK Flexibility Score: inf
ROOT
ATOM      1  C   UNL     1      11.085  29.046   7.645  1.00  0.00     0.042 C 
ATOM      2  C   UNL     1      11.918  28.541   6.447  1.00  0.00     0.066 C 
ATOM      3  C   UNL     1      11.686  26.997   6.218  1.00  0.00     0.021 C 
ATOM      4  C   UNL     1      12.501  26.559   4.978  1.00  0.00     0.009 C 
ATOM      5  C   UNL     1      12.170  27.499   3.794  1.00  0.00     0.035 C 
ATOM      6  C   UNL     1      11.065  28.509   4.216  1.00  0.00     0.066 C 
ATOM      7  O   UNL     1      11.551  29.312   5.294  1.00  0.00    -0.369 OA
ATOM      8  C   UNL     1       9.812  27.719   4.691  1.00  0.00     0.035 C 
ATOM      9  C   UNL     1      10.198  26.774   5.854  1.00  0.00     0.009 C 
ATOM     10  C   UNL     1      10.704  29.426   3.042  1.00  0.00     0.042 C 
ATOM     11  C   UNL     1      13.401  28.829   6.765  1.00  0.00     0.042 C 
ENDROOT
TORSDOF 0
ENDMDL
MODEL 8
REMARK VINA RESULT:    -3.649     15.263     16.416
REMARK INTER + INTRA:          -3.649
REMARK INTER:                  -3.649
REMARK INTRA:                   0.000
REMARK UNBOUND:                 0.000
REMARK SMILES CC1(C)O[C@]2(C)CC[C@H]1CC2
REMARK SMILES IDX 1 1 2 2 9 3 8 4 7 5 5 6 4 7 11 8 10 9 6 10 3 11
REMARK H PARENT
REMARK Flexibility Score: inf
ROOT
ATOM      1  C   UNL     1      23.287  27.517  -6.784  1.00  0.00     0.042 C 
ATOM      2  C   UNL     1      24.171  28.584  -6.102  1.00  0.00     0.066 C 
ATOM      3  C   UNL     1      23.300  29.813  -5.633  1.00  0.00     0.021 C 
ATOM      4  C   UNL     1      24.226  30.822  -4.915  1.00  0.00     0.009 C 
ATOM      5  C   UNL     1      25.036  30.082  -3.823  1.00  0.00     0.035 C 
ATOM      6  C   UNL     1      24.584  28.595  -3.750  1.00  0.00     0.066 C 
ATOM      7  O   UNL     1      24.851  27.962  -5.003  1.00  0.00    -0.369 OA
ATOM      8  C   UNL     1      23.055  28.544  -3.466  1.00  0.00     0.035 C 
ATOM      9  C   UNL     1      22.293  29.320  -4.566  1.00  0.00     0.009 C 
ATOM     10  C   UNL     1      25.355  27.857  -2.650  1.00  0.00     0.042 C 
ATOM     11  C   UNL     1      25.231  29.028  -7.134  1.00  0.00     0.042 C 
ENDROOT
TORSDOF 0
ENDMDL
MODEL 9
REMARK VINA RESULT:    -3.631      1.720      3.623
REMARK INTER + INTRA:          -3.631
REMARK INTER:                  -3.631
REMARK INTRA:                   0.000
REMARK UNBOUND:                 0.000
REMARK SMILES CC1(C)O[C@]2(C)CC[C@H]1CC2
REMARK SMILES IDX 1 1 2 2 9 3 8 4 7 5 5 6 4 7 11 8 10 9 6 10 3 11
REMARK H PARENT
REMARK Flexibility Score: inf
ROOT
ATOM      1  C   UNL     1      12.609  28.118   4.936  1.00  0.00     0.042 C 
ATOM      2  C   UNL     1      12.240  27.448   6.277  1.00  0.00     0.066 C 
ATOM      3  C   UNL     1      13.479  27.432   7.253  1.00  0.00     0.021 C 
ATOM      4  C   UNL     1      13.037  26.799   8.594  1.00  0.00     0.009 C 
ATOM      5  C   UNL     1      11.759  27.513   9.097  1.00  0.00     0.035 C 
ATOM      6  C   UNL     1      11.399  28.685   8.139  1.00  0.00     0.066 C 
ATOM      7  O   UNL     1      11.128  28.160   6.839  1.00  0.00    -0.369 OA
ATOM      8  C   UNL     1      12.608  29.660   8.056  1.00  0.00     0.035 C 
ATOM      9  C   UNL     1      13.865  28.896   7.577  1.00  0.00     0.009 C 
ATOM     10  C   UNL     1      10.153  29.422   8.644  1.00  0.00     0.042 C 
ATOM     11  C   UNL     1      11.777  26.009   5.959  1.00  0.00     0.042 C 
ENDROOT
TORSDOF 0
ENDMDL
