MODEL 1
REMARK VINA RESULT:    -3.737      0.000      0.000
REMARK INTER + INTRA:          -5.058
REMARK INTER:                  -4.829
REMARK INTRA:                  -0.229
REMARK UNBOUND:                -0.229
REMARK SMILES CCCCCCC(=O)[O-]
REMARK SMILES IDX 5 1 6 2 7 3 8 4 9 5 4 6 3 7 2 8 1 9
REMARK H PARENT
REMARK Flexibility Score: inf
ROOT
ATOM      1  C   UNL     1      16.579  38.497  21.512  1.00  0.00     0.006 C 
ENDROOT
BRANCH   1   2
ATOM      2  C   UNL     1      17.884  38.044  20.852  1.00  0.00     0.053 C 
BRANCH   2   3
ATOM      3  C   UNL     1      18.646  37.137  21.766  1.00  0.00     0.041 C 
ATOM      4  O   UNL     1      18.315  35.928  21.878  1.00  0.00    -0.550 OA
ATOM      5  O   UNL     1      19.691  37.639  22.531  1.00  0.00    -0.550 OA
ENDBRANCH   2   3
ENDBRANCH   1   2
BRANCH   1   6
ATOM      6  C   UNL     1      15.656  39.180  20.495  1.00  0.00     0.000 C 
BRANCH   6   7
ATOM      7  C   UNL     1      16.314  39.243  19.111  1.00  0.00    -0.000 C 
BRANCH   7   8
ATOM      8  C   UNL     1      15.439  38.560  18.055  1.00  0.00    -0.003 C 
ATOM      9  C   UNL     1      16.272  37.656  17.149  1.00  0.00     0.004 C 
ENDBRANCH   7   8
ENDBRANCH   6   7
ENDBRANCH   1   6
TORSDOF 5
ENDMDL
MODEL 2
REMARK VINA RESULT:    -3.663     11.348     12.549
REMARK INTER + INTRA:          -4.963
REMARK INTER:                  -4.554
REMARK INTRA:                  -0.409
REMARK UNBOUND:                -0.229
REMARK SMILES CCCCCCC(=O)[O-]
REMARK SMILES IDX 5 1 6 2 7 3 8 4 9 5 4 6 3 7 2 8 1 9
REMARK H PARENT
REMARK Flexibility Score: inf
ROOT
ATOM      1  C   UNL     1      11.218  30.376  27.785  1.00  0.00     0.006 C 
ENDROOT
BRANCH   1   2
ATOM      2  C   UNL     1      10.068  31.342  28.088  1.00  0.00     0.053 C 
BRANCH   2   3
ATOM      3  C   UNL     1      10.519  32.759  27.928  1.00  0.00     0.041 C 
ATOM      4  O   UNL     1      10.372  33.581  28.870  1.00  0.00    -0.550 OA
ATOM      5  O   UNL     1      11.058  33.185  26.720  1.00  0.00    -0.550 OA
ENDBRANCH   2   3
ENDBRANCH   1   2
BRANCH   1   6
ATOM      6  C   UNL     1      12.117  30.191  29.013  1.00  0.00     0.000 C 
BRANCH   6   7
ATOM      7  C   UNL     1      13.412  31.001  28.875  1.00  0.00    -0.000 C 
BRANCH   7   8
ATOM      8  C   UNL     1      13.595  31.952  30.063  1.00  0.00    -0.003 C 
ATOM      9  C   UNL     1      12.486  31.765  31.096  1.00  0.00     0.004 C 
ENDBRANCH   7   8
ENDBRANCH   6   7
ENDBRANCH   1   6
TORSDOF 5
ENDMDL
MODEL 3
REMARK VINA RESULT:    -3.657     14.020     15.212
REMARK INTER + INTRA:          -4.954
REMARK INTER:                  -4.719
REMARK INTRA:                  -0.235
REMARK UNBOUND:                -0.229
REMARK SMILES CCCCCCC(=O)[O-]
REMARK SMILES IDX 5 1 6 2 7 3 8 4 9 5 4 6 3 7 2 8 1 9
REMARK H PARENT
REMARK Flexibility Score: inf
ROOT
ATOM      1  C   UNL     1       2.314  31.938  17.394  1.00  0.00     0.006 C 
ENDROOT
BRANCH   1   2
ATOM      2  C   UNL     1       3.511  31.022  17.669  1.00  0.00     0.053 C 
BRANCH   2   3
ATOM      3  C   UNL     1       3.351  30.334  18.988  1.00  0.00     0.041 C 
ATOM      4  O   UNL     1       2.576  29.349  19.098  1.00  0.00    -0.550 OA
ATOM      5  O   UNL     1       4.021  30.812  20.107  1.00  0.00    -0.550 OA
ENDBRANCH   2   3
ENDBRANCH   1   2
BRANCH   1   6
ATOM      6  C   UNL     1       2.493  33.297  18.081  1.00  0.00     0.000 C 
BRANCH   6   7
ATOM      7  C   UNL     1       3.954  33.759  18.017  1.00  0.00    -0.000 C 
BRANCH   7   8
ATOM      8  C   UNL     1       4.237  34.836  19.069  1.00  0.00    -0.003 C 
ATOM      9  C   UNL     1       5.581  34.599  19.754  1.00  0.00     0.004 C 
ENDBRANCH   7   8
ENDBRANCH   6   7
ENDBRANCH   1   6
TORSDOF 5
ENDMDL
MODEL 4
REMARK VINA RESULT:    -3.654     12.829     13.947
REMARK INTER + INTRA:          -4.951
REMARK INTER:                  -4.733
REMARK INTRA:                  -0.217
REMARK UNBOUND:                -0.229
REMARK SMILES CCCCCCC(=O)[O-]
REMARK SMILES IDX 5 1 6 2 7 3 8 4 9 5 4 6 3 7 2 8 1 9
REMARK H PARENT
REMARK Flexibility Score: inf
ROOT
ATOM      1  C   UNL     1       3.767  32.816  17.871  1.00  0.00     0.006 C 
ENDROOT
BRANCH   1   2
ATOM      2  C   UNL     1       4.444  33.008  19.231  1.00  0.00     0.053 C 
BRANCH   2   3
ATOM      3  C   UNL     1       4.819  34.443  19.431  1.00  0.00     0.041 C 
ATOM      4  O   UNL     1       4.039  35.358  19.061  1.00  0.00    -0.550 OA
ATOM      5  O   UNL     1       6.052  34.769  19.982  1.00  0.00    -0.550 OA
ENDBRANCH   2   3
ENDBRANCH   1   2
BRANCH   1   6
ATOM      6  C   UNL     1       3.896  31.364  17.393  1.00  0.00     0.000 C 
BRANCH   6   7
ATOM      7  C   UNL     1       4.868  30.577  18.279  1.00  0.00    -0.000 C 
BRANCH   7   8
ATOM      8  C   UNL     1       6.073  30.084  17.471  1.00  0.00    -0.003 C 
ATOM      9  C   UNL     1       7.326  30.008  18.340  1.00  0.00     0.004 C 
ENDBRANCH   7   8
ENDBRANCH   6   7
ENDBRANCH   1   6
TORSDOF 5
ENDMDL
MODEL 5
REMARK VINA RESULT:    -3.621     12.757     13.842
REMARK INTER + INTRA:          -4.908
REMARK INTER:                  -4.680
REMARK INTRA:                  -0.228
REMARK UNBOUND:                -0.229
REMARK SMILES CCCCCCC(=O)[O-]
REMARK SMILES IDX 5 1 6 2 7 3 8 4 9 5 4 6 3 7 2 8 1 9
REMARK H PARENT
REMARK Flexibility Score: inf
ROOT
ATOM      1  C   UNL     1       4.609  30.510  19.120  1.00  0.00     0.006 C 
ENDROOT
BRANCH   1   2
ATOM      2  C   UNL     1       5.818  30.704  18.200  1.00  0.00     0.053 C 
BRANCH   2   3
ATOM      3  C   UNL     1       6.833  29.630  18.438  1.00  0.00     0.041 C 
ATOM      4  O   UNL     1       8.058  29.915  18.476  1.00  0.00    -0.550 OA
ATOM      5  O   UNL     1       6.428  28.308  18.569  1.00  0.00    -0.550 OA
ENDBRANCH   2   3
ENDBRANCH   1   2
BRANCH   1   6
ATOM      6  C   UNL     1       4.025  31.861  19.552  1.00  0.00     0.000 C 
BRANCH   6   7
ATOM      7  C   UNL     1       4.005  32.852  18.382  1.00  0.00    -0.000 C 
BRANCH   7   8
ATOM      8  C   UNL     1       4.044  34.299  18.885  1.00  0.00    -0.003 C 
ATOM      9  C   UNL     1       5.334  34.583  19.649  1.00  0.00     0.004 C 
ENDBRANCH   7   8
ENDBRANCH   6   7
ENDBRANCH   1   6
TORSDOF 5
ENDMDL
MODEL 6
REMARK VINA RESULT:    -3.593      1.611      2.829
REMARK INTER + INTRA:          -4.872
REMARK INTER:                  -4.591
REMARK INTRA:                  -0.281
REMARK UNBOUND:                -0.229
REMARK SMILES CCCCCCC(=O)[O-]
REMARK SMILES IDX 5 1 6 2 7 3 8 4 9 5 4 6 3 7 2 8 1 9
REMARK H PARENT
REMARK Flexibility Score: inf
ROOT
ATOM      1  C   UNL     1      18.418  38.953  20.062  1.00  0.00     0.006 C 
ENDROOT
BRANCH   1   2
ATOM      2  C   UNL     1      18.724  37.629  19.356  1.00  0.00     0.053 C 
BRANCH   2   3
ATOM      3  C   UNL     1      19.010  36.556  20.359  1.00  0.00     0.041 C 
ATOM      4  O   UNL     1      18.918  36.799  21.590  1.00  0.00    -0.550 OA
ATOM      5  O   UNL     1      19.425  35.300  19.934  1.00  0.00    -0.550 OA
ENDBRANCH   2   3
ENDBRANCH   1   2
BRANCH   1   6
ATOM      6  C   UNL     1      17.150  39.600  19.492  1.00  0.00     0.000 C 
BRANCH   6   7
ATOM      7  C   UNL     1      15.891  38.891  20.006  1.00  0.00    -0.000 C 
BRANCH   7   8
ATOM      8  C   UNL     1      15.931  38.737  21.531  1.00  0.00    -0.003 C 
ATOM      9  C   UNL     1      14.641  39.245  22.169  1.00  0.00     0.004 C 
ENDBRANCH   7   8
ENDBRANCH   6   7
ENDBRANCH   1   6
TORSDOF 5
ENDMDL
MODEL 7
REMARK VINA RESULT:    -3.572      9.790     10.561
REMARK INTER + INTRA:          -4.845
REMARK INTER:                  -4.434
REMARK INTRA:                  -0.411
REMARK UNBOUND:                -0.229
REMARK SMILES CCCCCCC(=O)[O-]
REMARK SMILES IDX 5 1 6 2 7 3 8 4 9 5 4 6 3 7 2 8 1 9
REMARK H PARENT
REMARK Flexibility Score: inf
ROOT
ATOM      1  C   UNL     1      11.084  30.656  25.550  1.00  0.00     0.006 C 
ENDROOT
BRANCH   1   2
ATOM      2  C   UNL     1      11.261  30.443  27.057  1.00  0.00     0.053 C 
BRANCH   2   3
ATOM      3  C   UNL     1      11.908  31.638  27.682  1.00  0.00     0.041 C 
ATOM      4  O   UNL     1      11.201  32.560  28.166  1.00  0.00    -0.550 OA
ATOM      5  O   UNL     1      13.292  31.757  27.686  1.00  0.00    -0.550 OA
ENDBRANCH   2   3
ENDBRANCH   1   2
BRANCH   1   6
ATOM      6  C   UNL     1       9.634  31.024  25.214  1.00  0.00     0.000 C 
BRANCH   6   7
ATOM      7  C   UNL     1       9.472  32.541  25.064  1.00  0.00    -0.000 C 
BRANCH   7   8
ATOM      8  C   UNL     1      10.657  33.149  24.305  1.00  0.00    -0.003 C 
ATOM      9  C   UNL     1      11.161  34.415  24.993  1.00  0.00     0.004 C 
ENDBRANCH   7   8
ENDBRANCH   6   7
ENDBRANCH   1   6
TORSDOF 5
ENDMDL
MODEL 8
REMARK VINA RESULT:    -3.555      9.829     11.149
REMARK INTER + INTRA:          -4.823
REMARK INTER:                  -4.635
REMARK INTRA:                  -0.188
REMARK UNBOUND:                -0.229
REMARK SMILES CCCCCCC(=O)[O-]
REMARK SMILES IDX 5 1 6 2 7 3 8 4 9 5 4 6 3 7 2 8 1 9
REMARK H PARENT
REMARK Flexibility Score: inf
ROOT
ATOM      1  C   UNL     1      10.411  32.308  26.648  1.00  0.00     0.006 C 
ENDROOT
BRANCH   1   2
ATOM      2  C   UNL     1       9.874  32.498  25.226  1.00  0.00     0.053 C 
BRANCH   2   3
ATOM      3  C   UNL     1      10.759  33.423  24.452  1.00  0.00     0.041 C 
ATOM      4  O   UNL     1      11.221  33.071  23.335  1.00  0.00    -0.550 OA
ATOM      5  O   UNL     1      11.114  34.655  24.987  1.00  0.00    -0.550 OA
ENDBRANCH   2   3
ENDBRANCH   1   2
BRANCH   1   6
ATOM      6  C   UNL     1      11.577  31.311  26.666  1.00  0.00     0.000 C 
BRANCH   6   7
ATOM      7  C   UNL     1      11.403  30.280  27.788  1.00  0.00    -0.000 C 
BRANCH   7   8
ATOM      8  C   UNL     1      12.286  30.623  28.992  1.00  0.00    -0.003 C 
ATOM      9  C   UNL     1      13.692  31.022  28.550  1.00  0.00     0.004 C 
ENDBRANCH   7   8
ENDBRANCH   6   7
ENDBRANCH   1   6
TORSDOF 5
ENDMDL
MODEL 9
REMARK VINA RESULT:    -3.540     11.139     12.494
REMARK INTER + INTRA:          -4.804
REMARK INTER:                  -4.413
REMARK INTRA:                  -0.390
REMARK UNBOUND:                -0.229
REMARK SMILES CCCCCCC(=O)[O-]
REMARK SMILES IDX 5 1 6 2 7 3 8 4 9 5 4 6 3 7 2 8 1 9
REMARK H PARENT
REMARK Flexibility Score: inf
ROOT
ATOM      1  C   UNL     1      10.086  31.805  29.757  1.00  0.00     0.006 C 
ENDROOT
BRANCH   1   2
ATOM      2  C   UNL     1      10.401  33.027  28.890  1.00  0.00     0.053 C 
BRANCH   2   3
ATOM      3  C   UNL     1      10.455  32.644  27.445  1.00  0.00     0.041 C 
ATOM      4  O   UNL     1       9.634  31.812  26.979  1.00  0.00    -0.550 OA
ATOM      5  O   UNL     1      11.444  33.170  26.622  1.00  0.00    -0.550 OA
ENDBRANCH   2   3
ENDBRANCH   1   2
BRANCH   1   6
ATOM      6  C   UNL     1      11.355  30.994  30.046  1.00  0.00     0.000 C 
BRANCH   6   7
ATOM      7  C   UNL     1      12.372  31.827  30.835  1.00  0.00    -0.000 C 
BRANCH   7   8
ATOM      8  C   UNL     1      13.711  31.907  30.094  1.00  0.00    -0.003 C 
ATOM      9  C   UNL     1      13.663  31.130  28.781  1.00  0.00     0.004 C 
ENDBRANCH   7   8
ENDBRANCH   6   7
ENDBRANCH   1   6
TORSDOF 5
ENDMDL
