MODEL 1
REMARK VINA RESULT:    -7.271      0.000      0.000
REMARK INTER + INTRA:          -8.219
REMARK INTER:                  -8.121
REMARK INTRA:                  -0.098
REMARK UNBOUND:                -0.098
REMARK SMILES C=C(C)[C@@H]1CC[C@]2(C(=O)[O-])CC[C@]3(C)[C@@H](CC[C@H]4[C@]5(C)CCC(=O)C(C)(C)[C@H]5CC[C@]43C)[C@@H]12
REMARK SMILES IDX 7 1 6 2 33 3 11 4 5 5 15 6 4 7 12 8 16 9 13 10 17 11 31 12
REMARK SMILES IDX 14 13 18 14 30 15 32 16 19 17 29 18 21 19 20 20 28 21 22 22
REMARK SMILES IDX 25 23 23 24 26 25 27 26 24 27 8 28 9 29 10 30 2 31 3 32 1 33
REMARK H PARENT
REMARK Flexibility Score: inf
ROOT
ATOM      1  C   UNL     1     101.200  87.523  85.629  1.00  0.00     0.014 C 
ATOM      2  C   UNL     1     102.500  88.102  86.216  1.00  0.00     0.014 C 
ATOM      3  C   UNL     1     101.470  87.658  84.129  1.00  0.00     0.012 C 
ATOM      4  C   UNL     1     100.991  86.019  85.918  1.00  0.00     0.014 C 
ATOM      5  C   UNL     1     102.918  89.240  85.259  1.00  0.00     0.009 C 
ATOM      6  C   UNL     1     100.337  87.167  83.178  1.00  0.00     0.000 C 
ATOM      7  C   UNL     1     102.140  89.026  83.937  1.00  0.00     0.018 C 
ATOM      8  C   UNL     1      99.830  85.426  85.075  1.00  0.00     0.008 C 
ATOM      9  C   UNL     1      99.152  88.143  82.978  1.00  0.00     0.005 C 
ATOM     10  C   UNL     1      99.898  85.670  83.507  1.00  0.00    -0.024 C 
ATOM     11  C   UNL     1      97.889  87.707  83.707  1.00  0.00     0.005 C 
ATOM     12  C   UNL     1      98.483  85.328  82.775  1.00  0.00    -0.024 C 
ATOM     13  C   UNL     1     101.024  84.708  82.982  1.00  0.00     0.012 C 
ATOM     14  C   UNL     1      97.315  86.350  83.187  1.00  0.00     0.002 C 
ATOM     15  C   UNL     1      98.714  85.313  81.206  1.00  0.00     0.008 C 
ATOM     16  C   UNL     1      98.025  83.890  83.220  1.00  0.00     0.012 C 
ATOM     17  C   UNL     1      96.032  86.461  82.192  1.00  0.00    -0.025 C 
ATOM     18  C   UNL     1      97.592  85.837  80.303  1.00  0.00     0.006 C 
ATOM     19  C   UNL     1      94.779  85.881  82.903  1.00  0.00     0.015 C 
ATOM     20  C   UNL     1      95.706  87.946  81.819  1.00  0.00     0.012 C 
ATOM     21  C   UNL     1      96.215  85.585  80.908  1.00  0.00     0.008 C 
ATOM     22  C   UNL     1      93.492  85.960  82.064  1.00  0.00     0.077 C 
ATOM     23  C   UNL     1      95.018  85.583  79.871  1.00  0.00     0.027 C 
ATOM     24  C   UNL     1      93.669  85.790  80.567  1.00  0.00     0.138 C 
ATOM     25  C   UNL     1      94.947  84.197  79.176  1.00  0.00     0.020 C 
ATOM     26  C   UNL     1      95.203  86.640  78.742  1.00  0.00     0.020 C 
ATOM     27  O   UNL     1      92.656  85.820  79.883  1.00  0.00    -0.299 OA
ENDROOT
BRANCH   1  28
ATOM     28  C   UNL     1     100.042  88.357  86.178  1.00  0.00     0.048 C 
ATOM     29  O   UNL     1      99.256  87.870  87.035  1.00  0.00    -0.550 OA
ATOM     30  O   UNL     1      99.904  89.701  85.849  1.00  0.00    -0.550 OA
ENDBRANCH   1  28
BRANCH   7  31
ATOM     31  C   UNL     1     103.012  89.097  82.685  1.00  0.00    -0.077 C 
ATOM     32  C   UNL     1     103.129  90.395  81.929  1.00  0.00     0.039 C 
ATOM     33  C   UNL     1     103.665  88.019  82.216  1.00  0.00     0.008 C 
ENDBRANCH   7  31
TORSDOF 2
ENDMDL
MODEL 2
REMARK VINA RESULT:    -6.738      2.394      3.696
REMARK INTER + INTRA:          -7.623
REMARK INTER:                  -7.531
REMARK INTRA:                  -0.092
REMARK UNBOUND:                -0.098
REMARK SMILES C=C(C)[C@@H]1CC[C@]2(C(=O)[O-])CC[C@]3(C)[C@@H](CC[C@H]4[C@]5(C)CCC(=O)C(C)(C)[C@H]5CC[C@]43C)[C@@H]12
REMARK SMILES IDX 7 1 6 2 33 3 11 4 5 5 15 6 4 7 12 8 16 9 13 10 17 11 31 12
REMARK SMILES IDX 14 13 18 14 30 15 32 16 19 17 29 18 21 19 20 20 28 21 22 22
REMARK SMILES IDX 25 23 23 24 26 25 27 26 24 27 8 28 9 29 10 30 2 31 3 32 1 33
REMARK H PARENT
REMARK Flexibility Score: inf
ROOT
ATOM      1  C   UNL     1     100.983  85.169  83.486  1.00  0.00     0.014 C 
ATOM      2  C   UNL     1     102.515  85.140  83.340  1.00  0.00     0.014 C 
ATOM      3  C   UNL     1     100.679  86.617  83.096  1.00  0.00     0.012 C 
ATOM      4  C   UNL     1     100.235  84.264  82.481  1.00  0.00     0.014 C 
ATOM      5  C   UNL     1     103.002  86.537  83.784  1.00  0.00     0.009 C 
ATOM      6  C   UNL     1      99.180  87.041  83.132  1.00  0.00     0.000 C 
ATOM      7  C   UNL     1     101.770  87.475  83.753  1.00  0.00     0.018 C 
ATOM      8  C   UNL     1      98.708  84.544  82.477  1.00  0.00     0.008 C 
ATOM      9  C   UNL     1      98.605  87.375  84.530  1.00  0.00     0.005 C 
ATOM     10  C   UNL     1      98.268  86.057  82.272  1.00  0.00    -0.024 C 
ATOM     11  C   UNL     1      97.678  86.295  85.069  1.00  0.00     0.005 C 
ATOM     12  C   UNL     1      96.696  86.288  82.637  1.00  0.00    -0.024 C 
ATOM     13  C   UNL     1      98.520  86.364  80.753  1.00  0.00     0.012 C 
ATOM     14  C   UNL     1      96.394  86.097  84.202  1.00  0.00     0.002 C 
ATOM     15  C   UNL     1      96.266  87.729  82.134  1.00  0.00     0.008 C 
ATOM     16  C   UNL     1      95.840  85.219  81.862  1.00  0.00     0.012 C 
ATOM     17  C   UNL     1      95.034  86.773  84.790  1.00  0.00    -0.025 C 
ATOM     18  C   UNL     1      95.262  88.521  82.979  1.00  0.00     0.006 C 
ATOM     19  C   UNL     1      94.043  85.652  85.205  1.00  0.00     0.015 C 
ATOM     20  C   UNL     1      95.314  87.639  86.063  1.00  0.00     0.012 C 
ATOM     21  C   UNL     1      94.280  87.603  83.699  1.00  0.00     0.008 C 
ATOM     22  C   UNL     1      92.726  86.175  85.806  1.00  0.00     0.077 C 
ATOM     23  C   UNL     1      92.921  88.287  84.139  1.00  0.00     0.027 C 
ATOM     24  C   UNL     1      92.210  87.478  85.228  1.00  0.00     0.138 C 
ATOM     25  C   UNL     1      91.957  88.335  82.924  1.00  0.00     0.020 C 
ATOM     26  C   UNL     1      93.118  89.759  84.611  1.00  0.00     0.020 C 
ATOM     27  O   UNL     1      91.149  87.898  85.670  1.00  0.00    -0.299 OA
ENDROOT
BRANCH   1  28
ATOM     28  C   UNL     1     100.655  84.783  84.928  1.00  0.00     0.048 C 
ATOM     29  O   UNL     1     100.238  83.625  85.198  1.00  0.00    -0.550 OA
ATOM     30  O   UNL     1     100.928  85.645  85.984  1.00  0.00    -0.550 OA
ENDBRANCH   1  28
BRANCH   7  31
ATOM     31  C   UNL     1     102.014  88.796  83.028  1.00  0.00    -0.077 C 
ATOM     32  C   UNL     1     101.351  90.054  83.525  1.00  0.00     0.039 C 
ATOM     33  C   UNL     1     102.789  88.869  81.932  1.00  0.00     0.008 C 
ENDBRANCH   7  31
TORSDOF 2
ENDMDL
MODEL 3
REMARK VINA RESULT:    -6.674      2.770      7.545
REMARK INTER + INTRA:          -7.552
REMARK INTER:                  -7.441
REMARK INTRA:                  -0.112
REMARK UNBOUND:                -0.098
REMARK SMILES C=C(C)[C@@H]1CC[C@]2(C(=O)[O-])CC[C@]3(C)[C@@H](CC[C@H]4[C@]5(C)CCC(=O)C(C)(C)[C@H]5CC[C@]43C)[C@@H]12
REMARK SMILES IDX 7 1 6 2 33 3 11 4 5 5 15 6 4 7 12 8 16 9 13 10 17 11 31 12
REMARK SMILES IDX 14 13 18 14 30 15 32 16 19 17 29 18 21 19 20 20 28 21 22 22
REMARK SMILES IDX 25 23 23 24 26 25 27 26 24 27 8 28 9 29 10 30 2 31 3 32 1 33
REMARK H PARENT
REMARK Flexibility Score: inf
ROOT
ATOM      1  C   UNL     1      97.147  87.181  84.064  1.00  0.00     0.014 C 
ATOM      2  C   UNL     1      96.311  85.905  84.265  1.00  0.00     0.014 C 
ATOM      3  C   UNL     1      98.332  86.632  83.267  1.00  0.00     0.012 C 
ATOM      4  C   UNL     1      96.465  88.252  83.183  1.00  0.00     0.014 C 
ATOM      5  C   UNL     1      97.333  84.760  84.438  1.00  0.00     0.009 C 
ATOM      6  C   UNL     1      99.433  87.662  82.871  1.00  0.00     0.000 C 
ATOM      7  C   UNL     1      98.690  85.283  83.907  1.00  0.00     0.018 C 
ATOM      8  C   UNL     1      97.452  89.380  82.779  1.00  0.00     0.008 C 
ATOM      9  C   UNL     1     100.446  88.030  83.982  1.00  0.00     0.005 C 
ATOM     10  C   UNL     1      98.817  88.920  82.110  1.00  0.00    -0.024 C 
ATOM     11  C   UNL     1     100.219  89.418  84.563  1.00  0.00     0.005 C 
ATOM     12  C   UNL     1      99.907  90.131  82.057  1.00  0.00    -0.024 C 
ATOM     13  C   UNL     1      98.439  88.470  80.654  1.00  0.00     0.012 C 
ATOM     14  C   UNL     1     100.419  90.562  83.517  1.00  0.00     0.002 C 
ATOM     15  C   UNL     1     101.113  89.686  81.128  1.00  0.00     0.008 C 
ATOM     16  C   UNL     1      99.223  91.391  81.410  1.00  0.00     0.012 C 
ATOM     17  C   UNL     1     101.832  91.365  83.608  1.00  0.00    -0.025 C 
ATOM     18  C   UNL     1     102.526  90.140  81.509  1.00  0.00     0.006 C 
ATOM     19  C   UNL     1     101.565  92.824  84.067  1.00  0.00     0.015 C 
ATOM     20  C   UNL     1     102.804  90.721  84.652  1.00  0.00     0.012 C 
ATOM     21  C   UNL     1     102.517  91.495  82.207  1.00  0.00     0.008 C 
ATOM     22  C   UNL     1     102.839  93.674  84.219  1.00  0.00     0.077 C 
ATOM     23  C   UNL     1     103.888  92.285  82.157  1.00  0.00     0.027 C 
ATOM     24  C   UNL     1     103.952  93.373  83.234  1.00  0.00     0.138 C 
ATOM     25  C   UNL     1     104.010  93.011  80.791  1.00  0.00     0.020 C 
ATOM     26  C   UNL     1     105.125  91.345  82.276  1.00  0.00     0.020 C 
ATOM     27  O   UNL     1     104.963  94.056  83.317  1.00  0.00    -0.299 OA
ENDROOT
BRANCH   1  28
ATOM     28  C   UNL     1      97.474  87.734  85.452  1.00  0.00     0.048 C 
ATOM     29  O   UNL     1      96.915  88.785  85.866  1.00  0.00    -0.550 OA
ATOM     30  O   UNL     1      98.287  87.032  86.333  1.00  0.00    -0.550 OA
ENDBRANCH   1  28
BRANCH   7  31
ATOM     31  C   UNL     1      99.390  84.328  82.943  1.00  0.00    -0.077 C 
ATOM     32  C   UNL     1      98.587  83.608  81.891  1.00  0.00     0.039 C 
ATOM     33  C   UNL     1     100.710  84.087  83.021  1.00  0.00     0.008 C 
ENDBRANCH   7  31
TORSDOF 2
ENDMDL
MODEL 4
REMARK VINA RESULT:    -6.572      2.816      7.756
REMARK INTER + INTRA:          -7.438
REMARK INTER:                  -7.299
REMARK INTRA:                  -0.140
REMARK UNBOUND:                -0.098
REMARK SMILES C=C(C)[C@@H]1CC[C@]2(C(=O)[O-])CC[C@]3(C)[C@@H](CC[C@H]4[C@]5(C)CCC(=O)C(C)(C)[C@H]5CC[C@]43C)[C@@H]12
REMARK SMILES IDX 7 1 6 2 33 3 11 4 5 5 15 6 4 7 12 8 16 9 13 10 17 11 31 12
REMARK SMILES IDX 14 13 18 14 30 15 32 16 19 17 29 18 21 19 20 20 28 21 22 22
REMARK SMILES IDX 25 23 23 24 26 25 27 26 24 27 8 28 9 29 10 30 2 31 3 32 1 33
REMARK H PARENT
REMARK Flexibility Score: inf
ROOT
ATOM      1  C   UNL     1      91.728  86.935  83.628  1.00  0.00     0.014 C 
ATOM      2  C   UNL     1      90.362  87.641  83.556  1.00  0.00     0.014 C 
ATOM      3  C   UNL     1      92.656  88.122  83.895  1.00  0.00     0.012 C 
ATOM      4  C   UNL     1      91.878  85.967  84.823  1.00  0.00     0.014 C 
ATOM      5  C   UNL     1      90.634  89.010  82.896  1.00  0.00     0.009 C 
ATOM      6  C   UNL     1      94.174  87.795  84.026  1.00  0.00     0.000 C 
ATOM      7  C   UNL     1      92.158  89.265  82.998  1.00  0.00     0.018 C 
ATOM      8  C   UNL     1      93.349  85.508  85.013  1.00  0.00     0.008 C 
ATOM      9  C   UNL     1      94.939  87.591  82.695  1.00  0.00     0.005 C 
ATOM     10  C   UNL     1      94.441  86.657  85.110  1.00  0.00    -0.024 C 
ATOM     11  C   UNL     1      95.275  86.132  82.416  1.00  0.00     0.005 C 
ATOM     12  C   UNL     1      95.954  86.074  84.949  1.00  0.00    -0.024 C 
ATOM     13  C   UNL     1      94.255  87.292  86.535  1.00  0.00     0.012 C 
ATOM     14  C   UNL     1      96.243  85.511  83.474  1.00  0.00     0.002 C 
ATOM     15  C   UNL     1      96.981  87.215  85.346  1.00  0.00     0.008 C 
ATOM     16  C   UNL     1      96.137  84.876  85.952  1.00  0.00     0.012 C 
ATOM     17  C   UNL     1      97.798  85.376  83.014  1.00  0.00    -0.025 C 
ATOM     18  C   UNL     1      98.301  87.304  84.571  1.00  0.00     0.006 C 
ATOM     19  C   UNL     1      98.163  83.873  82.872  1.00  0.00     0.015 C 
ATOM     20  C   UNL     1      98.060  86.050  81.627  1.00  0.00     0.012 C 
ATOM     21  C   UNL     1      98.775  85.932  84.104  1.00  0.00     0.008 C 
ATOM     22  C   UNL     1      99.610  83.623  82.410  1.00  0.00     0.077 C 
ATOM     23  C   UNL     1     100.324  85.830  83.788  1.00  0.00     0.027 C 
ATOM     24  C   UNL     1     100.641  84.616  82.908  1.00  0.00     0.138 C 
ATOM     25  C   UNL     1     101.103  85.626  85.116  1.00  0.00     0.020 C 
ATOM     26  C   UNL     1     100.888  87.125  83.133  1.00  0.00     0.020 C 
ATOM     27  O   UNL     1     101.802  84.420  82.578  1.00  0.00    -0.299 OA
ENDROOT
BRANCH   1  28
ATOM     28  C   UNL     1      91.937  86.210  82.299  1.00  0.00     0.048 C 
ATOM     29  O   UNL     1      91.953  84.950  82.257  1.00  0.00    -0.550 OA
ATOM     30  O   UNL     1      91.982  86.907  81.097  1.00  0.00    -0.550 OA
ENDBRANCH   1  28
BRANCH   7  31
ATOM     31  C   UNL     1      92.522  90.649  83.531  1.00  0.00    -0.077 C 
ATOM     32  C   UNL     1      92.345  90.956  84.995  1.00  0.00     0.039 C 
ATOM     33  C   UNL     1      92.976  91.621  82.721  1.00  0.00     0.008 C 
ENDBRANCH   7  31
TORSDOF 2
ENDMDL
MODEL 5
REMARK VINA RESULT:    -6.512      3.171      5.378
REMARK INTER + INTRA:          -7.371
REMARK INTER:                  -7.224
REMARK INTRA:                  -0.146
REMARK UNBOUND:                -0.098
REMARK SMILES C=C(C)[C@@H]1CC[C@]2(C(=O)[O-])CC[C@]3(C)[C@@H](CC[C@H]4[C@]5(C)CCC(=O)C(C)(C)[C@H]5CC[C@]43C)[C@@H]12
REMARK SMILES IDX 7 1 6 2 33 3 11 4 5 5 15 6 4 7 12 8 16 9 13 10 17 11 31 12
REMARK SMILES IDX 14 13 18 14 30 15 32 16 19 17 29 18 21 19 20 20 28 21 22 22
REMARK SMILES IDX 25 23 23 24 26 25 27 26 24 27 8 28 9 29 10 30 2 31 3 32 1 33
REMARK H PARENT
REMARK Flexibility Score: inf
ROOT
ATOM      1  C   UNL     1      96.543  86.181  86.828  1.00  0.00     0.014 C 
ATOM      2  C   UNL     1      96.587  85.328  88.108  1.00  0.00     0.014 C 
ATOM      3  C   UNL     1      97.987  86.047  86.338  1.00  0.00     0.012 C 
ATOM      4  C   UNL     1      95.634  85.609  85.717  1.00  0.00     0.014 C 
ATOM      5  C   UNL     1      97.991  85.552  88.711  1.00  0.00     0.009 C 
ATOM      6  C   UNL     1      98.343  86.807  85.025  1.00  0.00     0.000 C 
ATOM      7  C   UNL     1      98.874  86.150  87.588  1.00  0.00     0.018 C 
ATOM      8  C   UNL     1      95.847  86.340  84.364  1.00  0.00     0.008 C 
ATOM      9  C   UNL     1      98.612  88.325  85.173  1.00  0.00     0.005 C 
ATOM     10  C   UNL     1      97.343  86.437  83.840  1.00  0.00    -0.024 C 
ATOM     11  C   UNL     1      97.477  89.188  84.641  1.00  0.00     0.005 C 
ATOM     12  C   UNL     1      97.494  87.512  82.623  1.00  0.00    -0.024 C 
ATOM     13  C   UNL     1      97.703  84.995  83.333  1.00  0.00     0.012 C 
ATOM     14  C   UNL     1      97.247  89.023  83.104  1.00  0.00     0.002 C 
ATOM     15  C   UNL     1      98.928  87.338  81.969  1.00  0.00     0.008 C 
ATOM     16  C   UNL     1      96.411  87.185  81.531  1.00  0.00     0.012 C 
ATOM     17  C   UNL     1      97.844  90.214  82.169  1.00  0.00    -0.025 C 
ATOM     18  C   UNL     1      99.651  88.592  81.465  1.00  0.00     0.006 C 
ATOM     19  C   UNL     1      96.670  90.997  81.522  1.00  0.00     0.015 C 
ATOM     20  C   UNL     1      98.686  91.242  82.996  1.00  0.00     0.012 C 
ATOM     21  C   UNL     1      98.670  89.648  80.966  1.00  0.00     0.008 C 
ATOM     22  C   UNL     1      97.116  92.172  80.634  1.00  0.00     0.077 C 
ATOM     23  C   UNL     1      99.281  90.709  79.961  1.00  0.00     0.027 C 
ATOM     24  C   UNL     1      98.411  91.966  79.872  1.00  0.00     0.138 C 
ATOM     25  C   UNL     1      99.320  90.097  78.535  1.00  0.00     0.020 C 
ATOM     26  C   UNL     1     100.746  91.098  80.320  1.00  0.00     0.020 C 
ATOM     27  O   UNL     1      98.770  92.876  79.137  1.00  0.00    -0.299 OA
ENDROOT
BRANCH   1  28
ATOM     28  C   UNL     1      96.103  87.588  87.233  1.00  0.00     0.048 C 
ATOM     29  O   UNL     1      94.946  88.000  86.948  1.00  0.00    -0.550 OA
ATOM     30  O   UNL     1      96.908  88.393  88.030  1.00  0.00    -0.550 OA
ENDBRANCH   1  28
BRANCH   7  31
ATOM     31  C   UNL     1     100.224  85.456  87.424  1.00  0.00    -0.077 C 
ATOM     32  C   UNL     1     100.305  84.141  86.693  1.00  0.00     0.039 C 
ATOM     33  C   UNL     1     101.352  85.975  87.940  1.00  0.00     0.008 C 
ENDBRANCH   7  31
TORSDOF 2
ENDMDL
MODEL 6
REMARK VINA RESULT:    -6.476      2.519      7.657
REMARK INTER + INTRA:          -7.331
REMARK INTER:                  -7.220
REMARK INTRA:                  -0.111
REMARK UNBOUND:                -0.098
REMARK SMILES C=C(C)[C@@H]1CC[C@]2(C(=O)[O-])CC[C@]3(C)[C@@H](CC[C@H]4[C@]5(C)CCC(=O)C(C)(C)[C@H]5CC[C@]43C)[C@@H]12
REMARK SMILES IDX 7 1 6 2 33 3 11 4 5 5 15 6 4 7 12 8 16 9 13 10 17 11 31 12
REMARK SMILES IDX 14 13 18 14 30 15 32 16 19 17 29 18 21 19 20 20 28 21 22 22
REMARK SMILES IDX 25 23 23 24 26 25 27 26 24 27 8 28 9 29 10 30 2 31 3 32 1 33
REMARK H PARENT
REMARK Flexibility Score: inf
ROOT
ATOM      1  C   UNL     1      98.649  84.768  83.374  1.00  0.00     0.014 C 
ATOM      2  C   UNL     1      97.643  83.678  82.964  1.00  0.00     0.014 C 
ATOM      3  C   UNL     1      98.041  85.997  82.696  1.00  0.00     0.012 C 
ATOM      4  C   UNL     1      98.682  85.059  84.892  1.00  0.00     0.014 C 
ATOM      5  C   UNL     1      97.187  84.048  81.536  1.00  0.00     0.009 C 
ATOM      6  C   UNL     1      98.810  87.339  82.883  1.00  0.00     0.000 C 
ATOM      7  C   UNL     1      97.569  85.532  81.311  1.00  0.00     0.018 C 
ATOM      8  C   UNL     1      99.489  86.345  85.215  1.00  0.00     0.008 C 
ATOM      9  C   UNL     1     100.049  87.542  81.976  1.00  0.00     0.005 C 
ATOM     10  C   UNL     1      99.074  87.658  84.423  1.00  0.00    -0.024 C 
ATOM     11  C   UNL     1     101.367  87.390  82.721  1.00  0.00     0.005 C 
ATOM     12  C   UNL     1     100.192  88.835  84.568  1.00  0.00    -0.024 C 
ATOM     13  C   UNL     1      97.716  88.121  85.062  1.00  0.00     0.012 C 
ATOM     14  C   UNL     1     101.572  88.466  83.835  1.00  0.00     0.002 C 
ATOM     15  C   UNL     1      99.580  90.186  84.007  1.00  0.00     0.008 C 
ATOM     16  C   UNL     1     100.512  89.035  86.095  1.00  0.00     0.012 C 
ATOM     17  C   UNL     1     102.570  89.695  83.455  1.00  0.00    -0.025 C 
ATOM     18  C   UNL     1     100.512  91.151  83.265  1.00  0.00     0.006 C 
ATOM     19  C   UNL     1     103.852  89.603  84.328  1.00  0.00     0.015 C 
ATOM     20  C   UNL     1     103.024  89.640  81.959  1.00  0.00     0.012 C 
ATOM     21  C   UNL     1     101.938  91.084  83.802  1.00  0.00     0.008 C 
ATOM     22  C   UNL     1     104.887  90.703  84.033  1.00  0.00     0.077 C 
ATOM     23  C   UNL     1     102.826  92.362  83.507  1.00  0.00     0.027 C 
ATOM     24  C   UNL     1     104.320  92.055  83.646  1.00  0.00     0.138 C 
ATOM     25  C   UNL     1     102.502  93.461  84.555  1.00  0.00     0.020 C 
ATOM     26  C   UNL     1     102.537  92.981  82.107  1.00  0.00     0.020 C 
ATOM     27  O   UNL     1     105.125  92.952  83.436  1.00  0.00    -0.299 OA
ENDROOT
BRANCH   1  28
ATOM     28  C   UNL     1     100.023  84.335  82.865  1.00  0.00     0.048 C 
ATOM     29  O   UNL     1     100.952  84.079  83.677  1.00  0.00    -0.550 OA
ATOM     30  O   UNL     1     100.245  84.086  81.515  1.00  0.00    -0.550 OA
ENDBRANCH   1  28
BRANCH   7  31
ATOM     31  C   UNL     1      96.437  86.385  80.744  1.00  0.00    -0.077 C 
ATOM     32  C   UNL     1      95.195  86.620  81.564  1.00  0.00     0.039 C 
ATOM     33  C   UNL     1      96.504  86.920  79.512  1.00  0.00     0.008 C 
ENDBRANCH   7  31
TORSDOF 2
ENDMDL
MODEL 7
REMARK VINA RESULT:    -6.426      2.452      7.857
REMARK INTER + INTRA:          -7.275
REMARK INTER:                  -7.555
REMARK INTRA:                   0.280
REMARK UNBOUND:                -0.098
REMARK SMILES C=C(C)[C@@H]1CC[C@]2(C(=O)[O-])CC[C@]3(C)[C@@H](CC[C@H]4[C@]5(C)CCC(=O)C(C)(C)[C@H]5CC[C@]43C)[C@@H]12
REMARK SMILES IDX 7 1 6 2 33 3 11 4 5 5 15 6 4 7 12 8 16 9 13 10 17 11 31 12
REMARK SMILES IDX 14 13 18 14 30 15 32 16 19 17 29 18 21 19 20 20 28 21 22 22
REMARK SMILES IDX 25 23 23 24 26 25 27 26 24 27 8 28 9 29 10 30 2 31 3 32 1 33
REMARK H PARENT
REMARK Flexibility Score: inf
ROOT
ATOM      1  C   UNL     1      94.875  85.123  80.584  1.00  0.00     0.014 C 
ATOM      2  C   UNL     1      93.567  84.324  80.445  1.00  0.00     0.014 C 
ATOM      3  C   UNL     1      94.633  85.852  81.907  1.00  0.00     0.012 C 
ATOM      4  C   UNL     1      96.134  84.246  80.775  1.00  0.00     0.014 C 
ATOM      5  C   UNL     1      92.461  85.231  81.029  1.00  0.00     0.009 C 
ATOM      6  C   UNL     1      95.774  86.796  82.393  1.00  0.00     0.000 C 
ATOM      7  C   UNL     1      93.169  86.314  81.879  1.00  0.00     0.018 C 
ATOM      8  C   UNL     1      97.367  85.091  81.193  1.00  0.00     0.008 C 
ATOM      9  C   UNL     1      95.832  88.190  81.720  1.00  0.00     0.005 C 
ATOM     10  C   UNL     1      97.178  86.044  82.450  1.00  0.00    -0.024 C 
ATOM     11  C   UNL     1      96.975  88.326  80.725  1.00  0.00     0.005 C 
ATOM     12  C   UNL     1      98.390  87.127  82.580  1.00  0.00    -0.024 C 
ATOM     13  C   UNL     1      97.169  85.092  83.699  1.00  0.00     0.012 C 
ATOM     14  C   UNL     1      98.385  88.200  81.387  1.00  0.00     0.002 C 
ATOM     15  C   UNL     1      98.287  87.833  83.997  1.00  0.00     0.008 C 
ATOM     16  C   UNL     1      99.759  86.356  82.511  1.00  0.00     0.012 C 
ATOM     17  C   UNL     1      99.176  89.601  81.636  1.00  0.00    -0.025 C 
ATOM     18  C   UNL     1      98.659  89.317  84.094  1.00  0.00     0.006 C 
ATOM     19  C   UNL     1     100.421  89.660  80.711  1.00  0.00     0.015 C 
ATOM     20  C   UNL     1      98.287  90.844  81.297  1.00  0.00     0.012 C 
ATOM     21  C   UNL     1      99.744  89.695  83.092  1.00  0.00     0.008 C 
ATOM     22  C   UNL     1     101.234  90.960  80.840  1.00  0.00     0.077 C 
ATOM     23  C   UNL     1     100.563  91.002  83.452  1.00  0.00     0.027 C 
ATOM     24  C   UNL     1     101.282  91.572  82.226  1.00  0.00     0.138 C 
ATOM     25  C   UNL     1     101.666  90.644  84.483  1.00  0.00     0.020 C 
ATOM     26  C   UNL     1      99.676  92.102  84.110  1.00  0.00     0.020 C 
ATOM     27  O   UNL     1     101.947  92.591  82.358  1.00  0.00    -0.299 OA
ENDROOT
BRANCH   1  28
ATOM     28  C   UNL     1      95.002  86.010  79.346  1.00  0.00     0.048 C 
ATOM     29  O   UNL     1      96.117  86.151  78.775  1.00  0.00    -0.550 OA
ATOM     30  O   UNL     1      93.882  86.572  78.745  1.00  0.00    -0.550 OA
ENDBRANCH   1  28
BRANCH   7  31
ATOM     31  C   UNL     1      92.571  86.500  83.272  1.00  0.00    -0.077 C 
ATOM     32  C   UNL     1      92.582  87.862  83.914  1.00  0.00     0.039 C 
ATOM     33  C   UNL     1      92.052  85.469  83.961  1.00  0.00     0.008 C 
ENDBRANCH   7  31
TORSDOF 2
ENDMDL
MODEL 8
REMARK VINA RESULT:    -6.425      2.712      7.762
REMARK INTER + INTRA:          -7.273
REMARK INTER:                  -7.139
REMARK INTRA:                  -0.135
REMARK UNBOUND:                -0.098
REMARK SMILES C=C(C)[C@@H]1CC[C@]2(C(=O)[O-])CC[C@]3(C)[C@@H](CC[C@H]4[C@]5(C)CCC(=O)C(C)(C)[C@H]5CC[C@]43C)[C@@H]12
REMARK SMILES IDX 7 1 6 2 33 3 11 4 5 5 15 6 4 7 12 8 16 9 13 10 17 11 31 12
REMARK SMILES IDX 14 13 18 14 30 15 32 16 19 17 29 18 21 19 20 20 28 21 22 22
REMARK SMILES IDX 25 23 23 24 26 25 27 26 24 27 8 28 9 29 10 30 2 31 3 32 1 33
REMARK H PARENT
REMARK Flexibility Score: inf
ROOT
ATOM      1  C   UNL     1      98.534  85.699  83.297  1.00  0.00     0.014 C 
ATOM      2  C   UNL     1      97.383  84.749  83.672  1.00  0.00     0.014 C 
ATOM      3  C   UNL     1      98.530  86.650  84.496  1.00  0.00     0.012 C 
ATOM      4  C   UNL     1      99.924  85.025  83.259  1.00  0.00     0.014 C 
ATOM      5  C   UNL     1      96.335  85.626  84.392  1.00  0.00     0.009 C 
ATOM      6  C   UNL     1      99.588  87.794  84.472  1.00  0.00     0.000 C 
ATOM      7  C   UNL     1      97.054  86.931  84.814  1.00  0.00     0.018 C 
ATOM      8  C   UNL     1     101.069  86.069  83.162  1.00  0.00     0.008 C 
ATOM      9  C   UNL     1      99.240  89.020  83.593  1.00  0.00     0.005 C 
ATOM     10  C   UNL     1     101.061  87.229  84.246  1.00  0.00    -0.024 C 
ATOM     11  C   UNL     1     100.046  89.078  82.303  1.00  0.00     0.005 C 
ATOM     12  C   UNL     1     102.071  88.444  83.844  1.00  0.00    -0.024 C 
ATOM     13  C   UNL     1     101.534  86.555  85.584  1.00  0.00     0.012 C 
ATOM     14  C   UNL     1     101.580  89.247  82.544  1.00  0.00     0.002 C 
ATOM     15  C   UNL     1     102.228  89.406  85.095  1.00  0.00     0.008 C 
ATOM     16  C   UNL     1     103.482  87.832  83.513  1.00  0.00     0.012 C 
ATOM     17  C   UNL     1     102.169  90.748  82.323  1.00  0.00    -0.025 C 
ATOM     18  C   UNL     1     102.365  90.911  84.838  1.00  0.00     0.006 C 
ATOM     19  C   UNL     1     103.103  90.756  81.082  1.00  0.00     0.015 C 
ATOM     20  C   UNL     1     101.032  91.789  82.054  1.00  0.00     0.012 C 
ATOM     21  C   UNL     1     103.074  91.198  83.519  1.00  0.00     0.008 C 
ATOM     22  C   UNL     1     103.698  92.138  80.758  1.00  0.00     0.077 C 
ATOM     23  C   UNL     1     103.734  92.633  83.410  1.00  0.00     0.027 C 
ATOM     24  C   UNL     1     104.005  93.020  81.952  1.00  0.00     0.138 C 
ATOM     25  C   UNL     1     105.112  92.617  84.125  1.00  0.00     0.020 C 
ATOM     26  C   UNL     1     102.883  93.738  84.105  1.00  0.00     0.020 C 
ATOM     27  O   UNL     1     104.506  94.111  81.720  1.00  0.00    -0.299 OA
ENDROOT
BRANCH   1  28
ATOM     28  C   UNL     1      98.186  86.325  81.946  1.00  0.00     0.048 C 
ATOM     29  O   UNL     1      98.751  85.923  80.894  1.00  0.00    -0.550 OA
ATOM     30  O   UNL     1      97.157  87.252  81.826  1.00  0.00    -0.550 OA
ENDBRANCH   1  28
BRANCH   7  31
ATOM     31  C   UNL     1      96.818  87.327  86.270  1.00  0.00    -0.077 C 
ATOM     32  C   UNL     1      97.499  86.559  87.372  1.00  0.00     0.039 C 
ATOM     33  C   UNL     1      95.993  88.334  86.604  1.00  0.00     0.008 C 
ENDBRANCH   7  31
TORSDOF 2
ENDMDL
MODEL 9
REMARK VINA RESULT:    -6.421      3.663      5.856
REMARK INTER + INTRA:          -7.270
REMARK INTER:                  -7.130
REMARK INTRA:                  -0.140
REMARK UNBOUND:                -0.098
REMARK SMILES C=C(C)[C@@H]1CC[C@]2(C(=O)[O-])CC[C@]3(C)[C@@H](CC[C@H]4[C@]5(C)CCC(=O)C(C)(C)[C@H]5CC[C@]43C)[C@@H]12
REMARK SMILES IDX 7 1 6 2 33 3 11 4 5 5 15 6 4 7 12 8 16 9 13 10 17 11 31 12
REMARK SMILES IDX 14 13 18 14 30 15 32 16 19 17 29 18 21 19 20 20 28 21 22 22
REMARK SMILES IDX 25 23 23 24 26 25 27 26 24 27 8 28 9 29 10 30 2 31 3 32 1 33
REMARK H PARENT
REMARK Flexibility Score: inf
ROOT
ATOM      1  C   UNL     1      99.807  85.165  85.409  1.00  0.00     0.014 C 
ATOM      2  C   UNL     1     100.742  84.092  84.824  1.00  0.00     0.014 C 
ATOM      3  C   UNL     1      98.709  85.207  84.344  1.00  0.00     0.012 C 
ATOM      4  C   UNL     1      99.132  84.760  86.739  1.00  0.00     0.014 C 
ATOM      5  C   UNL     1     100.685  84.279  83.292  1.00  0.00     0.009 C 
ATOM      6  C   UNL     1      97.548  86.218  84.590  1.00  0.00     0.000 C 
ATOM      7  C   UNL     1      99.424  85.125  82.988  1.00  0.00     0.018 C 
ATOM      8  C   UNL     1      97.995  85.741  87.132  1.00  0.00     0.008 C 
ATOM      9  C   UNL     1      97.849  87.694  84.233  1.00  0.00     0.005 C 
ATOM     10  C   UNL     1      96.888  86.019  86.028  1.00  0.00    -0.024 C 
ATOM     11  C   UNL     1      98.057  88.575  85.457  1.00  0.00     0.005 C 
ATOM     12  C   UNL     1      95.964  87.308  86.403  1.00  0.00    -0.024 C 
ATOM     13  C   UNL     1      96.007  84.719  85.982  1.00  0.00     0.012 C 
ATOM     14  C   UNL     1      96.785  88.687  86.357  1.00  0.00     0.002 C 
ATOM     15  C   UNL     1      94.719  87.342  85.422  1.00  0.00     0.008 C 
ATOM     16  C   UNL     1      95.430  87.130  87.872  1.00  0.00     0.012 C 
ATOM     17  C   UNL     1      95.930  90.064  86.204  1.00  0.00    -0.025 C 
ATOM     18  C   UNL     1      94.197  88.707  84.961  1.00  0.00     0.006 C 
ATOM     19  C   UNL     1      96.040  90.885  87.517  1.00  0.00     0.015 C 
ATOM     20  C   UNL     1      96.475  90.966  85.047  1.00  0.00     0.012 C 
ATOM     21  C   UNL     1      94.401  89.780  86.025  1.00  0.00     0.008 C 
ATOM     22  C   UNL     1      95.290  92.229  87.477  1.00  0.00     0.077 C 
ATOM     23  C   UNL     1      93.455  91.043  85.895  1.00  0.00     0.027 C 
ATOM     24  C   UNL     1      94.007  92.243  86.670  1.00  0.00     0.138 C 
ATOM     25  C   UNL     1      92.073  90.712  86.522  1.00  0.00     0.020 C 
ATOM     26  C   UNL     1      93.189  91.442  84.413  1.00  0.00     0.020 C 
ATOM     27  O   UNL     1      93.379  93.293  86.649  1.00  0.00    -0.299 OA
ENDROOT
BRANCH   1  28
ATOM     28  C   UNL     1     100.628  86.444  85.573  1.00  0.00     0.048 C 
ATOM     29  O   UNL     1     100.960  86.844  86.721  1.00  0.00    -0.550 OA
ATOM     30  O   UNL     1     101.136  87.120  84.470  1.00  0.00    -0.550 OA
ENDBRANCH   1  28
BRANCH   7  31
ATOM     31  C   UNL     1      98.545  84.553  81.879  1.00  0.00    -0.077 C 
ATOM     32  C   UNL     1      98.089  85.443  80.752  1.00  0.00     0.039 C 
ATOM     33  C   UNL     1      98.139  83.271  81.889  1.00  0.00     0.008 C 
ENDBRANCH   7  31
TORSDOF 2
ENDMDL
