MODEL 1
REMARK VINA RESULT:    -6.736      0.000      0.000
REMARK INTER + INTRA:          -8.202
REMARK INTER:                  -7.917
REMARK INTRA:                  -0.285
REMARK UNBOUND:                -0.285
REMARK SMILES O=c1cc(-c2ccc(O)c(O)c2)oc2cc(O)cc(O)c12
REMARK SMILES IDX 4 1 3 2 2 3 1 4 21 5 19 6 18 7 16 8 15 9 14 10 13 11 5 12
REMARK SMILES IDX 6 13 7 14 8 15 12 16 10 17 9 18 11 20 20 22 17 24
REMARK H PARENT 9 19 11 21 20 23 17 25
REMARK Flexibility Score: inf
ROOT
ATOM      1  C   UNL     1       3.690   5.906  -0.442  1.00  0.00     0.138 A 
ATOM      2  C   UNL     1       3.517   4.596  -0.908  1.00  0.00     0.100 A 
ATOM      3  C   UNL     1       4.452   4.047  -1.787  1.00  0.00     0.197 A 
ATOM      4  O   UNL     1       4.237   2.892  -2.236  1.00  0.00    -0.289 OA
ATOM      5  C   UNL     1       5.583   4.804  -2.174  1.00  0.00     0.107 A 
ATOM      6  C   UNL     1       6.622   4.332  -3.032  1.00  0.00     0.134 A 
ATOM      7  C   UNL     1       7.633   5.212  -3.439  1.00  0.00     0.093 A 
ATOM      8  C   UNL     1       7.676   6.526  -2.973  1.00  0.00     0.123 A 
ATOM      9  C   UNL     1       6.695   6.981  -2.091  1.00  0.00     0.094 A 
ATOM     10  C   UNL     1       5.654   6.139  -1.693  1.00  0.00     0.146 A 
ATOM     11  O   UNL     1       4.731   6.616  -0.864  1.00  0.00    -0.456 OA
ENDROOT
BRANCH   1  12
ATOM     12  C   UNL     1       2.727   6.540   0.495  1.00  0.00     0.021 A 
ATOM     13  C   UNL     1       2.466   7.916   0.392  1.00  0.00     0.016 A 
ATOM     14  C   UNL     1       1.569   8.537   1.265  1.00  0.00     0.051 A 
ATOM     15  C   UNL     1       0.926   7.798   2.261  1.00  0.00     0.157 A 
ATOM     16  C   UNL     1       2.086   5.801   1.508  1.00  0.00     0.062 A 
ATOM     17  C   UNL     1       1.187   6.424   2.387  1.00  0.00     0.158 A 
BRANCH  15  18
ATOM     18  O   UNL     1       0.035   8.445   3.117  1.00  0.00    -0.504 OA
ATOM     19  H   UNL     1       0.345   8.918   3.958  1.00  0.00     0.293 HD
ENDBRANCH  15  18
BRANCH  17  20
ATOM     20  O   UNL     1       0.557   5.683   3.386  1.00  0.00    -0.504 OA
ATOM     21  H   UNL     1       1.037   5.429   4.242  1.00  0.00     0.293 HD
ENDBRANCH  17  20
ENDBRANCH   1  12
BRANCH   6  22
ATOM     22  O   UNL     1       6.720   3.015  -3.487  1.00  0.00    -0.507 OA
ATOM     23  H   UNL     1       7.456   2.663  -4.079  1.00  0.00     0.293 HD
ENDBRANCH   6  22
BRANCH   8  24
ATOM     24  O   UNL     1       8.705   7.369  -3.387  1.00  0.00    -0.508 OA
ATOM     25  H   UNL     1       8.695   8.360  -3.178  1.00  0.00     0.293 HD
ENDBRANCH   8  24
TORSDOF 5
ENDMDL
MODEL 2
REMARK VINA RESULT:    -6.464      1.496      2.919
REMARK INTER + INTRA:          -7.882
REMARK INTER:                  -7.618
REMARK INTRA:                  -0.264
REMARK UNBOUND:                -0.285
REMARK SMILES O=c1cc(-c2ccc(O)c(O)c2)oc2cc(O)cc(O)c12
REMARK SMILES IDX 4 1 3 2 2 3 1 4 21 5 19 6 18 7 16 8 15 9 14 10 13 11 5 12
REMARK SMILES IDX 6 13 7 14 8 15 12 16 10 17 9 18 11 20 20 22 17 24
REMARK H PARENT 9 19 11 21 20 23 17 25
REMARK Flexibility Score: inf
ROOT
ATOM      1  C   UNL     1       3.821   6.098  -0.409  1.00  0.00     0.138 A 
ATOM      2  C   UNL     1       4.198   7.390  -0.796  1.00  0.00     0.100 A 
ATOM      3  C   UNL     1       5.406   7.586  -1.466  1.00  0.00     0.197 A 
ATOM      4  O   UNL     1       5.746   8.764  -1.746  1.00  0.00    -0.289 OA
ATOM      5  C   UNL     1       6.225   6.475  -1.779  1.00  0.00     0.107 A 
ATOM      6  C   UNL     1       7.457   6.549  -2.495  1.00  0.00     0.134 A 
ATOM      7  C   UNL     1       8.239   5.396  -2.644  1.00  0.00     0.093 A 
ATOM      8  C   UNL     1       7.806   4.164  -2.156  1.00  0.00     0.123 A 
ATOM      9  C   UNL     1       6.577   4.069  -1.502  1.00  0.00     0.094 A 
ATOM     10  C   UNL     1       5.790   5.207  -1.307  1.00  0.00     0.146 A 
ATOM     11  O   UNL     1       4.633   5.078  -0.665  1.00  0.00    -0.456 OA
ENDROOT
BRANCH   1  12
ATOM     12  C   UNL     1       2.545   5.833   0.306  1.00  0.00     0.021 A 
ATOM     13  C   UNL     1       1.511   5.151  -0.356  1.00  0.00     0.016 A 
ATOM     14  C   UNL     1       0.300   4.895   0.292  1.00  0.00     0.051 A 
ATOM     15  C   UNL     1       0.097   5.324   1.606  1.00  0.00     0.157 A 
ATOM     16  C   UNL     1       2.332   6.275   1.626  1.00  0.00     0.062 A 
ATOM     17  C   UNL     1       1.115   6.021   2.277  1.00  0.00     0.158 A 
BRANCH  15  18
ATOM     18  O   UNL     1      -1.123   5.053   2.226  1.00  0.00    -0.504 OA
ATOM     19  H   UNL     1      -1.376   5.465   3.117  1.00  0.00     0.293 HD
ENDBRANCH  15  18
BRANCH  17  20
ATOM     20  O   UNL     1       0.914   6.461   3.583  1.00  0.00    -0.504 OA
ATOM     21  H   UNL     1       0.153   6.108   4.152  1.00  0.00     0.293 HD
ENDBRANCH  17  20
ENDBRANCH   1  12
BRANCH   6  22
ATOM     22  O   UNL     1       7.941   7.714  -3.097  1.00  0.00    -0.507 OA
ATOM     23  H   UNL     1       8.877   8.072  -2.988  1.00  0.00     0.293 HD
ENDBRANCH   6  22
BRANCH   8  24
ATOM     24  O   UNL     1       8.603   3.035  -2.335  1.00  0.00    -0.508 OA
ATOM     25  H   UNL     1       9.477   2.918  -1.836  1.00  0.00     0.293 HD
ENDBRANCH   8  24
TORSDOF 5
ENDMDL
MODEL 3
REMARK VINA RESULT:    -5.838      1.685      6.941
REMARK INTER + INTRA:          -7.147
REMARK INTER:                  -6.863
REMARK INTRA:                  -0.284
REMARK UNBOUND:                -0.285
REMARK SMILES O=c1cc(-c2ccc(O)c(O)c2)oc2cc(O)cc(O)c12
REMARK SMILES IDX 4 1 3 2 2 3 1 4 21 5 19 6 18 7 16 8 15 9 14 10 13 11 5 12
REMARK SMILES IDX 6 13 7 14 8 15 12 16 10 17 9 18 11 20 20 22 17 24
REMARK H PARENT 9 19 11 21 20 23 17 25
REMARK Flexibility Score: inf
ROOT
ATOM      1  C   UNL     1       3.998   5.670  -0.651  1.00  0.00     0.138 A 
ATOM      2  C   UNL     1       2.925   4.840  -1.002  1.00  0.00     0.100 A 
ATOM      3  C   UNL     1       1.660   5.084  -0.466  1.00  0.00     0.197 A 
ATOM      4  O   UNL     1       0.731   4.285  -0.750  1.00  0.00    -0.289 OA
ATOM      5  C   UNL     1       1.463   6.186   0.400  1.00  0.00     0.107 A 
ATOM      6  C   UNL     1       0.209   6.555   0.973  1.00  0.00     0.134 A 
ATOM      7  C   UNL     1       0.158   7.597   1.908  1.00  0.00     0.093 A 
ATOM      8  C   UNL     1       1.302   8.319   2.246  1.00  0.00     0.123 A 
ATOM      9  C   UNL     1       2.524   8.001   1.650  1.00  0.00     0.094 A 
ATOM     10  C   UNL     1       2.614   6.946   0.740  1.00  0.00     0.146 A 
ATOM     11  O   UNL     1       3.799   6.665   0.207  1.00  0.00    -0.456 OA
ENDROOT
BRANCH   1  12
ATOM     12  C   UNL     1       5.365   5.457  -1.193  1.00  0.00     0.021 A 
ATOM     13  C   UNL     1       5.970   4.195  -1.064  1.00  0.00     0.016 A 
ATOM     14  C   UNL     1       7.257   3.970  -1.559  1.00  0.00     0.051 A 
ATOM     15  C   UNL     1       7.965   5.002  -2.181  1.00  0.00     0.157 A 
ATOM     16  C   UNL     1       6.087   6.497  -1.809  1.00  0.00     0.062 A 
ATOM     17  C   UNL     1       7.381   6.273  -2.304  1.00  0.00     0.158 A 
BRANCH  15  18
ATOM     18  O   UNL     1       9.248   4.747  -2.666  1.00  0.00    -0.504 OA
ATOM     19  H   UNL     1       9.982   4.375  -2.075  1.00  0.00     0.293 HD
ENDBRANCH  15  18
BRANCH  17  20
ATOM     20  O   UNL     1       8.087   7.308  -2.914  1.00  0.00    -0.504 OA
ATOM     21  H   UNL     1       8.803   7.827  -2.418  1.00  0.00     0.293 HD
ENDBRANCH  17  20
ENDBRANCH   1  12
BRANCH   6  22
ATOM     22  O   UNL     1      -1.009   5.955   0.641  1.00  0.00    -0.507 OA
ATOM     23  H   UNL     1      -1.592   6.225  -0.136  1.00  0.00     0.293 HD
ENDBRANCH   6  22
BRANCH   8  24
ATOM     24  O   UNL     1       1.211   9.358   3.169  1.00  0.00    -0.508 OA
ATOM     25  H   UNL     1       1.233  10.329   2.879  1.00  0.00     0.293 HD
ENDBRANCH   8  24
TORSDOF 5
ENDMDL
MODEL 4
REMARK VINA RESULT:    -5.730      1.443      7.372
REMARK INTER + INTRA:          -7.020
REMARK INTER:                  -6.738
REMARK INTRA:                  -0.282
REMARK UNBOUND:                -0.285
REMARK SMILES O=c1cc(-c2ccc(O)c(O)c2)oc2cc(O)cc(O)c12
REMARK SMILES IDX 4 1 3 2 2 3 1 4 21 5 19 6 18 7 16 8 15 9 14 10 13 11 5 12
REMARK SMILES IDX 6 13 7 14 8 15 12 16 10 17 9 18 11 20 20 22 17 24
REMARK H PARENT 9 19 11 21 20 23 17 25
REMARK Flexibility Score: inf
ROOT
ATOM      1  C   UNL     1       4.687   5.955  -0.971  1.00  0.00     0.138 A 
ATOM      2  C   UNL     1       4.552   7.342  -1.122  1.00  0.00     0.100 A 
ATOM      3  C   UNL     1       3.586   8.025  -0.383  1.00  0.00     0.197 A 
ATOM      4  O   UNL     1       3.446   9.259  -0.585  1.00  0.00    -0.289 OA
ATOM      5  C   UNL     1       2.772   7.320   0.536  1.00  0.00     0.107 A 
ATOM      6  C   UNL     1       1.783   7.918   1.372  1.00  0.00     0.134 A 
ATOM      7  C   UNL     1       0.959   7.102   2.158  1.00  0.00     0.093 A 
ATOM      8  C   UNL     1       1.127   5.719   2.183  1.00  0.00     0.123 A 
ATOM      9  C   UNL     1       2.128   5.128   1.410  1.00  0.00     0.094 A 
ATOM     10  C   UNL     1       2.944   5.910   0.589  1.00  0.00     0.146 A 
ATOM     11  O   UNL     1       3.875   5.307  -0.143  1.00  0.00    -0.456 OA
ENDROOT
BRANCH   1  12
ATOM     12  C   UNL     1       5.700   5.178  -1.731  1.00  0.00     0.021 A 
ATOM     13  C   UNL     1       5.361   3.912  -2.239  1.00  0.00     0.016 A 
ATOM     14  C   UNL     1       6.297   3.159  -2.952  1.00  0.00     0.051 A 
ATOM     15  C   UNL     1       7.588   3.651  -3.161  1.00  0.00     0.157 A 
ATOM     16  C   UNL     1       7.006   5.664  -1.934  1.00  0.00     0.062 A 
ATOM     17  C   UNL     1       7.947   4.907  -2.648  1.00  0.00     0.158 A 
BRANCH  15  18
ATOM     18  O   UNL     1       8.501   2.876  -3.878  1.00  0.00    -0.504 OA
ATOM     19  H   UNL     1       8.714   3.059  -4.851  1.00  0.00     0.293 HD
ENDBRANCH  15  18
BRANCH  17  20
ATOM     20  O   UNL     1       9.237   5.398  -2.844  1.00  0.00    -0.504 OA
ATOM     21  H   UNL     1       9.417   6.388  -2.962  1.00  0.00     0.293 HD
ENDBRANCH  17  20
ENDBRANCH   1  12
BRANCH   6  22
ATOM     22  O   UNL     1       1.588   9.298   1.487  1.00  0.00    -0.507 OA
ATOM     23  H   UNL     1       0.704   9.740   1.680  1.00  0.00     0.293 HD
ENDBRANCH   6  22
BRANCH   8  24
ATOM     24  O   UNL     1       0.299   4.940   2.988  1.00  0.00    -0.508 OA
ATOM     25  H   UNL     1      -0.154   4.105   2.633  1.00  0.00     0.293 HD
ENDBRANCH   8  24
TORSDOF 5
ENDMDL
MODEL 5
REMARK VINA RESULT:    -5.554      1.685      2.269
REMARK INTER + INTRA:          -6.813
REMARK INTER:                  -6.531
REMARK INTRA:                  -0.283
REMARK UNBOUND:                -0.285
REMARK SMILES O=c1cc(-c2ccc(O)c(O)c2)oc2cc(O)cc(O)c12
REMARK SMILES IDX 4 1 3 2 2 3 1 4 21 5 19 6 18 7 16 8 15 9 14 10 13 11 5 12
REMARK SMILES IDX 6 13 7 14 8 15 12 16 10 17 9 18 11 20 20 22 17 24
REMARK H PARENT 9 19 11 21 20 23 17 25
REMARK Flexibility Score: inf
ROOT
ATOM      1  C   UNL     1       4.894   5.435  -0.799  1.00  0.00     0.138 A 
ATOM      2  C   UNL     1       5.559   4.246  -0.473  1.00  0.00     0.100 A 
ATOM      3  C   UNL     1       6.810   3.980  -1.030  1.00  0.00     0.197 A 
ATOM      4  O   UNL     1       7.355   2.877  -0.768  1.00  0.00    -0.289 OA
ATOM      5  C   UNL     1       7.412   4.926  -1.894  1.00  0.00     0.107 A 
ATOM      6  C   UNL     1       8.701   4.780  -2.489  1.00  0.00     0.134 A 
ATOM      7  C   UNL     1       9.143   5.730  -3.420  1.00  0.00     0.093 A 
ATOM      8  C   UNL     1       8.370   6.847  -3.732  1.00  0.00     0.123 A 
ATOM      9  C   UNL     1       7.131   7.028  -3.115  1.00  0.00     0.094 A 
ATOM     10  C   UNL     1       6.647   6.081  -2.208  1.00  0.00     0.146 A 
ATOM     11  O   UNL     1       5.455   6.283  -1.655  1.00  0.00    -0.456 OA
ENDROOT
BRANCH   1  12
ATOM     12  C   UNL     1       3.562   5.770  -0.233  1.00  0.00     0.021 A 
ATOM     13  C   UNL     1       2.500   4.861  -0.382  1.00  0.00     0.016 A 
ATOM     14  C   UNL     1       1.236   5.154   0.136  1.00  0.00     0.051 A 
ATOM     15  C   UNL     1       1.007   6.362   0.801  1.00  0.00     0.157 A 
ATOM     16  C   UNL     1       3.323   6.991   0.427  1.00  0.00     0.062 A 
ATOM     17  C   UNL     1       2.053   7.287   0.945  1.00  0.00     0.158 A 
BRANCH  15  18
ATOM     18  O   UNL     1      -0.265   6.626   1.307  1.00  0.00    -0.504 OA
ATOM     19  H   UNL     1      -0.456   6.640   2.302  1.00  0.00     0.293 HD
ENDBRANCH  15  18
BRANCH  17  20
ATOM     20  O   UNL     1       1.828   8.498   1.597  1.00  0.00    -0.504 OA
ATOM     21  H   UNL     1       2.544   9.214   1.652  1.00  0.00     0.293 HD
ENDBRANCH  17  20
ENDBRANCH   1  12
BRANCH   6  22
ATOM     22  O   UNL     1       9.589   3.746  -2.183  1.00  0.00    -0.507 OA
ATOM     23  H   UNL     1      10.151   3.697  -1.348  1.00  0.00     0.293 HD
ENDBRANCH   6  22
BRANCH   8  24
ATOM     24  O   UNL     1       8.848   7.778  -4.651  1.00  0.00    -0.508 OA
ATOM     25  H   UNL     1       8.274   8.549  -4.972  1.00  0.00     0.293 HD
ENDBRANCH   8  24
TORSDOF 5
ENDMDL
MODEL 6
REMARK VINA RESULT:    -5.521      2.863      5.232
REMARK INTER + INTRA:          -6.775
REMARK INTER:                  -6.504
REMARK INTRA:                  -0.271
REMARK UNBOUND:                -0.285
REMARK SMILES O=c1cc(-c2ccc(O)c(O)c2)oc2cc(O)cc(O)c12
REMARK SMILES IDX 4 1 3 2 2 3 1 4 21 5 19 6 18 7 16 8 15 9 14 10 13 11 5 12
REMARK SMILES IDX 6 13 7 14 8 15 12 16 10 17 9 18 11 20 20 22 17 24
REMARK H PARENT 9 19 11 21 20 23 17 25
REMARK Flexibility Score: inf
ROOT
ATOM      1  C   UNL     1       7.626   5.701  -2.392  1.00  0.00     0.138 A 
ATOM      2  C   UNL     1       7.918   5.978  -3.734  1.00  0.00     0.100 A 
ATOM      3  C   UNL     1       9.240   6.200  -4.121  1.00  0.00     0.197 A 
ATOM      4  O   UNL     1       9.464   6.508  -5.320  1.00  0.00    -0.289 OA
ATOM      5  C   UNL     1      10.278   6.113  -3.163  1.00  0.00     0.107 A 
ATOM      6  C   UNL     1      11.666   6.280  -3.450  1.00  0.00     0.134 A 
ATOM      7  C   UNL     1      12.592   6.287  -2.399  1.00  0.00     0.093 A 
ATOM      8  C   UNL     1      12.189   6.073  -1.082  1.00  0.00     0.123 A 
ATOM      9  C   UNL     1      10.841   5.854  -0.796  1.00  0.00     0.094 A 
ATOM     10  C   UNL     1       9.888   5.876  -1.818  1.00  0.00     0.146 A 
ATOM     11  O   UNL     1       8.612   5.678  -1.501  1.00  0.00    -0.456 OA
ENDROOT
BRANCH   1  12
ATOM     12  C   UNL     1       6.237   5.455  -1.925  1.00  0.00     0.021 A 
ATOM     13  C   UNL     1       5.595   4.254  -2.271  1.00  0.00     0.016 A 
ATOM     14  C   UNL     1       4.287   4.001  -1.850  1.00  0.00     0.051 A 
ATOM     15  C   UNL     1       3.594   4.945  -1.088  1.00  0.00     0.157 A 
ATOM     16  C   UNL     1       5.531   6.409  -1.168  1.00  0.00     0.062 A 
ATOM     17  C   UNL     1       4.216   6.157  -0.747  1.00  0.00     0.158 A 
BRANCH  15  18
ATOM     18  O   UNL     1       2.290   4.664  -0.682  1.00  0.00    -0.504 OA
ATOM     19  H   UNL     1       1.955   4.891   0.246  1.00  0.00     0.293 HD
ENDBRANCH  15  18
BRANCH  17  20
ATOM     20  O   UNL     1       3.527   7.108   0.004  1.00  0.00    -0.504 OA
ATOM     21  H   UNL     1       2.536   7.276  -0.133  1.00  0.00     0.293 HD
ENDBRANCH  17  20
ENDBRANCH   1  12
BRANCH   6  22
ATOM     22  O   UNL     1      12.185   6.417  -4.741  1.00  0.00    -0.507 OA
ATOM     23  H   UNL     1      12.491   7.285  -5.150  1.00  0.00     0.293 HD
ENDBRANCH   6  22
BRANCH   8  24
ATOM     24  O   UNL     1      13.140   6.071  -0.064  1.00  0.00    -0.508 OA
ATOM     25  H   UNL     1      13.223   6.845   0.586  1.00  0.00     0.293 HD
ENDBRANCH   8  24
TORSDOF 5
ENDMDL
MODEL 7
REMARK VINA RESULT:    -5.516      2.222      3.415
REMARK INTER + INTRA:          -6.768
REMARK INTER:                  -6.494
REMARK INTRA:                  -0.273
REMARK UNBOUND:                -0.285
REMARK SMILES O=c1cc(-c2ccc(O)c(O)c2)oc2cc(O)cc(O)c12
REMARK SMILES IDX 4 1 3 2 2 3 1 4 21 5 19 6 18 7 16 8 15 9 14 10 13 11 5 12
REMARK SMILES IDX 6 13 7 14 8 15 12 16 10 17 9 18 11 20 20 22 17 24
REMARK H PARENT 9 19 11 21 20 23 17 25
REMARK Flexibility Score: inf
ROOT
ATOM      1  C   UNL     1       6.542   5.661  -2.191  1.00  0.00     0.138 A 
ATOM      2  C   UNL     1       6.316   4.537  -2.997  1.00  0.00     0.100 A 
ATOM      3  C   UNL     1       7.368   3.993  -3.735  1.00  0.00     0.197 A 
ATOM      4  O   UNL     1       7.121   3.023  -4.497  1.00  0.00    -0.289 OA
ATOM      5  C   UNL     1       8.661   4.560  -3.639  1.00  0.00     0.107 A 
ATOM      6  C   UNL     1       9.818   4.065  -4.313  1.00  0.00     0.134 A 
ATOM      7  C   UNL     1      11.021   4.778  -4.233  1.00  0.00     0.093 A 
ATOM      8  C   UNL     1      11.125   5.932  -3.457  1.00  0.00     0.123 A 
ATOM      9  C   UNL     1      10.014   6.395  -2.750  1.00  0.00     0.094 A 
ATOM     10  C   UNL     1       8.791   5.725  -2.837  1.00  0.00     0.146 A 
ATOM     11  O   UNL     1       7.753   6.207  -2.160  1.00  0.00    -0.456 OA
ENDROOT
BRANCH   1  12
ATOM     12  C   UNL     1       5.459   6.279  -1.384  1.00  0.00     0.021 A 
ATOM     13  C   UNL     1       5.224   7.660  -1.485  1.00  0.00     0.016 A 
ATOM     14  C   UNL     1       4.215   8.267  -0.733  1.00  0.00     0.051 A 
ATOM     15  C   UNL     1       3.432   7.508   0.140  1.00  0.00     0.157 A 
ATOM     16  C   UNL     1       4.675   5.520  -0.493  1.00  0.00     0.062 A 
ATOM     17  C   UNL     1       3.663   6.129   0.265  1.00  0.00     0.158 A 
BRANCH  15  18
ATOM     18  O   UNL     1       2.432   8.142   0.878  1.00  0.00    -0.504 OA
ATOM     19  H   UNL     1       1.797   8.811   0.459  1.00  0.00     0.293 HD
ENDBRANCH  15  18
BRANCH  17  20
ATOM     20  O   UNL     1       2.893   5.369   1.143  1.00  0.00    -0.504 OA
ATOM     21  H   UNL     1       2.278   4.634   0.811  1.00  0.00     0.293 HD
ENDBRANCH  17  20
ENDBRANCH   1  12
BRANCH   6  22
ATOM     22  O   UNL     1       9.845   2.875  -5.046  1.00  0.00    -0.507 OA
ATOM     23  H   UNL     1       9.864   2.818  -6.052  1.00  0.00     0.293 HD
ENDBRANCH   6  22
BRANCH   8  24
ATOM     24  O   UNL     1      12.342   6.607  -3.389  1.00  0.00    -0.508 OA
ATOM     25  H   UNL     1      12.424   7.580  -3.660  1.00  0.00     0.293 HD
ENDBRANCH   8  24
TORSDOF 5
ENDMDL
MODEL 8
REMARK VINA RESULT:    -5.331      1.590      7.023
REMARK INTER + INTRA:          -6.550
REMARK INTER:                  -6.264
REMARK INTRA:                  -0.287
REMARK UNBOUND:                -0.285
REMARK SMILES O=c1cc(-c2ccc(O)c(O)c2)oc2cc(O)cc(O)c12
REMARK SMILES IDX 4 1 3 2 2 3 1 4 21 5 19 6 18 7 16 8 15 9 14 10 13 11 5 12
REMARK SMILES IDX 6 13 7 14 8 15 12 16 10 17 9 18 11 20 20 22 17 24
REMARK H PARENT 9 19 11 21 20 23 17 25
REMARK Flexibility Score: inf
ROOT
ATOM      1  C   UNL     1       5.091   5.769  -0.936  1.00  0.00     0.138 A 
ATOM      2  C   UNL     1       4.924   4.761   0.022  1.00  0.00     0.100 A 
ATOM      3  C   UNL     1       3.934   4.892   0.998  1.00  0.00     0.197 A 
ATOM      4  O   UNL     1       3.849   4.001   1.881  1.00  0.00    -0.289 OA
ATOM      5  C   UNL     1       3.087   6.026   0.992  1.00  0.00     0.107 A 
ATOM      6  C   UNL     1       2.018   6.246   1.912  1.00  0.00     0.134 A 
ATOM      7  C   UNL     1       1.321   7.461   1.881  1.00  0.00     0.093 A 
ATOM      8  C   UNL     1       1.614   8.436   0.928  1.00  0.00     0.123 A 
ATOM      9  C   UNL     1       2.621   8.208  -0.010  1.00  0.00     0.094 A 
ATOM     10  C   UNL     1       3.358   7.021   0.015  1.00  0.00     0.146 A 
ATOM     11  O   UNL     1       4.319   6.849  -0.886  1.00  0.00    -0.456 OA
ENDROOT
BRANCH   1  12
ATOM     12  C   UNL     1       6.128   5.680  -1.996  1.00  0.00     0.021 A 
ATOM     13  C   UNL     1       6.219   4.516  -2.777  1.00  0.00     0.016 A 
ATOM     14  C   UNL     1       7.188   4.404  -3.777  1.00  0.00     0.051 A 
ATOM     15  C   UNL     1       8.090   5.447  -4.007  1.00  0.00     0.157 A 
ATOM     16  C   UNL     1       7.046   6.723  -2.223  1.00  0.00     0.062 A 
ATOM     17  C   UNL     1       8.022   6.612  -3.225  1.00  0.00     0.158 A 
BRANCH  15  18
ATOM     18  O   UNL     1       9.046   5.307  -5.012  1.00  0.00    -0.504 OA
ATOM     19  H   UNL     1       9.606   4.468  -5.108  1.00  0.00     0.293 HD
ENDBRANCH  15  18
BRANCH  17  20
ATOM     20  O   UNL     1       8.925   7.650  -3.442  1.00  0.00    -0.504 OA
ATOM     21  H   UNL     1       9.803   7.706  -2.938  1.00  0.00     0.293 HD
ENDBRANCH  17  20
ENDBRANCH   1  12
BRANCH   6  22
ATOM     22  O   UNL     1       1.588   5.303   2.849  1.00  0.00    -0.507 OA
ATOM     23  H   UNL     1       2.153   4.934   3.597  1.00  0.00     0.293 HD
ENDBRANCH   6  22
BRANCH   8  24
ATOM     24  O   UNL     1       0.890   9.626   0.918  1.00  0.00    -0.508 OA
ATOM     25  H   UNL     1       1.262  10.476   1.326  1.00  0.00     0.293 HD
ENDBRANCH   8  24
TORSDOF 5
ENDMDL
MODEL 9
REMARK VINA RESULT:    -5.254      2.495      4.005
REMARK INTER + INTRA:          -6.460
REMARK INTER:                  -6.170
REMARK INTRA:                  -0.289
REMARK UNBOUND:                -0.285
REMARK SMILES O=c1cc(-c2ccc(O)c(O)c2)oc2cc(O)cc(O)c12
REMARK SMILES IDX 4 1 3 2 2 3 1 4 21 5 19 6 18 7 16 8 15 9 14 10 13 11 5 12
REMARK SMILES IDX 6 13 7 14 8 15 12 16 10 17 9 18 11 20 20 22 17 24
REMARK H PARENT 9 19 11 21 20 23 17 25
REMARK Flexibility Score: inf
ROOT
ATOM      1  C   UNL     1       7.090   6.127  -2.258  1.00  0.00     0.138 A 
ATOM      2  C   UNL     1       7.788   4.974  -1.874  1.00  0.00     0.100 A 
ATOM      3  C   UNL     1       8.901   4.565  -2.608  1.00  0.00     0.197 A 
ATOM      4  O   UNL     1       9.470   3.493  -2.277  1.00  0.00    -0.289 OA
ATOM      5  C   UNL     1       9.336   5.334  -3.714  1.00  0.00     0.107 A 
ATOM      6  C   UNL     1      10.482   5.035  -4.511  1.00  0.00     0.134 A 
ATOM      7  C   UNL     1      10.747   5.804  -5.652  1.00  0.00     0.093 A 
ATOM      8  C   UNL     1       9.945   6.892  -5.991  1.00  0.00     0.123 A 
ATOM      9  C   UNL     1       8.853   7.226  -5.188  1.00  0.00     0.094 A 
ATOM     10  C   UNL     1       8.542   6.459  -4.062  1.00  0.00     0.146 A 
ATOM     11  O   UNL     1       7.485   6.801  -3.332  1.00  0.00    -0.456 OA
ENDROOT
BRANCH   1  12
ATOM     12  C   UNL     1       5.899   6.608  -1.511  1.00  0.00     0.021 A 
ATOM     13  C   UNL     1       5.569   7.974  -1.542  1.00  0.00     0.016 A 
ATOM     14  C   UNL     1       4.458   8.453  -0.844  1.00  0.00     0.051 A 
ATOM     15  C   UNL     1       3.664   7.580  -0.094  1.00  0.00     0.157 A 
ATOM     16  C   UNL     1       5.103   5.735  -0.744  1.00  0.00     0.062 A 
ATOM     17  C   UNL     1       3.989   6.215  -0.040  1.00  0.00     0.158 A 
BRANCH  15  18
ATOM     18  O   UNL     1       2.561   8.088   0.592  1.00  0.00    -0.504 OA
ATOM     19  H   UNL     1       1.887   7.484   1.048  1.00  0.00     0.293 HD
ENDBRANCH  15  18
BRANCH  17  20
ATOM     20  O   UNL     1       3.207   5.342   0.715  1.00  0.00    -0.504 OA
ATOM     21  H   UNL     1       2.229   5.186   0.503  1.00  0.00     0.293 HD
ENDBRANCH  17  20
ENDBRANCH   1  12
BRANCH   6  22
ATOM     22  O   UNL     1      11.397   4.022  -4.214  1.00  0.00    -0.507 OA
ATOM     23  H   UNL     1      12.180   4.118  -3.587  1.00  0.00     0.293 HD
ENDBRANCH   6  22
BRANCH   8  24
ATOM     24  O   UNL     1      10.247   7.643  -7.125  1.00  0.00    -0.508 OA
ATOM     25  H   UNL     1       9.749   8.498  -7.344  1.00  0.00     0.293 HD
ENDBRANCH   8  24
TORSDOF 5
ENDMDL
