MODEL 1
REMARK VINA RESULT:    -4.548      0.000      0.000
REMARK INTER + INTRA:          -5.259
REMARK INTER:                  -5.212
REMARK INTRA:                  -0.047
REMARK UNBOUND:                -0.047
REMARK SMILES O=C([O-])c1cc(O)c(O)c(O)c1
REMARK SMILES IDX 4 1 5 2 12 3 6 4 10 5 8 6 2 7 1 8 3 9 7 10 11 12 9 14
REMARK H PARENT 7 11 11 13 9 15
REMARK Flexibility Score: inf
ROOT
ATOM      1  C   UNL     1      -2.503   0.756  -6.180  1.00  0.00     0.005 A 
ATOM      2  C   UNL     1      -2.680   1.952  -6.897  1.00  0.00     0.060 A 
ATOM      3  C   UNL     1      -3.120   0.616  -4.926  1.00  0.00     0.060 A 
ATOM      4  C   UNL     1      -3.458   2.990  -6.374  1.00  0.00     0.162 A 
ATOM      5  C   UNL     1      -3.901   1.651  -4.395  1.00  0.00     0.162 A 
ATOM      6  C   UNL     1      -4.073   2.843  -5.119  1.00  0.00     0.200 A 
ENDROOT
BRANCH   1   7
ATOM      7  C   UNL     1      -1.680  -0.341  -6.735  1.00  0.00     0.072 C 
ATOM      8  O   UNL     1      -2.157  -1.500  -6.861  1.00  0.00    -0.545 OA
ATOM      9  O   UNL     1      -0.366  -0.109  -7.125  1.00  0.00    -0.545 OA
ENDBRANCH   1   7
BRANCH   4  10
ATOM     10  O   UNL     1      -3.609   4.161  -7.117  1.00  0.00    -0.504 OA
ATOM     11  H   UNL     1      -3.103   5.010  -6.894  1.00  0.00     0.293 HD
ENDBRANCH   4  10
BRANCH   5  12
ATOM     12  O   UNL     1      -4.508   1.499  -3.149  1.00  0.00    -0.504 OA
ATOM     13  H   UNL     1      -5.454   1.147  -3.058  1.00  0.00     0.293 HD
ENDBRANCH   5  12
BRANCH   6  14
ATOM     14  O   UNL     1      -4.847   3.884  -4.604  1.00  0.00    -0.502 OA
ATOM     15  H   UNL     1      -4.826   4.139  -3.624  1.00  0.00     0.293 HD
ENDBRANCH   6  14
TORSDOF 4
ENDMDL
MODEL 2
REMARK VINA RESULT:    -4.036     20.277     21.531
REMARK INTER + INTRA:          -4.673
REMARK INTER:                  -4.627
REMARK INTRA:                  -0.045
REMARK UNBOUND:                -0.047
REMARK SMILES O=C([O-])c1cc(O)c(O)c(O)c1
REMARK SMILES IDX 4 1 5 2 12 3 6 4 10 5 8 6 2 7 1 8 3 9 7 10 11 12 9 14
REMARK H PARENT 7 11 11 13 9 15
REMARK Flexibility Score: inf
ROOT
ATOM      1  C   UNL     1      10.547  -8.309   6.227  1.00  0.00     0.005 A 
ATOM      2  C   UNL     1      11.669  -7.463   6.274  1.00  0.00     0.060 A 
ATOM      3  C   UNL     1      10.016  -8.803   7.430  1.00  0.00     0.060 A 
ATOM      4  C   UNL     1      12.251  -7.115   7.497  1.00  0.00     0.162 A 
ATOM      5  C   UNL     1      10.593  -8.459   8.660  1.00  0.00     0.162 A 
ATOM      6  C   UNL     1      11.715  -7.613   8.697  1.00  0.00     0.200 A 
ENDROOT
BRANCH   1   7
ATOM      7  C   UNL     1       9.932  -8.676   4.932  1.00  0.00     0.072 C 
ATOM      8  O   UNL     1       8.814  -8.203   4.597  1.00  0.00    -0.545 OA
ATOM      9  O   UNL     1      10.580  -9.549   4.067  1.00  0.00    -0.545 OA
ENDBRANCH   1   7
BRANCH   4  10
ATOM     10  O   UNL     1      13.364  -6.274   7.501  1.00  0.00    -0.504 OA
ATOM     11  H   UNL     1      13.538  -5.613   8.249  1.00  0.00     0.293 HD
ENDBRANCH   4  10
BRANCH   5  12
ATOM     12  O   UNL     1      10.056  -8.956   9.847  1.00  0.00    -0.504 OA
ATOM     13  H   UNL     1      10.460  -8.730  10.748  1.00  0.00     0.293 HD
ENDBRANCH   5  12
BRANCH   6  14
ATOM     14  O   UNL     1      12.302  -7.261   9.913  1.00  0.00    -0.502 OA
ATOM     15  H   UNL     1      12.788  -6.381  10.044  1.00  0.00     0.293 HD
ENDBRANCH   6  14
TORSDOF 4
ENDMDL
MODEL 3
REMARK VINA RESULT:    -4.026     20.270     21.633
REMARK INTER + INTRA:          -4.662
REMARK INTER:                  -4.616
REMARK INTRA:                  -0.045
REMARK UNBOUND:                -0.047
REMARK SMILES O=C([O-])c1cc(O)c(O)c(O)c1
REMARK SMILES IDX 4 1 5 2 12 3 6 4 10 5 8 6 2 7 1 8 3 9 7 10 11 12 9 14
REMARK H PARENT 7 11 11 13 9 15
REMARK Flexibility Score: inf
ROOT
ATOM      1  C   UNL     1      10.542  -8.292   6.236  1.00  0.00     0.005 A 
ATOM      2  C   UNL     1      10.010  -8.779   7.443  1.00  0.00     0.060 A 
ATOM      3  C   UNL     1      11.662  -7.445   6.278  1.00  0.00     0.060 A 
ATOM      4  C   UNL     1      10.585  -8.429   8.669  1.00  0.00     0.162 A 
ATOM      5  C   UNL     1      12.244  -7.090   7.502  1.00  0.00     0.162 A 
ATOM      6  C   UNL     1      11.705  -7.582   8.704  1.00  0.00     0.200 A 
ENDROOT
BRANCH   1   7
ATOM      7  C   UNL     1       9.933  -8.662   4.940  1.00  0.00     0.072 C 
ATOM      8  O   UNL     1       8.806  -8.206   4.608  1.00  0.00    -0.545 OA
ATOM      9  O   UNL     1      10.595  -9.519   4.069  1.00  0.00    -0.545 OA
ENDBRANCH   1   7
BRANCH   4  10
ATOM     10  O   UNL     1      10.028  -8.934   9.844  1.00  0.00    -0.504 OA
ATOM     11  H   UNL     1       9.712  -9.893   9.923  1.00  0.00     0.293 HD
ENDBRANCH   4  10
BRANCH   5  12
ATOM     12  O   UNL     1      13.356  -6.249   7.530  1.00  0.00    -0.504 OA
ATOM     13  H   UNL     1      13.932  -6.104   6.710  1.00  0.00     0.293 HD
ENDBRANCH   5  12
BRANCH   6  14
ATOM     14  O   UNL     1      12.273  -7.239   9.931  1.00  0.00    -0.502 OA
ATOM     15  H   UNL     1      12.500  -7.932  10.635  1.00  0.00     0.293 HD
ENDBRANCH   6  14
TORSDOF 4
ENDMDL
MODEL 4
REMARK VINA RESULT:    -4.006      0.081      2.430
REMARK INTER + INTRA:          -4.639
REMARK INTER:                  -4.592
REMARK INTRA:                  -0.047
REMARK UNBOUND:                -0.047
REMARK SMILES O=C([O-])c1cc(O)c(O)c(O)c1
REMARK SMILES IDX 4 1 5 2 12 3 6 4 10 5 8 6 2 7 1 8 3 9 7 10 11 12 9 14
REMARK H PARENT 7 11 11 13 9 15
REMARK Flexibility Score: inf
ROOT
ATOM      1  C   UNL     1      -2.534   0.806  -6.191  1.00  0.00     0.005 A 
ATOM      2  C   UNL     1      -3.132   0.664  -4.927  1.00  0.00     0.060 A 
ATOM      3  C   UNL     1      -2.749   1.989  -6.918  1.00  0.00     0.060 A 
ATOM      4  C   UNL     1      -3.931   1.682  -4.396  1.00  0.00     0.162 A 
ATOM      5  C   UNL     1      -3.548   3.013  -6.393  1.00  0.00     0.162 A 
ATOM      6  C   UNL     1      -4.142   2.862  -5.128  1.00  0.00     0.200 A 
ENDROOT
BRANCH   1   7
ATOM      7  C   UNL     1      -1.689  -0.272  -6.751  1.00  0.00     0.072 C 
ATOM      8  O   UNL     1      -2.148  -1.436  -6.896  1.00  0.00    -0.545 OA
ATOM      9  O   UNL     1      -0.375  -0.016  -7.125  1.00  0.00    -0.545 OA
ENDBRANCH   1   7
BRANCH   4  10
ATOM     10  O   UNL     1      -4.507   1.503  -3.138  1.00  0.00    -0.504 OA
ATOM     11  H   UNL     1      -5.471   1.747  -2.947  1.00  0.00     0.293 HD
ENDBRANCH   4  10
BRANCH   5  12
ATOM     12  O   UNL     1      -3.755   4.182  -7.125  1.00  0.00    -0.504 OA
ATOM     13  H   UNL     1      -3.144   4.445  -7.889  1.00  0.00     0.293 HD
ENDBRANCH   5  12
BRANCH   6  14
ATOM     14  O   UNL     1      -4.941   3.873  -4.591  1.00  0.00    -0.502 OA
ATOM     15  H   UNL     1      -5.656   3.687  -3.897  1.00  0.00     0.293 HD
ENDBRANCH   6  14
TORSDOF 4
ENDMDL
MODEL 5
REMARK VINA RESULT:    -3.798     20.691     21.951
REMARK INTER + INTRA:          -4.400
REMARK INTER:                  -4.349
REMARK INTRA:                  -0.051
REMARK UNBOUND:                -0.047
REMARK SMILES O=C([O-])c1cc(O)c(O)c(O)c1
REMARK SMILES IDX 4 1 5 2 12 3 6 4 10 5 8 6 2 7 1 8 3 9 7 10 11 12 9 14
REMARK H PARENT 7 11 11 13 9 15
REMARK Flexibility Score: inf
ROOT
ATOM      1  C   UNL     1      11.834  -7.007   8.067  1.00  0.00     0.005 A 
ATOM      2  C   UNL     1      11.730  -7.321   6.701  1.00  0.00     0.060 A 
ATOM      3  C   UNL     1      10.990  -7.658   8.982  1.00  0.00     0.060 A 
ATOM      4  C   UNL     1      10.801  -8.267   6.254  1.00  0.00     0.162 A 
ATOM      5  C   UNL     1      10.057  -8.607   8.543  1.00  0.00     0.162 A 
ATOM      6  C   UNL     1       9.960  -8.914   7.174  1.00  0.00     0.200 A 
ENDROOT
BRANCH   1   7
ATOM      7  C   UNL     1      12.817  -6.006   8.538  1.00  0.00     0.072 C 
ATOM      8  O   UNL     1      13.882  -5.803   7.897  1.00  0.00    -0.545 OA
ATOM      9  O   UNL     1      12.578  -5.275   9.696  1.00  0.00    -0.545 OA
ENDBRANCH   1   7
BRANCH   4  10
ATOM     10  O   UNL     1      10.729  -8.550   4.890  1.00  0.00    -0.504 OA
ATOM     11  H   UNL     1      11.380  -8.154   4.222  1.00  0.00     0.293 HD
ENDBRANCH   4  10
BRANCH   5  12
ATOM     12  O   UNL     1       9.225  -9.246   9.461  1.00  0.00    -0.504 OA
ATOM     13  H   UNL     1       8.257  -9.451   9.247  1.00  0.00     0.293 HD
ENDBRANCH   5  12
BRANCH   6  14
ATOM     14  O   UNL     1       9.037  -9.857   6.720  1.00  0.00    -0.502 OA
ATOM     15  H   UNL     1       8.665 -10.582   7.322  1.00  0.00     0.293 HD
ENDBRANCH   6  14
TORSDOF 4
ENDMDL
MODEL 6
REMARK VINA RESULT:    -3.739      1.908      4.369
REMARK INTER + INTRA:          -4.333
REMARK INTER:                  -4.280
REMARK INTRA:                  -0.053
REMARK UNBOUND:                -0.047
REMARK SMILES O=C([O-])c1cc(O)c(O)c(O)c1
REMARK SMILES IDX 4 1 5 2 12 3 6 4 10 5 8 6 2 7 1 8 3 9 7 10 11 12 9 14
REMARK H PARENT 7 11 11 13 9 15
REMARK Flexibility Score: inf
ROOT
ATOM      1  C   UNL     1      -3.562   2.061  -6.945  1.00  0.00     0.005 A 
ATOM      2  C   UNL     1      -2.161   1.978  -7.019  1.00  0.00     0.060 A 
ATOM      3  C   UNL     1      -4.314   0.875  -6.906  1.00  0.00     0.060 A 
ATOM      4  C   UNL     1      -1.519   0.736  -7.052  1.00  0.00     0.162 A 
ATOM      5  C   UNL     1      -3.679  -0.374  -6.939  1.00  0.00     0.162 A 
ATOM      6  C   UNL     1      -2.277  -0.447  -7.013  1.00  0.00     0.200 A 
ENDROOT
BRANCH   1   7
ATOM      7  C   UNL     1      -4.239   3.376  -6.910  1.00  0.00     0.072 C 
ATOM      8  O   UNL     1      -5.490   3.449  -6.782  1.00  0.00    -0.545 OA
ATOM      9  O   UNL     1      -3.504   4.551  -7.019  1.00  0.00    -0.545 OA
ENDBRANCH   1   7
BRANCH   4  10
ATOM     10  O   UNL     1      -0.127   0.696  -7.125  1.00  0.00    -0.504 OA
ATOM     11  H   UNL     1       0.376   0.954  -7.966  1.00  0.00     0.293 HD
ENDBRANCH   4  10
BRANCH   5  12
ATOM     12  O   UNL     1      -4.436  -1.544  -6.900  1.00  0.00    -0.504 OA
ATOM     13  H   UNL     1      -4.043  -2.421  -6.580  1.00  0.00     0.293 HD
ENDBRANCH   5  12
BRANCH   6  14
ATOM     14  O   UNL     1      -1.629  -1.682  -7.046  1.00  0.00    -0.502 OA
ATOM     15  H   UNL     1      -2.079  -2.519  -7.398  1.00  0.00     0.293 HD
ENDBRANCH   6  14
TORSDOF 4
ENDMDL
MODEL 7
REMARK VINA RESULT:    -3.433     18.807     20.495
REMARK INTER + INTRA:          -3.981
REMARK INTER:                  -3.935
REMARK INTRA:                  -0.046
REMARK UNBOUND:                -0.047
REMARK SMILES O=C([O-])c1cc(O)c(O)c(O)c1
REMARK SMILES IDX 4 1 5 2 12 3 6 4 10 5 8 6 2 7 1 8 3 9 7 10 11 12 9 14
REMARK H PARENT 7 11 11 13 9 15
REMARK Flexibility Score: inf
ROOT
ATOM      1  C   UNL     1      10.438  -9.253   5.819  1.00  0.00     0.005 A 
ATOM      2  C   UNL     1       9.034  -9.283   5.757  1.00  0.00     0.060 A 
ATOM      3  C   UNL     1      11.177  -9.520   4.654  1.00  0.00     0.060 A 
ATOM      4  C   UNL     1       8.378  -9.572   4.556  1.00  0.00     0.162 A 
ATOM      5  C   UNL     1      10.527  -9.811   3.447  1.00  0.00     0.162 A 
ATOM      6  C   UNL     1       9.123  -9.837   3.395  1.00  0.00     0.200 A 
ENDROOT
BRANCH   1   7
ATOM      7  C   UNL     1      11.130  -8.947   7.090  1.00  0.00     0.072 C 
ATOM      8  O   UNL     1      11.886  -9.799   7.629  1.00  0.00    -0.545 OA
ATOM      9  O   UNL     1      10.957  -7.714   7.708  1.00  0.00    -0.545 OA
ENDBRANCH   1   7
BRANCH   4  10
ATOM     10  O   UNL     1       6.983  -9.591   4.536  1.00  0.00    -0.504 OA
ATOM     11  H   UNL     1       6.457  -9.624   3.671  1.00  0.00     0.293 HD
ENDBRANCH   4  10
BRANCH   5  12
ATOM     12  O   UNL     1      11.273 -10.073   2.298  1.00  0.00    -0.504 OA
ATOM     13  H   UNL     1      11.785 -10.940   2.184  1.00  0.00     0.293 HD
ENDBRANCH   5  12
BRANCH   6  14
ATOM     14  O   UNL     1       8.461 -10.125   2.201  1.00  0.00    -0.502 OA
ATOM     15  H   UNL     1       8.958 -10.352   1.348  1.00  0.00     0.293 HD
ENDBRANCH   6  14
TORSDOF 4
ENDMDL
MODEL 8
REMARK VINA RESULT:    -3.327      7.707      9.956
REMARK INTER + INTRA:          -3.860
REMARK INTER:                  -3.807
REMARK INTRA:                  -0.052
REMARK UNBOUND:                -0.047
REMARK SMILES O=C([O-])c1cc(O)c(O)c(O)c1
REMARK SMILES IDX 4 1 5 2 12 3 6 4 10 5 8 6 2 7 1 8 3 9 7 10 11 12 9 14
REMARK H PARENT 7 11 11 13 9 15
REMARK Flexibility Score: inf
ROOT
ATOM      1  C   UNL     1      -5.347   6.754   2.153  1.00  0.00     0.005 A 
ATOM      2  C   UNL     1      -4.784   8.041   2.213  1.00  0.00     0.060 A 
ATOM      3  C   UNL     1      -5.415   6.097   0.913  1.00  0.00     0.060 A 
ATOM      4  C   UNL     1      -4.295   8.661   1.059  1.00  0.00     0.162 A 
ATOM      5  C   UNL     1      -4.927   6.712  -0.248  1.00  0.00     0.162 A 
ATOM      6  C   UNL     1      -4.365   7.999  -0.178  1.00  0.00     0.200 A 
ENDROOT
BRANCH   1   7
ATOM      7  C   UNL     1      -5.864   6.099   3.375  1.00  0.00     0.072 C 
ATOM      8  O   UNL     1      -6.125   4.866   3.379  1.00  0.00    -0.545 OA
ATOM      9  O   UNL     1      -6.069   6.835   4.536  1.00  0.00    -0.545 OA
ENDBRANCH   1   7
BRANCH   4  10
ATOM     10  O   UNL     1      -3.743   9.938   1.161  1.00  0.00    -0.504 OA
ATOM     11  H   UNL     1      -4.235  10.705   1.605  1.00  0.00     0.293 HD
ENDBRANCH   4  10
BRANCH   5  12
ATOM     12  O   UNL     1      -5.000   6.050  -1.473  1.00  0.00    -0.504 OA
ATOM     13  H   UNL     1      -4.167   5.805  -1.995  1.00  0.00     0.293 HD
ENDBRANCH   5  12
BRANCH   6  14
ATOM     14  O   UNL     1      -3.875   8.625  -1.325  1.00  0.00    -0.502 OA
ATOM     15  H   UNL     1      -3.565   8.102  -2.136  1.00  0.00     0.293 HD
ENDBRANCH   6  14
TORSDOF 4
ENDMDL
