MODEL 1
REMARK VINA RESULT:    -2.738      0.000      0.000
REMARK INTER + INTRA:          -3.335
REMARK INTER:                  -3.219
REMARK INTRA:                  -0.116
REMARK UNBOUND:                -0.116
REMARK SMILES O=C([O-])CCC(=O)[O-]
REMARK SMILES IDX 4 1 2 2 1 3 3 4 5 5 6 6 7 7 8 8
REMARK H PARENT
REMARK Flexibility Score: inf
ROOT
ATOM      1  C   UNL     1      64.317  68.222  46.600  1.00  0.00     0.059 C 
ENDROOT
BRANCH   1   2
ATOM      2  C   UNL     1      63.844  68.197  48.022  1.00  0.00     0.042 C 
ATOM      3  O   UNL     1      62.813  68.837  48.357  1.00  0.00    -0.550 OA
ATOM      4  O   UNL     1      64.567  67.502  48.984  1.00  0.00    -0.550 OA
ENDBRANCH   1   2
BRANCH   1   5
ATOM      5  C   UNL     1      65.832  68.011  46.504  1.00  0.00     0.059 C 
BRANCH   5   6
ATOM      6  C   UNL     1      66.166  66.695  45.871  1.00  0.00     0.042 C 
ATOM      7  O   UNL     1      66.333  65.672  46.585  1.00  0.00    -0.550 OA
ATOM      8  O   UNL     1      66.253  66.591  44.489  1.00  0.00    -0.550 OA
ENDBRANCH   5   6
ENDBRANCH   1   5
TORSDOF 3
ENDMDL
MODEL 2
REMARK VINA RESULT:    -2.731      1.469      3.968
REMARK INTER + INTRA:          -3.326
REMARK INTER:                  -3.209
REMARK INTRA:                  -0.116
REMARK UNBOUND:                -0.116
REMARK SMILES O=C([O-])CCC(=O)[O-]
REMARK SMILES IDX 4 1 2 2 1 3 3 4 5 5 6 6 7 7 8 8
REMARK H PARENT
REMARK Flexibility Score: inf
ROOT
ATOM      1  C   UNL     1      65.525  67.226  46.409  1.00  0.00     0.059 C 
ENDROOT
BRANCH   1   2
ATOM      2  C   UNL     1      66.851  67.896  46.215  1.00  0.00     0.042 C 
ATOM      3  O   UNL     1      67.664  67.455  45.362  1.00  0.00    -0.550 OA
ATOM      4  O   UNL     1      67.204  68.982  47.007  1.00  0.00    -0.550 OA
ENDBRANCH   1   2
BRANCH   1   5
ATOM      5  C   UNL     1      64.399  68.247  46.607  1.00  0.00     0.059 C 
BRANCH   5   6
ATOM      6  C   UNL     1      63.885  68.234  48.014  1.00  0.00     0.042 C 
ATOM      7  O   UNL     1      62.796  68.798  48.297  1.00  0.00    -0.550 OA
ATOM      8  O   UNL     1      64.590  67.563  49.005  1.00  0.00    -0.550 OA
ENDBRANCH   5   6
ENDBRANCH   1   5
TORSDOF 3
ENDMDL
MODEL 3
REMARK VINA RESULT:    -2.694      1.474      1.645
REMARK INTER + INTRA:          -3.282
REMARK INTER:                  -3.161
REMARK INTRA:                  -0.121
REMARK UNBOUND:                -0.116
REMARK SMILES O=C([O-])CCC(=O)[O-]
REMARK SMILES IDX 4 1 2 2 1 3 3 4 5 5 6 6 7 7 8 8
REMARK H PARENT
REMARK Flexibility Score: inf
ROOT
ATOM      1  C   UNL     1      64.495  68.225  46.609  1.00  0.00     0.059 C 
ENDROOT
BRANCH   1   2
ATOM      2  C   UNL     1      64.011  68.269  48.026  1.00  0.00     0.042 C 
ATOM      3  O   UNL     1      62.855  68.693  48.287  1.00  0.00    -0.550 OA
ATOM      4  O   UNL     1      64.853  67.882  49.062  1.00  0.00    -0.550 OA
ENDBRANCH   1   2
BRANCH   1   5
ATOM      5  C   UNL     1      65.599  67.179  46.421  1.00  0.00     0.059 C 
BRANCH   5   6
ATOM      6  C   UNL     1      66.923  67.821  46.134  1.00  0.00     0.042 C 
ATOM      7  O   UNL     1      67.669  67.358  45.233  1.00  0.00    -0.550 OA
ATOM      8  O   UNL     1      67.312  68.953  46.837  1.00  0.00    -0.550 OA
ENDBRANCH   5   6
ENDBRANCH   1   5
TORSDOF 3
ENDMDL
MODEL 4
REMARK VINA RESULT:    -2.680      2.250      2.791
REMARK INTER + INTRA:          -3.266
REMARK INTER:                  -3.159
REMARK INTRA:                  -0.107
REMARK UNBOUND:                -0.116
REMARK SMILES O=C([O-])CCC(=O)[O-]
REMARK SMILES IDX 4 1 2 2 1 3 3 4 5 5 6 6 7 7 8 8
REMARK H PARENT
REMARK Flexibility Score: inf
ROOT
ATOM      1  C   UNL     1      64.899  67.710  48.706  1.00  0.00     0.059 C 
ENDROOT
BRANCH   1   2
ATOM      2  C   UNL     1      63.883  68.356  47.815  1.00  0.00     0.042 C 
ATOM      3  O   UNL     1      62.794  68.770  48.292  1.00  0.00    -0.550 OA
ATOM      4  O   UNL     1      64.121  68.461  46.450  1.00  0.00    -0.550 OA
ENDBRANCH   1   2
BRANCH   1   5
ATOM      5  C   UNL     1      65.994  68.698  49.125  1.00  0.00     0.059 C 
BRANCH   5   6
ATOM      6  C   UNL     1      67.114  68.732  48.130  1.00  0.00     0.042 C 
ATOM      7  O   UNL     1      67.744  69.801  47.921  1.00  0.00    -0.550 OA
ATOM      8  O   UNL     1      67.486  67.572  47.464  1.00  0.00    -0.550 OA
ENDBRANCH   5   6
ENDBRANCH   1   5
TORSDOF 3
ENDMDL
MODEL 5
REMARK VINA RESULT:    -2.662      2.252      3.724
REMARK INTER + INTRA:          -3.246
REMARK INTER:                  -3.140
REMARK INTRA:                  -0.106
REMARK UNBOUND:                -0.116
REMARK SMILES O=C([O-])CCC(=O)[O-]
REMARK SMILES IDX 4 1 2 2 1 3 3 4 5 5 6 6 7 7 8 8
REMARK H PARENT
REMARK Flexibility Score: inf
ROOT
ATOM      1  C   UNL     1      66.029  68.683  49.103  1.00  0.00     0.059 C 
ENDROOT
BRANCH   1   2
ATOM      2  C   UNL     1      67.161  68.663  48.123  1.00  0.00     0.042 C 
ATOM      3  O   UNL     1      67.764  69.729  47.831  1.00  0.00    -0.550 OA
ATOM      4  O   UNL     1      67.523  67.474  47.501  1.00  0.00    -0.550 OA
ENDBRANCH   1   2
BRANCH   1   5
ATOM      5  C   UNL     1      64.925  67.694  48.713  1.00  0.00     0.059 C 
BRANCH   5   6
ATOM      6  C   UNL     1      63.911  68.328  47.811  1.00  0.00     0.042 C 
ATOM      7  O   UNL     1      62.840  68.788  48.287  1.00  0.00    -0.550 OA
ATOM      8  O   UNL     1      64.167  68.446  46.452  1.00  0.00    -0.550 OA
ENDBRANCH   5   6
ENDBRANCH   1   5
TORSDOF 3
ENDMDL
MODEL 6
REMARK VINA RESULT:    -2.653     23.514     24.060
REMARK INTER + INTRA:          -3.235
REMARK INTER:                  -3.131
REMARK INTRA:                  -0.104
REMARK UNBOUND:                -0.116
REMARK SMILES O=C([O-])CCC(=O)[O-]
REMARK SMILES IDX 4 1 2 2 1 3 3 4 5 5 6 6 7 7 8 8
REMARK H PARENT
REMARK Flexibility Score: inf
ROOT
ATOM      1  C   UNL     1      54.820  81.735  31.330  1.00  0.00     0.059 C 
ENDROOT
BRANCH   1   2
ATOM      2  C   UNL     1      53.323  81.755  31.373  1.00  0.00     0.042 C 
ATOM      3  O   UNL     1      52.724  82.329  32.320  1.00  0.00    -0.550 OA
ATOM      4  O   UNL     1      52.589  81.103  30.389  1.00  0.00    -0.550 OA
ENDBRANCH   1   2
BRANCH   1   5
ATOM      5  C   UNL     1      55.430  82.417  32.560  1.00  0.00     0.059 C 
BRANCH   5   6
ATOM      6  C   UNL     1      55.928  83.792  32.236  1.00  0.00     0.042 C 
ATOM      7  O   UNL     1      56.925  83.945  31.484  1.00  0.00    -0.550 OA
ATOM      8  O   UNL     1      55.264  84.906  32.733  1.00  0.00    -0.550 OA
ENDBRANCH   5   6
ENDBRANCH   1   5
TORSDOF 3
ENDMDL
MODEL 7
REMARK VINA RESULT:    -2.644     23.545     24.063
REMARK INTER + INTRA:          -3.224
REMARK INTER:                  -3.123
REMARK INTRA:                  -0.101
REMARK UNBOUND:                -0.116
REMARK SMILES O=C([O-])CCC(=O)[O-]
REMARK SMILES IDX 4 1 2 2 1 3 3 4 5 5 6 6 7 7 8 8
REMARK H PARENT
REMARK Flexibility Score: inf
ROOT
ATOM      1  C   UNL     1      55.421  82.374  32.521  1.00  0.00     0.059 C 
ENDROOT
BRANCH   1   2
ATOM      2  C   UNL     1      55.929  83.753  32.228  1.00  0.00     0.042 C 
ATOM      3  O   UNL     1      55.384  84.755  32.760  1.00  0.00    -0.550 OA
ATOM      4  O   UNL     1      56.978  83.933  31.335  1.00  0.00    -0.550 OA
ENDBRANCH   1   2
BRANCH   1   5
ATOM      5  C   UNL     1      54.803  81.724  31.278  1.00  0.00     0.059 C 
BRANCH   5   6
ATOM      6  C   UNL     1      53.306  81.729  31.341  1.00  0.00     0.042 C 
ATOM      7  O   UNL     1      52.713  82.332  32.273  1.00  0.00    -0.550 OA
ATOM      8  O   UNL     1      52.567  81.099  30.348  1.00  0.00    -0.550 OA
ENDBRANCH   5   6
ENDBRANCH   1   5
TORSDOF 3
ENDMDL
MODEL 8
REMARK VINA RESULT:    -2.632      0.472      3.942
REMARK INTER + INTRA:          -3.210
REMARK INTER:                  -3.153
REMARK INTRA:                  -0.057
REMARK UNBOUND:                -0.116
REMARK SMILES O=C([O-])CCC(=O)[O-]
REMARK SMILES IDX 4 1 2 2 1 3 3 4 5 5 6 6 7 7 8 8
REMARK H PARENT
REMARK Flexibility Score: inf
ROOT
ATOM      1  C   UNL     1      65.936  67.834  46.418  1.00  0.00     0.059 C 
ENDROOT
BRANCH   1   2
ATOM      2  C   UNL     1      66.204  66.563  45.671  1.00  0.00     0.042 C 
ATOM      3  O   UNL     1      66.335  66.580  44.419  1.00  0.00    -0.550 OA
ATOM      4  O   UNL     1      66.266  65.354  46.354  1.00  0.00    -0.550 OA
ENDBRANCH   1   2
BRANCH   1   5
ATOM      5  C   UNL     1      64.434  68.084  46.587  1.00  0.00     0.059 C 
BRANCH   5   6
ATOM      6  C   UNL     1      64.084  68.398  48.010  1.00  0.00     0.042 C 
ATOM      7  O   UNL     1      64.993  68.550  48.867  1.00  0.00    -0.550 OA
ATOM      8  O   UNL     1      62.756  68.559  48.380  1.00  0.00    -0.550 OA
ENDBRANCH   5   6
ENDBRANCH   1   5
TORSDOF 3
ENDMDL
MODEL 9
REMARK VINA RESULT:    -2.528     23.660     24.761
REMARK INTER + INTRA:          -3.088
REMARK INTER:                  -2.964
REMARK INTRA:                  -0.124
REMARK UNBOUND:                -0.116
REMARK SMILES O=C([O-])CCC(=O)[O-]
REMARK SMILES IDX 4 1 2 2 1 3 3 4 5 5 6 6 7 7 8 8
REMARK H PARENT
REMARK Flexibility Score: inf
ROOT
ATOM      1  C   UNL     1      55.007  84.961  32.282  1.00  0.00     0.059 C 
ENDROOT
BRANCH   1   2
ATOM      2  C   UNL     1      56.046  83.886  32.182  1.00  0.00     0.042 C 
ATOM      3  O   UNL     1      56.080  82.958  33.032  1.00  0.00    -0.550 OA
ATOM      4  O   UNL     1      57.001  83.933  31.174  1.00  0.00    -0.550 OA
ENDBRANCH   1   2
BRANCH   1   5
ATOM      5  C   UNL     1      53.751  84.611  31.476  1.00  0.00     0.059 C 
BRANCH   5   6
ATOM      6  C   UNL     1      52.722  83.931  32.327  1.00  0.00     0.042 C 
ATOM      7  O   UNL     1      52.678  82.675  32.387  1.00  0.00    -0.550 OA
ATOM      8  O   UNL     1      51.838  84.688  33.085  1.00  0.00    -0.550 OA
ENDBRANCH   5   6
ENDBRANCH   1   5
TORSDOF 3
ENDMDL
