MODEL 1
REMARK VINA RESULT:    -3.174      0.000      0.000
REMARK INTER + INTRA:          -3.569
REMARK INTER:                  -3.545
REMARK INTRA:                  -0.024
REMARK UNBOUND:                -0.024
REMARK SMILES CC(C)CC=O
REMARK SMILES IDX 4 1 2 2 1 3 3 4 5 5 6 6
REMARK H PARENT
REMARK Flexibility Score: inf
ROOT
ATOM      1  C   UNL     1      24.424  57.409  -8.731  1.00  0.00     0.075 C 
ENDROOT
BRANCH   1   2
ATOM      2  C   UNL     1      24.428  55.872  -8.584  1.00  0.00    -0.010 C 
ATOM      3  C   UNL     1      25.797  55.397  -8.078  1.00  0.00     0.008 C 
ATOM      4  C   UNL     1      23.324  55.384  -7.634  1.00  0.00     0.008 C 
ENDBRANCH   1   2
BRANCH   1   5
ATOM      5  C   UNL     1      25.766  57.950  -9.133  1.00  0.00     0.224 C 
ATOM      6  O   UNL     1      25.901  59.126  -9.430  1.00  0.00    -0.303 OA
ENDBRANCH   1   5
TORSDOF 2
ENDMDL
MODEL 2
REMARK VINA RESULT:    -3.017     16.967     17.362
REMARK INTER + INTRA:          -3.394
REMARK INTER:                  -3.347
REMARK INTRA:                  -0.046
REMARK UNBOUND:                -0.024
REMARK SMILES CC(C)CC=O
REMARK SMILES IDX 4 1 2 2 1 3 3 4 5 5 6 6
REMARK H PARENT
REMARK Flexibility Score: inf
ROOT
ATOM      1  C   UNL     1      14.734  43.082 -14.793  1.00  0.00     0.075 C 
ENDROOT
BRANCH   1   2
ATOM      2  C   UNL     1      14.311  43.324 -13.328  1.00  0.00    -0.010 C 
ATOM      3  C   UNL     1      15.445  42.914 -12.379  1.00  0.00     0.008 C 
ATOM      4  C   UNL     1      13.927  44.790 -13.077  1.00  0.00     0.008 C 
ENDBRANCH   1   2
BRANCH   1   5
ATOM      5  C   UNL     1      15.682  44.133 -15.296  1.00  0.00     0.224 C 
ATOM      6  O   UNL     1      16.879  43.908 -15.371  1.00  0.00    -0.303 OA
ENDBRANCH   1   5
TORSDOF 2
ENDMDL
MODEL 3
REMARK VINA RESULT:    -2.900     11.313     12.307
REMARK INTER + INTRA:          -3.264
REMARK INTER:                  -3.246
REMARK INTRA:                  -0.017
REMARK UNBOUND:                -0.024
REMARK SMILES CC(C)CC=O
REMARK SMILES IDX 4 1 2 2 1 3 3 4 5 5 6 6
REMARK H PARENT
REMARK Flexibility Score: inf
ROOT
ATOM      1  C   UNL     1      27.029  47.901  -1.885  1.00  0.00     0.075 C 
ENDROOT
BRANCH   1   2
ATOM      2  C   UNL     1      27.164  46.810  -0.799  1.00  0.00    -0.010 C 
ATOM      3  C   UNL     1      26.330  45.581  -1.183  1.00  0.00     0.008 C 
ATOM      4  C   UNL     1      28.627  46.399  -0.579  1.00  0.00     0.008 C 
ENDBRANCH   1   2
BRANCH   1   5
ATOM      5  C   UNL     1      25.719  47.820  -2.616  1.00  0.00     0.224 C 
ATOM      6  O   UNL     1      24.754  48.465  -2.239  1.00  0.00    -0.303 OA
ENDBRANCH   1   5
TORSDOF 2
ENDMDL
MODEL 4
REMARK VINA RESULT:    -2.788     14.625     15.765
REMARK INTER + INTRA:          -3.138
REMARK INTER:                  -3.110
REMARK INTRA:                  -0.028
REMARK UNBOUND:                -0.024
REMARK SMILES CC(C)CC=O
REMARK SMILES IDX 4 1 2 2 1 3 3 4 5 5 6 6
REMARK H PARENT
REMARK Flexibility Score: inf
ROOT
ATOM      1  C   UNL     1      29.992  45.688   0.640  1.00  0.00     0.075 C 
ENDROOT
BRANCH   1   2
ATOM      2  C   UNL     1      30.887  44.437   0.776  1.00  0.00    -0.010 C 
ATOM      3  C   UNL     1      31.143  43.821  -0.606  1.00  0.00     0.008 C 
ATOM      4  C   UNL     1      32.225  44.760   1.457  1.00  0.00     0.008 C 
ENDBRANCH   1   2
BRANCH   1   5
ATOM      5  C   UNL     1      28.904  45.506  -0.380  1.00  0.00     0.224 C 
ATOM      6  O   UNL     1      28.274  46.464  -0.796  1.00  0.00    -0.303 OA
ENDBRANCH   1   5
TORSDOF 2
ENDMDL
MODEL 5
REMARK VINA RESULT:    -2.740      7.790      9.069
REMARK INTER + INTRA:          -3.084
REMARK INTER:                  -3.057
REMARK INTRA:                  -0.027
REMARK UNBOUND:                -0.024
REMARK SMILES CC(C)CC=O
REMARK SMILES IDX 4 1 2 2 1 3 3 4 5 5 6 6
REMARK H PARENT
REMARK Flexibility Score: inf
ROOT
ATOM      1  C   UNL     1      31.596  56.791 -13.668  1.00  0.00     0.075 C 
ENDROOT
BRANCH   1   2
ATOM      2  C   UNL     1      33.085  57.160 -13.848  1.00  0.00    -0.010 C 
ATOM      3  C   UNL     1      33.212  58.616 -14.315  1.00  0.00     0.008 C 
ATOM      4  C   UNL     1      33.887  56.957 -12.554  1.00  0.00     0.008 C 
ENDBRANCH   1   2
BRANCH   1   5
ATOM      5  C   UNL     1      30.753  57.977 -13.296  1.00  0.00     0.224 C 
ATOM      6  O   UNL     1      29.561  57.847 -13.068  1.00  0.00    -0.303 OA
ENDBRANCH   1   5
TORSDOF 2
ENDMDL
MODEL 6
REMARK VINA RESULT:    -2.723     14.572     15.697
REMARK INTER + INTRA:          -3.066
REMARK INTER:                  -3.037
REMARK INTRA:                  -0.029
REMARK UNBOUND:                -0.024
REMARK SMILES CC(C)CC=O
REMARK SMILES IDX 4 1 2 2 1 3 3 4 5 5 6 6
REMARK H PARENT
REMARK Flexibility Score: inf
ROOT
ATOM      1  C   UNL     1      29.967  45.640   0.650  1.00  0.00     0.075 C 
ENDROOT
BRANCH   1   2
ATOM      2  C   UNL     1      31.288  44.940   0.264  1.00  0.00    -0.010 C 
ATOM      3  C   UNL     1      32.030  44.484   1.527  1.00  0.00     0.008 C 
ATOM      4  C   UNL     1      31.051  43.739  -0.663  1.00  0.00     0.008 C 
ENDBRANCH   1   2
BRANCH   1   5
ATOM      5  C   UNL     1      28.908  45.487  -0.405  1.00  0.00     0.224 C 
ATOM      6  O   UNL     1      28.275  46.453  -0.796  1.00  0.00    -0.303 OA
ENDBRANCH   1   5
TORSDOF 2
ENDMDL
MODEL 7
REMARK VINA RESULT:    -2.702      6.798      8.008
REMARK INTER + INTRA:          -3.042
REMARK INTER:                  -3.024
REMARK INTRA:                  -0.018
REMARK UNBOUND:                -0.024
REMARK SMILES CC(C)CC=O
REMARK SMILES IDX 4 1 2 2 1 3 3 4 5 5 6 6
REMARK H PARENT
REMARK Flexibility Score: inf
ROOT
ATOM      1  C   UNL     1      30.459  58.852 -13.263  1.00  0.00     0.075 C 
ENDROOT
BRANCH   1   2
ATOM      2  C   UNL     1      31.711  57.948 -13.269  1.00  0.00    -0.010 C 
ATOM      3  C   UNL     1      31.305  56.489 -13.514  1.00  0.00     0.008 C 
ATOM      4  C   UNL     1      32.731  58.389 -14.330  1.00  0.00     0.008 C 
ENDBRANCH   1   2
BRANCH   1   5
ATOM      5  C   UNL     1      30.162  59.409 -11.900  1.00  0.00     0.224 C 
ATOM      6  O   UNL     1      29.113  59.146 -11.334  1.00  0.00    -0.303 OA
ENDBRANCH   1   5
TORSDOF 2
ENDMDL
MODEL 8
REMARK VINA RESULT:    -2.630     16.773     17.898
REMARK INTER + INTRA:          -2.962
REMARK INTER:                  -2.936
REMARK INTRA:                  -0.026
REMARK UNBOUND:                -0.024
REMARK SMILES CC(C)CC=O
REMARK SMILES IDX 4 1 2 2 1 3 3 4 5 5 6 6
REMARK H PARENT
REMARK Flexibility Score: inf
ROOT
ATOM      1  C   UNL     1      18.140  43.939   1.522  1.00  0.00     0.075 C 
ENDROOT
BRANCH   1   2
ATOM      2  C   UNL     1      16.771  44.189   0.855  1.00  0.00    -0.010 C 
ATOM      3  C   UNL     1      15.758  44.679   1.899  1.00  0.00     0.008 C 
ATOM      4  C   UNL     1      16.869  45.208  -0.291  1.00  0.00     0.008 C 
ENDBRANCH   1   2
BRANCH   1   5
ATOM      5  C   UNL     1      18.743  42.624   1.116  1.00  0.00     0.224 C 
ATOM      6  O   UNL     1      19.716  42.585   0.381  1.00  0.00    -0.303 OA
ENDBRANCH   1   5
TORSDOF 2
ENDMDL
MODEL 9
REMARK VINA RESULT:    -2.591     12.071     13.027
REMARK INTER + INTRA:          -2.918
REMARK INTER:                  -2.890
REMARK INTRA:                  -0.028
REMARK UNBOUND:                -0.024
REMARK SMILES CC(C)CC=O
REMARK SMILES IDX 4 1 2 2 1 3 3 4 5 5 6 6
REMARK H PARENT
REMARK Flexibility Score: inf
ROOT
ATOM      1  C   UNL     1      26.820  45.979  -1.122  1.00  0.00     0.075 C 
ENDROOT
BRANCH   1   2
ATOM      2  C   UNL     1      26.305  47.397  -1.454  1.00  0.00    -0.010 C 
ATOM      3  C   UNL     1      27.477  48.301  -1.857  1.00  0.00     0.008 C 
ATOM      4  C   UNL     1      25.254  47.377  -2.573  1.00  0.00     0.008 C 
ENDBRANCH   1   2
BRANCH   1   5
ATOM      5  C   UNL     1      28.262  45.978  -0.700  1.00  0.00     0.224 C 
ATOM      6  O   UNL     1      28.816  44.940  -0.376  1.00  0.00    -0.303 OA
ENDBRANCH   1   5
TORSDOF 2
ENDMDL
