MODEL 1
REMARK VINA RESULT:    -4.033      0.000      0.000
REMARK INTER + INTRA:          -4.366
REMARK INTER:                  -4.269
REMARK INTRA:                  -0.096
REMARK UNBOUND:                -0.096
REMARK SMILES C=C(C)[C@@H]1CC=C(C)C(=O)C1
REMARK SMILES IDX 8 1 7 2 6 3 5 4 4 5 11 6 9 7 10 8 2 9 1 10 3 11
REMARK H PARENT
REMARK Flexibility Score: inf
ROOT
ATOM      1  C   UNL     1       3.700  -1.821  14.793  1.00  0.00     0.048 C 
ATOM      2  C   UNL     1       2.762  -2.605  15.667  1.00  0.00    -0.012 C 
ATOM      3  C   UNL     1       1.532  -2.914  15.221  1.00  0.00    -0.019 C 
ATOM      4  C   UNL     1       0.559  -3.712  16.048  1.00  0.00     0.036 C 
ATOM      5  C   UNL     1       0.745  -3.427  17.551  1.00  0.00     0.025 C 
ATOM      6  C   UNL     1       2.207  -3.679  17.965  1.00  0.00     0.089 C 
ATOM      7  C   UNL     1       3.148  -2.929  17.064  1.00  0.00     0.158 C 
ATOM      8  O   UNL     1       4.288  -2.608  17.496  1.00  0.00    -0.295 OA
ENDROOT
BRANCH   5   9
ATOM      9  C   UNL     1      -0.228  -4.236  18.401  1.00  0.00    -0.077 C 
ATOM     10  C   UNL     1      -1.301  -4.835  17.856  1.00  0.00     0.008 C 
ATOM     11  C   UNL     1       0.001  -4.377  19.883  1.00  0.00     0.039 C 
ENDBRANCH   5   9
TORSDOF 1
ENDMDL
MODEL 2
REMARK VINA RESULT:    -4.021      1.852      2.518
REMARK INTER + INTRA:          -4.352
REMARK INTER:                  -4.255
REMARK INTRA:                  -0.097
REMARK UNBOUND:                -0.096
REMARK SMILES C=C(C)[C@@H]1CC=C(C)C(=O)C1
REMARK SMILES IDX 8 1 7 2 6 3 5 4 4 5 11 6 9 7 10 8 2 9 1 10 3 11
REMARK H PARENT
REMARK Flexibility Score: inf
ROOT
ATOM      1  C   UNL     1       3.387  -1.159  13.693  1.00  0.00     0.048 C 
ATOM      2  C   UNL     1       2.751  -1.822  14.883  1.00  0.00    -0.012 C 
ATOM      3  C   UNL     1       3.441  -2.733  15.590  1.00  0.00    -0.019 C 
ATOM      4  C   UNL     1       2.860  -3.415  16.800  1.00  0.00     0.036 C 
ATOM      5  C   UNL     1       1.337  -3.600  16.653  1.00  0.00     0.025 C 
ATOM      6  C   UNL     1       0.661  -2.246  16.363  1.00  0.00     0.089 C 
ATOM      7  C   UNL     1       1.324  -1.562  15.200  1.00  0.00     0.158 C 
ATOM      8  O   UNL     1       0.664  -0.735  14.516  1.00  0.00    -0.295 OA
ENDROOT
BRANCH   5   9
ATOM      9  C   UNL     1       0.733  -4.280  17.876  1.00  0.00    -0.077 C 
ATOM     10  C   UNL     1       1.494  -4.635  18.925  1.00  0.00     0.008 C 
ATOM     11  C   UNL     1      -0.745  -4.568  17.927  1.00  0.00     0.039 C 
ENDBRANCH   5   9
TORSDOF 1
ENDMDL
MODEL 3
REMARK VINA RESULT:    -3.960      8.325      9.232
REMARK INTER + INTRA:          -4.288
REMARK INTER:                  -4.197
REMARK INTRA:                  -0.091
REMARK UNBOUND:                -0.096
REMARK SMILES C=C(C)[C@@H]1CC=C(C)C(=O)C1
REMARK SMILES IDX 8 1 7 2 6 3 5 4 4 5 11 6 9 7 10 8 2 9 1 10 3 11
REMARK H PARENT
REMARK Flexibility Score: inf
ROOT
ATOM      1  C   UNL     1       5.767   1.094  24.960  1.00  0.00     0.048 C 
ATOM      2  C   UNL     1       4.637   1.603  24.109  1.00  0.00    -0.012 C 
ATOM      3  C   UNL     1       4.886   2.475  23.117  1.00  0.00    -0.019 C 
ATOM      4  C   UNL     1       3.796   3.004  22.224  1.00  0.00     0.036 C 
ATOM      5  C   UNL     1       2.463   3.122  22.988  1.00  0.00     0.025 C 
ATOM      6  C   UNL     1       2.091   1.771  23.626  1.00  0.00     0.089 C 
ATOM      7  C   UNL     1       3.236   1.239  24.443  1.00  0.00     0.158 C 
ATOM      8  O   UNL     1       2.998   0.449  25.396  1.00  0.00    -0.295 OA
ENDROOT
BRANCH   5   9
ATOM      9  C   UNL     1       1.346   3.647  22.093  1.00  0.00    -0.077 C 
ATOM     10  C   UNL     1       0.455   4.547  22.543  1.00  0.00     0.008 C 
ATOM     11  C   UNL     1       1.223   3.158  20.674  1.00  0.00     0.039 C 
ENDBRANCH   5   9
TORSDOF 1
ENDMDL
MODEL 4
REMARK VINA RESULT:    -3.945      1.511      4.271
REMARK INTER + INTRA:          -4.272
REMARK INTER:                  -4.177
REMARK INTRA:                  -0.095
REMARK UNBOUND:                -0.096
REMARK SMILES C=C(C)[C@@H]1CC=C(C)C(=O)C1
REMARK SMILES IDX 8 1 7 2 6 3 5 4 4 5 11 6 9 7 10 8 2 9 1 10 3 11
REMARK H PARENT
REMARK Flexibility Score: inf
ROOT
ATOM      1  C   UNL     1      -0.847  -4.851  18.187  1.00  0.00     0.048 C 
ATOM      2  C   UNL     1       0.340  -4.121  17.624  1.00  0.00    -0.012 C 
ATOM      3  C   UNL     1       0.332  -3.717  16.342  1.00  0.00    -0.019 C 
ATOM      4  C   UNL     1       1.485  -2.967  15.731  1.00  0.00     0.036 C 
ATOM      5  C   UNL     1       2.825  -3.410  16.353  1.00  0.00     0.025 C 
ATOM      6  C   UNL     1       2.777  -3.262  17.885  1.00  0.00     0.089 C 
ATOM      7  C   UNL     1       1.566  -3.956  18.446  1.00  0.00     0.158 C 
ATOM      8  O   UNL     1       1.589  -4.366  19.637  1.00  0.00    -0.295 OA
ENDROOT
BRANCH   5   9
ATOM      9  C   UNL     1       4.001  -2.652  15.751  1.00  0.00    -0.077 C 
ATOM     10  C   UNL     1       3.974  -2.214  14.481  1.00  0.00     0.008 C 
ATOM     11  C   UNL     1       5.228  -2.378  16.582  1.00  0.00     0.039 C 
ENDBRANCH   5   9
TORSDOF 1
ENDMDL
MODEL 5
REMARK VINA RESULT:    -3.858      2.288      2.516
REMARK INTER + INTRA:          -4.180
REMARK INTER:                  -4.091
REMARK INTRA:                  -0.089
REMARK UNBOUND:                -0.096
REMARK SMILES C=C(C)[C@@H]1CC=C(C)C(=O)C1
REMARK SMILES IDX 8 1 7 2 6 3 5 4 4 5 11 6 9 7 10 8 2 9 1 10 3 11
REMARK H PARENT
REMARK Flexibility Score: inf
ROOT
ATOM      1  C   UNL     1       1.197   0.103  14.145  1.00  0.00     0.048 C 
ATOM      2  C   UNL     1       1.052  -0.982  15.176  1.00  0.00    -0.012 C 
ATOM      3  C   UNL     1       1.355  -2.252  14.859  1.00  0.00    -0.019 C 
ATOM      4  C   UNL     1       1.245  -3.374  15.857  1.00  0.00     0.036 C 
ATOM      5  C   UNL     1       0.096  -3.120  16.852  1.00  0.00     0.025 C 
ATOM      6  C   UNL     1       0.272  -1.749  17.531  1.00  0.00     0.089 C 
ATOM      7  C   UNL     1       0.459  -0.669  16.501  1.00  0.00     0.158 C 
ATOM      8  O   UNL     1       0.141   0.516  16.788  1.00  0.00    -0.295 OA
ENDROOT
BRANCH   5   9
ATOM      9  C   UNL     1      -0.020  -4.243  17.875  1.00  0.00    -0.077 C 
ATOM     10  C   UNL     1      -1.195  -4.850  18.115  1.00  0.00     0.008 C 
ATOM     11  C   UNL     1       1.195  -4.695  18.643  1.00  0.00     0.039 C 
ENDBRANCH   5   9
TORSDOF 1
ENDMDL
MODEL 6
REMARK VINA RESULT:    -3.846      7.944      8.842
REMARK INTER + INTRA:          -4.167
REMARK INTER:                  -4.072
REMARK INTRA:                  -0.095
REMARK UNBOUND:                -0.096
REMARK SMILES C=C(C)[C@@H]1CC=C(C)C(=O)C1
REMARK SMILES IDX 8 1 7 2 6 3 5 4 4 5 11 6 9 7 10 8 2 9 1 10 3 11
REMARK H PARENT
REMARK Flexibility Score: inf
ROOT
ATOM      1  C   UNL     1       1.522   4.150  21.650  1.00  0.00     0.048 C 
ATOM      2  C   UNL     1       1.795   3.097  22.688  1.00  0.00    -0.012 C 
ATOM      3  C   UNL     1       2.797   3.267  23.567  1.00  0.00    -0.019 C 
ATOM      4  C   UNL     1       3.102   2.254  24.637  1.00  0.00     0.036 C 
ATOM      5  C   UNL     1       2.784   0.825  24.155  1.00  0.00     0.025 C 
ATOM      6  C   UNL     1       1.325   0.739  23.668  1.00  0.00     0.089 C 
ATOM      7  C   UNL     1       1.039   1.819  22.661  1.00  0.00     0.158 C 
ATOM      8  O   UNL     1       0.122   1.642  21.815  1.00  0.00    -0.295 OA
ENDROOT
BRANCH   5   9
ATOM      9  C   UNL     1       3.079  -0.211  25.232  1.00  0.00    -0.077 C 
ATOM     10  C   UNL     1       2.108  -0.680  26.035  1.00  0.00     0.008 C 
ATOM     11  C   UNL     1       4.480  -0.732  25.417  1.00  0.00     0.039 C 
ENDBRANCH   5   9
TORSDOF 1
ENDMDL
MODEL 7
REMARK VINA RESULT:    -3.811      2.148      4.625
REMARK INTER + INTRA:          -4.130
REMARK INTER:                  -4.034
REMARK INTRA:                  -0.096
REMARK UNBOUND:                -0.096
REMARK SMILES C=C(C)[C@@H]1CC=C(C)C(=O)C1
REMARK SMILES IDX 8 1 7 2 6 3 5 4 4 5 11 6 9 7 10 8 2 9 1 10 3 11
REMARK H PARENT
REMARK Flexibility Score: inf
ROOT
ATOM      1  C   UNL     1      -0.672  -4.280  19.159  1.00  0.00     0.048 C 
ATOM      2  C   UNL     1      -0.146  -3.519  17.974  1.00  0.00    -0.012 C 
ATOM      3  C   UNL     1       0.381  -4.183  16.931  1.00  0.00    -0.019 C 
ATOM      4  C   UNL     1       0.906  -3.472  15.713  1.00  0.00     0.036 C 
ATOM      5  C   UNL     1       1.499  -2.099  16.085  1.00  0.00     0.025 C 
ATOM      6  C   UNL     1       0.461  -1.258  16.850  1.00  0.00     0.089 C 
ATOM      7  C   UNL     1      -0.097  -2.035  18.010  1.00  0.00     0.158 C 
ATOM      8  O   UNL     1      -0.559  -1.410  19.003  1.00  0.00    -0.295 OA
ENDROOT
BRANCH   5   9
ATOM      9  C   UNL     1       2.026  -1.364  14.858  1.00  0.00    -0.077 C 
ATOM     10  C   UNL     1       1.445  -0.234  14.419  1.00  0.00     0.008 C 
ATOM     11  C   UNL     1       3.219  -1.898  14.111  1.00  0.00     0.039 C 
ENDBRANCH   5   9
TORSDOF 1
ENDMDL
MODEL 8
REMARK VINA RESULT:    -3.771      8.268      9.264
REMARK INTER + INTRA:          -4.088
REMARK INTER:                  -3.996
REMARK INTRA:                  -0.092
REMARK UNBOUND:                -0.096
REMARK SMILES C=C(C)[C@@H]1CC=C(C)C(=O)C1
REMARK SMILES IDX 8 1 7 2 6 3 5 4 4 5 11 6 9 7 10 8 2 9 1 10 3 11
REMARK H PARENT
REMARK Flexibility Score: inf
ROOT
ATOM      1  C   UNL     1       1.352   4.386  22.149  1.00  0.00     0.048 C 
ATOM      2  C   UNL     1       2.382   3.374  22.565  1.00  0.00    -0.012 C 
ATOM      3  C   UNL     1       2.385   2.899  23.823  1.00  0.00    -0.019 C 
ATOM      4  C   UNL     1       3.381   1.872  24.288  1.00  0.00     0.036 C 
ATOM      5  C   UNL     1       4.732   2.043  23.566  1.00  0.00     0.025 C 
ATOM      6  C   UNL     1       4.529   2.011  22.040  1.00  0.00     0.089 C 
ATOM      7  C   UNL     1       3.469   2.994  21.626  1.00  0.00     0.158 C 
ATOM      8  O   UNL     1       3.489   3.465  20.458  1.00  0.00    -0.295 OA
ENDROOT
BRANCH   5   9
ATOM      9  C   UNL     1       5.749   1.003  24.020  1.00  0.00    -0.077 C 
ATOM     10  C   UNL     1       6.240   1.006  25.271  1.00  0.00     0.008 C 
ATOM     11  C   UNL     1       6.225  -0.057  23.061  1.00  0.00     0.039 C 
ENDBRANCH   5   9
TORSDOF 1
ENDMDL
MODEL 9
REMARK VINA RESULT:    -3.732      2.228      4.434
REMARK INTER + INTRA:          -4.046
REMARK INTER:                  -3.952
REMARK INTRA:                  -0.094
REMARK UNBOUND:                -0.096
REMARK SMILES C=C(C)[C@@H]1CC=C(C)C(=O)C1
REMARK SMILES IDX 8 1 7 2 6 3 5 4 4 5 11 6 9 7 10 8 2 9 1 10 3 11
REMARK H PARENT
REMARK Flexibility Score: inf
ROOT
ATOM      1  C   UNL     1       3.342  -5.137  22.705  1.00  0.00     0.048 C 
ATOM      2  C   UNL     1       2.510  -4.775  21.506  1.00  0.00    -0.012 C 
ATOM      3  C   UNL     1       1.169  -4.824  21.582  1.00  0.00    -0.019 C 
ATOM      4  C   UNL     1       0.289  -4.456  20.418  1.00  0.00     0.036 C 
ATOM      5  C   UNL     1       0.962  -4.814  19.079  1.00  0.00     0.025 C 
ATOM      6  C   UNL     1       2.353  -4.159  18.989  1.00  0.00     0.089 C 
ATOM      7  C   UNL     1       3.171  -4.485  20.208  1.00  0.00     0.158 C 
ATOM      8  O   UNL     1       4.428  -4.473  20.126  1.00  0.00    -0.295 OA
ENDROOT
BRANCH   5   9
ATOM      9  C   UNL     1       0.086  -4.437  17.890  1.00  0.00    -0.077 C 
ATOM     10  C   UNL     1      -1.222  -4.747  17.861  1.00  0.00     0.008 C 
ATOM     11  C   UNL     1       0.679  -3.704  16.716  1.00  0.00     0.039 C 
ENDBRANCH   5   9
TORSDOF 1
ENDMDL
