MODEL 1
REMARK VINA RESULT:    -3.035      0.000      0.000
REMARK INTER + INTRA:          -4.642
REMARK INTER:                  -4.100
REMARK INTRA:                  -0.542
REMARK UNBOUND:                -0.542
REMARK SMILES CCCCCCCC(=O)[O-]
REMARK SMILES IDX 5 1 6 2 7 3 8 4 9 5 10 6 4 7 3 8 2 9 1 10
REMARK H PARENT
REMARK Flexibility Score: inf
ROOT
ATOM      1  C   UNL     1     -99.146  71.262  26.222  1.00  0.00     0.000 C 
ENDROOT
BRANCH   1   2
ATOM      2  C   UNL     1     -98.503  70.585  27.452  1.00  0.00     0.006 C 
BRANCH   2   3
ATOM      3  C   UNL     1     -98.729  69.068  27.534  1.00  0.00     0.053 C 
BRANCH   3   4
ATOM      4  C   UNL     1    -100.088  68.730  28.066  1.00  0.00     0.041 C 
ATOM      5  O   UNL     1    -100.269  68.597  29.305  1.00  0.00    -0.550 OA
ATOM      6  O   UNL     1    -101.163  68.595  27.196  1.00  0.00    -0.550 OA
ENDBRANCH   3   4
ENDBRANCH   2   3
ENDBRANCH   1   2
BRANCH   1   7
ATOM      7  C   UNL     1     -98.236  71.364  24.984  1.00  0.00     0.000 C 
BRANCH   7   8
ATOM      8  C   UNL     1     -98.783  70.685  23.713  1.00  0.00    -0.000 C 
BRANCH   8   9
ATOM      9  C   UNL     1     -99.781  69.543  24.000  1.00  0.00    -0.003 C 
ATOM     10  C   UNL     1     -99.124  68.164  23.965  1.00  0.00     0.004 C 
ENDBRANCH   8   9
ENDBRANCH   7   8
ENDBRANCH   1   7
TORSDOF 6
ENDMDL
MODEL 2
REMARK VINA RESULT:    -3.012      1.897      2.434
REMARK INTER + INTRA:          -4.611
REMARK INTER:                  -4.206
REMARK INTRA:                  -0.404
REMARK UNBOUND:                -0.542
REMARK SMILES CCCCCCCC(=O)[O-]
REMARK SMILES IDX 5 1 6 2 7 3 8 4 9 5 10 6 4 7 3 8 2 9 1 10
REMARK H PARENT
REMARK Flexibility Score: inf
ROOT
ATOM      1  C   UNL     1    -101.139  69.905  26.632  1.00  0.00     0.000 C 
ENDROOT
BRANCH   1   2
ATOM      2  C   UNL     1    -101.035  68.689  27.578  1.00  0.00     0.006 C 
BRANCH   2   3
ATOM      3  C   UNL     1    -100.501  69.018  28.980  1.00  0.00     0.053 C 
BRANCH   3   4
ATOM      4  C   UNL     1     -99.037  68.723  29.108  1.00  0.00     0.041 C 
ATOM      5  O   UNL     1     -98.185  69.567  28.726  1.00  0.00    -0.550 OA
ATOM      6  O   UNL     1     -98.616  67.529  29.681  1.00  0.00    -0.550 OA
ENDBRANCH   3   4
ENDBRANCH   2   3
ENDBRANCH   1   2
BRANCH   1   7
ATOM      7  C   UNL     1     -99.946  70.090  25.675  1.00  0.00     0.000 C 
BRANCH   7   8
ATOM      8  C   UNL     1     -99.198  68.794  25.306  1.00  0.00    -0.000 C 
BRANCH   8   9
ATOM      9  C   UNL     1     -99.196  68.488  23.794  1.00  0.00    -0.003 C 
ATOM     10  C   UNL     1     -99.096  69.748  22.936  1.00  0.00     0.004 C 
ENDBRANCH   8   9
ENDBRANCH   7   8
ENDBRANCH   1   7
TORSDOF 6
ENDMDL
MODEL 3
REMARK VINA RESULT:    -2.933      1.319      2.556
REMARK INTER + INTRA:          -4.504
REMARK INTER:                  -4.044
REMARK INTRA:                  -0.459
REMARK UNBOUND:                -0.542
REMARK SMILES CCCCCCCC(=O)[O-]
REMARK SMILES IDX 5 1 6 2 7 3 8 4 9 5 10 6 4 7 3 8 2 9 1 10
REMARK H PARENT
REMARK Flexibility Score: inf
ROOT
ATOM      1  C   UNL     1     -99.114  68.672  24.046  1.00  0.00     0.000 C 
ENDROOT
BRANCH   1   2
ATOM      2  C   UNL     1     -99.778  68.838  25.429  1.00  0.00     0.006 C 
BRANCH   2   3
ATOM      3  C   UNL     1     -98.887  69.506  26.487  1.00  0.00     0.053 C 
BRANCH   3   4
ATOM      4  C   UNL     1     -99.180  69.005  27.868  1.00  0.00     0.041 C 
ATOM      5  O   UNL     1     -98.295  69.052  28.761  1.00  0.00    -0.550 OA
ATOM      6  O   UNL     1    -100.444  68.516  28.177  1.00  0.00    -0.550 OA
ENDBRANCH   3   4
ENDBRANCH   2   3
ENDBRANCH   1   2
BRANCH   1   7
ATOM      7  C   UNL     1     -99.558  69.693  22.982  1.00  0.00     0.000 C 
BRANCH   7   8
ATOM      8  C   UNL     1     -98.428  70.568  22.405  1.00  0.00    -0.000 C 
BRANCH   8   9
ATOM      9  C   UNL     1     -97.865  71.597  23.409  1.00  0.00    -0.003 C 
ATOM     10  C   UNL     1     -98.958  72.440  24.063  1.00  0.00     0.004 C 
ENDBRANCH   8   9
ENDBRANCH   7   8
ENDBRANCH   1   7
TORSDOF 6
ENDMDL
MODEL 4
REMARK VINA RESULT:    -2.853      9.353     10.950
REMARK INTER + INTRA:          -4.396
REMARK INTER:                  -4.217
REMARK INTRA:                  -0.179
REMARK UNBOUND:                -0.542
REMARK SMILES CCCCCCCC(=O)[O-]
REMARK SMILES IDX 5 1 6 2 7 3 8 4 9 5 10 6 4 7 3 8 2 9 1 10
REMARK H PARENT
REMARK Flexibility Score: inf
ROOT
ATOM      1  C   UNL     1    -101.360  62.956  34.204  1.00  0.00     0.000 C 
ENDROOT
BRANCH   1   2
ATOM      2  C   UNL     1    -101.291  61.438  34.474  1.00  0.00     0.006 C 
BRANCH   2   3
ATOM      3  C   UNL     1    -100.707  60.611  33.318  1.00  0.00     0.053 C 
BRANCH   3   4
ATOM      4  C   UNL     1    -101.768  60.139  32.372  1.00  0.00     0.041 C 
ATOM      5  O   UNL     1    -101.599  60.242  31.129  1.00  0.00    -0.550 OA
ATOM      6  O   UNL     1    -102.928  59.553  32.864  1.00  0.00    -0.550 OA
ENDBRANCH   3   4
ENDBRANCH   2   3
ENDBRANCH   1   2
BRANCH   1   7
ATOM      7  C   UNL     1    -100.088  63.567  33.588  1.00  0.00     0.000 C 
BRANCH   7   8
ATOM      8  C   UNL     1     -99.395  64.639  34.451  1.00  0.00    -0.000 C 
BRANCH   8   9
ATOM      9  C   UNL     1     -98.260  65.388  33.720  1.00  0.00    -0.003 C 
ATOM     10  C   UNL     1     -97.467  66.307  34.646  1.00  0.00     0.004 C 
ENDBRANCH   8   9
ENDBRANCH   7   8
ENDBRANCH   1   7
TORSDOF 6
ENDMDL
MODEL 5
REMARK VINA RESULT:    -2.851      2.656      4.613
REMARK INTER + INTRA:          -4.393
REMARK INTER:                  -4.003
REMARK INTRA:                  -0.390
REMARK UNBOUND:                -0.542
REMARK SMILES CCCCCCCC(=O)[O-]
REMARK SMILES IDX 5 1 6 2 7 3 8 4 9 5 10 6 4 7 3 8 2 9 1 10
REMARK H PARENT
REMARK Flexibility Score: inf
ROOT
ATOM      1  C   UNL     1     -98.787  70.147  26.274  1.00  0.00     0.000 C 
ENDROOT
BRANCH   1   2
ATOM      2  C   UNL     1     -99.642  68.987  25.722  1.00  0.00     0.006 C 
BRANCH   2   3
ATOM      3  C   UNL     1     -99.229  68.501  24.324  1.00  0.00     0.053 C 
BRANCH   3   4
ATOM      4  C   UNL     1     -99.520  69.520  23.265  1.00  0.00     0.041 C 
ATOM      5  O   UNL     1     -98.614  69.886  22.472  1.00  0.00    -0.550 OA
ATOM      6  O   UNL     1    -100.802  70.042  23.135  1.00  0.00    -0.550 OA
ENDBRANCH   3   4
ENDBRANCH   2   3
ENDBRANCH   1   2
BRANCH   1   7
ATOM      7  C   UNL     1     -98.597  70.148  27.802  1.00  0.00     0.000 C 
BRANCH   7   8
ATOM      8  C   UNL     1     -98.377  68.759  28.433  1.00  0.00    -0.000 C 
BRANCH   8   9
ATOM      9  C   UNL     1     -99.514  68.320  29.380  1.00  0.00    -0.003 C 
ATOM     10  C   UNL     1    -100.655  69.334  29.441  1.00  0.00     0.004 C 
ENDBRANCH   8   9
ENDBRANCH   7   8
ENDBRANCH   1   7
TORSDOF 6
ENDMDL
MODEL 6
REMARK VINA RESULT:    -2.786      3.559      5.246
REMARK INTER + INTRA:          -4.305
REMARK INTER:                  -4.085
REMARK INTRA:                  -0.219
REMARK UNBOUND:                -0.542
REMARK SMILES CCCCCCCC(=O)[O-]
REMARK SMILES IDX 5 1 6 2 7 3 8 4 9 5 10 6 4 7 3 8 2 9 1 10
REMARK H PARENT
REMARK Flexibility Score: inf
ROOT
ATOM      1  C   UNL     1     -99.365  68.537  24.378  1.00  0.00     0.000 C 
ENDROOT
BRANCH   1   2
ATOM      2  C   UNL     1     -99.080  69.500  23.206  1.00  0.00     0.006 C 
BRANCH   2   3
ATOM      3  C   UNL     1     -98.698  70.926  23.632  1.00  0.00     0.053 C 
BRANCH   3   4
ATOM      4  C   UNL     1     -97.612  71.498  22.773  1.00  0.00     0.041 C 
ATOM      5  O   UNL     1     -97.491  71.128  21.576  1.00  0.00    -0.550 OA
ATOM      6  O   UNL     1     -96.756  72.464  23.286  1.00  0.00    -0.550 OA
ENDBRANCH   3   4
ENDBRANCH   2   3
ENDBRANCH   1   2
BRANCH   1   7
ATOM      7  C   UNL     1     -99.300  69.176  25.778  1.00  0.00     0.000 C 
BRANCH   7   8
ATOM      8  C   UNL     1    -100.481  68.833  26.707  1.00  0.00    -0.000 C 
BRANCH   8   9
ATOM      9  C   UNL     1    -100.097  68.768  28.201  1.00  0.00    -0.003 C 
ATOM     10  C   UNL     1     -98.586  68.786  28.422  1.00  0.00     0.004 C 
ENDBRANCH   8   9
ENDBRANCH   7   8
ENDBRANCH   1   7
TORSDOF 6
ENDMDL
MODEL 7
REMARK VINA RESULT:    -2.760      4.427      6.047
REMARK INTER + INTRA:          -4.270
REMARK INTER:                  -4.028
REMARK INTRA:                  -0.242
REMARK UNBOUND:                -0.542
REMARK SMILES CCCCCCCC(=O)[O-]
REMARK SMILES IDX 5 1 6 2 7 3 8 4 9 5 10 6 4 7 3 8 2 9 1 10
REMARK H PARENT
REMARK Flexibility Score: inf
ROOT
ATOM      1  C   UNL     1     -98.573  70.203  22.444  1.00  0.00     0.000 C 
ENDROOT
BRANCH   1   2
ATOM      2  C   UNL     1     -97.941  71.611  22.411  1.00  0.00     0.006 C 
BRANCH   2   3
ATOM      3  C   UNL     1     -96.677  71.721  21.546  1.00  0.00     0.053 C 
BRANCH   3   4
ATOM      4  C   UNL     1     -95.719  72.744  22.076  1.00  0.00     0.041 C 
ATOM      5  O   UNL     1     -95.245  73.625  21.313  1.00  0.00    -0.550 OA
ATOM      6  O   UNL     1     -95.377  72.744  23.424  1.00  0.00    -0.550 OA
ENDBRANCH   3   4
ENDBRANCH   2   3
ENDBRANCH   1   2
BRANCH   1   7
ATOM      7  C   UNL     1     -99.565  69.960  23.596  1.00  0.00     0.000 C 
BRANCH   7   8
ATOM      8  C   UNL     1     -99.243  68.747  24.491  1.00  0.00    -0.000 C 
BRANCH   8   9
ATOM      9  C   UNL     1     -99.248  69.070  26.000  1.00  0.00    -0.003 C 
ATOM     10  C   UNL     1     -98.700  70.463  26.307  1.00  0.00     0.004 C 
ENDBRANCH   8   9
ENDBRANCH   7   8
ENDBRANCH   1   7
TORSDOF 6
ENDMDL
MODEL 8
REMARK VINA RESULT:    -2.742      2.630      4.508
REMARK INTER + INTRA:          -4.245
REMARK INTER:                  -3.770
REMARK INTRA:                  -0.476
REMARK UNBOUND:                -0.542
REMARK SMILES CCCCCCCC(=O)[O-]
REMARK SMILES IDX 5 1 6 2 7 3 8 4 9 5 10 6 4 7 3 8 2 9 1 10
REMARK H PARENT
REMARK Flexibility Score: inf
ROOT
ATOM      1  C   UNL     1    -100.457  68.680  28.052  1.00  0.00     0.000 C 
ENDROOT
BRANCH   1   2
ATOM      2  C   UNL     1    -100.591  68.901  26.529  1.00  0.00     0.006 C 
BRANCH   2   3
ATOM      3  C   UNL     1     -99.255  69.085  25.794  1.00  0.00     0.053 C 
BRANCH   3   4
ATOM      4  C   UNL     1     -99.369  68.769  24.333  1.00  0.00     0.041 C 
ATOM      5  O   UNL     1     -99.919  69.586  23.550  1.00  0.00    -0.550 OA
ATOM      6  O   UNL     1     -98.836  67.587  23.833  1.00  0.00    -0.550 OA
ENDBRANCH   3   4
ENDBRANCH   2   3
ENDBRANCH   1   2
BRANCH   1   7
ATOM      7  C   UNL     1     -99.022  68.772  28.601  1.00  0.00     0.000 C 
BRANCH   7   8
ATOM      8  C   UNL     1     -98.727  70.025  29.449  1.00  0.00    -0.000 C 
BRANCH   8   9
ATOM      9  C   UNL     1     -97.983  71.136  28.678  1.00  0.00    -0.003 C 
ATOM     10  C   UNL     1     -98.934  72.137  28.025  1.00  0.00     0.004 C 
ENDBRANCH   8   9
ENDBRANCH   7   8
ENDBRANCH   1   7
TORSDOF 6
ENDMDL
MODEL 9
REMARK VINA RESULT:    -2.713      9.808     11.289
REMARK INTER + INTRA:          -4.206
REMARK INTER:                  -4.061
REMARK INTRA:                  -0.146
REMARK UNBOUND:                -0.542
REMARK SMILES CCCCCCCC(=O)[O-]
REMARK SMILES IDX 5 1 6 2 7 3 8 4 9 5 10 6 4 7 3 8 2 9 1 10
REMARK H PARENT
REMARK Flexibility Score: inf
ROOT
ATOM      1  C   UNL     1    -100.130  63.509  33.639  1.00  0.00     0.000 C 
ENDROOT
BRANCH   1   2
ATOM      2  C   UNL     1    -100.524  62.348  34.577  1.00  0.00     0.006 C 
BRANCH   2   3
ATOM      3  C   UNL     1    -100.550  60.967  33.903  1.00  0.00     0.053 C 
BRANCH   3   4
ATOM      4  C   UNL     1    -101.112  59.912  34.805  1.00  0.00     0.041 C 
ATOM      5  O   UNL     1    -100.678  58.732  34.748  1.00  0.00    -0.550 OA
ATOM      6  O   UNL     1    -102.093  60.240  35.733  1.00  0.00    -0.550 OA
ENDBRANCH   3   4
ENDBRANCH   2   3
ENDBRANCH   1   2
BRANCH   1   7
ATOM      7  C   UNL     1     -99.466  64.712  34.334  1.00  0.00     0.000 C 
BRANCH   7   8
ATOM      8  C   UNL     1     -98.256  65.309  33.589  1.00  0.00    -0.000 C 
BRANCH   8   9
ATOM      9  C   UNL     1     -97.521  66.411  34.383  1.00  0.00    -0.003 C 
ATOM     10  C   UNL     1     -97.562  66.178  35.892  1.00  0.00     0.004 C 
ENDBRANCH   8   9
ENDBRANCH   7   8
ENDBRANCH   1   7
TORSDOF 6
ENDMDL
