MODEL 1
REMARK VINA RESULT:    -6.011      0.000      0.000
REMARK INTER + INTRA:         -17.501
REMARK INTER:                 -15.850
REMARK INTRA:                  -1.651
REMARK UNBOUND:                -1.651
REMARK SMILES CCCCCCCCCCCCCCCCCCCCCCCCCCCCCC(=O)[O-]
REMARK SMILES IDX 16 1 17 2 18 3 19 4 20 5 21 6 22 7 23 8 24 9 25 10 26 11
REMARK SMILES IDX 27 12 28 13 29 14 30 15 31 16 32 17 15 18 14 19 13 20 12 21
REMARK SMILES IDX 11 22 10 23 9 24 8 25 7 26 6 27 5 28 4 29 3 30 2 31 1 32
REMARK H PARENT
REMARK Flexibility Score: inf
ROOT
ATOM      1  C   UNL     1       9.342  11.835 -20.484  1.00  0.00     0.000 C 
ENDROOT
BRANCH   1   2
ATOM      2  C   UNL     1       8.873  13.300 -20.491  1.00  0.00     0.000 C 
BRANCH   2   3
ATOM      3  C   UNL     1       7.541  13.501 -21.238  1.00  0.00     0.000 C 
BRANCH   3   4
ATOM      4  C   UNL     1       7.020  14.950 -21.271  1.00  0.00     0.000 C 
BRANCH   4   5
ATOM      5  C   UNL     1       5.543  15.056 -21.697  1.00  0.00     0.000 C 
BRANCH   5   6
ATOM      6  C   UNL     1       5.040  13.796 -22.437  1.00  0.00     0.000 C 
BRANCH   6   7
ATOM      7  C   UNL     1       3.531  13.525 -22.267  1.00  0.00     0.000 C 
BRANCH   7   8
ATOM      8  C   UNL     1       2.874  14.167 -21.032  1.00  0.00     0.000 C 
BRANCH   8   9
ATOM      9  C   UNL     1       1.806  13.268 -20.386  1.00  0.00     0.000 C 
BRANCH   9  10
ATOM     10  C   UNL     1       1.536  13.610 -18.907  1.00  0.00     0.000 C 
BRANCH  10  11
ATOM     11  C   UNL     1       1.804  12.473 -17.903  1.00  0.00     0.000 C 
BRANCH  11  12
ATOM     12  C   UNL     1       0.549  11.947 -17.184  1.00  0.00     0.000 C 
BRANCH  12  13
ATOM     13  C   UNL     1       0.867  11.057 -15.958  1.00  0.00     0.006 C 
BRANCH  13  14
ATOM     14  C   UNL     1       1.667   9.791 -16.315  1.00  0.00     0.053 C 
BRANCH  14  15
ATOM     15  C   UNL     1       3.032   9.798 -15.701  1.00  0.00     0.041 C 
ATOM     16  O   UNL     1       3.358  10.700 -14.881  1.00  0.00    -0.550 OA
ATOM     17  O   UNL     1       3.931   8.777 -15.985  1.00  0.00    -0.550 OA
ENDBRANCH  14  15
ENDBRANCH  13  14
ENDBRANCH  12  13
ENDBRANCH  11  12
ENDBRANCH  10  11
ENDBRANCH   9  10
ENDBRANCH   8   9
ENDBRANCH   7   8
ENDBRANCH   6   7
ENDBRANCH   5   6
ENDBRANCH   4   5
ENDBRANCH   3   4
ENDBRANCH   2   3
ENDBRANCH   1   2
BRANCH   1  18
ATOM     18  C   UNL     1      10.701  11.650 -19.793  1.00  0.00     0.000 C 
BRANCH  18  19
ATOM     19  C   UNL     1      10.717  10.447 -18.831  1.00  0.00     0.000 C 
BRANCH  19  20
ATOM     20  C   UNL     1      11.497   9.241 -19.386  1.00  0.00     0.000 C 
BRANCH  20  21
ATOM     21  C   UNL     1      12.348   8.499 -18.334  1.00  0.00     0.000 C 
BRANCH  21  22
ATOM     22  C   UNL     1      13.010   7.211 -18.856  1.00  0.00     0.000 C 
BRANCH  22  23
ATOM     23  C   UNL     1      13.398   7.232 -20.343  1.00  0.00     0.000 C 
BRANCH  23  24
ATOM     24  C   UNL     1      14.836   6.770 -20.650  1.00  0.00    -0.000 C 
BRANCH  24  25
ATOM     25  C   UNL     1      15.506   7.535 -21.810  1.00  0.00    -0.000 C 
BRANCH  25  26
ATOM     26  C   UNL     1      16.610   8.494 -21.328  1.00  0.00    -0.000 C 
BRANCH  26  27
ATOM     27  C   UNL     1      16.667   8.577 -19.788  1.00  0.00    -0.000 C 
BRANCH  27  28
ATOM     28  C   UNL     1      17.940   9.255 -19.252  1.00  0.00    -0.000 C 
BRANCH  28  29
ATOM     29  C   UNL     1      19.152   9.059 -20.176  1.00  0.00    -0.000 C 
BRANCH  29  30
ATOM     30  C   UNL     1      19.752  10.390 -20.670  1.00  0.00    -0.000 C 
BRANCH  30  31
ATOM     31  C   UNL     1      18.719  11.460 -21.069  1.00  0.00    -0.003 C 
ATOM     32  C   UNL     1      18.559  11.600 -22.584  1.00  0.00     0.004 C 
ENDBRANCH  30  31
ENDBRANCH  29  30
ENDBRANCH  28  29
ENDBRANCH  27  28
ENDBRANCH  26  27
ENDBRANCH  25  26
ENDBRANCH  24  25
ENDBRANCH  23  24
ENDBRANCH  22  23
ENDBRANCH  21  22
ENDBRANCH  20  21
ENDBRANCH  19  20
ENDBRANCH  18  19
ENDBRANCH   1  18
TORSDOF 28
ENDMDL
MODEL 2
REMARK VINA RESULT:    -5.854      4.716     13.168
REMARK INTER + INTRA:         -17.087
REMARK INTER:                 -15.211
REMARK INTRA:                  -1.876
REMARK UNBOUND:                -1.651
REMARK SMILES CCCCCCCCCCCCCCCCCCCCCCCCCCCCCC(=O)[O-]
REMARK SMILES IDX 16 1 17 2 18 3 19 4 20 5 21 6 22 7 23 8 24 9 25 10 26 11
REMARK SMILES IDX 27 12 28 13 29 14 30 15 31 16 32 17 15 18 14 19 13 20 12 21
REMARK SMILES IDX 11 22 10 23 9 24 8 25 7 26 6 27 5 28 4 29 3 30 2 31 1 32
REMARK H PARENT
REMARK Flexibility Score: inf
ROOT
ATOM      1  C   UNL     1      10.744  10.513 -18.931  1.00  0.00     0.000 C 
ENDROOT
BRANCH   1   2
ATOM      2  C   UNL     1      11.513   9.343 -19.570  1.00  0.00     0.000 C 
BRANCH   2   3
ATOM      3  C   UNL     1      11.923   8.265 -18.550  1.00  0.00     0.000 C 
BRANCH   3   4
ATOM      4  C   UNL     1      13.172   7.446 -18.929  1.00  0.00     0.000 C 
BRANCH   4   5
ATOM      5  C   UNL     1      13.463   7.447 -20.442  1.00  0.00     0.000 C 
BRANCH   5   6
ATOM      6  C   UNL     1      14.636   6.520 -20.828  1.00  0.00     0.000 C 
BRANCH   6   7
ATOM      7  C   UNL     1      15.639   7.149 -21.819  1.00  0.00     0.000 C 
BRANCH   7   8
ATOM      8  C   UNL     1      16.030   8.608 -21.531  1.00  0.00     0.000 C 
BRANCH   8   9
ATOM      9  C   UNL     1      17.106   8.736 -20.438  1.00  0.00     0.000 C 
BRANCH   9  10
ATOM     10  C   UNL     1      18.080   9.908 -20.676  1.00  0.00     0.000 C 
BRANCH  10  11
ATOM     11  C   UNL     1      17.677  10.889 -21.793  1.00  0.00     0.000 C 
BRANCH  11  12
ATOM     12  C   UNL     1      18.604  12.110 -21.934  1.00  0.00     0.000 C 
BRANCH  12  13
ATOM     13  C   UNL     1      19.353  12.470 -20.628  1.00  0.00     0.006 C 
BRANCH  13  14
ATOM     14  C   UNL     1      19.078  13.906 -20.145  1.00  0.00     0.053 C 
BRANCH  14  15
ATOM     15  C   UNL     1      17.616  14.233 -20.163  1.00  0.00     0.041 C 
ATOM     16  O   UNL     1      16.791  13.499 -19.550  1.00  0.00    -0.550 OA
ATOM     17  O   UNL     1      17.165  15.380 -20.804  1.00  0.00    -0.550 OA
ENDBRANCH  14  15
ENDBRANCH  13  14
ENDBRANCH  12  13
ENDBRANCH  11  12
ENDBRANCH  10  11
ENDBRANCH   9  10
ENDBRANCH   8   9
ENDBRANCH   7   8
ENDBRANCH   6   7
ENDBRANCH   5   6
ENDBRANCH   4   5
ENDBRANCH   3   4
ENDBRANCH   2   3
ENDBRANCH   1   2
BRANCH   1  18
ATOM     18  C   UNL     1      10.607  11.718 -19.873  1.00  0.00     0.000 C 
BRANCH  18  19
ATOM     19  C   UNL     1       9.138  12.103 -20.131  1.00  0.00     0.000 C 
BRANCH  19  20
ATOM     20  C   UNL     1       8.989  13.337 -21.039  1.00  0.00     0.000 C 
BRANCH  20  21
ATOM     21  C   UNL     1       8.269  14.529 -20.375  1.00  0.00     0.000 C 
BRANCH  21  22
ATOM     22  C   UNL     1       9.219  15.593 -19.794  1.00  0.00     0.000 C 
BRANCH  22  23
ATOM     23  C   UNL     1       9.209  15.711 -18.261  1.00  0.00     0.000 C 
BRANCH  23  24
ATOM     24  C   UNL     1       9.715  14.465 -17.507  1.00  0.00    -0.000 C 
BRANCH  24  25
ATOM     25  C   UNL     1       9.632  14.586 -15.971  1.00  0.00    -0.000 C 
BRANCH  25  26
ATOM     26  C   UNL     1       8.732  15.750 -15.517  1.00  0.00    -0.000 C 
BRANCH  26  27
ATOM     27  C   UNL     1       8.004  15.432 -14.194  1.00  0.00    -0.000 C 
BRANCH  27  28
ATOM     28  C   UNL     1       6.472  15.537 -14.289  1.00  0.00    -0.000 C 
BRANCH  28  29
ATOM     29  C   UNL     1       5.795  14.171 -14.492  1.00  0.00    -0.000 C 
BRANCH  29  30
ATOM     30  C   UNL     1       4.304  14.177 -14.101  1.00  0.00    -0.000 C 
BRANCH  30  31
ATOM     31  C   UNL     1       3.503  12.953 -14.579  1.00  0.00    -0.003 C 
ATOM     32  C   UNL     1       2.069  12.932 -14.047  1.00  0.00     0.004 C 
ENDBRANCH  30  31
ENDBRANCH  29  30
ENDBRANCH  28  29
ENDBRANCH  27  28
ENDBRANCH  26  27
ENDBRANCH  25  26
ENDBRANCH  24  25
ENDBRANCH  23  24
ENDBRANCH  22  23
ENDBRANCH  21  22
ENDBRANCH  20  21
ENDBRANCH  19  20
ENDBRANCH  18  19
ENDBRANCH   1  18
TORSDOF 28
ENDMDL
MODEL 3
REMARK VINA RESULT:    -5.716      4.081     13.529
REMARK INTER + INTRA:         -16.723
REMARK INTER:                 -15.098
REMARK INTRA:                  -1.626
REMARK UNBOUND:                -1.651
REMARK SMILES CCCCCCCCCCCCCCCCCCCCCCCCCCCCCC(=O)[O-]
REMARK SMILES IDX 16 1 17 2 18 3 19 4 20 5 21 6 22 7 23 8 24 9 25 10 26 11
REMARK SMILES IDX 27 12 28 13 29 14 30 15 31 16 32 17 15 18 14 19 13 20 12 21
REMARK SMILES IDX 11 22 10 23 9 24 8 25 7 26 6 27 5 28 4 29 3 30 2 31 1 32
REMARK H PARENT
REMARK Flexibility Score: inf
ROOT
ATOM      1  C   UNL     1       9.315  11.757 -20.323  1.00  0.00     0.000 C 
ENDROOT
BRANCH   1   2
ATOM      2  C   UNL     1      10.732  11.615 -19.740  1.00  0.00     0.000 C 
BRANCH   2   3
ATOM      3  C   UNL     1      10.739  11.029 -18.315  1.00  0.00     0.000 C 
BRANCH   3   4
ATOM      4  C   UNL     1      11.072   9.528 -18.226  1.00  0.00     0.000 C 
BRANCH   4   5
ATOM      5  C   UNL     1      11.860   9.007 -19.444  1.00  0.00     0.000 C 
BRANCH   5   6
ATOM      6  C   UNL     1      12.740   7.782 -19.109  1.00  0.00     0.000 C 
BRANCH   6   7
ATOM      7  C   UNL     1      13.316   7.062 -20.347  1.00  0.00     0.000 C 
BRANCH   7   8
ATOM      8  C   UNL     1      14.849   6.929 -20.385  1.00  0.00     0.000 C 
BRANCH   8   9
ATOM      9  C   UNL     1      15.461   7.436 -21.703  1.00  0.00     0.000 C 
BRANCH   9  10
ATOM     10  C   UNL     1      16.424   8.625 -21.510  1.00  0.00     0.000 C 
BRANCH  10  11
ATOM     11  C   UNL     1      17.192   8.645 -20.175  1.00  0.00     0.000 C 
BRANCH  11  12
ATOM     12  C   UNL     1      17.625  10.047 -19.709  1.00  0.00     0.000 C 
BRANCH  12  13
ATOM     13  C   UNL     1      17.652  11.095 -20.849  1.00  0.00     0.006 C 
BRANCH  13  14
ATOM     14  C   UNL     1      18.697  12.204 -20.632  1.00  0.00     0.053 C 
BRANCH  14  15
ATOM     15  C   UNL     1      18.115  13.394 -19.932  1.00  0.00     0.041 C 
ATOM     16  O   UNL     1      18.864  14.330 -19.536  1.00  0.00    -0.550 OA
ATOM     17  O   UNL     1      16.740  13.503 -19.767  1.00  0.00    -0.550 OA
ENDBRANCH  14  15
ENDBRANCH  13  14
ENDBRANCH  12  13
ENDBRANCH  11  12
ENDBRANCH  10  11
ENDBRANCH   9  10
ENDBRANCH   8   9
ENDBRANCH   7   8
ENDBRANCH   6   7
ENDBRANCH   5   6
ENDBRANCH   4   5
ENDBRANCH   3   4
ENDBRANCH   2   3
ENDBRANCH   1   2
BRANCH   1  18
ATOM     18  C   UNL     1       8.895  13.222 -20.514  1.00  0.00     0.000 C 
BRANCH  18  19
ATOM     19  C   UNL     1       7.540  13.360 -21.235  1.00  0.00     0.000 C 
BRANCH  19  20
ATOM     20  C   UNL     1       7.005  14.803 -21.240  1.00  0.00     0.000 C 
BRANCH  20  21
ATOM     21  C   UNL     1       5.631  14.966 -21.924  1.00  0.00     0.000 C 
BRANCH  21  22
ATOM     22  C   UNL     1       5.049  13.656 -22.486  1.00  0.00     0.000 C 
BRANCH  22  23
ATOM     23  C   UNL     1       3.525  13.506 -22.349  1.00  0.00     0.000 C 
BRANCH  23  24
ATOM     24  C   UNL     1       2.875  14.397 -21.272  1.00  0.00    -0.000 C 
BRANCH  24  25
ATOM     25  C   UNL     1       2.460  13.635 -19.996  1.00  0.00    -0.000 C 
BRANCH  25  26
ATOM     26  C   UNL     1       1.527  14.461 -19.091  1.00  0.00    -0.000 C 
BRANCH  26  27
ATOM     27  C   UNL     1       0.804  13.578 -18.052  1.00  0.00    -0.000 C 
BRANCH  27  28
ATOM     28  C   UNL     1       1.725  12.563 -17.354  1.00  0.00    -0.000 C 
BRANCH  28  29
ATOM     29  C   UNL     1       1.777  12.760 -15.830  1.00  0.00    -0.000 C 
BRANCH  29  30
ATOM     30  C   UNL     1       2.868  13.756 -15.390  1.00  0.00    -0.000 C 
BRANCH  30  31
ATOM     31  C   UNL     1       3.920  13.183 -14.425  1.00  0.00    -0.003 C 
ATOM     32  C   UNL     1       5.222  13.986 -14.414  1.00  0.00     0.004 C 
ENDBRANCH  30  31
ENDBRANCH  29  30
ENDBRANCH  28  29
ENDBRANCH  27  28
ENDBRANCH  26  27
ENDBRANCH  25  26
ENDBRANCH  24  25
ENDBRANCH  23  24
ENDBRANCH  22  23
ENDBRANCH  21  22
ENDBRANCH  20  21
ENDBRANCH  19  20
ENDBRANCH  18  19
ENDBRANCH   1  18
TORSDOF 28
ENDMDL
MODEL 4
REMARK VINA RESULT:    -5.675      4.014     13.260
REMARK INTER + INTRA:         -16.616
REMARK INTER:                 -14.537
REMARK INTRA:                  -2.079
REMARK UNBOUND:                -1.651
REMARK SMILES CCCCCCCCCCCCCCCCCCCCCCCCCCCCCC(=O)[O-]
REMARK SMILES IDX 16 1 17 2 18 3 19 4 20 5 21 6 22 7 23 8 24 9 25 10 26 11
REMARK SMILES IDX 27 12 28 13 29 14 30 15 31 16 32 17 15 18 14 19 13 20 12 21
REMARK SMILES IDX 11 22 10 23 9 24 8 25 7 26 6 27 5 28 4 29 3 30 2 31 1 32
REMARK H PARENT
REMARK Flexibility Score: inf
ROOT
ATOM      1  C   UNL     1      11.182   9.108 -18.618  1.00  0.00     0.000 C 
ENDROOT
BRANCH   1   2
ATOM      2  C   UNL     1      12.461   8.265 -18.757  1.00  0.00     0.000 C 
BRANCH   2   3
ATOM      3  C   UNL     1      12.823   7.958 -20.223  1.00  0.00     0.000 C 
BRANCH   3   4
ATOM      4  C   UNL     1      13.349   6.534 -20.483  1.00  0.00     0.000 C 
BRANCH   4   5
ATOM      5  C   UNL     1      14.883   6.466 -20.613  1.00  0.00     0.000 C 
BRANCH   5   6
ATOM      6  C   UNL     1      15.443   7.472 -21.643  1.00  0.00     0.000 C 
BRANCH   6   7
ATOM      7  C   UNL     1      16.613   8.330 -21.117  1.00  0.00     0.000 C 
BRANCH   7   8
ATOM      8  C   UNL     1      16.688   8.484 -19.588  1.00  0.00     0.000 C 
BRANCH   8   9
ATOM      9  C   UNL     1      17.953   9.227 -19.122  1.00  0.00     0.000 C 
BRANCH   9  10
ATOM     10  C   UNL     1      19.147   9.060 -20.084  1.00  0.00     0.000 C 
BRANCH  10  11
ATOM     11  C   UNL     1      19.638  10.352 -20.763  1.00  0.00     0.000 C 
BRANCH  11  12
ATOM     12  C   UNL     1      18.565  11.090 -21.583  1.00  0.00     0.000 C 
BRANCH  12  13
ATOM     13  C   UNL     1      18.474  12.602 -21.262  1.00  0.00     0.006 C 
BRANCH  13  14
ATOM     14  C   UNL     1      17.163  12.998 -20.559  1.00  0.00     0.053 C 
BRANCH  14  15
ATOM     15  C   UNL     1      17.237  14.371 -19.965  1.00  0.00     0.041 C 
ATOM     16  O   UNL     1      17.332  15.384 -20.712  1.00  0.00    -0.550 OA
ATOM     17  O   UNL     1      17.143  14.543 -18.589  1.00  0.00    -0.550 OA
ENDBRANCH  14  15
ENDBRANCH  13  14
ENDBRANCH  12  13
ENDBRANCH  11  12
ENDBRANCH  10  11
ENDBRANCH   9  10
ENDBRANCH   8   9
ENDBRANCH   7   8
ENDBRANCH   6   7
ENDBRANCH   5   6
ENDBRANCH   4   5
ENDBRANCH   3   4
ENDBRANCH   2   3
ENDBRANCH   1   2
BRANCH   1  18
ATOM     18  C   UNL     1      11.022  10.133 -19.751  1.00  0.00     0.000 C 
BRANCH  18  19
ATOM     19  C   UNL     1      10.700  11.546 -19.228  1.00  0.00     0.000 C 
BRANCH  19  20
ATOM     20  C   UNL     1      10.666  11.627 -17.691  1.00  0.00     0.000 C 
BRANCH  20  21
ATOM     21  C   UNL     1       9.888  12.840 -17.138  1.00  0.00     0.000 C 
BRANCH  21  22
ATOM     22  C   UNL     1      10.141  14.151 -17.904  1.00  0.00     0.000 C 
BRANCH  22  23
ATOM     23  C   UNL     1       8.912  14.738 -18.617  1.00  0.00     0.000 C 
BRANCH  23  24
ATOM     24  C   UNL     1       8.913  14.587 -20.151  1.00  0.00    -0.000 C 
BRANCH  24  25
ATOM     25  C   UNL     1       7.642  15.129 -20.836  1.00  0.00    -0.000 C 
BRANCH  25  26
ATOM     26  C   UNL     1       6.744  14.008 -21.392  1.00  0.00    -0.000 C 
BRANCH  26  27
ATOM     27  C   UNL     1       5.434  14.563 -21.989  1.00  0.00    -0.000 C 
BRANCH  27  28
ATOM     28  C   UNL     1       4.678  13.553 -22.869  1.00  0.00    -0.000 C 
BRANCH  28  29
ATOM     29  C   UNL     1       3.200  13.409 -22.471  1.00  0.00    -0.000 C 
BRANCH  29  30
ATOM     30  C   UNL     1       2.815  14.286 -21.263  1.00  0.00    -0.000 C 
BRANCH  30  31
ATOM     31  C   UNL     1       1.611  13.778 -20.449  1.00  0.00    -0.003 C 
ATOM     32  C   UNL     1       2.020  13.069 -19.156  1.00  0.00     0.004 C 
ENDBRANCH  30  31
ENDBRANCH  29  30
ENDBRANCH  28  29
ENDBRANCH  27  28
ENDBRANCH  26  27
ENDBRANCH  25  26
ENDBRANCH  24  25
ENDBRANCH  23  24
ENDBRANCH  22  23
ENDBRANCH  21  22
ENDBRANCH  20  21
ENDBRANCH  19  20
ENDBRANCH  18  19
ENDBRANCH   1  18
TORSDOF 28
ENDMDL
MODEL 5
REMARK VINA RESULT:    -5.635      3.898     13.199
REMARK INTER + INTRA:         -16.510
REMARK INTER:                 -14.809
REMARK INTRA:                  -1.702
REMARK UNBOUND:                -1.651
REMARK SMILES CCCCCCCCCCCCCCCCCCCCCCCCCCCCCC(=O)[O-]
REMARK SMILES IDX 16 1 17 2 18 3 19 4 20 5 21 6 22 7 23 8 24 9 25 10 26 11
REMARK SMILES IDX 27 12 28 13 29 14 30 15 31 16 32 17 15 18 14 19 13 20 12 21
REMARK SMILES IDX 11 22 10 23 9 24 8 25 7 26 6 27 5 28 4 29 3 30 2 31 1 32
REMARK H PARENT
REMARK Flexibility Score: inf
ROOT
ATOM      1  C   UNL     1       6.865  13.271 -21.604  1.00  0.00     0.000 C 
ENDROOT
BRANCH   1   2
ATOM      2  C   UNL     1       8.061  13.916 -20.881  1.00  0.00     0.000 C 
BRANCH   2   3
ATOM      3  C   UNL     1       9.088  12.883 -20.379  1.00  0.00     0.000 C 
BRANCH   3   4
ATOM      4  C   UNL     1       9.658  13.155 -18.974  1.00  0.00     0.000 C 
BRANCH   4   5
ATOM      5  C   UNL     1      10.544  12.010 -18.445  1.00  0.00     0.000 C 
BRANCH   5   6
ATOM      6  C   UNL     1      10.741  10.878 -19.477  1.00  0.00     0.000 C 
BRANCH   6   7
ATOM      7  C   UNL     1      11.122   9.517 -18.857  1.00  0.00     0.000 C 
BRANCH   7   8
ATOM      8  C   UNL     1      12.160   8.697 -19.642  1.00  0.00     0.000 C 
BRANCH   8   9
ATOM      9  C   UNL     1      12.713   7.505 -18.840  1.00  0.00     0.000 C 
BRANCH   9  10
ATOM     10  C   UNL     1      13.810   6.723 -19.589  1.00  0.00     0.000 C 
BRANCH  10  11
ATOM     11  C   UNL     1      14.002   7.103 -21.070  1.00  0.00     0.000 C 
BRANCH  11  12
ATOM     12  C   UNL     1      15.415   7.604 -21.422  1.00  0.00     0.000 C 
BRANCH  12  13
ATOM     13  C   UNL     1      16.225   8.079 -20.191  1.00  0.00     0.006 C 
BRANCH  13  14
ATOM     14  C   UNL     1      17.368   9.046 -20.552  1.00  0.00     0.053 C 
BRANCH  14  15
ATOM     15  C   UNL     1      17.808   9.859 -19.373  1.00  0.00     0.041 C 
ATOM     16  O   UNL     1      17.842  11.119 -19.444  1.00  0.00    -0.550 OA
ATOM     17  O   UNL     1      18.124   9.234 -18.173  1.00  0.00    -0.550 OA
ENDBRANCH  14  15
ENDBRANCH  13  14
ENDBRANCH  12  13
ENDBRANCH  11  12
ENDBRANCH  10  11
ENDBRANCH   9  10
ENDBRANCH   8   9
ENDBRANCH   7   8
ENDBRANCH   6   7
ENDBRANCH   5   6
ENDBRANCH   4   5
ENDBRANCH   3   4
ENDBRANCH   2   3
ENDBRANCH   1   2
BRANCH   1  18
ATOM     18  C   UNL     1       5.689  14.241 -21.785  1.00  0.00     0.000 C 
BRANCH  18  19
ATOM     19  C   UNL     1       4.767  13.840 -22.953  1.00  0.00     0.000 C 
BRANCH  19  20
ATOM     20  C   UNL     1       3.349  13.453 -22.495  1.00  0.00     0.000 C 
BRANCH  20  21
ATOM     21  C   UNL     1       2.892  14.144 -21.193  1.00  0.00     0.000 C 
BRANCH  21  22
ATOM     22  C   UNL     1       1.821  13.364 -20.410  1.00  0.00     0.000 C 
BRANCH  22  23
ATOM     23  C   UNL     1       2.006  13.355 -18.883  1.00  0.00     0.000 C 
BRANCH  23  24
ATOM     24  C   UNL     1       1.283  14.490 -18.131  1.00  0.00    -0.000 C 
BRANCH  24  25
ATOM     25  C   UNL     1       1.467  14.443 -16.600  1.00  0.00    -0.000 C 
BRANCH  25  26
ATOM     26  C   UNL     1       2.568  13.457 -16.166  1.00  0.00    -0.000 C 
BRANCH  26  27
ATOM     27  C   UNL     1       2.134  12.607 -14.954  1.00  0.00    -0.000 C 
BRANCH  27  28
ATOM     28  C   UNL     1       1.428  11.296 -15.339  1.00  0.00    -0.000 C 
BRANCH  28  29
ATOM     29  C   UNL     1       2.261  10.433 -16.301  1.00  0.00    -0.000 C 
BRANCH  29  30
ATOM     30  C   UNL     1       3.019   9.298 -15.586  1.00  0.00    -0.000 C 
BRANCH  30  31
ATOM     31  C   UNL     1       2.454   7.886 -15.829  1.00  0.00    -0.003 C 
ATOM     32  C   UNL     1       1.645   7.354 -14.645  1.00  0.00     0.004 C 
ENDBRANCH  30  31
ENDBRANCH  29  30
ENDBRANCH  28  29
ENDBRANCH  27  28
ENDBRANCH  26  27
ENDBRANCH  25  26
ENDBRANCH  24  25
ENDBRANCH  23  24
ENDBRANCH  22  23
ENDBRANCH  21  22
ENDBRANCH  20  21
ENDBRANCH  19  20
ENDBRANCH  18  19
ENDBRANCH   1  18
TORSDOF 28
ENDMDL
MODEL 6
REMARK VINA RESULT:    -5.604      4.320     12.831
REMARK INTER + INTRA:         -16.429
REMARK INTER:                 -14.600
REMARK INTRA:                  -1.829
REMARK UNBOUND:                -1.651
REMARK SMILES CCCCCCCCCCCCCCCCCCCCCCCCCCCCCC(=O)[O-]
REMARK SMILES IDX 16 1 17 2 18 3 19 4 20 5 21 6 22 7 23 8 24 9 25 10 26 11
REMARK SMILES IDX 27 12 28 13 29 14 30 15 31 16 32 17 15 18 14 19 13 20 12 21
REMARK SMILES IDX 11 22 10 23 9 24 8 25 7 26 6 27 5 28 4 29 3 30 2 31 1 32
REMARK H PARENT
REMARK Flexibility Score: inf
ROOT
ATOM      1  C   UNL     1      10.444  12.063 -18.754  1.00  0.00     0.000 C 
ENDROOT
BRANCH   1   2
ATOM      2  C   UNL     1      10.765  10.865 -19.665  1.00  0.00     0.000 C 
BRANCH   2   3
ATOM      3  C   UNL     1      11.252   9.630 -18.885  1.00  0.00     0.000 C 
BRANCH   3   4
ATOM      4  C   UNL     1      11.853   8.504 -19.748  1.00  0.00     0.000 C 
BRANCH   4   5
ATOM      5  C   UNL     1      12.989   7.737 -19.042  1.00  0.00     0.000 C 
BRANCH   5   6
ATOM      6  C   UNL     1      13.529   6.559 -19.882  1.00  0.00     0.000 C 
BRANCH   6   7
ATOM      7  C   UNL     1      15.029   6.665 -20.229  1.00  0.00     0.000 C 
BRANCH   7   8
ATOM      8  C   UNL     1      15.355   7.358 -21.563  1.00  0.00     0.000 C 
BRANCH   8   9
ATOM      9  C   UNL     1      16.337   8.532 -21.405  1.00  0.00     0.000 C 
BRANCH   9  10
ATOM     10  C   UNL     1      17.099   8.512 -20.065  1.00  0.00     0.000 C 
BRANCH  10  11
ATOM     11  C   UNL     1      18.379   9.369 -20.017  1.00  0.00     0.000 C 
BRANCH  11  12
ATOM     12  C   UNL     1      18.361  10.594 -20.948  1.00  0.00     0.000 C 
BRANCH  12  13
ATOM     13  C   UNL     1      17.606  11.809 -20.355  1.00  0.00     0.006 C 
BRANCH  13  14
ATOM     14  C   UNL     1      18.215  13.163 -20.763  1.00  0.00     0.053 C 
BRANCH  14  15
ATOM     15  C   UNL     1      17.416  14.317 -20.243  1.00  0.00     0.041 C 
ATOM     16  O   UNL     1      17.040  15.236 -21.023  1.00  0.00    -0.550 OA
ATOM     17  O   UNL     1      17.031  14.355 -18.908  1.00  0.00    -0.550 OA
ENDBRANCH  14  15
ENDBRANCH  13  14
ENDBRANCH  12  13
ENDBRANCH  11  12
ENDBRANCH  10  11
ENDBRANCH   9  10
ENDBRANCH   8   9
ENDBRANCH   7   8
ENDBRANCH   6   7
ENDBRANCH   5   6
ENDBRANCH   4   5
ENDBRANCH   3   4
ENDBRANCH   2   3
ENDBRANCH   1   2
BRANCH   1  18
ATOM     18  C   UNL     1      10.608  11.734 -17.263  1.00  0.00     0.000 C 
BRANCH  18  19
ATOM     19  C   UNL     1       9.897  12.753 -16.351  1.00  0.00     0.000 C 
BRANCH  19  20
ATOM     20  C   UNL     1      10.255  14.213 -16.685  1.00  0.00     0.000 C 
BRANCH  20  21
ATOM     21  C   UNL     1       9.105  15.014 -17.331  1.00  0.00     0.000 C 
BRANCH  21  22
ATOM     22  C   UNL     1       9.484  15.699 -18.657  1.00  0.00     0.000 C 
BRANCH  22  23
ATOM     23  C   UNL     1       8.314  15.945 -19.623  1.00  0.00     0.000 C 
BRANCH  23  24
ATOM     24  C   UNL     1       8.321  15.070 -20.892  1.00  0.00    -0.000 C 
BRANCH  24  25
ATOM     25  C   UNL     1       8.332  13.554 -20.608  1.00  0.00    -0.000 C 
BRANCH  25  26
ATOM     26  C   UNL     1       7.263  12.792 -21.414  1.00  0.00    -0.000 C 
BRANCH  26  27
ATOM     27  C   UNL     1       6.041  13.680 -21.730  1.00  0.00    -0.000 C 
BRANCH  27  28
ATOM     28  C   UNL     1       5.119  13.100 -22.817  1.00  0.00    -0.000 C 
BRANCH  28  29
ATOM     29  C   UNL     1       3.740  13.779 -22.850  1.00  0.00    -0.000 C 
BRANCH  29  30
ATOM     30  C   UNL     1       2.883  13.456 -21.610  1.00  0.00    -0.000 C 
BRANCH  30  31
ATOM     31  C   UNL     1       2.594  14.656 -20.689  1.00  0.00    -0.003 C 
ATOM     32  C   UNL     1       1.176  14.641 -20.116  1.00  0.00     0.004 C 
ENDBRANCH  30  31
ENDBRANCH  29  30
ENDBRANCH  28  29
ENDBRANCH  27  28
ENDBRANCH  26  27
ENDBRANCH  25  26
ENDBRANCH  24  25
ENDBRANCH  23  24
ENDBRANCH  22  23
ENDBRANCH  21  22
ENDBRANCH  20  21
ENDBRANCH  19  20
ENDBRANCH  18  19
ENDBRANCH   1  18
TORSDOF 28
ENDMDL
MODEL 7
REMARK VINA RESULT:    -5.541      4.118     13.140
REMARK INTER + INTRA:         -16.261
REMARK INTER:                 -14.521
REMARK INTRA:                  -1.740
REMARK UNBOUND:                -1.651
REMARK SMILES CCCCCCCCCCCCCCCCCCCCCCCCCCCCCC(=O)[O-]
REMARK SMILES IDX 16 1 17 2 18 3 19 4 20 5 21 6 22 7 23 8 24 9 25 10 26 11
REMARK SMILES IDX 27 12 28 13 29 14 30 15 31 16 32 17 15 18 14 19 13 20 12 21
REMARK SMILES IDX 11 22 10 23 9 24 8 25 7 26 6 27 5 28 4 29 3 30 2 31 1 32
REMARK H PARENT
REMARK Flexibility Score: inf
ROOT
ATOM      1  C   UNL     1       6.895  13.249 -21.582  1.00  0.00     0.000 C 
ENDROOT
BRANCH   1   2
ATOM      2  C   UNL     1       8.079  13.928 -20.871  1.00  0.00     0.000 C 
BRANCH   2   3
ATOM      3  C   UNL     1       9.161  12.929 -20.417  1.00  0.00     0.000 C 
BRANCH   3   4
ATOM      4  C   UNL     1       9.608  13.069 -18.950  1.00  0.00     0.000 C 
BRANCH   4   5
ATOM      5  C   UNL     1      10.656  12.020 -18.532  1.00  0.00     0.000 C 
BRANCH   5   6
ATOM      6  C   UNL     1      10.638  10.763 -19.429  1.00  0.00     0.000 C 
BRANCH   6   7
ATOM      7  C   UNL     1      11.181   9.490 -18.745  1.00  0.00     0.000 C 
BRANCH   7   8
ATOM      8  C   UNL     1      12.101   8.611 -19.611  1.00  0.00     0.000 C 
BRANCH   8   9
ATOM      9  C   UNL     1      12.826   7.523 -18.800  1.00  0.00     0.000 C 
BRANCH   9  10
ATOM     10  C   UNL     1      13.828   6.704 -19.639  1.00  0.00     0.000 C 
BRANCH  10  11
ATOM     11  C   UNL     1      14.134   7.266 -21.041  1.00  0.00     0.000 C 
BRANCH  11  12
ATOM     12  C   UNL     1      15.627   7.259 -21.418  1.00  0.00     0.000 C 
BRANCH  12  13
ATOM     13  C   UNL     1      16.223   8.676 -21.605  1.00  0.00     0.006 C 
BRANCH  13  14
ATOM     14  C   UNL     1      17.189   9.083 -20.478  1.00  0.00     0.053 C 
BRANCH  14  15
ATOM     15  C   UNL     1      17.676  10.490 -20.637  1.00  0.00     0.041 C 
ATOM     16  O   UNL     1      17.866  10.973 -21.788  1.00  0.00    -0.550 OA
ATOM     17  O   UNL     1      17.864  11.295 -19.520  1.00  0.00    -0.550 OA
ENDBRANCH  14  15
ENDBRANCH  13  14
ENDBRANCH  12  13
ENDBRANCH  11  12
ENDBRANCH  10  11
ENDBRANCH   9  10
ENDBRANCH   8   9
ENDBRANCH   7   8
ENDBRANCH   6   7
ENDBRANCH   5   6
ENDBRANCH   4   5
ENDBRANCH   3   4
ENDBRANCH   2   3
ENDBRANCH   1   2
BRANCH   1  18
ATOM     18  C   UNL     1       5.687  14.183 -21.745  1.00  0.00     0.000 C 
BRANCH  18  19
ATOM     19  C   UNL     1       4.747  13.740 -22.882  1.00  0.00     0.000 C 
BRANCH  19  20
ATOM     20  C   UNL     1       3.298  13.511 -22.413  1.00  0.00     0.000 C 
BRANCH  20  21
ATOM     21  C   UNL     1       2.875  14.388 -21.216  1.00  0.00     0.000 C 
BRANCH  21  22
ATOM     22  C   UNL     1       1.672  13.837 -20.428  1.00  0.00     0.000 C 
BRANCH  22  23
ATOM     23  C   UNL     1       1.990  13.357 -19.002  1.00  0.00     0.000 C 
BRANCH  23  24
ATOM     24  C   UNL     1       1.432  14.247 -17.874  1.00  0.00    -0.000 C 
BRANCH  24  25
ATOM     25  C   UNL     1       1.685  13.695 -16.456  1.00  0.00    -0.000 C 
BRANCH  25  26
ATOM     26  C   UNL     1       2.099  12.211 -16.465  1.00  0.00    -0.000 C 
BRANCH  26  27
ATOM     27  C   UNL     1       1.199  11.357 -15.547  1.00  0.00    -0.000 C 
BRANCH  27  28
ATOM     28  C   UNL     1       1.813  11.076 -14.165  1.00  0.00    -0.000 C 
BRANCH  28  29
ATOM     29  C   UNL     1       3.242  11.625 -14.028  1.00  0.00    -0.000 C 
BRANCH  29  30
ATOM     30  C   UNL     1       3.349  12.772 -13.004  1.00  0.00    -0.000 C 
BRANCH  30  31
ATOM     31  C   UNL     1       3.865  14.105 -13.573  1.00  0.00    -0.003 C 
ATOM     32  C   UNL     1       5.147  13.949 -14.392  1.00  0.00     0.004 C 
ENDBRANCH  30  31
ENDBRANCH  29  30
ENDBRANCH  28  29
ENDBRANCH  27  28
ENDBRANCH  26  27
ENDBRANCH  25  26
ENDBRANCH  24  25
ENDBRANCH  23  24
ENDBRANCH  22  23
ENDBRANCH  21  22
ENDBRANCH  20  21
ENDBRANCH  19  20
ENDBRANCH  18  19
ENDBRANCH   1  18
TORSDOF 28
ENDMDL
MODEL 8
REMARK VINA RESULT:    -5.531      6.038      8.685
REMARK INTER + INTRA:         -16.235
REMARK INTER:                 -13.282
REMARK INTRA:                  -2.953
REMARK UNBOUND:                -1.651
REMARK SMILES CCCCCCCCCCCCCCCCCCCCCCCCCCCCCC(=O)[O-]
REMARK SMILES IDX 16 1 17 2 18 3 19 4 20 5 21 6 22 7 23 8 24 9 25 10 26 11
REMARK SMILES IDX 27 12 28 13 29 14 30 15 31 16 32 17 15 18 14 19 13 20 12 21
REMARK SMILES IDX 11 22 10 23 9 24 8 25 7 26 6 27 5 28 4 29 3 30 2 31 1 32
REMARK H PARENT
REMARK Flexibility Score: inf
ROOT
ATOM      1  C   UNL     1       0.789  13.236 -19.971  1.00  0.00     0.000 C 
ENDROOT
BRANCH   1   2
ATOM      2  C   UNL     1       0.346  12.250 -18.875  1.00  0.00     0.000 C 
BRANCH   2   3
ATOM      3  C   UNL     1       0.098  12.933 -17.517  1.00  0.00     0.000 C 
BRANCH   3   4
ATOM      4  C   UNL     1       0.317  14.458 -17.500  1.00  0.00     0.000 C 
BRANCH   4   5
ATOM      5  C   UNL     1       1.410  14.904 -16.509  1.00  0.00     0.000 C 
BRANCH   5   6
ATOM      6  C   UNL     1       2.451  13.798 -16.227  1.00  0.00     0.000 C 
BRANCH   6   7
ATOM      7  C   UNL     1       3.352  14.076 -15.005  1.00  0.00     0.000 C 
BRANCH   7   8
ATOM      8  C   UNL     1       3.768  12.839 -14.191  1.00  0.00     0.000 C 
BRANCH   8   9
ATOM      9  C   UNL     1       3.556  13.019 -12.677  1.00  0.00     0.000 C 
BRANCH   9  10
ATOM     10  C   UNL     1       2.321  12.267 -12.141  1.00  0.00     0.000 C 
BRANCH  10  11
ATOM     11  C   UNL     1       1.440  11.593 -13.210  1.00  0.00     0.000 C 
BRANCH  11  12
ATOM     12  C   UNL     1       1.026  10.149 -12.877  1.00  0.00     0.000 C 
BRANCH  12  13
ATOM     13  C   UNL     1       1.671   9.092 -13.807  1.00  0.00     0.006 C 
BRANCH  13  14
ATOM     14  C   UNL     1       2.091   9.660 -15.175  1.00  0.00     0.053 C 
BRANCH  14  15
ATOM     15  C   UNL     1       3.210   8.877 -15.788  1.00  0.00     0.041 C 
ATOM     16  O   UNL     1       4.391   9.013 -15.362  1.00  0.00    -0.550 OA
ATOM     17  O   UNL     1       2.948   7.950 -16.789  1.00  0.00    -0.550 OA
ENDBRANCH  14  15
ENDBRANCH  13  14
ENDBRANCH  12  13
ENDBRANCH  11  12
ENDBRANCH  10  11
ENDBRANCH   9  10
ENDBRANCH   8   9
ENDBRANCH   7   8
ENDBRANCH   6   7
ENDBRANCH   5   6
ENDBRANCH   4   5
ENDBRANCH   3   4
ENDBRANCH   2   3
ENDBRANCH   1   2
BRANCH   1  18
ATOM     18  C   UNL     1       2.287  13.130 -20.293  1.00  0.00     0.000 C 
BRANCH  18  19
ATOM     19  C   UNL     1       2.728  14.125 -21.384  1.00  0.00     0.000 C 
BRANCH  19  20
ATOM     20  C   UNL     1       3.576  13.470 -22.490  1.00  0.00     0.000 C 
BRANCH  20  21
ATOM     21  C   UNL     1       5.097  13.664 -22.321  1.00  0.00     0.000 C 
BRANCH  21  22
ATOM     22  C   UNL     1       5.503  15.073 -21.851  1.00  0.00     0.000 C 
BRANCH  22  23
ATOM     23  C   UNL     1       6.909  15.178 -21.239  1.00  0.00     0.000 C 
BRANCH  23  24
ATOM     24  C   UNL     1       7.636  13.834 -21.039  1.00  0.00    -0.000 C 
BRANCH  24  25
ATOM     25  C   UNL     1       8.870  13.921 -20.117  1.00  0.00    -0.000 C 
BRANCH  25  26
ATOM     26  C   UNL     1       9.195  15.367 -19.698  1.00  0.00    -0.000 C 
BRANCH  26  27
ATOM     27  C   UNL     1       9.163  15.542 -18.164  1.00  0.00    -0.000 C 
BRANCH  27  28
ATOM     28  C   UNL     1       9.594  14.286 -17.389  1.00  0.00    -0.000 C 
BRANCH  28  29
ATOM     29  C   UNL     1       9.965  14.589 -15.928  1.00  0.00    -0.000 C 
BRANCH  29  30
ATOM     30  C   UNL     1       9.124  15.727 -15.319  1.00  0.00    -0.000 C 
BRANCH  30  31
ATOM     31  C   UNL     1       8.286  15.330 -14.090  1.00  0.00    -0.003 C 
ATOM     32  C   UNL     1       6.823  15.039 -14.432  1.00  0.00     0.004 C 
ENDBRANCH  30  31
ENDBRANCH  29  30
ENDBRANCH  28  29
ENDBRANCH  27  28
ENDBRANCH  26  27
ENDBRANCH  25  26
ENDBRANCH  24  25
ENDBRANCH  23  24
ENDBRANCH  22  23
ENDBRANCH  21  22
ENDBRANCH  20  21
ENDBRANCH  19  20
ENDBRANCH  18  19
ENDBRANCH   1  18
TORSDOF 28
ENDMDL
MODEL 9
REMARK VINA RESULT:    -5.457      4.741     13.529
REMARK INTER + INTRA:         -16.039
REMARK INTER:                 -14.416
REMARK INTRA:                  -1.623
REMARK UNBOUND:                -1.651
REMARK SMILES CCCCCCCCCCCCCCCCCCCCCCCCCCCCCC(=O)[O-]
REMARK SMILES IDX 16 1 17 2 18 3 19 4 20 5 21 6 22 7 23 8 24 9 25 10 26 11
REMARK SMILES IDX 27 12 28 13 29 14 30 15 31 16 32 17 15 18 14 19 13 20 12 21
REMARK SMILES IDX 11 22 10 23 9 24 8 25 7 26 6 27 5 28 4 29 3 30 2 31 1 32
REMARK H PARENT
REMARK Flexibility Score: inf
ROOT
ATOM      1  C   UNL     1      10.406  12.147 -16.226  1.00  0.00     0.000 C 
ENDROOT
BRANCH   1   2
ATOM      2  C   UNL     1      11.112  11.230 -17.240  1.00  0.00     0.000 C 
BRANCH   2   3
ATOM      3  C   UNL     1      10.658  11.476 -18.692  1.00  0.00     0.000 C 
BRANCH   3   4
ATOM      4  C   UNL     1      10.801  10.267 -19.636  1.00  0.00     0.000 C 
BRANCH   4   5
ATOM      5  C   UNL     1      11.458   9.046 -18.965  1.00  0.00     0.000 C 
BRANCH   5   6
ATOM      6  C   UNL     1      12.328   8.221 -19.940  1.00  0.00     0.000 C 
BRANCH   6   7
ATOM      7  C   UNL     1      13.343   7.288 -19.247  1.00  0.00     0.000 C 
BRANCH   7   8
ATOM      8  C   UNL     1      14.496   6.785 -20.133  1.00  0.00     0.000 C 
BRANCH   8   9
ATOM      9  C   UNL     1      14.897   7.793 -21.225  1.00  0.00     0.000 C 
BRANCH   9  10
ATOM     10  C   UNL     1      16.415   8.054 -21.284  1.00  0.00     0.000 C 
BRANCH  10  11
ATOM     11  C   UNL     1      17.009   8.795 -20.071  1.00  0.00     0.000 C 
BRANCH  11  12
ATOM     12  C   UNL     1      18.505   9.133 -20.200  1.00  0.00     0.000 C 
BRANCH  12  13
ATOM     13  C   UNL     1      18.772  10.554 -20.754  1.00  0.00     0.006 C 
BRANCH  13  14
ATOM     14  C   UNL     1      17.517  11.446 -20.771  1.00  0.00     0.053 C 
BRANCH  14  15
ATOM     15  C   UNL     1      17.753  12.758 -20.088  1.00  0.00     0.041 C 
ATOM     16  O   UNL     1      16.778  13.487 -19.753  1.00  0.00    -0.550 OA
ATOM     17  O   UNL     1      19.044  13.155 -19.764  1.00  0.00    -0.550 OA
ENDBRANCH  14  15
ENDBRANCH  13  14
ENDBRANCH  12  13
ENDBRANCH  11  12
ENDBRANCH  10  11
ENDBRANCH   9  10
ENDBRANCH   8   9
ENDBRANCH   7   8
ENDBRANCH   6   7
ENDBRANCH   5   6
ENDBRANCH   4   5
ENDBRANCH   3   4
ENDBRANCH   2   3
ENDBRANCH   1   2
BRANCH   1  18
ATOM     18  C   UNL     1       9.760  13.374 -16.886  1.00  0.00     0.000 C 
BRANCH  18  19
ATOM     19  C   UNL     1       9.991  14.667 -16.081  1.00  0.00     0.000 C 
BRANCH  19  20
ATOM     20  C   UNL     1       8.918  15.740 -16.344  1.00  0.00     0.000 C 
BRANCH  20  21
ATOM     21  C   UNL     1       8.089  16.125 -15.101  1.00  0.00     0.000 C 
BRANCH  21  22
ATOM     22  C   UNL     1       7.286  14.959 -14.495  1.00  0.00     0.000 C 
BRANCH  22  23
ATOM     23  C   UNL     1       5.768  15.186 -14.410  1.00  0.00     0.000 C 
BRANCH  23  24
ATOM     24  C   UNL     1       4.911  13.908 -14.506  1.00  0.00    -0.000 C 
BRANCH  24  25
ATOM     25  C   UNL     1       3.400  14.152 -14.312  1.00  0.00    -0.000 C 
BRANCH  25  26
ATOM     26  C   UNL     1       2.551  13.528 -15.436  1.00  0.00    -0.000 C 
BRANCH  26  27
ATOM     27  C   UNL     1       2.159  14.569 -16.506  1.00  0.00    -0.000 C 
BRANCH  27  28
ATOM     28  C   UNL     1       1.213  14.018 -17.587  1.00  0.00    -0.000 C 
BRANCH  28  29
ATOM     29  C   UNL     1       1.734  12.721 -18.227  1.00  0.00    -0.000 C 
BRANCH  29  30
ATOM     30  C   UNL     1       1.842  12.810 -19.762  1.00  0.00    -0.000 C 
BRANCH  30  31
ATOM     31  C   UNL     1       2.612  14.035 -20.290  1.00  0.00    -0.003 C 
ATOM     32  C   UNL     1       2.930  13.943 -21.783  1.00  0.00     0.004 C 
ENDBRANCH  30  31
ENDBRANCH  29  30
ENDBRANCH  28  29
ENDBRANCH  27  28
ENDBRANCH  26  27
ENDBRANCH  25  26
ENDBRANCH  24  25
ENDBRANCH  23  24
ENDBRANCH  22  23
ENDBRANCH  21  22
ENDBRANCH  20  21
ENDBRANCH  19  20
ENDBRANCH  18  19
ENDBRANCH   1  18
TORSDOF 28
ENDMDL
