MODEL 1
REMARK VINA RESULT:    -5.704      0.000      0.000
REMARK INTER + INTRA:         -18.247
REMARK INTER:                 -14.875
REMARK INTRA:                  -3.372
REMARK UNBOUND:                -3.372
REMARK SMILES CCCCCCCCCCCCCCCCCCCCCCCCCCCCCO
REMARK SMILES IDX 16 1 15 2 14 3 13 4 12 5 11 6 10 7 9 8 8 9 7 10 6 11 5 12
REMARK SMILES IDX 4 13 3 14 2 15 1 16 17 17 18 18 19 19 20 20 21 21 22 22
REMARK SMILES IDX 23 23 24 24 25 25 26 26 27 27 28 28 29 29 30 30
REMARK H PARENT 30 31
REMARK Flexibility Score: inf
ROOT
ATOM      1  C   UNL     1      19.369  -3.105  15.888  1.00  0.00     0.000 C 
ENDROOT
BRANCH   1   2
ATOM      2  C   UNL     1      20.726  -3.032  15.170  1.00  0.00     0.000 C 
BRANCH   2   3
ATOM      3  C   UNL     1      21.047  -4.310  14.376  1.00  0.00     0.000 C 
BRANCH   3   4
ATOM      4  C   UNL     1      22.301  -5.028  14.901  1.00  0.00     0.000 C 
BRANCH   4   5
ATOM      5  C   UNL     1      22.817  -4.429  16.222  1.00  0.00     0.000 C 
BRANCH   5   6
ATOM      6  C   UNL     1      24.351  -4.364  16.287  1.00  0.00     0.000 C 
BRANCH   6   7
ATOM      7  C   UNL     1      25.021  -5.382  15.348  1.00  0.00     0.000 C 
BRANCH   7   8
ATOM      8  C   UNL     1      25.988  -6.323  16.083  1.00  0.00    -0.000 C 
BRANCH   8   9
ATOM      9  C   UNL     1      25.775  -6.320  17.605  1.00  0.00    -0.000 C 
BRANCH   9  10
ATOM     10  C   UNL     1      27.100  -6.079  18.344  1.00  0.00    -0.000 C 
BRANCH  10  11
ATOM     11  C   UNL     1      27.412  -4.586  18.540  1.00  0.00    -0.000 C 
BRANCH  11  12
ATOM     12  C   UNL     1      26.253  -3.750  19.117  1.00  0.00    -0.000 C 
BRANCH  12  13
ATOM     13  C   UNL     1      26.428  -2.227  18.932  1.00  0.00    -0.000 C 
BRANCH  13  14
ATOM     14  C   UNL     1      27.042  -1.872  17.565  1.00  0.00    -0.000 C 
BRANCH  14  15
ATOM     15  C   UNL     1      26.055  -1.133  16.648  1.00  0.00    -0.003 C 
ATOM     16  C   UNL     1      24.738  -0.797  17.345  1.00  0.00     0.004 C 
ENDBRANCH  14  15
ENDBRANCH  13  14
ENDBRANCH  12  13
ENDBRANCH  11  12
ENDBRANCH  10  11
ENDBRANCH   9  10
ENDBRANCH   8   9
ENDBRANCH   7   8
ENDBRANCH   6   7
ENDBRANCH   5   6
ENDBRANCH   4   5
ENDBRANCH   3   4
ENDBRANCH   2   3
ENDBRANCH   1   2
BRANCH   1  17
ATOM     17  C   UNL     1      18.830  -4.539  15.999  1.00  0.00     0.000 C 
BRANCH  17  18
ATOM     18  C   UNL     1      19.339  -5.218  17.276  1.00  0.00     0.000 C 
BRANCH  18  19
ATOM     19  C   UNL     1      19.705  -6.687  17.012  1.00  0.00     0.000 C 
BRANCH  19  20
ATOM     20  C   UNL     1      18.691  -7.401  16.100  1.00  0.00     0.000 C 
BRANCH  20  21
ATOM     21  C   UNL     1      18.754  -8.942  16.138  1.00  0.00     0.000 C 
BRANCH  21  22
ATOM     22  C   UNL     1      17.556  -9.628  16.824  1.00  0.00     0.000 C 
BRANCH  22  23
ATOM     23  C   UNL     1      16.614 -10.397  15.877  1.00  0.00     0.000 C 
BRANCH  23  24
ATOM     24  C   UNL     1      16.877 -10.179  14.376  1.00  0.00     0.000 C 
BRANCH  24  25
ATOM     25  C   UNL     1      15.737  -9.420  13.674  1.00  0.00     0.000 C 
BRANCH  25  26
ATOM     26  C   UNL     1      15.637  -7.954  14.126  1.00  0.00     0.000 C 
BRANCH  26  27
ATOM     27  C   UNL     1      14.201  -7.407  14.055  1.00  0.00     0.002 C 
BRANCH  27  28
ATOM     28  C   UNL     1      13.153  -8.433  14.521  1.00  0.00     0.028 C 
BRANCH  28  29
ATOM     29  C   UNL     1      11.720  -8.093  14.090  1.00  0.00     0.156 C 
BRANCH  29  30
ATOM     30  O   UNL     1      11.723  -7.235  12.980  1.00  0.00    -0.396 OA
ATOM     31  H   UNL     1      12.619  -7.312  12.559  1.00  0.00     0.210 HD
ENDBRANCH  29  30
ENDBRANCH  28  29
ENDBRANCH  27  28
ENDBRANCH  26  27
ENDBRANCH  25  26
ENDBRANCH  24  25
ENDBRANCH  23  24
ENDBRANCH  22  23
ENDBRANCH  21  22
ENDBRANCH  20  21
ENDBRANCH  19  20
ENDBRANCH  18  19
ENDBRANCH  17  18
ENDBRANCH   1  17
TORSDOF 28
ENDMDL
MODEL 2
REMARK VINA RESULT:    -5.643      2.989     11.099
REMARK INTER + INTRA:         -18.087
REMARK INTER:                 -14.819
REMARK INTRA:                  -3.269
REMARK UNBOUND:                -3.372
REMARK SMILES CCCCCCCCCCCCCCCCCCCCCCCCCCCCCO
REMARK SMILES IDX 16 1 15 2 14 3 13 4 12 5 11 6 10 7 9 8 8 9 7 10 6 11 5 12
REMARK SMILES IDX 4 13 3 14 2 15 1 16 17 17 18 18 19 19 20 20 21 21 22 22
REMARK SMILES IDX 23 23 24 24 25 25 26 26 27 27 28 28 29 29 30 30
REMARK H PARENT 30 31
REMARK Flexibility Score: inf
ROOT
ATOM      1  C   UNL     1      19.619  -6.438  17.243  1.00  0.00     0.000 C 
ENDROOT
BRANCH   1   2
ATOM      2  C   UNL     1      18.809  -6.937  16.036  1.00  0.00     0.000 C 
BRANCH   2   3
ATOM      3  C   UNL     1      18.988  -8.444  15.783  1.00  0.00     0.000 C 
BRANCH   3   4
ATOM      4  C   UNL     1      18.024  -9.299  16.621  1.00  0.00     0.000 C 
BRANCH   4   5
ATOM      5  C   UNL     1      17.809 -10.703  16.026  1.00  0.00     0.000 C 
BRANCH   5   6
ATOM      6  C   UNL     1      16.386 -11.236  16.259  1.00  0.00     0.000 C 
BRANCH   6   7
ATOM      7  C   UNL     1      15.407 -10.795  15.158  1.00  0.00     0.000 C 
BRANCH   7   8
ATOM      8  C   UNL     1      16.109 -10.475  13.830  1.00  0.00    -0.000 C 
BRANCH   8   9
ATOM      9  C   UNL     1      15.771  -9.071  13.304  1.00  0.00    -0.000 C 
BRANCH   9  10
ATOM     10  C   UNL     1      15.400  -8.127  14.457  1.00  0.00    -0.000 C 
BRANCH  10  11
ATOM     11  C   UNL     1      14.046  -7.429  14.247  1.00  0.00    -0.000 C 
BRANCH  11  12
ATOM     12  C   UNL     1      13.023  -8.232  13.420  1.00  0.00    -0.000 C 
BRANCH  12  13
ATOM     13  C   UNL     1      12.109  -9.141  14.270  1.00  0.00    -0.000 C 
BRANCH  13  14
ATOM     14  C   UNL     1      12.076  -8.716  15.749  1.00  0.00    -0.000 C 
BRANCH  14  15
ATOM     15  C   UNL     1      10.653  -8.704  16.329  1.00  0.00    -0.003 C 
ATOM     16  C   UNL     1      10.459  -7.631  17.399  1.00  0.00     0.004 C 
ENDBRANCH  14  15
ENDBRANCH  13  14
ENDBRANCH  12  13
ENDBRANCH  11  12
ENDBRANCH  10  11
ENDBRANCH   9  10
ENDBRANCH   8   9
ENDBRANCH   7   8
ENDBRANCH   6   7
ENDBRANCH   5   6
ENDBRANCH   4   5
ENDBRANCH   3   4
ENDBRANCH   2   3
ENDBRANCH   1   2
BRANCH   1  17
ATOM     17  C   UNL     1      19.526  -4.917  17.437  1.00  0.00     0.000 C 
BRANCH  17  18
ATOM     18  C   UNL     1      18.727  -4.269  16.300  1.00  0.00     0.000 C 
BRANCH  18  19
ATOM     19  C   UNL     1      19.322  -2.906  15.915  1.00  0.00     0.000 C 
BRANCH  19  20
ATOM     20  C   UNL     1      20.684  -3.027  15.205  1.00  0.00     0.000 C 
BRANCH  20  21
ATOM     21  C   UNL     1      20.792  -4.190  14.197  1.00  0.00     0.000 C 
BRANCH  21  22
ATOM     22  C   UNL     1      21.832  -5.269  14.554  1.00  0.00     0.000 C 
BRANCH  22  23
ATOM     23  C   UNL     1      22.854  -4.859  15.633  1.00  0.00     0.000 C 
BRANCH  23  24
ATOM     24  C   UNL     1      24.309  -5.270  15.344  1.00  0.00     0.000 C 
BRANCH  24  25
ATOM     25  C   UNL     1      25.292  -4.787  16.426  1.00  0.00     0.000 C 
BRANCH  25  26
ATOM     26  C   UNL     1      24.861  -3.455  17.062  1.00  0.00     0.000 C 
BRANCH  26  27
ATOM     27  C   UNL     1      25.969  -2.388  17.014  1.00  0.00     0.002 C 
BRANCH  27  28
ATOM     28  C   UNL     1      25.807  -1.317  18.107  1.00  0.00     0.028 C 
BRANCH  28  29
ATOM     29  C   UNL     1      25.031  -0.076  17.648  1.00  0.00     0.156 C 
BRANCH  29  30
ATOM     30  O   UNL     1      23.727  -0.083  18.166  1.00  0.00    -0.396 OA
ATOM     31  H   UNL     1      23.527  -1.020  18.430  1.00  0.00     0.210 HD
ENDBRANCH  29  30
ENDBRANCH  28  29
ENDBRANCH  27  28
ENDBRANCH  26  27
ENDBRANCH  25  26
ENDBRANCH  24  25
ENDBRANCH  23  24
ENDBRANCH  22  23
ENDBRANCH  21  22
ENDBRANCH  20  21
ENDBRANCH  19  20
ENDBRANCH  18  19
ENDBRANCH  17  18
ENDBRANCH   1  17
TORSDOF 28
ENDMDL
MODEL 3
REMARK VINA RESULT:    -5.583      2.819     10.629
REMARK INTER + INTRA:         -17.931
REMARK INTER:                 -14.920
REMARK INTRA:                  -3.011
REMARK UNBOUND:                -3.372
REMARK SMILES CCCCCCCCCCCCCCCCCCCCCCCCCCCCCO
REMARK SMILES IDX 16 1 15 2 14 3 13 4 12 5 11 6 10 7 9 8 8 9 7 10 6 11 5 12
REMARK SMILES IDX 4 13 3 14 2 15 1 16 17 17 18 18 19 19 20 20 21 21 22 22
REMARK SMILES IDX 23 23 24 24 25 25 26 26 27 27 28 28 29 29 30 30
REMARK H PARENT 30 31
REMARK Flexibility Score: inf
ROOT
ATOM      1  C   UNL     1      20.549  -3.353  15.401  1.00  0.00     0.000 C 
ENDROOT
BRANCH   1   2
ATOM      2  C   UNL     1      19.039  -3.354  15.682  1.00  0.00     0.000 C 
BRANCH   2   3
ATOM      3  C   UNL     1      18.660  -4.223  16.894  1.00  0.00     0.000 C 
BRANCH   3   4
ATOM      4  C   UNL     1      19.866  -4.980  17.474  1.00  0.00     0.000 C 
BRANCH   4   5
ATOM      5  C   UNL     1      19.768  -6.501  17.263  1.00  0.00     0.000 C 
BRANCH   5   6
ATOM      6  C   UNL     1      18.881  -6.879  16.066  1.00  0.00     0.000 C 
BRANCH   6   7
ATOM      7  C   UNL     1      18.838  -8.397  15.824  1.00  0.00     0.000 C 
BRANCH   7   8
ATOM      8  C   UNL     1      18.211  -9.169  16.995  1.00  0.00    -0.000 C 
BRANCH   8   9
ATOM      9  C   UNL     1      17.009 -10.025  16.565  1.00  0.00    -0.000 C 
BRANCH   9  10
ATOM     10  C   UNL     1      17.007 -10.245  15.045  1.00  0.00    -0.000 C 
BRANCH  10  11
ATOM     11  C   UNL     1      15.699  -9.787  14.377  1.00  0.00    -0.000 C 
BRANCH  11  12
ATOM     12  C   UNL     1      15.687  -8.318  13.910  1.00  0.00    -0.000 C 
BRANCH  12  13
ATOM     13  C   UNL     1      14.357  -7.585  14.190  1.00  0.00    -0.000 C 
BRANCH  13  14
ATOM     14  C   UNL     1      13.174  -8.212  13.431  1.00  0.00    -0.000 C 
BRANCH  14  15
ATOM     15  C   UNL     1      11.825  -7.945  14.115  1.00  0.00    -0.003 C 
ATOM     16  C   UNL     1      10.730  -7.541  13.127  1.00  0.00     0.004 C 
ENDBRANCH  14  15
ENDBRANCH  13  14
ENDBRANCH  12  13
ENDBRANCH  11  12
ENDBRANCH  10  11
ENDBRANCH   9  10
ENDBRANCH   8   9
ENDBRANCH   7   8
ENDBRANCH   6   7
ENDBRANCH   5   6
ENDBRANCH   4   5
ENDBRANCH   3   4
ENDBRANCH   2   3
ENDBRANCH   1   2
BRANCH   1  17
ATOM     17  C   UNL     1      20.941  -4.281  14.241  1.00  0.00     0.000 C 
BRANCH  17  18
ATOM     18  C   UNL     1      22.128  -5.171  14.630  1.00  0.00     0.000 C 
BRANCH  18  19
ATOM     19  C   UNL     1      22.892  -4.580  15.825  1.00  0.00     0.000 C 
BRANCH  19  20
ATOM     20  C   UNL     1      24.101  -5.437  16.244  1.00  0.00     0.000 C 
BRANCH  20  21
ATOM     21  C   UNL     1      25.305  -5.379  15.281  1.00  0.00     0.000 C 
BRANCH  21  22
ATOM     22  C   UNL     1      26.610  -5.988  15.830  1.00  0.00     0.000 C 
BRANCH  22  23
ATOM     23  C   UNL     1      26.446  -6.850  17.097  1.00  0.00     0.000 C 
BRANCH  23  24
ATOM     24  C   UNL     1      27.183  -6.326  18.343  1.00  0.00     0.000 C 
BRANCH  24  25
ATOM     25  C   UNL     1      27.389  -4.802  18.319  1.00  0.00     0.000 C 
BRANCH  25  26
ATOM     26  C   UNL     1      26.364  -4.054  19.187  1.00  0.00     0.000 C 
BRANCH  26  27
ATOM     27  C   UNL     1      26.324  -2.544  18.891  1.00  0.00     0.002 C 
BRANCH  27  28
ATOM     28  C   UNL     1      25.226  -2.168  17.881  1.00  0.00     0.028 C 
BRANCH  28  29
ATOM     29  C   UNL     1      25.143  -0.664  17.589  1.00  0.00     0.156 C 
BRANCH  29  30
ATOM     30  O   UNL     1      23.900  -0.146  17.983  1.00  0.00    -0.396 OA
ATOM     31  H   UNL     1      23.417  -0.880  18.447  1.00  0.00     0.210 HD
ENDBRANCH  29  30
ENDBRANCH  28  29
ENDBRANCH  27  28
ENDBRANCH  26  27
ENDBRANCH  25  26
ENDBRANCH  24  25
ENDBRANCH  23  24
ENDBRANCH  22  23
ENDBRANCH  21  22
ENDBRANCH  20  21
ENDBRANCH  19  20
ENDBRANCH  18  19
ENDBRANCH  17  18
ENDBRANCH   1  17
TORSDOF 28
ENDMDL
MODEL 4
REMARK VINA RESULT:    -5.496      2.982     11.085
REMARK INTER + INTRA:         -17.704
REMARK INTER:                 -13.794
REMARK INTRA:                  -3.910
REMARK UNBOUND:                -3.372
REMARK SMILES CCCCCCCCCCCCCCCCCCCCCCCCCCCCCO
REMARK SMILES IDX 16 1 15 2 14 3 13 4 12 5 11 6 10 7 9 8 8 9 7 10 6 11 5 12
REMARK SMILES IDX 4 13 3 14 2 15 1 16 17 17 18 18 19 19 20 20 21 21 22 22
REMARK SMILES IDX 23 23 24 24 25 25 26 26 27 27 28 28 29 29 30 30
REMARK H PARENT 30 31
REMARK Flexibility Score: inf
ROOT
ATOM      1  C   UNL     1      18.860  -4.274  15.841  1.00  0.00     0.000 C 
ENDROOT
BRANCH   1   2
ATOM      2  C   UNL     1      19.178  -4.879  17.218  1.00  0.00     0.000 C 
BRANCH   2   3
ATOM      3  C   UNL     1      19.372  -6.404  17.166  1.00  0.00     0.000 C 
BRANCH   3   4
ATOM      4  C   UNL     1      18.735  -7.035  15.918  1.00  0.00     0.000 C 
BRANCH   4   5
ATOM      5  C   UNL     1      18.735  -8.574  15.967  1.00  0.00     0.000 C 
BRANCH   5   6
ATOM      6  C   UNL     1      17.346  -9.177  15.705  1.00  0.00     0.000 C 
BRANCH   6   7
ATOM      7  C   UNL     1      16.520  -8.341  14.713  1.00  0.00     0.000 C 
BRANCH   7   8
ATOM      8  C   UNL     1      15.937  -9.182  13.567  1.00  0.00    -0.000 C 
BRANCH   8   9
ATOM      9  C   UNL     1      14.620  -8.608  13.021  1.00  0.00    -0.000 C 
BRANCH   9  10
ATOM     10  C   UNL     1      13.865  -7.833  14.111  1.00  0.00    -0.000 C 
BRANCH  10  11
ATOM     11  C   UNL     1      12.352  -7.749  13.845  1.00  0.00    -0.000 C 
BRANCH  11  12
ATOM     12  C   UNL     1      11.494  -8.742  14.654  1.00  0.00    -0.000 C 
BRANCH  12  13
ATOM     13  C   UNL     1      12.265  -9.458  15.783  1.00  0.00    -0.000 C 
BRANCH  13  14
ATOM     14  C   UNL     1      12.280 -10.987  15.601  1.00  0.00    -0.000 C 
BRANCH  14  15
ATOM     15  C   UNL     1      13.673 -11.525  15.240  1.00  0.00    -0.003 C 
ATOM     16  C   UNL     1      14.636 -11.521  16.426  1.00  0.00     0.004 C 
ENDBRANCH  14  15
ENDBRANCH  13  14
ENDBRANCH  12  13
ENDBRANCH  11  12
ENDBRANCH  10  11
ENDBRANCH   9  10
ENDBRANCH   8   9
ENDBRANCH   7   8
ENDBRANCH   6   7
ENDBRANCH   5   6
ENDBRANCH   4   5
ENDBRANCH   3   4
ENDBRANCH   2   3
ENDBRANCH   1   2
BRANCH   1  17
ATOM     17  C   UNL     1      19.831  -3.152  15.443  1.00  0.00     0.000 C 
BRANCH  17  18
ATOM     18  C   UNL     1      20.603  -3.523  14.171  1.00  0.00     0.000 C 
BRANCH  18  19
ATOM     19  C   UNL     1      21.037  -4.996  14.199  1.00  0.00     0.000 C 
BRANCH  19  20
ATOM     20  C   UNL     1      22.489  -5.183  14.676  1.00  0.00     0.000 C 
BRANCH  20  21
ATOM     21  C   UNL     1      22.640  -5.596  16.155  1.00  0.00     0.000 C 
BRANCH  21  22
ATOM     22  C   UNL     1      22.928  -4.438  17.131  1.00  0.00     0.000 C 
BRANCH  22  23
ATOM     23  C   UNL     1      23.563  -3.187  16.490  1.00  0.00     0.000 C 
BRANCH  23  24
ATOM     24  C   UNL     1      24.709  -2.551  17.297  1.00  0.00     0.000 C 
BRANCH  24  25
ATOM     25  C   UNL     1      26.092  -2.804  16.672  1.00  0.00     0.000 C 
BRANCH  25  26
ATOM     26  C   UNL     1      26.152  -4.124  15.885  1.00  0.00     0.000 C 
BRANCH  26  27
ATOM     27  C   UNL     1      26.716  -5.287  16.719  1.00  0.00     0.002 C 
BRANCH  27  28
ATOM     28  C   UNL     1      26.252  -6.663  16.207  1.00  0.00     0.028 C 
BRANCH  28  29
ATOM     29  C   UNL     1      25.930  -7.663  17.325  1.00  0.00     0.156 C 
BRANCH  29  30
ATOM     30  O   UNL     1      25.681  -8.938  16.797  1.00  0.00    -0.396 OA
ATOM     31  H   UNL     1      26.542  -9.273  16.431  1.00  0.00     0.210 HD
ENDBRANCH  29  30
ENDBRANCH  28  29
ENDBRANCH  27  28
ENDBRANCH  26  27
ENDBRANCH  25  26
ENDBRANCH  24  25
ENDBRANCH  23  24
ENDBRANCH  22  23
ENDBRANCH  21  22
ENDBRANCH  20  21
ENDBRANCH  19  20
ENDBRANCH  18  19
ENDBRANCH  17  18
ENDBRANCH   1  17
TORSDOF 28
ENDMDL
MODEL 5
REMARK VINA RESULT:    -5.484      2.878     10.788
REMARK INTER + INTRA:         -17.672
REMARK INTER:                 -14.489
REMARK INTRA:                  -3.183
REMARK UNBOUND:                -3.372
REMARK SMILES CCCCCCCCCCCCCCCCCCCCCCCCCCCCCO
REMARK SMILES IDX 16 1 15 2 14 3 13 4 12 5 11 6 10 7 9 8 8 9 7 10 6 11 5 12
REMARK SMILES IDX 4 13 3 14 2 15 1 16 17 17 18 18 19 19 20 20 21 21 22 22
REMARK SMILES IDX 23 23 24 24 25 25 26 26 27 27 28 28 29 29 30 30
REMARK H PARENT 30 31
REMARK Flexibility Score: inf
ROOT
ATOM      1  C   UNL     1      18.354  -4.113  16.099  1.00  0.00     0.000 C 
ENDROOT
BRANCH   1   2
ATOM      2  C   UNL     1      19.209  -4.677  17.244  1.00  0.00     0.000 C 
BRANCH   2   3
ATOM      3  C   UNL     1      19.364  -6.206  17.173  1.00  0.00     0.000 C 
BRANCH   3   4
ATOM      4  C   UNL     1      18.924  -6.779  15.816  1.00  0.00     0.000 C 
BRANCH   4   5
ATOM      5  C   UNL     1      19.051  -8.311  15.753  1.00  0.00     0.000 C 
BRANCH   5   6
ATOM      6  C   UNL     1      18.071  -9.029  16.695  1.00  0.00     0.000 C 
BRANCH   6   7
ATOM      7  C   UNL     1      17.806 -10.483  16.270  1.00  0.00     0.000 C 
BRANCH   7   8
ATOM      8  C   UNL     1      16.361 -10.929  16.542  1.00  0.00    -0.000 C 
BRANCH   8   9
ATOM      9  C   UNL     1      15.379 -10.450  15.462  1.00  0.00    -0.000 C 
BRANCH   9  10
ATOM     10  C   UNL     1      16.063 -10.386  14.088  1.00  0.00    -0.000 C 
BRANCH  10  11
ATOM     11  C   UNL     1      15.759  -9.083  13.329  1.00  0.00    -0.000 C 
BRANCH  11  12
ATOM     12  C   UNL     1      15.549  -7.845  14.223  1.00  0.00    -0.000 C 
BRANCH  12  13
ATOM     13  C   UNL     1      14.182  -7.156  14.024  1.00  0.00    -0.000 C 
BRANCH  13  14
ATOM     14  C   UNL     1      13.011  -8.032  14.505  1.00  0.00    -0.000 C 
BRANCH  14  15
ATOM     15  C   UNL     1      12.092  -8.474  13.356  1.00  0.00    -0.003 C 
ATOM     16  C   UNL     1      10.868  -7.574  13.197  1.00  0.00     0.004 C 
ENDBRANCH  14  15
ENDBRANCH  13  14
ENDBRANCH  12  13
ENDBRANCH  11  12
ENDBRANCH  10  11
ENDBRANCH   9  10
ENDBRANCH   8   9
ENDBRANCH   7   8
ENDBRANCH   6   7
ENDBRANCH   5   6
ENDBRANCH   4   5
ENDBRANCH   3   4
ENDBRANCH   2   3
ENDBRANCH   1   2
BRANCH   1  17
ATOM     17  C   UNL     1      19.109  -3.088  15.239  1.00  0.00     0.000 C 
BRANCH  17  18
ATOM     18  C   UNL     1      20.622  -3.331  15.300  1.00  0.00     0.000 C 
BRANCH  18  19
ATOM     19  C   UNL     1      21.071  -4.295  14.191  1.00  0.00     0.000 C 
BRANCH  19  20
ATOM     20  C   UNL     1      22.248  -5.191  14.618  1.00  0.00     0.000 C 
BRANCH  20  21
ATOM     21  C   UNL     1      22.597  -5.137  16.120  1.00  0.00     0.000 C 
BRANCH  21  22
ATOM     22  C   UNL     1      24.026  -5.591  16.475  1.00  0.00     0.000 C 
BRANCH  22  23
ATOM     23  C   UNL     1      25.092  -5.291  15.402  1.00  0.00     0.000 C 
BRANCH  23  24
ATOM     24  C   UNL     1      26.366  -4.600  15.921  1.00  0.00     0.000 C 
BRANCH  24  25
ATOM     25  C   UNL     1      26.466  -4.609  17.457  1.00  0.00     0.000 C 
BRANCH  25  26
ATOM     26  C   UNL     1      27.171  -3.359  18.010  1.00  0.00     0.000 C 
BRANCH  26  27
ATOM     27  C   UNL     1      26.190  -2.217  18.330  1.00  0.00     0.002 C 
BRANCH  27  28
ATOM     28  C   UNL     1      26.232  -1.090  17.282  1.00  0.00     0.028 C 
BRANCH  28  29
ATOM     29  C   UNL     1      25.184   0.007  17.511  1.00  0.00     0.156 C 
BRANCH  29  30
ATOM     30  O   UNL     1      24.043  -0.516  18.137  1.00  0.00    -0.396 OA
ATOM     31  H   UNL     1      23.871   0.045  18.939  1.00  0.00     0.210 HD
ENDBRANCH  29  30
ENDBRANCH  28  29
ENDBRANCH  27  28
ENDBRANCH  26  27
ENDBRANCH  25  26
ENDBRANCH  24  25
ENDBRANCH  23  24
ENDBRANCH  22  23
ENDBRANCH  21  22
ENDBRANCH  20  21
ENDBRANCH  19  20
ENDBRANCH  18  19
ENDBRANCH  17  18
ENDBRANCH   1  17
TORSDOF 28
ENDMDL
MODEL 6
REMARK VINA RESULT:    -5.454      2.891     11.076
REMARK INTER + INTRA:         -17.595
REMARK INTER:                 -14.670
REMARK INTRA:                  -2.924
REMARK UNBOUND:                -3.372
REMARK SMILES CCCCCCCCCCCCCCCCCCCCCCCCCCCCCO
REMARK SMILES IDX 16 1 15 2 14 3 13 4 12 5 11 6 10 7 9 8 8 9 7 10 6 11 5 12
REMARK SMILES IDX 4 13 3 14 2 15 1 16 17 17 18 18 19 19 20 20 21 21 22 22
REMARK SMILES IDX 23 23 24 24 25 25 26 26 27 27 28 28 29 29 30 30
REMARK H PARENT 30 31
REMARK Flexibility Score: inf
ROOT
ATOM      1  C   UNL     1      18.222  -4.347  15.340  1.00  0.00     0.000 C 
ENDROOT
BRANCH   1   2
ATOM      2  C   UNL     1      18.686  -5.770  14.991  1.00  0.00     0.000 C 
BRANCH   2   3
ATOM      3  C   UNL     1      19.031  -6.604  16.237  1.00  0.00     0.000 C 
BRANCH   3   4
ATOM      4  C   UNL     1      18.957  -8.116  15.971  1.00  0.00     0.000 C 
BRANCH   4   5
ATOM      5  C   UNL     1      18.147  -8.867  17.042  1.00  0.00     0.000 C 
BRANCH   5   6
ATOM      6  C   UNL     1      17.338 -10.039  16.463  1.00  0.00     0.000 C 
BRANCH   6   7
ATOM      7  C   UNL     1      17.533 -10.193  14.946  1.00  0.00     0.000 C 
BRANCH   7   8
ATOM      8  C   UNL     1      16.203 -10.309  14.183  1.00  0.00    -0.000 C 
BRANCH   8   9
ATOM      9  C   UNL     1      15.843  -9.024  13.422  1.00  0.00    -0.000 C 
BRANCH   9  10
ATOM     10  C   UNL     1      15.528  -7.878  14.396  1.00  0.00    -0.000 C 
BRANCH  10  11
ATOM     11  C   UNL     1      14.282  -7.073  13.987  1.00  0.00    -0.000 C 
BRANCH  11  12
ATOM     12  C   UNL     1      12.992  -7.903  13.838  1.00  0.00    -0.000 C 
BRANCH  12  13
ATOM     13  C   UNL     1      12.469  -8.487  15.168  1.00  0.00    -0.000 C 
BRANCH  13  14
ATOM     14  C   UNL     1      10.931  -8.554  15.212  1.00  0.00    -0.000 C 
BRANCH  14  15
ATOM     15  C   UNL     1      10.388  -8.743  16.636  1.00  0.00    -0.003 C 
ATOM     16  C   UNL     1      10.646  -7.532  17.533  1.00  0.00     0.004 C 
ENDBRANCH  14  15
ENDBRANCH  13  14
ENDBRANCH  12  13
ENDBRANCH  11  12
ENDBRANCH  10  11
ENDBRANCH   9  10
ENDBRANCH   8   9
ENDBRANCH   7   8
ENDBRANCH   6   7
ENDBRANCH   5   6
ENDBRANCH   4   5
ENDBRANCH   3   4
ENDBRANCH   2   3
ENDBRANCH   1   2
BRANCH   1  17
ATOM     17  C   UNL     1      18.880  -3.801  16.617  1.00  0.00     0.000 C 
BRANCH  17  18
ATOM     18  C   UNL     1      19.772  -2.595  16.299  1.00  0.00     0.000 C 
BRANCH  18  19
ATOM     19  C   UNL     1      21.137  -3.045  15.758  1.00  0.00     0.000 C 
BRANCH  19  20
ATOM     20  C   UNL     1      21.753  -4.198  16.573  1.00  0.00     0.000 C 
BRANCH  20  21
ATOM     21  C   UNL     1      22.650  -5.159  15.765  1.00  0.00     0.000 C 
BRANCH  21  22
ATOM     22  C   UNL     1      24.155  -4.830  15.798  1.00  0.00     0.000 C 
BRANCH  22  23
ATOM     23  C   UNL     1      24.569  -3.767  16.835  1.00  0.00     0.000 C 
BRANCH  23  24
ATOM     24  C   UNL     1      25.947  -3.125  16.598  1.00  0.00     0.000 C 
BRANCH  24  25
ATOM     25  C   UNL     1      27.105  -3.972  17.155  1.00  0.00     0.000 C 
BRANCH  25  26
ATOM     26  C   UNL     1      27.814  -4.792  16.064  1.00  0.00     0.000 C 
BRANCH  26  27
ATOM     27  C   UNL     1      27.448  -6.285  16.111  1.00  0.00     0.002 C 
BRANCH  27  28
ATOM     28  C   UNL     1      26.929  -6.725  17.492  1.00  0.00     0.028 C 
BRANCH  28  29
ATOM     29  C   UNL     1      25.908  -7.869  17.435  1.00  0.00     0.156 C 
BRANCH  29  30
ATOM     30  O   UNL     1      24.707  -7.497  18.056  1.00  0.00    -0.396 OA
ATOM     31  H   UNL     1      24.909  -7.363  19.019  1.00  0.00     0.210 HD
ENDBRANCH  29  30
ENDBRANCH  28  29
ENDBRANCH  27  28
ENDBRANCH  26  27
ENDBRANCH  25  26
ENDBRANCH  24  25
ENDBRANCH  23  24
ENDBRANCH  22  23
ENDBRANCH  21  22
ENDBRANCH  20  21
ENDBRANCH  19  20
ENDBRANCH  18  19
ENDBRANCH  17  18
ENDBRANCH   1  17
TORSDOF 28
ENDMDL
MODEL 7
REMARK VINA RESULT:    -5.435      1.283      1.869
REMARK INTER + INTRA:         -17.546
REMARK INTER:                 -14.107
REMARK INTRA:                  -3.438
REMARK UNBOUND:                -3.372
REMARK SMILES CCCCCCCCCCCCCCCCCCCCCCCCCCCCCO
REMARK SMILES IDX 16 1 15 2 14 3 13 4 12 5 11 6 10 7 9 8 8 9 7 10 6 11 5 12
REMARK SMILES IDX 4 13 3 14 2 15 1 16 17 17 18 18 19 19 20 20 21 21 22 22
REMARK SMILES IDX 23 23 24 24 25 25 26 26 27 27 28 28 29 29 30 30
REMARK H PARENT 30 31
REMARK Flexibility Score: inf
ROOT
ATOM      1  C   UNL     1      18.766  -3.747  15.909  1.00  0.00     0.000 C 
ENDROOT
BRANCH   1   2
ATOM      2  C   UNL     1      19.803  -2.613  15.870  1.00  0.00     0.000 C 
BRANCH   2   3
ATOM      3  C   UNL     1      21.016  -2.949  14.985  1.00  0.00     0.000 C 
BRANCH   3   4
ATOM      4  C   UNL     1      20.836  -4.268  14.217  1.00  0.00     0.000 C 
BRANCH   4   5
ATOM      5  C   UNL     1      21.937  -5.295  14.540  1.00  0.00     0.000 C 
BRANCH   5   6
ATOM      6  C   UNL     1      23.095  -4.691  15.349  1.00  0.00     0.000 C 
BRANCH   6   7
ATOM      7  C   UNL     1      23.472  -5.551  16.567  1.00  0.00     0.000 C 
BRANCH   7   8
ATOM      8  C   UNL     1      24.905  -6.101  16.487  1.00  0.00    -0.000 C 
BRANCH   8   9
ATOM      9  C   UNL     1      25.704  -5.504  15.318  1.00  0.00    -0.000 C 
BRANCH   9  10
ATOM     10  C   UNL     1      26.894  -4.679  15.830  1.00  0.00    -0.000 C 
BRANCH  10  11
ATOM     11  C   UNL     1      27.179  -4.906  17.325  1.00  0.00    -0.000 C 
BRANCH  11  12
ATOM     12  C   UNL     1      27.186  -3.627  18.186  1.00  0.00    -0.000 C 
BRANCH  12  13
ATOM     13  C   UNL     1      25.804  -3.261  18.770  1.00  0.00    -0.000 C 
BRANCH  13  14
ATOM     14  C   UNL     1      25.388  -1.819  18.426  1.00  0.00    -0.000 C 
BRANCH  14  15
ATOM     15  C   UNL     1      25.227  -1.595  16.914  1.00  0.00    -0.003 C 
ATOM     16  C   UNL     1      26.425  -0.879  16.291  1.00  0.00     0.004 C 
ENDBRANCH  14  15
ENDBRANCH  13  14
ENDBRANCH  12  13
ENDBRANCH  11  12
ENDBRANCH  10  11
ENDBRANCH   9  10
ENDBRANCH   8   9
ENDBRANCH   7   8
ENDBRANCH   6   7
ENDBRANCH   5   6
ENDBRANCH   4   5
ENDBRANCH   3   4
ENDBRANCH   2   3
ENDBRANCH   1   2
BRANCH   1  17
ATOM     17  C   UNL     1      18.741  -4.486  17.255  1.00  0.00     0.000 C 
BRANCH  17  18
ATOM     18  C   UNL     1      19.943  -5.430  17.383  1.00  0.00     0.000 C 
BRANCH  18  19
ATOM     19  C   UNL     1      19.494  -6.899  17.388  1.00  0.00     0.000 C 
BRANCH  19  20
ATOM     20  C   UNL     1      19.356  -7.487  15.972  1.00  0.00     0.000 C 
BRANCH  20  21
ATOM     21  C   UNL     1      18.074  -8.311  15.730  1.00  0.00     0.000 C 
BRANCH  21  22
ATOM     22  C   UNL     1      17.782  -9.390  16.791  1.00  0.00     0.000 C 
BRANCH  22  23
ATOM     23  C   UNL     1      18.007 -10.842  16.323  1.00  0.00     0.000 C 
BRANCH  23  24
ATOM     24  C   UNL     1      16.747 -11.728  16.315  1.00  0.00     0.000 C 
BRANCH  24  25
ATOM     25  C   UNL     1      15.461 -10.934  16.029  1.00  0.00     0.000 C 
BRANCH  25  26
ATOM     26  C   UNL     1      15.090 -10.928  14.537  1.00  0.00     0.000 C 
BRANCH  26  27
ATOM     27  C   UNL     1      13.955  -9.942  14.211  1.00  0.00     0.002 C 
BRANCH  27  28
ATOM     28  C   UNL     1      14.424  -8.768  13.332  1.00  0.00     0.028 C 
BRANCH  28  29
ATOM     29  C   UNL     1      14.811  -7.515  14.128  1.00  0.00     0.156 C 
BRANCH  29  30
ATOM     30  O   UNL     1      14.416  -6.352  13.451  1.00  0.00    -0.396 OA
ATOM     31  H   UNL     1      14.953  -6.308  12.616  1.00  0.00     0.210 HD
ENDBRANCH  29  30
ENDBRANCH  28  29
ENDBRANCH  27  28
ENDBRANCH  26  27
ENDBRANCH  25  26
ENDBRANCH  24  25
ENDBRANCH  23  24
ENDBRANCH  22  23
ENDBRANCH  21  22
ENDBRANCH  20  21
ENDBRANCH  19  20
ENDBRANCH  18  19
ENDBRANCH  17  18
ENDBRANCH   1  17
TORSDOF 28
ENDMDL
MODEL 8
REMARK VINA RESULT:    -5.416      2.825     11.590
REMARK INTER + INTRA:         -17.496
REMARK INTER:                 -14.756
REMARK INTRA:                  -2.740
REMARK UNBOUND:                -3.372
REMARK SMILES CCCCCCCCCCCCCCCCCCCCCCCCCCCCCO
REMARK SMILES IDX 16 1 15 2 14 3 13 4 12 5 11 6 10 7 9 8 8 9 7 10 6 11 5 12
REMARK SMILES IDX 4 13 3 14 2 15 1 16 17 17 18 18 19 19 20 20 21 21 22 22
REMARK SMILES IDX 23 23 24 24 25 25 26 26 27 27 28 28 29 29 30 30
REMARK H PARENT 30 31
REMARK Flexibility Score: inf
ROOT
ATOM      1  C   UNL     1      18.820  -4.279  15.984  1.00  0.00     0.000 C 
ENDROOT
BRANCH   1   2
ATOM      2  C   UNL     1      19.209  -5.068  17.244  1.00  0.00     0.000 C 
BRANCH   2   3
ATOM      3  C   UNL     1      19.657  -6.506  16.930  1.00  0.00     0.000 C 
BRANCH   3   4
ATOM      4  C   UNL     1      18.675  -7.238  16.002  1.00  0.00     0.000 C 
BRANCH   4   5
ATOM      5  C   UNL     1      18.468  -8.710  16.402  1.00  0.00     0.000 C 
BRANCH   5   6
ATOM      6  C   UNL     1      17.253  -9.349  15.712  1.00  0.00     0.000 C 
BRANCH   6   7
ATOM      7  C   UNL     1      16.688  -8.469  14.584  1.00  0.00     0.000 C 
BRANCH   7   8
ATOM      8  C   UNL     1      15.712  -9.225  13.670  1.00  0.00    -0.000 C 
BRANCH   8   9
ATOM      9  C   UNL     1      14.602  -8.321  13.111  1.00  0.00    -0.000 C 
BRANCH   9  10
ATOM     10  C   UNL     1      13.928  -7.519  14.234  1.00  0.00    -0.000 C 
BRANCH  10  11
ATOM     11  C   UNL     1      12.916  -8.353  15.039  1.00  0.00    -0.000 C 
BRANCH  11  12
ATOM     12  C   UNL     1      11.879  -9.113  14.189  1.00  0.00    -0.000 C 
BRANCH  12  13
ATOM     13  C   UNL     1      10.427  -8.958  14.691  1.00  0.00    -0.000 C 
BRANCH  13  14
ATOM     14  C   UNL     1       9.771  -7.658  14.189  1.00  0.00    -0.000 C 
BRANCH  14  15
ATOM     15  C   UNL     1      10.289  -7.231  12.806  1.00  0.00    -0.003 C 
ATOM     16  C   UNL     1       9.200  -7.256  11.734  1.00  0.00     0.004 C 
ENDBRANCH  14  15
ENDBRANCH  13  14
ENDBRANCH  12  13
ENDBRANCH  11  12
ENDBRANCH  10  11
ENDBRANCH   9  10
ENDBRANCH   8   9
ENDBRANCH   7   8
ENDBRANCH   6   7
ENDBRANCH   5   6
ENDBRANCH   4   5
ENDBRANCH   3   4
ENDBRANCH   2   3
ENDBRANCH   1   2
BRANCH   1  17
ATOM     17  C   UNL     1      19.460  -2.883  15.932  1.00  0.00     0.000 C 
BRANCH  17  18
ATOM     18  C   UNL     1      20.699  -2.882  15.029  1.00  0.00     0.000 C 
BRANCH  18  19
ATOM     19  C   UNL     1      20.828  -4.210  14.268  1.00  0.00     0.000 C 
BRANCH  19  20
ATOM     20  C   UNL     1      22.098  -4.995  14.646  1.00  0.00     0.000 C 
BRANCH  20  21
ATOM     21  C   UNL     1      22.703  -4.634  16.018  1.00  0.00     0.000 C 
BRANCH  21  22
ATOM     22  C   UNL     1      24.049  -5.312  16.337  1.00  0.00     0.000 C 
BRANCH  22  23
ATOM     23  C   UNL     1      25.257  -4.767  15.549  1.00  0.00     0.000 C 
BRANCH  23  24
ATOM     24  C   UNL     1      26.510  -4.475  16.395  1.00  0.00     0.000 C 
BRANCH  24  25
ATOM     25  C   UNL     1      26.254  -4.604  17.907  1.00  0.00     0.000 C 
BRANCH  25  26
ATOM     26  C   UNL     1      26.851  -3.436  18.708  1.00  0.00     0.000 C 
BRANCH  26  27
ATOM     27  C   UNL     1      25.813  -2.348  19.034  1.00  0.00     0.002 C 
BRANCH  27  28
ATOM     28  C   UNL     1      26.049  -1.049  18.242  1.00  0.00     0.028 C 
BRANCH  28  29
ATOM     29  C   UNL     1      25.027  -0.813  17.122  1.00  0.00     0.156 C 
BRANCH  29  30
ATOM     30  O   UNL     1      23.925  -1.668  17.264  1.00  0.00    -0.396 OA
ATOM     31  H   UNL     1      24.282  -2.558  17.527  1.00  0.00     0.210 HD
ENDBRANCH  29  30
ENDBRANCH  28  29
ENDBRANCH  27  28
ENDBRANCH  26  27
ENDBRANCH  25  26
ENDBRANCH  24  25
ENDBRANCH  23  24
ENDBRANCH  22  23
ENDBRANCH  21  22
ENDBRANCH  20  21
ENDBRANCH  19  20
ENDBRANCH  18  19
ENDBRANCH  17  18
ENDBRANCH   1  17
TORSDOF 28
ENDMDL
MODEL 9
REMARK VINA RESULT:    -5.404      3.061     10.998
REMARK INTER + INTRA:         -17.463
REMARK INTER:                 -14.155
REMARK INTRA:                  -3.309
REMARK UNBOUND:                -3.372
REMARK SMILES CCCCCCCCCCCCCCCCCCCCCCCCCCCCCO
REMARK SMILES IDX 16 1 15 2 14 3 13 4 12 5 11 6 10 7 9 8 8 9 7 10 6 11 5 12
REMARK SMILES IDX 4 13 3 14 2 15 1 16 17 17 18 18 19 19 20 20 21 21 22 22
REMARK SMILES IDX 23 23 24 24 25 25 26 26 27 27 28 28 29 29 30 30
REMARK H PARENT 30 31
REMARK Flexibility Score: inf
ROOT
ATOM      1  C   UNL     1      18.754  -6.210  15.369  1.00  0.00     0.000 C 
ENDROOT
BRANCH   1   2
ATOM      2  C   UNL     1      19.490  -6.705  16.624  1.00  0.00     0.000 C 
BRANCH   2   3
ATOM      3  C   UNL     1      18.857  -7.974  17.221  1.00  0.00     0.000 C 
BRANCH   3   4
ATOM      4  C   UNL     1      18.260  -8.895  16.146  1.00  0.00     0.000 C 
BRANCH   4   5
ATOM      5  C   UNL     1      18.011 -10.324  16.662  1.00  0.00     0.000 C 
BRANCH   5   6
ATOM      6  C   UNL     1      17.616 -11.301  15.543  1.00  0.00     0.000 C 
BRANCH   6   7
ATOM      7  C   UNL     1      16.126 -11.677  15.591  1.00  0.00     0.000 C 
BRANCH   7   8
ATOM      8  C   UNL     1      15.302 -10.733  16.481  1.00  0.00    -0.000 C 
BRANCH   8   9
ATOM      9  C   UNL     1      13.833 -11.167  16.606  1.00  0.00    -0.000 C 
BRANCH   9  10
ATOM     10  C   UNL     1      13.213 -11.410  15.222  1.00  0.00    -0.000 C 
BRANCH  10  11
ATOM     11  C   UNL     1      12.050 -10.451  14.913  1.00  0.00    -0.000 C 
BRANCH  11  12
ATOM     12  C   UNL     1      12.391  -8.954  15.044  1.00  0.00    -0.000 C 
BRANCH  12  13
ATOM     13  C   UNL     1      13.063  -8.354  13.790  1.00  0.00    -0.000 C 
BRANCH  13  14
ATOM     14  C   UNL     1      14.092  -7.265  14.144  1.00  0.00    -0.000 C 
BRANCH  14  15
ATOM     15  C   UNL     1      15.525  -7.812  14.233  1.00  0.00    -0.003 C 
ATOM     16  C   UNL     1      15.783  -8.956  13.254  1.00  0.00     0.004 C 
ENDBRANCH  14  15
ENDBRANCH  13  14
ENDBRANCH  12  13
ENDBRANCH  11  12
ENDBRANCH  10  11
ENDBRANCH   9  10
ENDBRANCH   8   9
ENDBRANCH   7   8
ENDBRANCH   6   7
ENDBRANCH   5   6
ENDBRANCH   4   5
ENDBRANCH   3   4
ENDBRANCH   2   3
ENDBRANCH   1   2
BRANCH   1  17
ATOM     17  C   UNL     1      18.367  -4.726  15.451  1.00  0.00     0.000 C 
BRANCH  17  18
ATOM     18  C   UNL     1      19.025  -4.055  16.662  1.00  0.00     0.000 C 
BRANCH  18  19
ATOM     19  C   UNL     1      19.623  -2.692  16.280  1.00  0.00     0.000 C 
BRANCH  19  20
ATOM     20  C   UNL     1      20.990  -2.812  15.581  1.00  0.00     0.000 C 
BRANCH  20  21
ATOM     21  C   UNL     1      21.863  -3.991  16.059  1.00  0.00     0.000 C 
BRANCH  21  22
ATOM     22  C   UNL     1      22.268  -4.992  14.959  1.00  0.00     0.000 C 
BRANCH  22  23
ATOM     23  C   UNL     1      23.759  -5.382  14.948  1.00  0.00     0.000 C 
BRANCH  23  24
ATOM     24  C   UNL     1      24.521  -5.086  16.253  1.00  0.00     0.000 C 
BRANCH  24  25
ATOM     25  C   UNL     1      25.858  -4.363  16.013  1.00  0.00     0.000 C 
BRANCH  25  26
ATOM     26  C   UNL     1      26.165  -3.315  17.094  1.00  0.00     0.000 C 
BRANCH  26  27
ATOM     27  C   UNL     1      26.840  -2.054  16.526  1.00  0.00     0.002 C 
BRANCH  27  28
ATOM     28  C   UNL     1      26.060  -0.767  16.851  1.00  0.00     0.028 C 
BRANCH  28  29
ATOM     29  C   UNL     1      24.555  -0.988  17.046  1.00  0.00     0.156 C 
BRANCH  29  30
ATOM     30  O   UNL     1      24.063  -0.185  18.086  1.00  0.00    -0.396 OA
ATOM     31  H   UNL     1      24.449   0.721  17.958  1.00  0.00     0.210 HD
ENDBRANCH  29  30
ENDBRANCH  28  29
ENDBRANCH  27  28
ENDBRANCH  26  27
ENDBRANCH  25  26
ENDBRANCH  24  25
ENDBRANCH  23  24
ENDBRANCH  22  23
ENDBRANCH  21  22
ENDBRANCH  20  21
ENDBRANCH  19  20
ENDBRANCH  18  19
ENDBRANCH  17  18
ENDBRANCH   1  17
TORSDOF 28
ENDMDL
