MODEL 1
REMARK VINA RESULT:    -6.711      0.000      0.000
REMARK INTER + INTRA:          -7.354
REMARK INTER:                  -7.103
REMARK INTRA:                  -0.250
REMARK UNBOUND:                -0.250
REMARK SMILES O=c1cc(-c2ccccc2)oc2ccccc12
REMARK SMILES IDX 4 1 3 2 2 3 1 4 17 5 16 6 15 7 14 8 13 9 12 10 11 11 5 12
REMARK SMILES IDX 8 13 7 14 9 15 6 16 10 17
REMARK H PARENT
REMARK Flexibility Score: inf
ROOT
ATOM      1  C   UNL     1      -1.303   7.740  43.763  1.00  0.00     0.138 A 
ATOM      2  C   UNL     1      -0.683   8.464  42.724  1.00  0.00     0.100 A 
ATOM      3  C   UNL     1      -0.729   7.972  41.419  1.00  0.00     0.193 A 
ATOM      4  O   UNL     1      -0.174   8.621  40.489  1.00  0.00    -0.289 OA
ATOM      5  C   UNL     1      -1.391   6.764  41.159  1.00  0.00     0.065 A 
ATOM      6  C   UNL     1      -1.474   6.213  39.867  1.00  0.00     0.016 A 
ATOM      7  C   UNL     1      -2.147   5.004  39.664  1.00  0.00     0.001 A 
ATOM      8  C   UNL     1      -2.739   4.340  40.742  1.00  0.00     0.004 A 
ATOM      9  C   UNL     1      -2.662   4.880  42.028  1.00  0.00     0.048 A 
ATOM     10  C   UNL     1      -1.991   6.089  42.243  1.00  0.00     0.138 A 
ATOM     11  O   UNL     1      -1.922   6.595  43.470  1.00  0.00    -0.456 OA
ENDROOT
BRANCH   1  12
ATOM     12  C   UNL     1      -1.300   8.196  45.188  1.00  0.00     0.017 A 
ATOM     13  C   UNL     1      -1.389   9.024  47.885  1.00  0.00     0.000 A 
ATOM     14  C   UNL     1      -2.498   8.409  47.306  1.00  0.00     0.001 A 
ATOM     15  C   UNL     1      -0.235   9.229  47.128  1.00  0.00     0.001 A 
ATOM     16  C   UNL     1      -2.457   7.999  45.972  1.00  0.00     0.012 A 
ATOM     17  C   UNL     1      -0.185   8.821  45.791  1.00  0.00     0.012 A 
ENDBRANCH   1  12
TORSDOF 1
ENDMDL
MODEL 2
REMARK VINA RESULT:    -6.444      4.758      8.177
REMARK INTER + INTRA:          -7.071
REMARK INTER:                  -6.815
REMARK INTRA:                  -0.255
REMARK UNBOUND:                -0.250
REMARK SMILES O=c1cc(-c2ccccc2)oc2ccccc12
REMARK SMILES IDX 4 1 3 2 2 3 1 4 17 5 16 6 15 7 14 8 13 9 12 10 11 11 5 12
REMARK SMILES IDX 8 13 7 14 9 15 6 16 10 17
REMARK H PARENT
REMARK Flexibility Score: inf
ROOT
ATOM      1  C   UNL     1       1.475  10.419  47.438  1.00  0.00     0.138 A 
ATOM      2  C   UNL     1       1.412  11.348  48.498  1.00  0.00     0.100 A 
ATOM      3  C   UNL     1       2.560  12.049  48.868  1.00  0.00     0.193 A 
ATOM      4  O   UNL     1       2.503  12.881  49.816  1.00  0.00    -0.289 OA
ATOM      5  C   UNL     1       3.760  11.822  48.182  1.00  0.00     0.065 A 
ATOM      6  C   UNL     1       4.953  12.495  48.504  1.00  0.00     0.016 A 
ATOM      7  C   UNL     1       6.124  12.229  47.786  1.00  0.00     0.001 A 
ATOM      8  C   UNL     1       6.113  11.295  46.747  1.00  0.00     0.004 A 
ATOM      9  C   UNL     1       4.934  10.621  46.420  1.00  0.00     0.048 A 
ATOM     10  C   UNL     1       3.757  10.879  47.131  1.00  0.00     0.138 A 
ATOM     11  O   UNL     1       2.640  10.234  46.813  1.00  0.00    -0.456 OA
ENDROOT
BRANCH   1  12
ATOM     12  C   UNL     1       0.294   9.625  46.979  1.00  0.00     0.017 A 
ATOM     13  C   UNL     1      -1.971   8.129  46.206  1.00  0.00     0.000 A 
ATOM     14  C   UNL     1      -1.823   8.537  47.530  1.00  0.00     0.001 A 
ATOM     15  C   UNL     1      -0.999   8.461  45.263  1.00  0.00     0.001 A 
ATOM     16  C   UNL     1      -0.703   9.278  47.916  1.00  0.00     0.012 A 
ATOM     17  C   UNL     1       0.126   9.203  45.640  1.00  0.00     0.012 A 
ENDBRANCH   1  12
TORSDOF 1
ENDMDL
MODEL 3
REMARK VINA RESULT:    -6.303      3.143      5.652
REMARK INTER + INTRA:          -6.922
REMARK INTER:                  -6.656
REMARK INTRA:                  -0.266
REMARK UNBOUND:                -0.250
REMARK SMILES O=c1cc(-c2ccccc2)oc2ccccc12
REMARK SMILES IDX 4 1 3 2 2 3 1 4 17 5 16 6 15 7 14 8 13 9 12 10 11 11 5 12
REMARK SMILES IDX 8 13 7 14 9 15 6 16 10 17
REMARK H PARENT
REMARK Flexibility Score: inf
ROOT
ATOM      1  C   UNL     1       0.788   9.665  47.285  1.00  0.00     0.138 A 
ATOM      2  C   UNL     1      -0.226   9.390  48.226  1.00  0.00     0.100 A 
ATOM      3  C   UNL     1      -1.412   8.788  47.805  1.00  0.00     0.193 A 
ATOM      4  O   UNL     1      -2.319   8.541  48.647  1.00  0.00    -0.289 OA
ATOM      5  C   UNL     1      -1.579   8.463  46.452  1.00  0.00     0.065 A 
ATOM      6  C   UNL     1      -2.749   7.854  45.961  1.00  0.00     0.016 A 
ATOM      7  C   UNL     1      -2.864   7.552  44.600  1.00  0.00     0.001 A 
ATOM      8  C   UNL     1      -1.818   7.854  43.723  1.00  0.00     0.004 A 
ATOM      9  C   UNL     1      -0.652   8.458  44.202  1.00  0.00     0.048 A 
ATOM     10  C   UNL     1      -0.527   8.765  45.561  1.00  0.00     0.138 A 
ATOM     11  O   UNL     1       0.585   9.340  46.006  1.00  0.00    -0.456 OA
ENDROOT
BRANCH   1  12
ATOM     12  C   UNL     1       2.087  10.309  47.652  1.00  0.00     0.017 A 
ATOM     13  C   UNL     1       4.505  11.535  48.437  1.00  0.00     0.000 A 
ATOM     14  C   UNL     1       3.484  11.346  49.367  1.00  0.00     0.001 A 
ATOM     15  C   UNL     1       4.330  11.118  47.118  1.00  0.00     0.001 A 
ATOM     16  C   UNL     1       2.286  10.740  48.981  1.00  0.00     0.012 A 
ATOM     17  C   UNL     1       3.134  10.509  46.723  1.00  0.00     0.012 A 
ENDBRANCH   1  12
TORSDOF 1
ENDMDL
MODEL 4
REMARK VINA RESULT:    -6.171     13.495     15.380
REMARK INTER + INTRA:          -6.783
REMARK INTER:                  -6.549
REMARK INTRA:                  -0.233
REMARK UNBOUND:                -0.250
REMARK SMILES O=c1cc(-c2ccccc2)oc2ccccc12
REMARK SMILES IDX 4 1 3 2 2 3 1 4 17 5 16 6 15 7 14 8 13 9 12 10 11 11 5 12
REMARK SMILES IDX 8 13 7 14 9 15 6 16 10 17
REMARK H PARENT
REMARK Flexibility Score: inf
ROOT
ATOM      1  C   UNL     1       8.198   5.156  53.476  1.00  0.00     0.138 A 
ATOM      2  C   UNL     1       7.110   4.294  53.219  1.00  0.00     0.100 A 
ATOM      3  C   UNL     1       7.136   2.988  53.708  1.00  0.00     0.193 A 
ATOM      4  O   UNL     1       6.163   2.218  53.480  1.00  0.00    -0.289 OA
ATOM      5  C   UNL     1       8.243   2.549  54.448  1.00  0.00     0.065 A 
ATOM      6  C   UNL     1       8.332   1.245  54.971  1.00  0.00     0.016 A 
ATOM      7  C   UNL     1       9.460   0.860  55.702  1.00  0.00     0.001 A 
ATOM      8  C   UNL     1      10.502   1.766  55.917  1.00  0.00     0.004 A 
ATOM      9  C   UNL     1      10.421   3.063  55.403  1.00  0.00     0.048 A 
ATOM     10  C   UNL     1       9.298   3.460  54.670  1.00  0.00     0.138 A 
ATOM     11  O   UNL     1       9.231   4.695  54.185  1.00  0.00    -0.456 OA
ENDROOT
BRANCH   1  12
ATOM     12  C   UNL     1       8.250   6.568  52.988  1.00  0.00     0.017 A 
ATOM     13  C   UNL     1       8.432   9.212  52.016  1.00  0.00     0.000 A 
ATOM     14  C   UNL     1       9.378   8.261  51.635  1.00  0.00     0.001 A 
ATOM     15  C   UNL     1       7.397   8.855  52.878  1.00  0.00     0.001 A 
ATOM     16  C   UNL     1       9.291   6.952  52.114  1.00  0.00     0.012 A 
ATOM     17  C   UNL     1       7.301   7.546  53.363  1.00  0.00     0.012 A 
ENDBRANCH   1  12
TORSDOF 1
ENDMDL
MODEL 5
REMARK VINA RESULT:    -6.157      8.457     10.398
REMARK INTER + INTRA:          -6.768
REMARK INTER:                  -6.541
REMARK INTRA:                  -0.227
REMARK UNBOUND:                -0.250
REMARK SMILES O=c1cc(-c2ccccc2)oc2ccccc12
REMARK SMILES IDX 4 1 3 2 2 3 1 4 17 5 16 6 15 7 14 8 13 9 12 10 11 11 5 12
REMARK SMILES IDX 8 13 7 14 9 15 6 16 10 17
REMARK H PARENT
REMARK Flexibility Score: inf
ROOT
ATOM      1  C   UNL     1       6.929  10.725  46.811  1.00  0.00     0.138 A 
ATOM      2  C   UNL     1       7.779  11.823  46.564  1.00  0.00     0.100 A 
ATOM      3  C   UNL     1       9.020  11.611  45.963  1.00  0.00     0.193 A 
ATOM      4  O   UNL     1       9.781  12.594  45.741  1.00  0.00    -0.289 OA
ATOM      5  C   UNL     1       9.406  10.310  45.613  1.00  0.00     0.065 A 
ATOM      6  C   UNL     1      10.643  10.027  45.004  1.00  0.00     0.016 A 
ATOM      7  C   UNL     1      10.977   8.710  44.675  1.00  0.00     0.001 A 
ATOM      8  C   UNL     1      10.085   7.669  44.950  1.00  0.00     0.004 A 
ATOM      9  C   UNL     1       8.854   7.941  45.554  1.00  0.00     0.048 A 
ATOM     10  C   UNL     1       8.509   9.255  45.887  1.00  0.00     0.138 A 
ATOM     11  O   UNL     1       7.337   9.503  46.461  1.00  0.00    -0.456 OA
ENDROOT
BRANCH   1  12
ATOM     12  C   UNL     1       5.585  10.864  47.451  1.00  0.00     0.017 A 
ATOM     13  C   UNL     1       3.005  11.106  48.571  1.00  0.00     0.000 A 
ATOM     14  C   UNL     1       3.153  10.800  47.219  1.00  0.00     0.001 A 
ATOM     15  C   UNL     1       4.133  11.292  49.369  1.00  0.00     0.001 A 
ATOM     16  C   UNL     1       4.429  10.680  46.662  1.00  0.00     0.012 A 
ATOM     17  C   UNL     1       5.414  11.173  48.820  1.00  0.00     0.012 A 
ENDBRANCH   1  12
TORSDOF 1
ENDMDL
MODEL 6
REMARK VINA RESULT:    -6.080      1.400      6.132
REMARK INTER + INTRA:          -6.686
REMARK INTER:                  -6.426
REMARK INTRA:                  -0.259
REMARK UNBOUND:                -0.250
REMARK SMILES O=c1cc(-c2ccccc2)oc2ccccc12
REMARK SMILES IDX 4 1 3 2 2 3 1 4 17 5 16 6 15 7 14 8 13 9 12 10 11 11 5 12
REMARK SMILES IDX 8 13 7 14 9 15 6 16 10 17
REMARK H PARENT
REMARK Flexibility Score: inf
ROOT
ATOM      1  C   UNL     1      -1.699   6.239  40.930  1.00  0.00     0.138 A 
ATOM      2  C   UNL     1      -1.287   7.454  40.343  1.00  0.00     0.100 A 
ATOM      3  C   UNL     1      -1.008   8.552  41.157  1.00  0.00     0.193 A 
ATOM      4  O   UNL     1      -0.639   9.639  40.631  1.00  0.00    -0.289 OA
ATOM      5  C   UNL     1      -1.141   8.434  42.547  1.00  0.00     0.065 A 
ATOM      6  C   UNL     1      -0.875   9.502  43.424  1.00  0.00     0.016 A 
ATOM      7  C   UNL     1      -1.023   9.329  44.804  1.00  0.00     0.001 A 
ATOM      8  C   UNL     1      -1.436   8.095  45.317  1.00  0.00     0.004 A 
ATOM      9  C   UNL     1      -1.701   7.029  44.454  1.00  0.00     0.048 A 
ATOM     10  C   UNL     1      -1.556   7.191  43.071  1.00  0.00     0.138 A 
ATOM     11  O   UNL     1      -1.811   6.171  42.258  1.00  0.00    -0.456 OA
ENDROOT
BRANCH   1  12
ATOM     12  C   UNL     1      -2.018   5.016  40.132  1.00  0.00     0.017 A 
ATOM     13  C   UNL     1      -2.563   2.742  38.551  1.00  0.00     0.000 A 
ATOM     14  C   UNL     1      -1.732   3.749  38.062  1.00  0.00     0.001 A 
ATOM     15  C   UNL     1      -3.125   2.860  39.822  1.00  0.00     0.001 A 
ATOM     16  C   UNL     1      -1.461   4.875  38.843  1.00  0.00     0.012 A 
ATOM     17  C   UNL     1      -2.858   3.984  40.610  1.00  0.00     0.012 A 
ENDBRANCH   1  12
TORSDOF 1
ENDMDL
MODEL 7
REMARK VINA RESULT:    -6.066     14.417     16.892
REMARK INTER + INTRA:          -6.671
REMARK INTER:                  -6.420
REMARK INTRA:                  -0.251
REMARK UNBOUND:                -0.250
REMARK SMILES O=c1cc(-c2ccccc2)oc2ccccc12
REMARK SMILES IDX 4 1 3 2 2 3 1 4 17 5 16 6 15 7 14 8 13 9 12 10 11 11 5 12
REMARK SMILES IDX 8 13 7 14 9 15 6 16 10 17
REMARK H PARENT
REMARK Flexibility Score: inf
ROOT
ATOM      1  C   UNL     1      10.372   3.864  55.082  1.00  0.00     0.138 A 
ATOM      2  C   UNL     1      10.045   2.550  55.477  1.00  0.00     0.100 A 
ATOM      3  C   UNL     1       8.820   2.001  55.097  1.00  0.00     0.193 A 
ATOM      4  O   UNL     1       8.527   0.825  55.451  1.00  0.00    -0.289 OA
ATOM      5  C   UNL     1       7.930   2.763  54.327  1.00  0.00     0.065 A 
ATOM      6  C   UNL     1       6.680   2.270  53.910  1.00  0.00     0.016 A 
ATOM      7  C   UNL     1       5.831   3.074  53.143  1.00  0.00     0.001 A 
ATOM      8  C   UNL     1       6.220   4.368  52.787  1.00  0.00     0.004 A 
ATOM      9  C   UNL     1       7.460   4.866  53.196  1.00  0.00     0.048 A 
ATOM     10  C   UNL     1       8.318   4.071  53.964  1.00  0.00     0.138 A 
ATOM     11  O   UNL     1       9.495   4.553  54.349  1.00  0.00    -0.456 OA
ENDROOT
BRANCH   1  12
ATOM     12  C   UNL     1      11.662   4.527  55.447  1.00  0.00     0.017 A 
ATOM     13  C   UNL     1      14.142   5.691  56.125  1.00  0.00     0.000 A 
ATOM     14  C   UNL     1      14.069   4.333  55.817  1.00  0.00     0.001 A 
ATOM     15  C   UNL     1      12.988   6.473  56.098  1.00  0.00     0.001 A 
ATOM     16  C   UNL     1      12.843   3.755  55.481  1.00  0.00     0.012 A 
ATOM     17  C   UNL     1      11.756   5.902  55.762  1.00  0.00     0.012 A 
ENDBRANCH   1  12
TORSDOF 1
ENDMDL
MODEL 8
REMARK VINA RESULT:    -6.010      3.912      7.810
REMARK INTER + INTRA:          -6.612
REMARK INTER:                  -6.364
REMARK INTRA:                  -0.247
REMARK UNBOUND:                -0.250
REMARK SMILES O=c1cc(-c2ccccc2)oc2ccccc12
REMARK SMILES IDX 4 1 3 2 2 3 1 4 17 5 16 6 15 7 14 8 13 9 12 10 11 11 5 12
REMARK SMILES IDX 8 13 7 14 9 15 6 16 10 17
REMARK H PARENT
REMARK Flexibility Score: inf
ROOT
ATOM      1  C   UNL     1       0.404   9.901  46.989  1.00  0.00     0.138 A 
ATOM      2  C   UNL     1       0.825   9.533  48.284  1.00  0.00     0.100 A 
ATOM      3  C   UNL     1       1.764  10.320  48.953  1.00  0.00     0.193 A 
ATOM      4  O   UNL     1       2.140   9.991  50.112  1.00  0.00    -0.289 OA
ATOM      5  C   UNL     1       2.275  11.466  48.328  1.00  0.00     0.065 A 
ATOM      6  C   UNL     1       3.223  12.302  48.947  1.00  0.00     0.016 A 
ATOM      7  C   UNL     1       3.700  13.434  48.278  1.00  0.00     0.001 A 
ATOM      8  C   UNL     1       3.239  13.738  46.994  1.00  0.00     0.004 A 
ATOM      9  C   UNL     1       2.297  12.914  46.373  1.00  0.00     0.048 A 
ATOM     10  C   UNL     1       1.813  11.779  47.032  1.00  0.00     0.138 A 
ATOM     11  O   UNL     1       0.918  11.001  46.433  1.00  0.00    -0.456 OA
ENDROOT
BRANCH   1  12
ATOM     12  C   UNL     1      -0.596   9.115  46.203  1.00  0.00     0.017 A 
ATOM     13  C   UNL     1      -2.536   7.617  44.803  1.00  0.00     0.000 A 
ATOM     14  C   UNL     1      -2.687   7.852  46.169  1.00  0.00     0.001 A 
ATOM     15  C   UNL     1      -1.425   8.123  44.130  1.00  0.00     0.001 A 
ATOM     16  C   UNL     1      -1.728   8.593  46.864  1.00  0.00     0.012 A 
ATOM     17  C   UNL     1      -0.460   8.866  44.818  1.00  0.00     0.012 A 
ENDBRANCH   1  12
TORSDOF 1
ENDMDL
MODEL 9
REMARK VINA RESULT:    -5.923     13.931     16.317
REMARK INTER + INTRA:          -6.520
REMARK INTER:                  -6.260
REMARK INTRA:                  -0.260
REMARK UNBOUND:                -0.250
REMARK SMILES O=c1cc(-c2ccccc2)oc2ccccc12
REMARK SMILES IDX 4 1 3 2 2 3 1 4 17 5 16 6 15 7 14 8 13 9 12 10 11 11 5 12
REMARK SMILES IDX 8 13 7 14 9 15 6 16 10 17
REMARK H PARENT
REMARK Flexibility Score: inf
ROOT
ATOM      1  C   UNL     1      10.173   4.563  54.525  1.00  0.00     0.138 A 
ATOM      2  C   UNL     1       9.623   5.748  53.993  1.00  0.00     0.100 A 
ATOM      3  C   UNL     1       8.318   5.741  53.498  1.00  0.00     0.193 A 
ATOM      4  O   UNL     1       7.827   6.801  53.023  1.00  0.00    -0.289 OA
ATOM      5  C   UNL     1       7.571   4.556  53.539  1.00  0.00     0.065 A 
ATOM      6  C   UNL     1       6.250   4.480  53.058  1.00  0.00     0.016 A 
ATOM      7  C   UNL     1       5.550   3.271  53.122  1.00  0.00     0.001 A 
ATOM      8  C   UNL     1       6.158   2.135  53.663  1.00  0.00     0.004 A 
ATOM      9  C   UNL     1       7.468   2.201  54.144  1.00  0.00     0.048 A 
ATOM     10  C   UNL     1       8.179   3.405  54.084  1.00  0.00     0.138 A 
ATOM     11  O   UNL     1       9.425   3.458  54.543  1.00  0.00    -0.456 OA
ENDROOT
BRANCH   1  12
ATOM     12  C   UNL     1      11.562   4.484  55.074  1.00  0.00     0.017 A 
ATOM     13  C   UNL     1      14.181   4.433  56.123  1.00  0.00     0.000 A 
ATOM     14  C   UNL     1      13.487   5.639  56.037  1.00  0.00     0.001 A 
ATOM     15  C   UNL     1      13.580   3.252  55.689  1.00  0.00     0.001 A 
ATOM     16  C   UNL     1      12.190   5.667  55.518  1.00  0.00     0.012 A 
ATOM     17  C   UNL     1      12.282   3.271  55.168  1.00  0.00     0.012 A 
ENDBRANCH   1  12
TORSDOF 1
ENDMDL
