MODEL 1
REMARK VINA RESULT:    -4.835      0.000      0.000
REMARK INTER + INTRA:          -9.551
REMARK INTER:                  -8.509
REMARK INTRA:                  -1.042
REMARK UNBOUND:                -1.042
REMARK SMILES CCCCCCCCCCCCCCC(=O)[O-]
REMARK SMILES IDX 9 1 10 2 11 3 12 4 13 5 14 6 15 7 16 8 17 9 8 10 7 11 6 12
REMARK SMILES IDX 5 13 4 14 3 15 2 16 1 17
REMARK H PARENT
REMARK Flexibility Score: inf
ROOT
ATOM      1  C   UNL     1       2.211  26.047  48.969  1.00  0.00     0.000 C 
ENDROOT
BRANCH   1   2
ATOM      2  C   UNL     1       1.382  26.220  50.257  1.00  0.00     0.000 C 
BRANCH   2   3
ATOM      3  C   UNL     1       1.577  25.080  51.280  1.00  0.00     0.000 C 
BRANCH   3   4
ATOM      4  C   UNL     1       0.622  23.901  51.025  1.00  0.00     0.000 C 
BRANCH   4   5
ATOM      5  C   UNL     1       1.213  22.555  51.475  1.00  0.00     0.006 C 
BRANCH   5   6
ATOM      6  C   UNL     1       2.536  22.230  50.770  1.00  0.00     0.053 C 
BRANCH   6   7
ATOM      7  C   UNL     1       3.524  21.674  51.745  1.00  0.00     0.041 C 
ATOM      8  O   UNL     1       3.314  20.561  52.296  1.00  0.00    -0.550 OA
ATOM      9  O   UNL     1       4.702  22.360  52.009  1.00  0.00    -0.550 OA
ENDBRANCH   6   7
ENDBRANCH   5   6
ENDBRANCH   4   5
ENDBRANCH   3   4
ENDBRANCH   2   3
ENDBRANCH   1   2
BRANCH   1  10
ATOM     10  C   UNL     1       1.389  25.724  47.710  1.00  0.00     0.000 C 
BRANCH  10  11
ATOM     11  C   UNL     1       1.512  24.254  47.280  1.00  0.00    -0.000 C 
BRANCH  11  12
ATOM     12  C   UNL     1       1.215  24.095  45.785  1.00  0.00    -0.000 C 
BRANCH  12  13
ATOM     13  C   UNL     1       2.424  24.513  44.936  1.00  0.00    -0.000 C 
BRANCH  13  14
ATOM     14  C   UNL     1       2.936  23.381  44.031  1.00  0.00    -0.000 C 
BRANCH  14  15
ATOM     15  C   UNL     1       2.321  22.016  44.388  1.00  0.00    -0.000 C 
BRANCH  15  16
ATOM     16  C   UNL     1       1.509  21.416  43.230  1.00  0.00    -0.003 C 
ATOM     17  C   UNL     1       2.282  21.392  41.912  1.00  0.00     0.004 C 
ENDBRANCH  15  16
ENDBRANCH  14  15
ENDBRANCH  13  14
ENDBRANCH  12  13
ENDBRANCH  11  12
ENDBRANCH  10  11
ENDBRANCH   1  10
TORSDOF 13
ENDMDL
MODEL 2
REMARK VINA RESULT:    -4.754      3.452      6.929
REMARK INTER + INTRA:          -9.408
REMARK INTER:                  -8.385
REMARK INTRA:                  -1.023
REMARK UNBOUND:                -1.042
REMARK SMILES CCCCCCCCCCCCCCC(=O)[O-]
REMARK SMILES IDX 9 1 10 2 11 3 12 4 13 5 14 6 15 7 16 8 17 9 8 10 7 11 6 12
REMARK SMILES IDX 5 13 4 14 3 15 2 16 1 17
REMARK H PARENT
REMARK Flexibility Score: inf
ROOT
ATOM      1  C   UNL     1       1.303  25.324  50.188  1.00  0.00     0.000 C 
ENDROOT
BRANCH   1   2
ATOM      2  C   UNL     1       1.827  24.467  49.019  1.00  0.00     0.000 C 
BRANCH   2   3
ATOM      3  C   UNL     1       1.639  25.122  47.634  1.00  0.00     0.000 C 
BRANCH   3   4
ATOM      4  C   UNL     1       1.177  24.111  46.571  1.00  0.00     0.000 C 
BRANCH   4   5
ATOM      5  C   UNL     1       2.210  23.922  45.448  1.00  0.00     0.006 C 
BRANCH   5   6
ATOM      6  C   UNL     1       2.549  22.445  45.205  1.00  0.00     0.053 C 
BRANCH   6   7
ATOM      7  C   UNL     1       2.286  22.077  43.780  1.00  0.00     0.041 C 
ATOM      8  O   UNL     1       1.361  21.271  43.494  1.00  0.00    -0.550 OA
ATOM      9  O   UNL     1       3.028  22.660  42.762  1.00  0.00    -0.550 OA
ENDBRANCH   6   7
ENDBRANCH   5   6
ENDBRANCH   4   5
ENDBRANCH   3   4
ENDBRANCH   2   3
ENDBRANCH   1   2
BRANCH   1  10
ATOM     10  C   UNL     1       1.156  24.575  51.523  1.00  0.00     0.000 C 
BRANCH  10  11
ATOM     11  C   UNL     1       0.456  23.216  51.369  1.00  0.00    -0.000 C 
BRANCH  11  12
ATOM     12  C   UNL     1       1.446  22.063  51.576  1.00  0.00    -0.000 C 
BRANCH  12  13
ATOM     13  C   UNL     1       2.123  22.161  52.952  1.00  0.00    -0.000 C 
BRANCH  13  14
ATOM     14  C   UNL     1       3.633  21.882  52.892  1.00  0.00    -0.000 C 
BRANCH  14  15
ATOM     15  C   UNL     1       4.450  23.131  52.517  1.00  0.00    -0.000 C 
BRANCH  15  16
ATOM     16  C   UNL     1       4.812  23.171  51.024  1.00  0.00    -0.003 C 
ATOM     17  C   UNL     1       6.268  23.565  50.776  1.00  0.00     0.004 C 
ENDBRANCH  15  16
ENDBRANCH  14  15
ENDBRANCH  13  14
ENDBRANCH  12  13
ENDBRANCH  11  12
ENDBRANCH  10  11
ENDBRANCH   1  10
TORSDOF 13
ENDMDL
MODEL 3
REMARK VINA RESULT:    -4.733      1.395      2.364
REMARK INTER + INTRA:          -9.372
REMARK INTER:                  -8.459
REMARK INTRA:                  -0.913
REMARK UNBOUND:                -1.042
REMARK SMILES CCCCCCCCCCCCCCC(=O)[O-]
REMARK SMILES IDX 9 1 10 2 11 3 12 4 13 5 14 6 15 7 16 8 17 9 8 10 7 11 6 12
REMARK SMILES IDX 5 13 4 14 3 15 2 16 1 17
REMARK H PARENT
REMARK Flexibility Score: inf
ROOT
ATOM      1  C   UNL     1       1.890  24.959  47.800  1.00  0.00     0.000 C 
ENDROOT
BRANCH   1   2
ATOM      2  C   UNL     1       1.910  24.176  49.127  1.00  0.00     0.000 C 
BRANCH   2   3
ATOM      3  C   UNL     1       1.127  24.864  50.267  1.00  0.00     0.000 C 
BRANCH   3   4
ATOM      4  C   UNL     1       1.252  24.104  51.599  1.00  0.00     0.000 C 
BRANCH   4   5
ATOM      5  C   UNL     1       1.378  22.585  51.401  1.00  0.00     0.006 C 
BRANCH   5   6
ATOM      6  C   UNL     1       1.935  21.876  52.643  1.00  0.00     0.053 C 
BRANCH   6   7
ATOM      7  C   UNL     1       3.293  21.319  52.360  1.00  0.00     0.041 C 
ATOM      8  O   UNL     1       4.285  22.089  52.254  1.00  0.00    -0.550 OA
ATOM      9  O   UNL     1       3.475  19.946  52.261  1.00  0.00    -0.550 OA
ENDBRANCH   6   7
ENDBRANCH   5   6
ENDBRANCH   4   5
ENDBRANCH   3   4
ENDBRANCH   2   3
ENDBRANCH   1   2
BRANCH   1  10
ATOM     10  C   UNL     1       0.883  24.440  46.759  1.00  0.00     0.000 C 
BRANCH  10  11
ATOM     11  C   UNL     1       1.532  24.151  45.396  1.00  0.00    -0.000 C 
BRANCH  11  12
ATOM     12  C   UNL     1       2.328  22.842  45.436  1.00  0.00    -0.000 C 
BRANCH  12  13
ATOM     13  C   UNL     1       3.465  22.858  44.403  1.00  0.00    -0.000 C 
BRANCH  13  14
ATOM     14  C   UNL     1       2.962  22.672  42.962  1.00  0.00    -0.000 C 
BRANCH  14  15
ATOM     15  C   UNL     1       3.452  23.783  42.017  1.00  0.00    -0.000 C 
BRANCH  15  16
ATOM     16  C   UNL     1       4.110  24.949  42.771  1.00  0.00    -0.003 C 
ATOM     17  C   UNL     1       3.228  26.197  42.819  1.00  0.00     0.004 C 
ENDBRANCH  15  16
ENDBRANCH  14  15
ENDBRANCH  13  14
ENDBRANCH  12  13
ENDBRANCH  11  12
ENDBRANCH  10  11
ENDBRANCH   1  10
TORSDOF 13
ENDMDL
MODEL 4
REMARK VINA RESULT:    -4.716      1.385      2.431
REMARK INTER + INTRA:          -9.342
REMARK INTER:                  -8.437
REMARK INTRA:                  -0.905
REMARK UNBOUND:                -1.042
REMARK SMILES CCCCCCCCCCCCCCC(=O)[O-]
REMARK SMILES IDX 9 1 10 2 11 3 12 4 13 5 14 6 15 7 16 8 17 9 8 10 7 11 6 12
REMARK SMILES IDX 5 13 4 14 3 15 2 16 1 17
REMARK H PARENT
REMARK Flexibility Score: inf
ROOT
ATOM      1  C   UNL     1       1.658  24.805  50.962  1.00  0.00     0.000 C 
ENDROOT
BRANCH   1   2
ATOM      2  C   UNL     1       1.010  23.421  51.160  1.00  0.00     0.000 C 
BRANCH   2   3
ATOM      3  C   UNL     1       1.575  22.636  52.363  1.00  0.00     0.000 C 
BRANCH   3   4
ATOM      4  C   UNL     1       2.557  21.534  51.929  1.00  0.00     0.000 C 
BRANCH   4   5
ATOM      5  C   UNL     1       4.022  21.907  52.209  1.00  0.00     0.006 C 
BRANCH   5   6
ATOM      6  C   UNL     1       4.675  22.643  51.032  1.00  0.00     0.053 C 
BRANCH   6   7
ATOM      7  C   UNL     1       5.858  23.429  51.500  1.00  0.00     0.041 C 
ATOM      8  O   UNL     1       6.602  24.012  50.667  1.00  0.00    -0.550 OA
ATOM      9  O   UNL     1       6.113  23.560  52.858  1.00  0.00    -0.550 OA
ENDBRANCH   6   7
ENDBRANCH   5   6
ENDBRANCH   4   5
ENDBRANCH   3   4
ENDBRANCH   2   3
ENDBRANCH   1   2
BRANCH   1  10
ATOM     10  C   UNL     1       2.220  25.060  49.553  1.00  0.00     0.000 C 
BRANCH  10  11
ATOM     11  C   UNL     1       1.322  24.493  48.443  1.00  0.00    -0.000 C 
BRANCH  11  12
ATOM     12  C   UNL     1       1.684  25.099  47.082  1.00  0.00    -0.000 C 
BRANCH  12  13
ATOM     13  C   UNL     1       1.664  24.029  45.980  1.00  0.00    -0.000 C 
BRANCH  13  14
ATOM     14  C   UNL     1       2.699  24.294  44.876  1.00  0.00    -0.000 C 
BRANCH  14  15
ATOM     15  C   UNL     1       3.236  22.998  44.245  1.00  0.00    -0.000 C 
BRANCH  15  16
ATOM     16  C   UNL     1       2.177  21.886  44.194  1.00  0.00    -0.003 C 
ATOM     17  C   UNL     1       1.838  21.454  42.768  1.00  0.00     0.004 C 
ENDBRANCH  15  16
ENDBRANCH  14  15
ENDBRANCH  13  14
ENDBRANCH  12  13
ENDBRANCH  11  12
ENDBRANCH  10  11
ENDBRANCH   1  10
TORSDOF 13
ENDMDL
MODEL 5
REMARK VINA RESULT:    -4.705      3.727      7.245
REMARK INTER + INTRA:          -9.323
REMARK INTER:                  -8.124
REMARK INTRA:                  -1.199
REMARK UNBOUND:                -1.042
REMARK SMILES CCCCCCCCCCCCCCC(=O)[O-]
REMARK SMILES IDX 9 1 10 2 11 3 12 4 13 5 14 6 15 7 16 8 17 9 8 10 7 11 6 12
REMARK SMILES IDX 5 13 4 14 3 15 2 16 1 17
REMARK H PARENT
REMARK Flexibility Score: inf
ROOT
ATOM      1  C   UNL     1       1.480  24.431  48.628  1.00  0.00     0.000 C 
ENDROOT
BRANCH   1   2
ATOM      2  C   UNL     1       1.258  24.967  47.201  1.00  0.00     0.000 C 
BRANCH   2   3
ATOM      3  C   UNL     1       1.357  23.882  46.106  1.00  0.00     0.000 C 
BRANCH   3   4
ATOM      4  C   UNL     1       2.548  24.117  45.161  1.00  0.00     0.000 C 
BRANCH   4   5
ATOM      5  C   UNL     1       3.146  22.805  44.629  1.00  0.00     0.006 C 
BRANCH   5   6
ATOM      6  C   UNL     1       2.120  21.958  43.865  1.00  0.00     0.053 C 
BRANCH   6   7
ATOM      7  C   UNL     1       2.434  21.952  42.403  1.00  0.00     0.041 C 
ATOM      8  O   UNL     1       2.958  22.962  41.863  1.00  0.00    -0.550 OA
ATOM      9  O   UNL     1       2.195  20.813  41.645  1.00  0.00    -0.550 OA
ENDBRANCH   6   7
ENDBRANCH   5   6
ENDBRANCH   4   5
ENDBRANCH   3   4
ENDBRANCH   2   3
ENDBRANCH   1   2
BRANCH   1  10
ATOM     10  C   UNL     1       2.442  25.266  49.490  1.00  0.00     0.000 C 
BRANCH  10  11
ATOM     11  C   UNL     1       1.857  25.613  50.868  1.00  0.00    -0.000 C 
BRANCH  11  12
ATOM     12  C   UNL     1       0.883  24.527  51.338  1.00  0.00    -0.000 C 
BRANCH  12  13
ATOM     13  C   UNL     1       1.480  23.720  52.501  1.00  0.00    -0.000 C 
BRANCH  13  14
ATOM     14  C   UNL     1       1.628  22.226  52.173  1.00  0.00    -0.000 C 
BRANCH  14  15
ATOM     15  C   UNL     1       2.707  21.959  51.108  1.00  0.00    -0.000 C 
BRANCH  15  16
ATOM     16  C   UNL     1       4.128  21.994  51.689  1.00  0.00    -0.003 C 
ATOM     17  C   UNL     1       5.061  22.929  50.921  1.00  0.00     0.004 C 
ENDBRANCH  15  16
ENDBRANCH  14  15
ENDBRANCH  13  14
ENDBRANCH  12  13
ENDBRANCH  11  12
ENDBRANCH  10  11
ENDBRANCH   1  10
TORSDOF 13
ENDMDL
MODEL 6
REMARK VINA RESULT:    -4.678      2.010      3.595
REMARK INTER + INTRA:          -9.276
REMARK INTER:                  -8.095
REMARK INTRA:                  -1.180
REMARK UNBOUND:                -1.042
REMARK SMILES CCCCCCCCCCCCCCC(=O)[O-]
REMARK SMILES IDX 9 1 10 2 11 3 12 4 13 5 14 6 15 7 16 8 17 9 8 10 7 11 6 12
REMARK SMILES IDX 5 13 4 14 3 15 2 16 1 17
REMARK H PARENT
REMARK Flexibility Score: inf
ROOT
ATOM      1  C   UNL     1       1.051  22.714  51.280  1.00  0.00     0.000 C 
ENDROOT
BRANCH   1   2
ATOM      2  C   UNL     1       2.364  21.960  50.991  1.00  0.00     0.000 C 
BRANCH   2   3
ATOM      3  C   UNL     1       2.961  21.253  52.228  1.00  0.00     0.000 C 
BRANCH   3   4
ATOM      4  C   UNL     1       4.130  22.044  52.841  1.00  0.00     0.000 C 
BRANCH   4   5
ATOM      5  C   UNL     1       4.874  22.897  51.801  1.00  0.00     0.006 C 
BRANCH   5   6
ATOM      6  C   UNL     1       4.949  24.376  52.201  1.00  0.00     0.053 C 
BRANCH   6   7
ATOM      7  C   UNL     1       5.896  25.111  51.307  1.00  0.00     0.041 C 
ATOM      8  O   UNL     1       5.454  25.865  50.399  1.00  0.00    -0.550 OA
ATOM      9  O   UNL     1       7.266  25.005  51.506  1.00  0.00    -0.550 OA
ENDBRANCH   6   7
ENDBRANCH   5   6
ENDBRANCH   4   5
ENDBRANCH   3   4
ENDBRANCH   2   3
ENDBRANCH   1   2
BRANCH   1  10
ATOM     10  C   UNL     1       1.014  24.164  50.771  1.00  0.00     0.000 C 
BRANCH  10  11
ATOM     11  C   UNL     1       2.103  24.456  49.727  1.00  0.00    -0.000 C 
BRANCH  11  12
ATOM     12  C   UNL     1       1.482  24.845  48.381  1.00  0.00    -0.000 C 
BRANCH  12  13
ATOM     13  C   UNL     1       1.810  23.802  47.302  1.00  0.00    -0.000 C 
BRANCH  13  14
ATOM     14  C   UNL     1       1.227  24.166  45.927  1.00  0.00    -0.000 C 
BRANCH  14  15
ATOM     15  C   UNL     1       2.266  24.058  44.797  1.00  0.00    -0.000 C 
BRANCH  15  16
ATOM     16  C   UNL     1       2.763  22.619  44.590  1.00  0.00    -0.003 C 
ATOM     17  C   UNL     1       1.876  21.816  43.639  1.00  0.00     0.004 C 
ENDBRANCH  15  16
ENDBRANCH  14  15
ENDBRANCH  13  14
ENDBRANCH  12  13
ENDBRANCH  11  12
ENDBRANCH  10  11
ENDBRANCH   1  10
TORSDOF 13
ENDMDL
MODEL 7
REMARK VINA RESULT:    -4.586      5.116      8.718
REMARK INTER + INTRA:          -9.113
REMARK INTER:                  -6.977
REMARK INTRA:                  -2.136
REMARK UNBOUND:                -1.042
REMARK SMILES CCCCCCCCCCCCCCC(=O)[O-]
REMARK SMILES IDX 9 1 10 2 11 3 12 4 13 5 14 6 15 7 16 8 17 9 8 10 7 11 6 12
REMARK SMILES IDX 5 13 4 14 3 15 2 16 1 17
REMARK H PARENT
REMARK Flexibility Score: inf
ROOT
ATOM      1  C   UNL     1       0.189  24.461  53.704  1.00  0.00     0.000 C 
ENDROOT
BRANCH   1   2
ATOM      2  C   UNL     1       0.584  24.249  52.229  1.00  0.00     0.000 C 
BRANCH   2   3
ATOM      3  C   UNL     1       0.439  22.788  51.750  1.00  0.00     0.000 C 
BRANCH   3   4
ATOM      4  C   UNL     1       1.798  22.151  51.411  1.00  0.00     0.000 C 
BRANCH   4   5
ATOM      5  C   UNL     1       2.585  21.738  52.665  1.00  0.00     0.006 C 
BRANCH   5   6
ATOM      6  C   UNL     1       4.090  22.002  52.527  1.00  0.00     0.053 C 
BRANCH   6   7
ATOM      7  C   UNL     1       4.473  23.238  53.276  1.00  0.00     0.041 C 
ATOM      8  O   UNL     1       5.085  23.150  54.374  1.00  0.00    -0.550 OA
ATOM      9  O   UNL     1       4.199  24.490  52.741  1.00  0.00    -0.550 OA
ENDBRANCH   6   7
ENDBRANCH   5   6
ENDBRANCH   4   5
ENDBRANCH   3   4
ENDBRANCH   2   3
ENDBRANCH   1   2
BRANCH   1  10
ATOM     10  C   UNL     1       1.265  25.137  54.570  1.00  0.00     0.000 C 
BRANCH  10  11
ATOM     11  C   UNL     1       1.770  24.232  55.705  1.00  0.00    -0.000 C 
BRANCH  11  12
ATOM     12  C   UNL     1       0.968  22.926  55.761  1.00  0.00    -0.000 C 
BRANCH  12  13
ATOM     13  C   UNL     1       0.401  22.688  57.169  1.00  0.00    -0.000 C 
BRANCH  13  14
ATOM     14  C   UNL     1      -0.674  23.716  57.557  1.00  0.00    -0.000 C 
BRANCH  14  15
ATOM     15  C   UNL     1      -1.912  23.650  56.646  1.00  0.00    -0.000 C 
BRANCH  15  16
ATOM     16  C   UNL     1      -2.441  25.042  56.269  1.00  0.00    -0.003 C 
ATOM     17  C   UNL     1      -1.711  26.171  56.997  1.00  0.00     0.004 C 
ENDBRANCH  15  16
ENDBRANCH  14  15
ENDBRANCH  13  14
ENDBRANCH  12  13
ENDBRANCH  11  12
ENDBRANCH  10  11
ENDBRANCH   1  10
TORSDOF 13
ENDMDL
MODEL 8
REMARK VINA RESULT:    -4.575      4.792      6.838
REMARK INTER + INTRA:          -9.094
REMARK INTER:                  -7.112
REMARK INTRA:                  -1.982
REMARK UNBOUND:                -1.042
REMARK SMILES CCCCCCCCCCCCCCC(=O)[O-]
REMARK SMILES IDX 9 1 10 2 11 3 12 4 13 5 14 6 15 7 16 8 17 9 8 10 7 11 6 12
REMARK SMILES IDX 5 13 4 14 3 15 2 16 1 17
REMARK H PARENT
REMARK Flexibility Score: inf
ROOT
ATOM      1  C   UNL     1       1.038  24.708  53.617  1.00  0.00     0.000 C 
ENDROOT
BRANCH   1   2
ATOM      2  C   UNL     1       1.448  24.313  55.049  1.00  0.00     0.000 C 
BRANCH   2   3
ATOM      3  C   UNL     1       1.391  22.794  55.317  1.00  0.00     0.000 C 
BRANCH   3   4
ATOM      4  C   UNL     1       0.747  22.467  56.676  1.00  0.00     0.000 C 
BRANCH   4   5
ATOM      5  C   UNL     1      -0.045  23.651  57.253  1.00  0.00     0.006 C 
BRANCH   5   6
ATOM      6  C   UNL     1      -1.561  23.469  57.110  1.00  0.00     0.053 C 
BRANCH   6   7
ATOM      7  C   UNL     1      -2.139  24.553  56.258  1.00  0.00     0.041 C 
ATOM      8  O   UNL     1      -2.342  24.355  55.031  1.00  0.00    -0.550 OA
ATOM      9  O   UNL     1      -2.501  25.767  56.828  1.00  0.00    -0.550 OA
ENDBRANCH   6   7
ENDBRANCH   5   6
ENDBRANCH   4   5
ENDBRANCH   3   4
ENDBRANCH   2   3
ENDBRANCH   1   2
BRANCH   1  10
ATOM     10  C   UNL     1       0.336  23.597  52.817  1.00  0.00     0.000 C 
BRANCH  10  11
ATOM     11  C   UNL     1       0.616  23.683  51.308  1.00  0.00    -0.000 C 
BRANCH  11  12
ATOM     12  C   UNL     1       1.431  24.938  50.974  1.00  0.00    -0.000 C 
BRANCH  12  13
ATOM     13  C   UNL     1       2.617  24.596  50.059  1.00  0.00    -0.000 C 
BRANCH  13  14
ATOM     14  C   UNL     1       3.074  23.135  50.200  1.00  0.00    -0.000 C 
BRANCH  14  15
ATOM     15  C   UNL     1       4.336  22.991  51.068  1.00  0.00    -0.000 C 
BRANCH  15  16
ATOM     16  C   UNL     1       4.041  22.349  52.432  1.00  0.00    -0.003 C 
ATOM     17  C   UNL     1       3.164  21.101  52.324  1.00  0.00     0.004 C 
ENDBRANCH  15  16
ENDBRANCH  14  15
ENDBRANCH  13  14
ENDBRANCH  12  13
ENDBRANCH  11  12
ENDBRANCH  10  11
ENDBRANCH   1  10
TORSDOF 13
ENDMDL
MODEL 9
REMARK VINA RESULT:    -4.557      1.926      2.830
REMARK INTER + INTRA:          -9.062
REMARK INTER:                  -8.030
REMARK INTRA:                  -1.032
REMARK UNBOUND:                -1.042
REMARK SMILES CCCCCCCCCCCCCCC(=O)[O-]
REMARK SMILES IDX 9 1 10 2 11 3 12 4 13 5 14 6 15 7 16 8 17 9 8 10 7 11 6 12
REMARK SMILES IDX 5 13 4 14 3 15 2 16 1 17
REMARK H PARENT
REMARK Flexibility Score: inf
ROOT
ATOM      1  C   UNL     1       2.657  23.224  49.664  1.00  0.00     0.000 C 
ENDROOT
BRANCH   1   2
ATOM      2  C   UNL     1       3.919  23.495  50.506  1.00  0.00     0.000 C 
BRANCH   2   3
ATOM      3  C   UNL     1       4.358  22.295  51.373  1.00  0.00     0.000 C 
BRANCH   3   4
ATOM      4  C   UNL     1       3.185  21.686  52.160  1.00  0.00     0.000 C 
BRANCH   4   5
ATOM      5  C   UNL     1       3.068  22.258  53.582  1.00  0.00     0.006 C 
BRANCH   5   6
ATOM      6  C   UNL     1       1.624  22.620  53.952  1.00  0.00     0.053 C 
BRANCH   6   7
ATOM      7  C   UNL     1       1.070  23.612  52.979  1.00  0.00     0.041 C 
ATOM      8  O   UNL     1       1.562  24.769  52.904  1.00  0.00    -0.550 OA
ATOM      9  O   UNL     1       0.042  23.244  52.121  1.00  0.00    -0.550 OA
ENDBRANCH   6   7
ENDBRANCH   5   6
ENDBRANCH   4   5
ENDBRANCH   3   4
ENDBRANCH   2   3
ENDBRANCH   1   2
BRANCH   1  10
ATOM     10  C   UNL     1       1.846  24.477  49.293  1.00  0.00     0.000 C 
BRANCH  10  11
ATOM     11  C   UNL     1       1.166  24.360  47.920  1.00  0.00    -0.000 C 
BRANCH  11  12
ATOM     12  C   UNL     1       2.009  25.038  46.833  1.00  0.00    -0.000 C 
BRANCH  12  13
ATOM     13  C   UNL     1       1.783  24.372  45.467  1.00  0.00    -0.000 C 
BRANCH  13  14
ATOM     14  C   UNL     1       2.506  23.022  45.337  1.00  0.00    -0.000 C 
BRANCH  14  15
ATOM     15  C   UNL     1       2.723  22.606  43.872  1.00  0.00    -0.000 C 
BRANCH  15  16
ATOM     16  C   UNL     1       1.737  21.519  43.417  1.00  0.00    -0.003 C 
ATOM     17  C   UNL     1       1.846  21.205  41.925  1.00  0.00     0.004 C 
ENDBRANCH  15  16
ENDBRANCH  14  15
ENDBRANCH  13  14
ENDBRANCH  12  13
ENDBRANCH  11  12
ENDBRANCH  10  11
ENDBRANCH   1  10
TORSDOF 13
ENDMDL
