MODEL 1
REMARK VINA RESULT:    -3.728      0.000      0.000
REMARK INTER + INTRA:         -15.007
REMARK INTER:                  -9.395
REMARK INTRA:                  -5.612
REMARK UNBOUND:                -5.612
REMARK SMILES CCCCCCCCCCCCCCCCCCCCCCCCCCCC(=O)[O-]
REMARK SMILES IDX 15 1 16 2 17 3 18 4 19 5 20 6 21 7 22 8 23 9 24 10 25 11
REMARK SMILES IDX 26 12 27 13 28 14 29 15 30 16 14 17 13 18 12 19 11 20 10 21
REMARK SMILES IDX 9 22 8 23 7 24 6 25 5 26 4 27 3 28 2 29 1 30
REMARK H PARENT
REMARK Flexibility Score: inf
ROOT
ATOM      1  C   UNL     1      34.790 -47.634  -1.410  1.00  0.00     0.000 C 
ENDROOT
BRANCH   1   2
ATOM      2  C   UNL     1      35.417 -46.237  -1.518  1.00  0.00     0.000 C 
BRANCH   2   3
ATOM      3  C   UNL     1      36.639 -46.054  -0.600  1.00  0.00     0.000 C 
BRANCH   3   4
ATOM      4  C   UNL     1      36.931 -44.598  -0.179  1.00  0.00     0.000 C 
BRANCH   4   5
ATOM      5  C   UNL     1      36.049 -43.531  -0.856  1.00  0.00     0.000 C 
BRANCH   5   6
ATOM      6  C   UNL     1      35.290 -42.603   0.113  1.00  0.00     0.000 C 
BRANCH   6   7
ATOM      7  C   UNL     1      34.629 -43.345   1.295  1.00  0.00     0.000 C 
BRANCH   7   8
ATOM      8  C   UNL     1      33.286 -43.990   0.908  1.00  0.00     0.000 C 
BRANCH   8   9
ATOM      9  C   UNL     1      33.095 -45.379   1.539  1.00  0.00     0.000 C 
BRANCH   9  10
ATOM     10  C   UNL     1      34.325 -45.839   2.336  1.00  0.00     0.000 C 
BRANCH  10  11
ATOM     11  C   UNL     1      34.435 -47.368   2.347  1.00  0.00     0.000 C 
BRANCH  11  12
ATOM     12  C   UNL     1      35.881 -47.813   2.598  1.00  0.00     0.006 C 
BRANCH  12  13
ATOM     13  C   UNL     1      36.124 -48.084   4.086  1.00  0.00     0.053 C 
BRANCH  13  14
ATOM     14  C   UNL     1      36.226 -49.556   4.339  1.00  0.00     0.041 C 
ATOM     15  O   UNL     1      36.001 -50.375   3.410  1.00  0.00    -0.550 OA
ATOM     16  O   UNL     1      36.519 -50.023   5.613  1.00  0.00    -0.550 OA
ENDBRANCH  13  14
ENDBRANCH  12  13
ENDBRANCH  11  12
ENDBRANCH  10  11
ENDBRANCH   9  10
ENDBRANCH   8   9
ENDBRANCH   7   8
ENDBRANCH   6   7
ENDBRANCH   5   6
ENDBRANCH   4   5
ENDBRANCH   3   4
ENDBRANCH   2   3
ENDBRANCH   1   2
BRANCH   1  17
ATOM     17  C   UNL     1      33.263 -47.553  -1.545  1.00  0.00     0.000 C 
BRANCH  17  18
ATOM     18  C   UNL     1      32.758 -48.001  -2.928  1.00  0.00     0.000 C 
BRANCH  18  19
ATOM     19  C   UNL     1      32.702 -49.528  -3.137  1.00  0.00     0.000 C 
BRANCH  19  20
ATOM     20  C   UNL     1      33.503 -50.058  -4.344  1.00  0.00     0.000 C 
BRANCH  20  21
ATOM     21  C   UNL     1      35.006 -50.273  -4.090  1.00  0.00     0.000 C 
BRANCH  21  22
ATOM     22  C   UNL     1      35.890 -49.244  -4.816  1.00  0.00    -0.000 C 
BRANCH  22  23
ATOM     23  C   UNL     1      35.069 -48.220  -5.617  1.00  0.00    -0.000 C 
BRANCH  23  24
ATOM     24  C   UNL     1      35.497 -46.767  -5.340  1.00  0.00    -0.000 C 
BRANCH  24  25
ATOM     25  C   UNL     1      34.352 -45.765  -5.562  1.00  0.00    -0.000 C 
BRANCH  25  26
ATOM     26  C   UNL     1      34.375 -44.605  -4.550  1.00  0.00    -0.000 C 
BRANCH  26  27
ATOM     27  C   UNL     1      32.966 -44.134  -4.160  1.00  0.00    -0.000 C 
BRANCH  27  28
ATOM     28  C   UNL     1      32.773 -44.039  -2.639  1.00  0.00    -0.000 C 
BRANCH  28  29
ATOM     29  C   UNL     1      31.311 -44.298  -2.254  1.00  0.00    -0.003 C 
ATOM     30  C   UNL     1      30.623 -45.202  -3.274  1.00  0.00     0.004 C 
ENDBRANCH  28  29
ENDBRANCH  27  28
ENDBRANCH  26  27
ENDBRANCH  25  26
ENDBRANCH  24  25
ENDBRANCH  23  24
ENDBRANCH  22  23
ENDBRANCH  21  22
ENDBRANCH  20  21
ENDBRANCH  19  20
ENDBRANCH  18  19
ENDBRANCH  17  18
ENDBRANCH   1  17
TORSDOF 26
ENDMDL
MODEL 2
REMARK VINA RESULT:    -3.686      4.152      7.996
REMARK INTER + INTRA:         -14.899
REMARK INTER:                 -10.290
REMARK INTRA:                  -4.610
REMARK UNBOUND:                -5.612
REMARK SMILES CCCCCCCCCCCCCCCCCCCCCCCCCCCC(=O)[O-]
REMARK SMILES IDX 15 1 16 2 17 3 18 4 19 5 20 6 21 7 22 8 23 9 24 10 25 11
REMARK SMILES IDX 26 12 27 13 28 14 29 15 30 16 14 17 13 18 12 19 11 20 10 21
REMARK SMILES IDX 9 22 8 23 7 24 6 25 5 26 4 27 3 28 2 29 1 30
REMARK H PARENT
REMARK Flexibility Score: inf
ROOT
ATOM      1  C   UNL     1      33.050 -42.252  -5.133  1.00  0.00     0.000 C 
ENDROOT
BRANCH   1   2
ATOM      2  C   UNL     1      33.147 -40.997  -6.012  1.00  0.00     0.000 C 
BRANCH   2   3
ATOM      3  C   UNL     1      33.642 -41.297  -7.438  1.00  0.00     0.000 C 
BRANCH   3   4
ATOM      4  C   UNL     1      32.562 -41.216  -8.538  1.00  0.00     0.000 C 
BRANCH   4   5
ATOM      5  C   UNL     1      31.632 -42.440  -8.634  1.00  0.00     0.000 C 
BRANCH   5   6
ATOM      6  C   UNL     1      30.145 -42.150  -8.353  1.00  0.00     0.000 C 
BRANCH   6   7
ATOM      7  C   UNL     1      29.780 -42.167  -6.852  1.00  0.00     0.000 C 
BRANCH   7   8
ATOM      8  C   UNL     1      28.259 -42.200  -6.616  1.00  0.00     0.000 C 
BRANCH   8   9
ATOM      9  C   UNL     1      27.747 -43.607  -6.270  1.00  0.00     0.000 C 
BRANCH   9  10
ATOM     10  C   UNL     1      28.232 -44.091  -4.895  1.00  0.00     0.000 C 
BRANCH  10  11
ATOM     11  C   UNL     1      27.970 -43.035  -3.815  1.00  0.00     0.000 C 
BRANCH  11  12
ATOM     12  C   UNL     1      29.268 -42.655  -3.092  1.00  0.00     0.006 C 
BRANCH  12  13
ATOM     13  C   UNL     1      29.421 -43.440  -1.786  1.00  0.00     0.053 C 
BRANCH  13  14
ATOM     14  C   UNL     1      29.202 -42.542  -0.608  1.00  0.00     0.041 C 
ATOM     15  O   UNL     1      29.244 -43.008   0.560  1.00  0.00    -0.550 OA
ATOM     16  O   UNL     1      28.903 -41.200  -0.804  1.00  0.00    -0.550 OA
ENDBRANCH  13  14
ENDBRANCH  12  13
ENDBRANCH  11  12
ENDBRANCH  10  11
ENDBRANCH   9  10
ENDBRANCH   8   9
ENDBRANCH   7   8
ENDBRANCH   6   7
ENDBRANCH   5   6
ENDBRANCH   4   5
ENDBRANCH   3   4
ENDBRANCH   2   3
ENDBRANCH   1   2
BRANCH   1  17
ATOM     17  C   UNL     1      33.900 -43.389  -5.719  1.00  0.00     0.000 C 
BRANCH  17  18
ATOM     18  C   UNL     1      33.159 -44.738  -5.745  1.00  0.00     0.000 C 
BRANCH  18  19
ATOM     19  C   UNL     1      31.805 -44.751  -5.008  1.00  0.00     0.000 C 
BRANCH  19  20
ATOM     20  C   UNL     1      31.621 -45.894  -3.988  1.00  0.00     0.000 C 
BRANCH  20  21
ATOM     21  C   UNL     1      32.119 -45.588  -2.563  1.00  0.00     0.000 C 
BRANCH  21  22
ATOM     22  C   UNL     1      33.505 -46.186  -2.270  1.00  0.00    -0.000 C 
BRANCH  22  23
ATOM     23  C   UNL     1      34.647 -45.190  -2.538  1.00  0.00    -0.000 C 
BRANCH  23  24
ATOM     24  C   UNL     1      34.453 -43.852  -1.802  1.00  0.00    -0.000 C 
BRANCH  24  25
ATOM     25  C   UNL     1      34.825 -43.942  -0.312  1.00  0.00    -0.000 C 
BRANCH  25  26
ATOM     26  C   UNL     1      33.670 -43.522   0.614  1.00  0.00    -0.000 C 
BRANCH  26  27
ATOM     27  C   UNL     1      32.873 -44.722   1.147  1.00  0.00    -0.000 C 
BRANCH  27  28
ATOM     28  C   UNL     1      33.741 -45.698   1.956  1.00  0.00    -0.000 C 
BRANCH  28  29
ATOM     29  C   UNL     1      33.789 -47.076   1.284  1.00  0.00    -0.003 C 
ATOM     30  C   UNL     1      34.458 -48.109   2.187  1.00  0.00     0.004 C 
ENDBRANCH  28  29
ENDBRANCH  27  28
ENDBRANCH  26  27
ENDBRANCH  25  26
ENDBRANCH  24  25
ENDBRANCH  23  24
ENDBRANCH  22  23
ENDBRANCH  21  22
ENDBRANCH  20  21
ENDBRANCH  19  20
ENDBRANCH  18  19
ENDBRANCH  17  18
ENDBRANCH   1  17
TORSDOF 26
ENDMDL
MODEL 3
REMARK VINA RESULT:    -3.609      2.626      6.557
REMARK INTER + INTRA:         -14.706
REMARK INTER:                  -9.034
REMARK INTRA:                  -5.672
REMARK UNBOUND:                -5.612
REMARK SMILES CCCCCCCCCCCCCCCCCCCCCCCCCCCC(=O)[O-]
REMARK SMILES IDX 15 1 16 2 17 3 18 4 19 5 20 6 21 7 22 8 23 9 24 10 25 11
REMARK SMILES IDX 26 12 27 13 28 14 29 15 30 16 14 17 13 18 12 19 11 20 10 21
REMARK SMILES IDX 9 22 8 23 7 24 6 25 5 26 4 27 3 28 2 29 1 30
REMARK H PARENT
REMARK Flexibility Score: inf
ROOT
ATOM      1  C   UNL     1      32.200 -42.610  -5.188  1.00  0.00     0.000 C 
ENDROOT
BRANCH   1   2
ATOM      2  C   UNL     1      31.371 -43.760  -4.597  1.00  0.00     0.000 C 
BRANCH   2   3
ATOM      3  C   UNL     1      31.357 -43.763  -3.058  1.00  0.00     0.000 C 
BRANCH   3   4
ATOM      4  C   UNL     1      31.410 -45.160  -2.404  1.00  0.00     0.000 C 
BRANCH   4   5
ATOM      5  C   UNL     1      31.412 -46.345  -3.389  1.00  0.00     0.000 C 
BRANCH   5   6
ATOM      6  C   UNL     1      32.608 -47.306  -3.249  1.00  0.00     0.000 C 
BRANCH   6   7
ATOM      7  C   UNL     1      33.271 -47.274  -1.854  1.00  0.00     0.000 C 
BRANCH   7   8
ATOM      8  C   UNL     1      33.363 -48.671  -1.214  1.00  0.00     0.000 C 
BRANCH   8   9
ATOM      9  C   UNL     1      34.815 -49.118  -0.981  1.00  0.00     0.000 C 
BRANCH   9  10
ATOM     10  C   UNL     1      35.838 -48.130  -1.561  1.00  0.00     0.000 C 
BRANCH  10  11
ATOM     11  C   UNL     1      36.644 -48.772  -2.695  1.00  0.00     0.000 C 
BRANCH  11  12
ATOM     12  C   UNL     1      36.068 -48.390  -4.064  1.00  0.00     0.006 C 
BRANCH  12  13
ATOM     13  C   UNL     1      36.038 -49.598  -5.006  1.00  0.00     0.053 C 
BRANCH  13  14
ATOM     14  C   UNL     1      35.096 -50.640  -4.489  1.00  0.00     0.041 C 
ATOM     15  O   UNL     1      33.868 -50.387  -4.384  1.00  0.00    -0.550 OA
ATOM     16  O   UNL     1      35.583 -51.873  -4.076  1.00  0.00    -0.550 OA
ENDBRANCH  13  14
ENDBRANCH  12  13
ENDBRANCH  11  12
ENDBRANCH  10  11
ENDBRANCH   9  10
ENDBRANCH   8   9
ENDBRANCH   7   8
ENDBRANCH   6   7
ENDBRANCH   5   6
ENDBRANCH   4   5
ENDBRANCH   3   4
ENDBRANCH   2   3
ENDBRANCH   1   2
BRANCH   1  17
ATOM     17  C   UNL     1      33.493 -43.145  -5.820  1.00  0.00     0.000 C 
BRANCH  17  18
ATOM     18  C   UNL     1      33.595 -44.680  -5.766  1.00  0.00     0.000 C 
BRANCH  18  19
ATOM     19  C   UNL     1      34.987 -45.226  -5.389  1.00  0.00     0.000 C 
BRANCH  19  20
ATOM     20  C   UNL     1      35.758 -44.396  -4.341  1.00  0.00     0.000 C 
BRANCH  20  21
ATOM     21  C   UNL     1      35.185 -44.447  -2.913  1.00  0.00     0.000 C 
BRANCH  21  22
ATOM     22  C   UNL     1      36.274 -44.549  -1.832  1.00  0.00    -0.000 C 
BRANCH  22  23
ATOM     23  C   UNL     1      35.753 -44.189  -0.431  1.00  0.00    -0.000 C 
BRANCH  23  24
ATOM     24  C   UNL     1      34.239 -43.909  -0.414  1.00  0.00    -0.000 C 
BRANCH  24  25
ATOM     25  C   UNL     1      33.640 -44.002   0.999  1.00  0.00    -0.000 C 
BRANCH  25  26
ATOM     26  C   UNL     1      32.893 -45.326   1.241  1.00  0.00    -0.000 C 
BRANCH  26  27
ATOM     27  C   UNL     1      33.827 -46.456   1.696  1.00  0.00    -0.000 C 
BRANCH  27  28
ATOM     28  C   UNL     1      34.786 -46.019   2.815  1.00  0.00    -0.000 C 
BRANCH  28  29
ATOM     29  C   UNL     1      35.408 -47.236   3.510  1.00  0.00    -0.003 C 
ATOM     30  C   UNL     1      34.988 -48.537   2.832  1.00  0.00     0.004 C 
ENDBRANCH  28  29
ENDBRANCH  27  28
ENDBRANCH  26  27
ENDBRANCH  25  26
ENDBRANCH  24  25
ENDBRANCH  23  24
ENDBRANCH  22  23
ENDBRANCH  21  22
ENDBRANCH  20  21
ENDBRANCH  19  20
ENDBRANCH  18  19
ENDBRANCH  17  18
ENDBRANCH   1  17
TORSDOF 26
ENDMDL
MODEL 4
REMARK VINA RESULT:    -3.594      1.721      4.752
REMARK INTER + INTRA:         -14.668
REMARK INTER:                  -9.401
REMARK INTRA:                  -5.267
REMARK UNBOUND:                -5.612
REMARK SMILES CCCCCCCCCCCCCCCCCCCCCCCCCCCC(=O)[O-]
REMARK SMILES IDX 15 1 16 2 17 3 18 4 19 5 20 6 21 7 22 8 23 9 24 10 25 11
REMARK SMILES IDX 26 12 27 13 28 14 29 15 30 16 14 17 13 18 12 19 11 20 10 21
REMARK SMILES IDX 9 22 8 23 7 24 6 25 5 26 4 27 3 28 2 29 1 30
REMARK H PARENT
REMARK Flexibility Score: inf
ROOT
ATOM      1  C   UNL     1      36.916 -44.414   0.279  1.00  0.00     0.000 C 
ENDROOT
BRANCH   1   2
ATOM      2  C   UNL     1      36.478 -44.497   1.749  1.00  0.00     0.000 C 
BRANCH   2   3
ATOM      3  C   UNL     1      36.027 -45.909   2.163  1.00  0.00     0.000 C 
BRANCH   3   4
ATOM      4  C   UNL     1      34.532 -46.039   2.526  1.00  0.00     0.000 C 
BRANCH   4   5
ATOM      5  C   UNL     1      33.644 -46.661   1.432  1.00  0.00     0.000 C 
BRANCH   5   6
ATOM      6  C   UNL     1      34.395 -47.123   0.169  1.00  0.00     0.000 C 
BRANCH   6   7
ATOM      7  C   UNL     1      34.659 -48.644   0.123  1.00  0.00     0.000 C 
BRANCH   7   8
ATOM      8  C   UNL     1      33.586 -49.451   0.876  1.00  0.00     0.000 C 
BRANCH   8   9
ATOM      9  C   UNL     1      34.139 -50.134   2.137  1.00  0.00     0.000 C 
BRANCH   9  10
ATOM     10  C   UNL     1      35.625 -49.823   2.373  1.00  0.00     0.000 C 
BRANCH  10  11
ATOM     11  C   UNL     1      35.874 -49.386   3.821  1.00  0.00     0.000 C 
BRANCH  11  12
ATOM     12  C   UNL     1      37.259 -49.835   4.300  1.00  0.00     0.006 C 
BRANCH  12  13
ATOM     13  C   UNL     1      37.145 -50.895   5.400  1.00  0.00     0.053 C 
BRANCH  13  14
ATOM     14  C   UNL     1      36.864 -52.238   4.803  1.00  0.00     0.041 C 
ATOM     15  O   UNL     1      35.856 -52.896   5.172  1.00  0.00    -0.550 OA
ATOM     16  O   UNL     1      37.742 -52.785   3.877  1.00  0.00    -0.550 OA
ENDBRANCH  13  14
ENDBRANCH  12  13
ENDBRANCH  11  12
ENDBRANCH  10  11
ENDBRANCH   9  10
ENDBRANCH   8   9
ENDBRANCH   7   8
ENDBRANCH   6   7
ENDBRANCH   5   6
ENDBRANCH   4   5
ENDBRANCH   3   4
ENDBRANCH   2   3
ENDBRANCH   1   2
BRANCH   1  17
ATOM     17  C   UNL     1      36.230 -43.235  -0.424  1.00  0.00     0.000 C 
BRANCH  17  18
ATOM     18  C   UNL     1      35.049 -42.663   0.380  1.00  0.00     0.000 C 
BRANCH  18  19
ATOM     19  C   UNL     1      33.674 -43.272   0.040  1.00  0.00     0.000 C 
BRANCH  19  20
ATOM     20  C   UNL     1      33.501 -43.733  -1.422  1.00  0.00     0.000 C 
BRANCH  20  21
ATOM     21  C   UNL     1      32.298 -44.658  -1.680  1.00  0.00     0.000 C 
BRANCH  21  22
ATOM     22  C   UNL     1      31.925 -44.757  -3.169  1.00  0.00    -0.000 C 
BRANCH  22  23
ATOM     23  C   UNL     1      31.755 -46.210  -3.641  1.00  0.00    -0.000 C 
BRANCH  23  24
ATOM     24  C   UNL     1      32.335 -47.231  -2.644  1.00  0.00    -0.000 C 
BRANCH  24  25
ATOM     25  C   UNL     1      32.454 -48.640  -3.249  1.00  0.00    -0.000 C 
BRANCH  25  26
ATOM     26  C   UNL     1      33.915 -49.061  -3.488  1.00  0.00    -0.000 C 
BRANCH  26  27
ATOM     27  C   UNL     1      34.717 -47.999  -4.254  1.00  0.00    -0.000 C 
BRANCH  27  28
ATOM     28  C   UNL     1      35.974 -47.545  -3.496  1.00  0.00    -0.000 C 
BRANCH  28  29
ATOM     29  C   UNL     1      35.815 -46.110  -2.980  1.00  0.00    -0.003 C 
ATOM     30  C   UNL     1      35.623 -45.126  -4.131  1.00  0.00     0.004 C 
ENDBRANCH  28  29
ENDBRANCH  27  28
ENDBRANCH  26  27
ENDBRANCH  25  26
ENDBRANCH  24  25
ENDBRANCH  23  24
ENDBRANCH  22  23
ENDBRANCH  21  22
ENDBRANCH  20  21
ENDBRANCH  19  20
ENDBRANCH  18  19
ENDBRANCH  17  18
ENDBRANCH   1  17
TORSDOF 26
ENDMDL
MODEL 5
REMARK VINA RESULT:    -3.583      3.287      5.737
REMARK INTER + INTRA:         -14.640
REMARK INTER:                  -9.723
REMARK INTRA:                  -4.916
REMARK UNBOUND:                -5.612
REMARK SMILES CCCCCCCCCCCCCCCCCCCCCCCCCCCC(=O)[O-]
REMARK SMILES IDX 15 1 16 2 17 3 18 4 19 5 20 6 21 7 22 8 23 9 24 10 25 11
REMARK SMILES IDX 26 12 27 13 28 14 29 15 30 16 14 17 13 18 12 19 11 20 10 21
REMARK SMILES IDX 9 22 8 23 7 24 6 25 5 26 4 27 3 28 2 29 1 30
REMARK H PARENT
REMARK Flexibility Score: inf
ROOT
ATOM      1  C   UNL     1      33.634 -45.631  -3.904  1.00  0.00     0.000 C 
ENDROOT
BRANCH   1   2
ATOM      2  C   UNL     1      32.349 -46.129  -3.227  1.00  0.00     0.000 C 
BRANCH   2   3
ATOM      3  C   UNL     1      32.230 -45.680  -1.759  1.00  0.00     0.000 C 
BRANCH   3   4
ATOM      4  C   UNL     1      32.341 -44.158  -1.528  1.00  0.00     0.000 C 
BRANCH   4   5
ATOM      5  C   UNL     1      32.133 -43.699  -0.073  1.00  0.00     0.000 C 
BRANCH   5   6
ATOM      6  C   UNL     1      33.369 -43.838   0.837  1.00  0.00     0.000 C 
BRANCH   6   7
ATOM      7  C   UNL     1      33.174 -44.831   2.004  1.00  0.00     0.000 C 
BRANCH   7   8
ATOM      8  C   UNL     1      34.083 -46.068   1.882  1.00  0.00     0.000 C 
BRANCH   8   9
ATOM      9  C   UNL     1      35.192 -45.883   0.834  1.00  0.00     0.000 C 
BRANCH   9  10
ATOM     10  C   UNL     1      35.340 -47.101  -0.090  1.00  0.00     0.000 C 
BRANCH  10  11
ATOM     11  C   UNL     1      34.215 -48.114   0.147  1.00  0.00     0.000 C 
BRANCH  11  12
ATOM     12  C   UNL     1      33.890 -48.886  -1.137  1.00  0.00     0.006 C 
BRANCH  12  13
ATOM     13  C   UNL     1      34.960 -48.650  -2.208  1.00  0.00     0.053 C 
BRANCH  13  14
ATOM     14  C   UNL     1      34.807 -49.634  -3.325  1.00  0.00     0.041 C 
ATOM     15  O   UNL     1      35.711 -50.481  -3.550  1.00  0.00    -0.550 OA
ATOM     16  O   UNL     1      33.690 -49.583  -4.148  1.00  0.00    -0.550 OA
ENDBRANCH  13  14
ENDBRANCH  12  13
ENDBRANCH  11  12
ENDBRANCH  10  11
ENDBRANCH   9  10
ENDBRANCH   8   9
ENDBRANCH   7   8
ENDBRANCH   6   7
ENDBRANCH   5   6
ENDBRANCH   4   5
ENDBRANCH   3   4
ENDBRANCH   2   3
ENDBRANCH   1   2
BRANCH   1  17
ATOM     17  C   UNL     1      33.408 -45.426  -5.409  1.00  0.00     0.000 C 
BRANCH  17  18
ATOM     18  C   UNL     1      32.551 -44.187  -5.723  1.00  0.00     0.000 C 
BRANCH  18  19
ATOM     19  C   UNL     1      32.974 -42.900  -4.986  1.00  0.00     0.000 C 
BRANCH  19  20
ATOM     20  C   UNL     1      33.354 -41.714  -5.895  1.00  0.00     0.000 C 
BRANCH  20  21
ATOM     21  C   UNL     1      33.150 -41.952  -7.403  1.00  0.00     0.000 C 
BRANCH  21  22
ATOM     22  C   UNL     1      31.906 -41.239  -7.960  1.00  0.00    -0.000 C 
BRANCH  22  23
ATOM     23  C   UNL     1      30.838 -42.224  -8.466  1.00  0.00    -0.000 C 
BRANCH  23  24
ATOM     24  C   UNL     1      29.506 -42.097  -7.706  1.00  0.00    -0.000 C 
BRANCH  24  25
ATOM     25  C   UNL     1      29.709 -41.806  -6.209  1.00  0.00    -0.000 C 
BRANCH  25  26
ATOM     26  C   UNL     1      28.407 -41.382  -5.505  1.00  0.00    -0.000 C 
BRANCH  26  27
ATOM     27  C   UNL     1      28.295 -41.944  -4.081  1.00  0.00    -0.000 C 
BRANCH  27  28
ATOM     28  C   UNL     1      29.519 -42.781  -3.676  1.00  0.00    -0.000 C 
BRANCH  28  29
ATOM     29  C   UNL     1      29.111 -44.219  -3.333  1.00  0.00    -0.003 C 
ATOM     30  C   UNL     1      29.052 -45.091  -4.584  1.00  0.00     0.004 C 
ENDBRANCH  28  29
ENDBRANCH  27  28
ENDBRANCH  26  27
ENDBRANCH  25  26
ENDBRANCH  24  25
ENDBRANCH  23  24
ENDBRANCH  22  23
ENDBRANCH  21  22
ENDBRANCH  20  21
ENDBRANCH  19  20
ENDBRANCH  18  19
ENDBRANCH  17  18
ENDBRANCH   1  17
TORSDOF 26
ENDMDL
MODEL 6
REMARK VINA RESULT:    -3.580      1.811      4.524
REMARK INTER + INTRA:         -14.634
REMARK INTER:                  -9.623
REMARK INTRA:                  -5.011
REMARK UNBOUND:                -5.612
REMARK SMILES CCCCCCCCCCCCCCCCCCCCCCCCCCCC(=O)[O-]
REMARK SMILES IDX 15 1 16 2 17 3 18 4 19 5 20 6 21 7 22 8 23 9 24 10 25 11
REMARK SMILES IDX 26 12 27 13 28 14 29 15 30 16 14 17 13 18 12 19 11 20 10 21
REMARK SMILES IDX 9 22 8 23 7 24 6 25 5 26 4 27 3 28 2 29 1 30
REMARK H PARENT
REMARK Flexibility Score: inf
ROOT
ATOM      1  C   UNL     1      35.707 -45.502  -2.883  1.00  0.00     0.000 C 
ENDROOT
BRANCH   1   2
ATOM      2  C   UNL     1      34.986 -45.101  -1.587  1.00  0.00     0.000 C 
BRANCH   2   3
ATOM      3  C   UNL     1      34.473 -43.650  -1.609  1.00  0.00     0.000 C 
BRANCH   3   4
ATOM      4  C   UNL     1      33.520 -43.274  -0.454  1.00  0.00     0.000 C 
BRANCH   4   5
ATOM      5  C   UNL     1      32.637 -44.424   0.067  1.00  0.00     0.000 C 
BRANCH   5   6
ATOM      6  C   UNL     1      32.798 -44.740   1.566  1.00  0.00     0.000 C 
BRANCH   6   7
ATOM      7  C   UNL     1      33.731 -45.937   1.852  1.00  0.00     0.000 C 
BRANCH   7   8
ATOM      8  C   UNL     1      35.078 -45.501   2.458  1.00  0.00     0.000 C 
BRANCH   8   9
ATOM      9  C   UNL     1      36.280 -46.118   1.725  1.00  0.00     0.000 C 
BRANCH   9  10
ATOM     10  C   UNL     1      37.188 -46.930   2.660  1.00  0.00     0.000 C 
BRANCH  10  11
ATOM     11  C   UNL     1      36.361 -47.770   3.640  1.00  0.00     0.000 C 
BRANCH  11  12
ATOM     12  C   UNL     1      36.192 -49.206   3.126  1.00  0.00     0.006 C 
BRANCH  12  13
ATOM     13  C   UNL     1      34.730 -49.497   2.776  1.00  0.00     0.053 C 
BRANCH  13  14
ATOM     14  C   UNL     1      34.547 -49.538   1.291  1.00  0.00     0.041 C 
ATOM     15  O   UNL     1      33.431 -49.848   0.799  1.00  0.00    -0.550 OA
ATOM     16  O   UNL     1      35.623 -49.283   0.451  1.00  0.00    -0.550 OA
ENDBRANCH  13  14
ENDBRANCH  12  13
ENDBRANCH  11  12
ENDBRANCH  10  11
ENDBRANCH   9  10
ENDBRANCH   8   9
ENDBRANCH   7   8
ENDBRANCH   6   7
ENDBRANCH   5   6
ENDBRANCH   4   5
ENDBRANCH   3   4
ENDBRANCH   2   3
ENDBRANCH   1   2
BRANCH   1  17
ATOM     17  C   UNL     1      35.899 -44.282  -3.795  1.00  0.00     0.000 C 
BRANCH  17  18
ATOM     18  C   UNL     1      35.340 -44.500  -5.213  1.00  0.00     0.000 C 
BRANCH  18  19
ATOM     19  C   UNL     1      34.276 -43.477  -5.657  1.00  0.00     0.000 C 
BRANCH  19  20
ATOM     20  C   UNL     1      32.877 -44.061  -5.939  1.00  0.00     0.000 C 
BRANCH  20  21
ATOM     21  C   UNL     1      32.519 -45.324  -5.134  1.00  0.00     0.000 C 
BRANCH  21  22
ATOM     22  C   UNL     1      31.635 -45.026  -3.911  1.00  0.00    -0.000 C 
BRANCH  22  23
ATOM     23  C   UNL     1      31.682 -46.146  -2.860  1.00  0.00    -0.000 C 
BRANCH  23  24
ATOM     24  C   UNL     1      32.378 -47.418  -3.378  1.00  0.00    -0.000 C 
BRANCH  24  25
ATOM     25  C   UNL     1      33.072 -48.207  -2.254  1.00  0.00    -0.000 C 
BRANCH  25  26
ATOM     26  C   UNL     1      34.314 -48.972  -2.746  1.00  0.00    -0.000 C 
BRANCH  26  27
ATOM     27  C   UNL     1      34.243 -49.313  -4.242  1.00  0.00    -0.000 C 
BRANCH  27  28
ATOM     28  C   UNL     1      35.596 -49.154  -4.952  1.00  0.00    -0.000 C 
BRANCH  28  29
ATOM     29  C   UNL     1      35.538 -48.037  -6.000  1.00  0.00    -0.003 C 
ATOM     30  C   UNL     1      36.352 -48.398  -7.240  1.00  0.00     0.004 C 
ENDBRANCH  28  29
ENDBRANCH  27  28
ENDBRANCH  26  27
ENDBRANCH  25  26
ENDBRANCH  24  25
ENDBRANCH  23  24
ENDBRANCH  22  23
ENDBRANCH  21  22
ENDBRANCH  20  21
ENDBRANCH  19  20
ENDBRANCH  18  19
ENDBRANCH  17  18
ENDBRANCH   1  17
TORSDOF 26
ENDMDL
MODEL 7
REMARK VINA RESULT:    -3.536      4.298      8.478
REMARK INTER + INTRA:         -14.523
REMARK INTER:                  -9.617
REMARK INTRA:                  -4.906
REMARK UNBOUND:                -5.612
REMARK SMILES CCCCCCCCCCCCCCCCCCCCCCCCCCCC(=O)[O-]
REMARK SMILES IDX 15 1 16 2 17 3 18 4 19 5 20 6 21 7 22 8 23 9 24 10 25 11
REMARK SMILES IDX 26 12 27 13 28 14 29 15 30 16 14 17 13 18 12 19 11 20 10 21
REMARK SMILES IDX 9 22 8 23 7 24 6 25 5 26 4 27 3 28 2 29 1 30
REMARK H PARENT
REMARK Flexibility Score: inf
ROOT
ATOM      1  C   UNL     1      34.222 -43.051  -0.270  1.00  0.00     0.000 C 
ENDROOT
BRANCH   1   2
ATOM      2  C   UNL     1      33.062 -43.861   0.327  1.00  0.00     0.000 C 
BRANCH   2   3
ATOM      3  C   UNL     1      31.789 -43.814  -0.535  1.00  0.00     0.000 C 
BRANCH   3   4
ATOM      4  C   UNL     1      31.995 -44.147  -2.028  1.00  0.00     0.000 C 
BRANCH   4   5
ATOM      5  C   UNL     1      31.472 -45.527  -2.470  1.00  0.00     0.000 C 
BRANCH   5   6
ATOM      6  C   UNL     1      31.941 -45.986  -3.864  1.00  0.00     0.000 C 
BRANCH   6   7
ATOM      7  C   UNL     1      31.730 -44.929  -4.970  1.00  0.00     0.000 C 
BRANCH   7   8
ATOM      8  C   UNL     1      33.032 -44.597  -5.722  1.00  0.00     0.000 C 
BRANCH   8   9
ATOM      9  C   UNL     1      33.594 -43.216  -5.344  1.00  0.00     0.000 C 
BRANCH   9  10
ATOM     10  C   UNL     1      33.603 -42.238  -6.528  1.00  0.00     0.000 C 
BRANCH  10  11
ATOM     11  C   UNL     1      32.573 -42.646  -7.588  1.00  0.00     0.000 C 
BRANCH  11  12
ATOM     12  C   UNL     1      31.474 -41.585  -7.723  1.00  0.00     0.006 C 
BRANCH  12  13
ATOM     13  C   UNL     1      30.099 -42.170  -7.387  1.00  0.00     0.053 C 
BRANCH  13  14
ATOM     14  C   UNL     1      29.617 -41.647  -6.070  1.00  0.00     0.041 C 
ATOM     15  O   UNL     1      28.395 -41.700  -5.776  1.00  0.00    -0.550 OA
ATOM     16  O   UNL     1      30.512 -41.053  -5.189  1.00  0.00    -0.550 OA
ENDBRANCH  13  14
ENDBRANCH  12  13
ENDBRANCH  11  12
ENDBRANCH  10  11
ENDBRANCH   9  10
ENDBRANCH   8   9
ENDBRANCH   7   8
ENDBRANCH   6   7
ENDBRANCH   5   6
ENDBRANCH   4   5
ENDBRANCH   3   4
ENDBRANCH   2   3
ENDBRANCH   1   2
BRANCH   1  17
ATOM     17  C   UNL     1      35.568 -43.717   0.051  1.00  0.00     0.000 C 
BRANCH  17  18
ATOM     18  C   UNL     1      36.430 -43.959  -1.202  1.00  0.00     0.000 C 
BRANCH  18  19
ATOM     19  C   UNL     1      35.645 -44.383  -2.459  1.00  0.00     0.000 C 
BRANCH  19  20
ATOM     20  C   UNL     1      35.344 -45.892  -2.571  1.00  0.00     0.000 C 
BRANCH  20  21
ATOM     21  C   UNL     1      36.248 -46.805  -1.722  1.00  0.00     0.000 C 
BRANCH  21  22
ATOM     22  C   UNL     1      35.454 -47.728  -0.782  1.00  0.00    -0.000 C 
BRANCH  22  23
ATOM     23  C   UNL     1      33.996 -47.274  -0.600  1.00  0.00    -0.000 C 
BRANCH  23  24
ATOM     24  C   UNL     1      33.244 -48.099   0.460  1.00  0.00    -0.000 C 
BRANCH  24  25
ATOM     25  C   UNL     1      33.915 -49.457   0.732  1.00  0.00    -0.000 C 
BRANCH  25  26
ATOM     26  C   UNL     1      34.159 -49.707   2.231  1.00  0.00    -0.000 C 
BRANCH  26  27
ATOM     27  C   UNL     1      35.577 -49.313   2.671  1.00  0.00    -0.000 C 
BRANCH  27  28
ATOM     28  C   UNL     1      35.587 -48.121   3.641  1.00  0.00    -0.000 C 
BRANCH  28  29
ATOM     29  C   UNL     1      35.914 -46.817   2.904  1.00  0.00    -0.003 C 
ATOM     30  C   UNL     1      34.735 -45.849   2.939  1.00  0.00     0.004 C 
ENDBRANCH  28  29
ENDBRANCH  27  28
ENDBRANCH  26  27
ENDBRANCH  25  26
ENDBRANCH  24  25
ENDBRANCH  23  24
ENDBRANCH  22  23
ENDBRANCH  21  22
ENDBRANCH  20  21
ENDBRANCH  19  20
ENDBRANCH  18  19
ENDBRANCH  17  18
ENDBRANCH   1  17
TORSDOF 26
ENDMDL
MODEL 8
REMARK VINA RESULT:    -3.527      2.704      5.893
REMARK INTER + INTRA:         -14.501
REMARK INTER:                  -9.431
REMARK INTRA:                  -5.070
REMARK UNBOUND:                -5.612
REMARK SMILES CCCCCCCCCCCCCCCCCCCCCCCCCCCC(=O)[O-]
REMARK SMILES IDX 15 1 16 2 17 3 18 4 19 5 20 6 21 7 22 8 23 9 24 10 25 11
REMARK SMILES IDX 26 12 27 13 28 14 29 15 30 16 14 17 13 18 12 19 11 20 10 21
REMARK SMILES IDX 9 22 8 23 7 24 6 25 5 26 4 27 3 28 2 29 1 30
REMARK H PARENT
REMARK Flexibility Score: inf
ROOT
ATOM      1  C   UNL     1      33.755 -43.549  -1.504  1.00  0.00     0.000 C 
ENDROOT
BRANCH   1   2
ATOM      2  C   UNL     1      34.883 -43.275  -0.497  1.00  0.00     0.000 C 
BRANCH   2   3
ATOM      3  C   UNL     1      34.415 -43.356   0.966  1.00  0.00     0.000 C 
BRANCH   3   4
ATOM      4  C   UNL     1      35.337 -44.160   1.906  1.00  0.00     0.000 C 
BRANCH   4   5
ATOM      5  C   UNL     1      35.060 -45.675   1.957  1.00  0.00     0.000 C 
BRANCH   5   6
ATOM      6  C   UNL     1      33.593 -46.077   1.714  1.00  0.00     0.000 C 
BRANCH   6   7
ATOM      7  C   UNL     1      33.395 -46.999   0.491  1.00  0.00     0.000 C 
BRANCH   7   8
ATOM      8  C   UNL     1      34.691 -47.193  -0.317  1.00  0.00     0.000 C 
BRANCH   8   9
ATOM      9  C   UNL     1      34.460 -47.099  -1.834  1.00  0.00     0.000 C 
BRANCH   9  10
ATOM     10  C   UNL     1      32.989 -47.318  -2.221  1.00  0.00     0.000 C 
BRANCH  10  11
ATOM     11  C   UNL     1      32.807 -48.644  -2.967  1.00  0.00     0.000 C 
BRANCH  11  12
ATOM     12  C   UNL     1      33.871 -48.812  -4.058  1.00  0.00     0.006 C 
BRANCH  12  13
ATOM     13  C   UNL     1      34.150 -50.293  -4.332  1.00  0.00     0.053 C 
BRANCH  13  14
ATOM     14  C   UNL     1      35.555 -50.638  -3.948  1.00  0.00     0.041 C 
ATOM     15  O   UNL     1      36.120 -50.032  -3.001  1.00  0.00    -0.550 OA
ATOM     16  O   UNL     1      36.257 -51.595  -4.670  1.00  0.00    -0.550 OA
ENDBRANCH  13  14
ENDBRANCH  12  13
ENDBRANCH  11  12
ENDBRANCH  10  11
ENDBRANCH   9  10
ENDBRANCH   8   9
ENDBRANCH   7   8
ENDBRANCH   6   7
ENDBRANCH   5   6
ENDBRANCH   4   5
ENDBRANCH   3   4
ENDBRANCH   2   3
ENDBRANCH   1   2
BRANCH   1  17
ATOM     17  C   UNL     1      32.405 -43.669  -0.784  1.00  0.00     0.000 C 
BRANCH  17  18
ATOM     18  C   UNL     1      31.281 -44.185  -1.700  1.00  0.00     0.000 C 
BRANCH  18  19
ATOM     19  C   UNL     1      29.960 -43.395  -1.616  1.00  0.00     0.000 C 
BRANCH  19  20
ATOM     20  C   UNL     1      28.841 -43.881  -2.560  1.00  0.00     0.000 C 
BRANCH  20  21
ATOM     21  C   UNL     1      29.231 -45.036  -3.501  1.00  0.00     0.000 C 
BRANCH  21  22
ATOM     22  C   UNL     1      28.731 -44.832  -4.941  1.00  0.00    -0.000 C 
BRANCH  22  23
ATOM     23  C   UNL     1      28.016 -43.484  -5.133  1.00  0.00    -0.000 C 
BRANCH  23  24
ATOM     24  C   UNL     1      28.696 -42.595  -6.190  1.00  0.00    -0.000 C 
BRANCH  24  25
ATOM     25  C   UNL     1      30.086 -42.109  -5.742  1.00  0.00    -0.000 C 
BRANCH  25  26
ATOM     26  C   UNL     1      31.109 -42.101  -6.891  1.00  0.00    -0.000 C 
BRANCH  26  27
ATOM     27  C   UNL     1      32.264 -43.087  -6.660  1.00  0.00    -0.000 C 
BRANCH  27  28
ATOM     28  C   UNL     1      32.335 -43.588  -5.209  1.00  0.00    -0.000 C 
BRANCH  28  29
ATOM     29  C   UNL     1      32.579 -45.101  -5.162  1.00  0.00    -0.003 C 
ATOM     30  C   UNL     1      34.056 -45.430  -5.364  1.00  0.00     0.004 C 
ENDBRANCH  28  29
ENDBRANCH  27  28
ENDBRANCH  26  27
ENDBRANCH  25  26
ENDBRANCH  24  25
ENDBRANCH  23  24
ENDBRANCH  22  23
ENDBRANCH  21  22
ENDBRANCH  20  21
ENDBRANCH  19  20
ENDBRANCH  18  19
ENDBRANCH  17  18
ENDBRANCH   1  17
TORSDOF 26
ENDMDL
MODEL 9
REMARK VINA RESULT:    -3.497      2.479      5.377
REMARK INTER + INTRA:         -14.425
REMARK INTER:                  -9.350
REMARK INTRA:                  -5.075
REMARK UNBOUND:                -5.612
REMARK SMILES CCCCCCCCCCCCCCCCCCCCCCCCCCCC(=O)[O-]
REMARK SMILES IDX 15 1 16 2 17 3 18 4 19 5 20 6 21 7 22 8 23 9 24 10 25 11
REMARK SMILES IDX 26 12 27 13 28 14 29 15 30 16 14 17 13 18 12 19 11 20 10 21
REMARK SMILES IDX 9 22 8 23 7 24 6 25 5 26 4 27 3 28 2 29 1 30
REMARK H PARENT
REMARK Flexibility Score: inf
ROOT
ATOM      1  C   UNL     1      29.808 -45.048  -4.296  1.00  0.00     0.000 C 
ENDROOT
BRANCH   1   2
ATOM      2  C   UNL     1      30.235 -44.976  -2.822  1.00  0.00     0.000 C 
BRANCH   2   3
ATOM      3  C   UNL     1      30.629 -43.556  -2.379  1.00  0.00     0.000 C 
BRANCH   3   4
ATOM      4  C   UNL     1      30.865 -43.384  -0.864  1.00  0.00     0.000 C 
BRANCH   4   5
ATOM      5  C   UNL     1      32.241 -43.857  -0.357  1.00  0.00     0.000 C 
BRANCH   5   6
ATOM      6  C   UNL     1      33.429 -43.504  -1.273  1.00  0.00     0.000 C 
BRANCH   6   7
ATOM      7  C   UNL     1      34.777 -43.389  -0.528  1.00  0.00     0.000 C 
BRANCH   7   8
ATOM      8  C   UNL     1      34.600 -43.312   1.000  1.00  0.00     0.000 C 
BRANCH   8   9
ATOM      9  C   UNL     1      35.765 -43.965   1.761  1.00  0.00     0.000 C 
BRANCH   9  10
ATOM     10  C   UNL     1      35.514 -45.450   2.063  1.00  0.00     0.000 C 
BRANCH  10  11
ATOM     11  C   UNL     1      34.017 -45.734   2.232  1.00  0.00     0.000 C 
BRANCH  11  12
ATOM     12  C   UNL     1      33.578 -46.907   1.347  1.00  0.00     0.006 C 
BRANCH  12  13
ATOM     13  C   UNL     1      34.609 -47.186   0.250  1.00  0.00     0.053 C 
BRANCH  13  14
ATOM     14  C   UNL     1      34.819 -48.660   0.093  1.00  0.00     0.041 C 
ATOM     15  O   UNL     1      35.197 -49.132  -1.010  1.00  0.00    -0.550 OA
ATOM     16  O   UNL     1      34.547 -49.516   1.152  1.00  0.00    -0.550 OA
ENDBRANCH  13  14
ENDBRANCH  12  13
ENDBRANCH  11  12
ENDBRANCH  10  11
ENDBRANCH   9  10
ENDBRANCH   8   9
ENDBRANCH   7   8
ENDBRANCH   6   7
ENDBRANCH   5   6
ENDBRANCH   4   5
ENDBRANCH   3   4
ENDBRANCH   2   3
ENDBRANCH   1   2
BRANCH   1  17
ATOM     17  C   UNL     1      28.297 -44.813  -4.433  1.00  0.00     0.000 C 
BRANCH  17  18
ATOM     18  C   UNL     1      27.920 -44.085  -5.735  1.00  0.00     0.000 C 
BRANCH  18  19
ATOM     19  C   UNL     1      27.546 -42.599  -5.563  1.00  0.00     0.000 C 
BRANCH  19  20
ATOM     20  C   UNL     1      28.606 -41.592  -6.054  1.00  0.00     0.000 C 
BRANCH  20  21
ATOM     21  C   UNL     1      29.650 -41.174  -5.003  1.00  0.00     0.000 C 
BRANCH  21  22
ATOM     22  C   UNL     1      31.087 -41.550  -5.402  1.00  0.00    -0.000 C 
BRANCH  22  23
ATOM     23  C   UNL     1      31.138 -42.449  -6.648  1.00  0.00    -0.000 C 
BRANCH  23  24
ATOM     24  C   UNL     1      32.475 -43.201  -6.784  1.00  0.00    -0.000 C 
BRANCH  24  25
ATOM     25  C   UNL     1      33.096 -43.548  -5.420  1.00  0.00    -0.000 C 
BRANCH  25  26
ATOM     26  C   UNL     1      33.426 -45.045  -5.282  1.00  0.00    -0.000 C 
BRANCH  26  27
ATOM     27  C   UNL     1      34.503 -45.316  -4.221  1.00  0.00    -0.000 C 
BRANCH  27  28
ATOM     28  C   UNL     1      34.364 -46.704  -3.577  1.00  0.00    -0.000 C 
BRANCH  28  29
ATOM     29  C   UNL     1      32.962 -46.896  -2.985  1.00  0.00    -0.003 C 
ATOM     30  C   UNL     1      32.489 -48.338  -3.141  1.00  0.00     0.004 C 
ENDBRANCH  28  29
ENDBRANCH  27  28
ENDBRANCH  26  27
ENDBRANCH  25  26
ENDBRANCH  24  25
ENDBRANCH  23  24
ENDBRANCH  22  23
ENDBRANCH  21  22
ENDBRANCH  20  21
ENDBRANCH  19  20
ENDBRANCH  18  19
ENDBRANCH  17  18
ENDBRANCH   1  17
TORSDOF 26
ENDMDL
