MODEL 1
REMARK VINA RESULT:    -3.444      0.000      0.000
REMARK INTER + INTRA:          -4.539
REMARK INTER:                  -4.451
REMARK INTRA:                  -0.089
REMARK UNBOUND:                -0.089
REMARK SMILES CCCCCCC(=O)[O-]
REMARK SMILES IDX 5 1 6 2 7 3 8 4 9 5 4 6 3 7 2 8 1 9
REMARK H PARENT
REMARK Flexibility Score: inf
ROOT
ATOM      1  C   UNL     1       0.415   9.511   5.386  1.00  0.00     0.006 C 
ENDROOT
BRANCH   1   2
ATOM      2  C   UNL     1       1.215   9.987   6.602  1.00  0.00     0.053 C 
BRANCH   2   3
ATOM      3  C   UNL     1       2.271   8.990   6.958  1.00  0.00     0.041 C 
ATOM      4  O   UNL     1       2.162   7.791   6.587  1.00  0.00    -0.550 OA
ATOM      5  O   UNL     1       3.400   9.393   7.659  1.00  0.00    -0.550 OA
ENDBRANCH   2   3
ENDBRANCH   1   2
BRANCH   1   6
ATOM      6  C   UNL     1      -1.042   9.984   5.466  1.00  0.00     0.000 C 
BRANCH   6   7
ATOM      7  C   UNL     1      -1.889   9.345   4.360  1.00  0.00    -0.000 C 
BRANCH   7   8
ATOM      8  C   UNL     1      -3.382   9.405   4.706  1.00  0.00    -0.003 C 
ATOM      9  C   UNL     1      -4.113   8.161   4.209  1.00  0.00     0.004 C 
ENDBRANCH   7   8
ENDBRANCH   6   7
ENDBRANCH   1   6
TORSDOF 5
ENDMDL
MODEL 2
REMARK VINA RESULT:    -3.343      1.139      1.702
REMARK INTER + INTRA:          -4.408
REMARK INTER:                  -4.172
REMARK INTRA:                  -0.237
REMARK UNBOUND:                -0.089
REMARK SMILES CCCCCCC(=O)[O-]
REMARK SMILES IDX 5 1 6 2 7 3 8 4 9 5 4 6 3 7 2 8 1 9
REMARK H PARENT
REMARK Flexibility Score: inf
ROOT
ATOM      1  C   UNL     1       0.900   8.861   5.448  1.00  0.00     0.006 C 
ENDROOT
BRANCH   1   2
ATOM      2  C   UNL     1       1.853   8.213   6.457  1.00  0.00     0.053 C 
BRANCH   2   3
ATOM      3  C   UNL     1       3.112   9.012   6.577  1.00  0.00     0.041 C 
ATOM      4  O   UNL     1       3.483   9.444   7.701  1.00  0.00    -0.550 OA
ATOM      5  O   UNL     1       3.901   9.238   5.458  1.00  0.00    -0.550 OA
ENDBRANCH   2   3
ENDBRANCH   1   2
BRANCH   1   6
ATOM      6  C   UNL     1       0.224  10.100   6.047  1.00  0.00     0.000 C 
BRANCH   6   7
ATOM      7  C   UNL     1      -1.272  10.125   5.716  1.00  0.00    -0.000 C 
BRANCH   7   8
ATOM      8  C   UNL     1      -1.551   9.440   4.373  1.00  0.00    -0.003 C 
ATOM      9  C   UNL     1      -2.836   8.619   4.428  1.00  0.00     0.004 C 
ENDBRANCH   7   8
ENDBRANCH   6   7
ENDBRANCH   1   6
TORSDOF 5
ENDMDL
MODEL 3
REMARK VINA RESULT:    -3.341      1.718      2.589
REMARK INTER + INTRA:          -4.407
REMARK INTER:                  -4.224
REMARK INTRA:                  -0.182
REMARK UNBOUND:                -0.089
REMARK SMILES CCCCCCC(=O)[O-]
REMARK SMILES IDX 5 1 6 2 7 3 8 4 9 5 4 6 3 7 2 8 1 9
REMARK H PARENT
REMARK Flexibility Score: inf
ROOT
ATOM      1  C   UNL     1      -2.032  10.125   5.407  1.00  0.00     0.006 C 
ENDROOT
BRANCH   1   2
ATOM      2  C   UNL     1      -0.890   9.380   4.710  1.00  0.00     0.053 C 
BRANCH   2   3
ATOM      3  C   UNL     1       0.393   9.571   5.455  1.00  0.00     0.041 C 
ATOM      4  O   UNL     1       0.392  10.122   6.588  1.00  0.00    -0.550 OA
ATOM      5  O   UNL     1       1.584   9.098   4.921  1.00  0.00    -0.550 OA
ENDBRANCH   2   3
ENDBRANCH   1   2
BRANCH   1   6
ATOM      6  C   UNL     1      -3.352   9.944   4.648  1.00  0.00     0.000 C 
BRANCH   6   7
ATOM      7  C   UNL     1      -3.651   8.460   4.410  1.00  0.00    -0.000 C 
BRANCH   7   8
ATOM      8  C   UNL     1      -4.851   8.284   3.471  1.00  0.00    -0.003 C 
ATOM      9  C   UNL     1      -5.518   9.623   3.172  1.00  0.00     0.004 C 
ENDBRANCH   7   8
ENDBRANCH   6   7
ENDBRANCH   1   6
TORSDOF 5
ENDMDL
MODEL 4
REMARK VINA RESULT:    -3.225     15.900     16.356
REMARK INTER + INTRA:          -4.256
REMARK INTER:                  -4.115
REMARK INTRA:                  -0.142
REMARK UNBOUND:                -0.089
REMARK SMILES CCCCCCC(=O)[O-]
REMARK SMILES IDX 5 1 6 2 7 3 8 4 9 5 4 6 3 7 2 8 1 9
REMARK H PARENT
REMARK Flexibility Score: inf
ROOT
ATOM      1  C   UNL     1       4.077  -1.581  -7.205  1.00  0.00     0.006 C 
ENDROOT
BRANCH   1   2
ATOM      2  C   UNL     1       5.208  -0.647  -6.763  1.00  0.00     0.053 C 
BRANCH   2   3
ATOM      3  C   UNL     1       4.911   0.763  -7.165  1.00  0.00     0.041 C 
ATOM      4  O   UNL     1       3.741   1.096  -7.490  1.00  0.00    -0.550 OA
ATOM      5  O   UNL     1       5.917   1.720  -7.134  1.00  0.00    -0.550 OA
ENDBRANCH   2   3
ENDBRANCH   1   2
BRANCH   1   6
ATOM      6  C   UNL     1       3.208  -1.996  -6.012  1.00  0.00     0.000 C 
BRANCH   6   7
ATOM      7  C   UNL     1       1.728  -1.699  -6.280  1.00  0.00    -0.000 C 
BRANCH   7   8
ATOM      8  C   UNL     1       0.853  -2.163  -5.109  1.00  0.00    -0.003 C 
ATOM      9  C   UNL     1      -0.627  -2.123  -5.478  1.00  0.00     0.004 C 
ENDBRANCH   7   8
ENDBRANCH   6   7
ENDBRANCH   1   6
TORSDOF 5
ENDMDL
MODEL 5
REMARK VINA RESULT:    -3.118      3.634      5.663
REMARK INTER + INTRA:          -4.118
REMARK INTER:                  -3.978
REMARK INTRA:                  -0.140
REMARK UNBOUND:                -0.089
REMARK SMILES CCCCCCC(=O)[O-]
REMARK SMILES IDX 5 1 6 2 7 3 8 4 9 5 4 6 3 7 2 8 1 9
REMARK H PARENT
REMARK Flexibility Score: inf
ROOT
ATOM      1  C   UNL     1      -1.752   9.574   4.149  1.00  0.00     0.006 C 
ENDROOT
BRANCH   1   2
ATOM      2  C   UNL     1      -3.104   9.961   4.755  1.00  0.00     0.053 C 
BRANCH   2   3
ATOM      3  C   UNL     1      -4.189   9.081   4.221  1.00  0.00     0.041 C 
ATOM      4  O   UNL     1      -4.168   7.842   4.444  1.00  0.00    -0.550 OA
ATOM      5  O   UNL     1      -5.250   9.636   3.517  1.00  0.00    -0.550 OA
ENDBRANCH   2   3
ENDBRANCH   1   2
BRANCH   1   6
ATOM      6  C   UNL     1      -0.626   9.708   5.182  1.00  0.00     0.000 C 
BRANCH   6   7
ATOM      7  C   UNL     1       0.434   8.619   4.985  1.00  0.00    -0.000 C 
BRANCH   7   8
ATOM      8  C   UNL     1       1.601   8.804   5.963  1.00  0.00    -0.003 C 
ATOM      9  C   UNL     1       1.427  10.071   6.795  1.00  0.00     0.004 C 
ENDBRANCH   7   8
ENDBRANCH   6   7
ENDBRANCH   1   6
TORSDOF 5
ENDMDL
MODEL 6
REMARK VINA RESULT:    -3.079     11.983     13.556
REMARK INTER + INTRA:          -4.068
REMARK INTER:                  -3.739
REMARK INTRA:                  -0.329
REMARK UNBOUND:                -0.089
REMARK SMILES CCCCCCC(=O)[O-]
REMARK SMILES IDX 5 1 6 2 7 3 8 4 9 5 4 6 3 7 2 8 1 9
REMARK H PARENT
REMARK Flexibility Score: inf
ROOT
ATOM      1  C   UNL     1      -8.309  -1.362   8.741  1.00  0.00     0.006 C 
ENDROOT
BRANCH   1   2
ATOM      2  C   UNL     1      -9.017  -0.614   7.609  1.00  0.00     0.053 C 
BRANCH   2   3
ATOM      3  C   UNL     1      -8.265   0.628   7.249  1.00  0.00     0.041 C 
ATOM      4  O   UNL     1      -8.626   1.326   6.265  1.00  0.00    -0.550 OA
ATOM      5  O   UNL     1      -7.194   1.042   8.030  1.00  0.00    -0.550 OA
ENDBRANCH   2   3
ENDBRANCH   1   2
BRANCH   1   6
ATOM      6  C   UNL     1      -9.298  -1.755   9.845  1.00  0.00     0.000 C 
BRANCH   6   7
ATOM      7  C   UNL     1      -8.879  -1.165  11.196  1.00  0.00    -0.000 C 
BRANCH   7   8
ATOM      8  C   UNL     1      -9.301   0.305  11.309  1.00  0.00    -0.003 C 
ATOM      9  C   UNL     1      -8.086   1.220  11.436  1.00  0.00     0.004 C 
ENDBRANCH   7   8
ENDBRANCH   6   7
ENDBRANCH   1   6
TORSDOF 5
ENDMDL
MODEL 7
REMARK VINA RESULT:    -3.076     16.682     17.526
REMARK INTER + INTRA:          -4.064
REMARK INTER:                  -3.792
REMARK INTRA:                  -0.271
REMARK UNBOUND:                -0.089
REMARK SMILES CCCCCCC(=O)[O-]
REMARK SMILES IDX 5 1 6 2 7 3 8 4 9 5 4 6 3 7 2 8 1 9
REMARK H PARENT
REMARK Flexibility Score: inf
ROOT
ATOM      1  C   UNL     1       5.424  -1.777  -6.913  1.00  0.00     0.006 C 
ENDROOT
BRANCH   1   2
ATOM      2  C   UNL     1       4.005  -2.067  -7.411  1.00  0.00     0.053 C 
BRANCH   2   3
ATOM      3  C   UNL     1       3.056  -1.013  -6.933  1.00  0.00     0.041 C 
ATOM      4  O   UNL     1       2.106  -1.317  -6.165  1.00  0.00    -0.550 OA
ATOM      5  O   UNL     1       3.250   0.312  -7.299  1.00  0.00    -0.550 OA
ENDBRANCH   2   3
ENDBRANCH   1   2
BRANCH   1   6
ATOM      6  C   UNL     1       6.315  -1.273  -8.054  1.00  0.00     0.000 C 
BRANCH   6   7
ATOM      7  C   UNL     1       7.374  -0.294  -7.535  1.00  0.00    -0.000 C 
BRANCH   7   8
ATOM      8  C   UNL     1       6.719   0.930  -6.883  1.00  0.00    -0.003 C 
ATOM      9  C   UNL     1       7.327   1.218  -5.514  1.00  0.00     0.004 C 
ENDBRANCH   7   8
ENDBRANCH   6   7
ENDBRANCH   1   6
TORSDOF 5
ENDMDL
MODEL 8
REMARK VINA RESULT:    -3.062      3.593      4.770
REMARK INTER + INTRA:          -4.046
REMARK INTER:                  -3.826
REMARK INTRA:                  -0.220
REMARK UNBOUND:                -0.089
REMARK SMILES CCCCCCC(=O)[O-]
REMARK SMILES IDX 5 1 6 2 7 3 8 4 9 5 4 6 3 7 2 8 1 9
REMARK H PARENT
REMARK Flexibility Score: inf
ROOT
ATOM      1  C   UNL     1       1.576   7.007   5.381  1.00  0.00     0.006 C 
ENDROOT
BRANCH   1   2
ATOM      2  C   UNL     1       2.795   7.438   6.202  1.00  0.00     0.053 C 
BRANCH   2   3
ATOM      3  C   UNL     1       2.493   8.682   6.975  1.00  0.00     0.041 C 
ATOM      4  O   UNL     1       1.330   9.165   6.969  1.00  0.00    -0.550 OA
ATOM      5  O   UNL     1       3.484   9.282   7.740  1.00  0.00    -0.550 OA
ENDBRANCH   2   3
ENDBRANCH   1   2
BRANCH   1   6
ATOM      6  C   UNL     1       1.630   5.508   5.061  1.00  0.00     0.000 C 
BRANCH   6   7
ATOM      7  C   UNL     1       2.493   4.758   6.081  1.00  0.00    -0.000 C 
BRANCH   7   8
ATOM      8  C   UNL     1       1.698   3.630   6.751  1.00  0.00    -0.003 C 
ATOM      9  C   UNL     1       0.648   3.058   5.803  1.00  0.00     0.004 C 
ENDBRANCH   7   8
ENDBRANCH   6   7
ENDBRANCH   1   6
TORSDOF 5
ENDMDL
MODEL 9
REMARK VINA RESULT:    -2.994     16.775     17.411
REMARK INTER + INTRA:          -3.957
REMARK INTER:                  -3.625
REMARK INTRA:                  -0.333
REMARK UNBOUND:                -0.089
REMARK SMILES CCCCCCC(=O)[O-]
REMARK SMILES IDX 5 1 6 2 7 3 8 4 9 5 4 6 3 7 2 8 1 9
REMARK H PARENT
REMARK Flexibility Score: inf
ROOT
ATOM      1  C   UNL     1       7.505   0.670  -5.922  1.00  0.00     0.006 C 
ENDROOT
BRANCH   1   2
ATOM      2  C   UNL     1       6.526   1.252  -6.946  1.00  0.00     0.053 C 
BRANCH   2   3
ATOM      3  C   UNL     1       5.118   1.118  -6.460  1.00  0.00     0.041 C 
ATOM      4  O   UNL     1       4.161   1.126  -7.280  1.00  0.00    -0.550 OA
ATOM      5  O   UNL     1       4.864   0.937  -5.107  1.00  0.00    -0.550 OA
ENDBRANCH   2   3
ENDBRANCH   1   2
BRANCH   1   6
ATOM      6  C   UNL     1       8.383  -0.416  -6.554  1.00  0.00     0.000 C 
BRANCH   6   7
ATOM      7  C   UNL     1       7.861  -0.806  -7.942  1.00  0.00    -0.000 C 
BRANCH   7   8
ATOM      8  C   UNL     1       7.277  -2.224  -7.932  1.00  0.00    -0.003 C 
ATOM      9  C   UNL     1       5.763  -2.198  -8.125  1.00  0.00     0.004 C 
ENDBRANCH   7   8
ENDBRANCH   6   7
ENDBRANCH   1   6
TORSDOF 5
ENDMDL
