MODEL 1
REMARK VINA RESULT:    -4.043      0.000      0.000
REMARK INTER + INTRA:          -4.815
REMARK INTER:                  -4.752
REMARK INTRA:                  -0.063
REMARK UNBOUND:                -0.063
REMARK SMILES CCCCC(=O)[O-]
REMARK SMILES IDX 4 1 5 2 6 3 7 4 3 5 2 6 1 7
REMARK H PARENT
REMARK Flexibility Score: inf
ROOT
ATOM      1  C   UNL     1      40.735  66.272  24.578  1.00  0.00     0.053 C 
ENDROOT
BRANCH   1   2
ATOM      2  C   UNL     1      39.541  66.640  23.752  1.00  0.00     0.041 C 
ATOM      3  O   UNL     1      38.489  67.053  24.308  1.00  0.00    -0.550 OA
ATOM      4  O   UNL     1      39.578  66.495  22.372  1.00  0.00    -0.550 OA
ENDBRANCH   1   2
BRANCH   1   5
ATOM      5  C   UNL     1      41.490  67.512  25.071  1.00  0.00     0.006 C 
BRANCH   5   6
ATOM      6  C   UNL     1      42.146  68.288  23.920  1.00  0.00    -0.003 C 
ATOM      7  C   UNL     1      43.090  69.365  24.449  1.00  0.00     0.004 C 
ENDBRANCH   5   6
ENDBRANCH   1   5
TORSDOF 3
ENDMDL
MODEL 2
REMARK VINA RESULT:    -4.037      2.126      3.352
REMARK INTER + INTRA:          -4.808
REMARK INTER:                  -4.748
REMARK INTRA:                  -0.060
REMARK UNBOUND:                -0.063
REMARK SMILES CCCCC(=O)[O-]
REMARK SMILES IDX 4 1 5 2 6 3 7 4 3 5 2 6 1 7
REMARK H PARENT
REMARK Flexibility Score: inf
ROOT
ATOM      1  C   UNL     1      41.234  66.940  24.393  1.00  0.00     0.053 C 
ENDROOT
BRANCH   1   2
ATOM      2  C   UNL     1      41.404  65.624  23.697  1.00  0.00     0.041 C 
ATOM      3  O   UNL     1      41.817  64.619  24.333  1.00  0.00    -0.550 OA
ATOM      4  O   UNL     1      41.138  65.517  22.338  1.00  0.00    -0.550 OA
ENDBRANCH   1   2
BRANCH   1   5
ATOM      5  C   UNL     1      39.948  66.979  25.229  1.00  0.00     0.006 C 
BRANCH   5   6
ATOM      6  C   UNL     1      38.686  66.980  24.354  1.00  0.00    -0.003 C 
ATOM      7  C   UNL     1      37.448  67.334  25.173  1.00  0.00     0.004 C 
ENDBRANCH   5   6
ENDBRANCH   1   5
TORSDOF 3
ENDMDL
MODEL 3
REMARK VINA RESULT:    -3.982      1.529      2.802
REMARK INTER + INTRA:          -4.744
REMARK INTER:                  -4.677
REMARK INTRA:                  -0.067
REMARK UNBOUND:                -0.063
REMARK SMILES CCCCC(=O)[O-]
REMARK SMILES IDX 4 1 5 2 6 3 7 4 3 5 2 6 1 7
REMARK H PARENT
REMARK Flexibility Score: inf
ROOT
ATOM      1  C   UNL     1      40.908  66.986  24.415  1.00  0.00     0.053 C 
ENDROOT
BRANCH   1   2
ATOM      2  C   UNL     1      39.599  66.773  23.719  1.00  0.00     0.041 C 
ATOM      3  O   UNL     1      38.520  66.837  24.365  1.00  0.00    -0.550 OA
ATOM      4  O   UNL     1      39.573  66.470  22.364  1.00  0.00    -0.550 OA
ENDBRANCH   1   2
BRANCH   1   5
ATOM      5  C   UNL     1      41.298  65.778  25.276  1.00  0.00     0.006 C 
BRANCH   5   6
ATOM      6  C   UNL     1      41.728  64.574  24.427  1.00  0.00    -0.003 C 
ATOM      7  C   UNL     1      42.179  63.412  25.307  1.00  0.00     0.004 C 
ENDBRANCH   5   6
ENDBRANCH   1   5
TORSDOF 3
ENDMDL
MODEL 4
REMARK VINA RESULT:    -3.969      2.219      3.361
REMARK INTER + INTRA:          -4.728
REMARK INTER:                  -4.660
REMARK INTRA:                  -0.068
REMARK UNBOUND:                -0.063
REMARK SMILES CCCCC(=O)[O-]
REMARK SMILES IDX 4 1 5 2 6 3 7 4 3 5 2 6 1 7
REMARK H PARENT
REMARK Flexibility Score: inf
ROOT
ATOM      1  C   UNL     1      40.530  66.738  24.435  1.00  0.00     0.053 C 
ENDROOT
BRANCH   1   2
ATOM      2  C   UNL     1      41.377  67.526  23.484  1.00  0.00     0.041 C 
ATOM      3  O   UNL     1      42.128  68.442  23.912  1.00  0.00    -0.550 OA
ATOM      4  O   UNL     1      41.311  67.272  22.120  1.00  0.00    -0.550 OA
ENDBRANCH   1   2
BRANCH   1   5
ATOM      5  C   UNL     1      41.366  65.740  25.247  1.00  0.00     0.006 C 
BRANCH   5   6
ATOM      6  C   UNL     1      41.783  64.519  24.415  1.00  0.00    -0.003 C 
ATOM      7  C   UNL     1      42.175  63.349  25.312  1.00  0.00     0.004 C 
ENDBRANCH   5   6
ENDBRANCH   1   5
TORSDOF 3
ENDMDL
MODEL 5
REMARK VINA RESULT:    -3.936      2.143      3.574
REMARK INTER + INTRA:          -4.689
REMARK INTER:                  -4.630
REMARK INTRA:                  -0.059
REMARK UNBOUND:                -0.063
REMARK SMILES CCCCC(=O)[O-]
REMARK SMILES IDX 4 1 5 2 6 3 7 4 3 5 2 6 1 7
REMARK H PARENT
REMARK Flexibility Score: inf
ROOT
ATOM      1  C   UNL     1      40.860  66.432  24.435  1.00  0.00     0.053 C 
ENDROOT
BRANCH   1   2
ATOM      2  C   UNL     1      41.468  67.492  23.569  1.00  0.00     0.041 C 
ATOM      3  O   UNL     1      41.297  67.467  22.321  1.00  0.00    -0.550 OA
ATOM      4  O   UNL     1      42.252  68.489  24.136  1.00  0.00    -0.550 OA
ENDBRANCH   1   2
BRANCH   1   5
ATOM      5  C   UNL     1      39.699  66.979  25.274  1.00  0.00     0.006 C 
BRANCH   5   6
ATOM      6  C   UNL     1      38.392  67.063  24.473  1.00  0.00    -0.003 C 
ATOM      7  C   UNL     1      37.213  67.413  25.377  1.00  0.00     0.004 C 
ENDBRANCH   5   6
ENDBRANCH   1   5
TORSDOF 3
ENDMDL
MODEL 6
REMARK VINA RESULT:    -3.911      1.712      2.109
REMARK INTER + INTRA:          -4.661
REMARK INTER:                  -4.598
REMARK INTRA:                  -0.063
REMARK UNBOUND:                -0.063
REMARK SMILES CCCCC(=O)[O-]
REMARK SMILES IDX 4 1 5 2 6 3 7 4 3 5 2 6 1 7
REMARK H PARENT
REMARK Flexibility Score: inf
ROOT
ATOM      1  C   UNL     1      40.670  66.873  24.143  1.00  0.00     0.053 C 
ENDROOT
BRANCH   1   2
ATOM      2  C   UNL     1      41.276  65.691  23.451  1.00  0.00     0.041 C 
ATOM      3  O   UNL     1      41.269  65.621  22.193  1.00  0.00    -0.550 OA
ATOM      4  O   UNL     1      41.818  64.651  24.195  1.00  0.00    -0.550 OA
ENDBRANCH   1   2
BRANCH   1   5
ATOM      5  C   UNL     1      41.734  67.727  24.845  1.00  0.00     0.006 C 
BRANCH   5   6
ATOM      6  C   UNL     1      42.494  68.631  23.863  1.00  0.00    -0.003 C 
ATOM      7  C   UNL     1      43.290  69.701  24.604  1.00  0.00     0.004 C 
ENDBRANCH   5   6
ENDBRANCH   1   5
TORSDOF 3
ENDMDL
MODEL 7
REMARK VINA RESULT:    -3.814      3.189      4.879
REMARK INTER + INTRA:          -4.546
REMARK INTER:                  -4.525
REMARK INTRA:                  -0.020
REMARK UNBOUND:                -0.063
REMARK SMILES CCCCC(=O)[O-]
REMARK SMILES IDX 4 1 5 2 6 3 7 4 3 5 2 6 1 7
REMARK H PARENT
REMARK Flexibility Score: inf
ROOT
ATOM      1  C   UNL     1      37.622  67.473  24.457  1.00  0.00     0.053 C 
ENDROOT
BRANCH   1   2
ATOM      2  C   UNL     1      39.031  66.964  24.480  1.00  0.00     0.041 C 
ATOM      3  O   UNL     1      39.711  67.028  25.539  1.00  0.00    -0.550 OA
ATOM      4  O   UNL     1      39.604  66.451  23.324  1.00  0.00    -0.550 OA
ENDBRANCH   1   2
BRANCH   1   5
ATOM      5  C   UNL     1      36.996  67.477  25.857  1.00  0.00     0.006 C 
BRANCH   5   6
ATOM      6  C   UNL     1      35.464  67.578  25.808  1.00  0.00    -0.003 C 
ATOM      7  C   UNL     1      34.814  66.235  26.132  1.00  0.00     0.004 C 
ENDBRANCH   5   6
ENDBRANCH   1   5
TORSDOF 3
ENDMDL
MODEL 8
REMARK VINA RESULT:    -3.650      3.684      4.626
REMARK INTER + INTRA:          -4.353
REMARK INTER:                  -4.334
REMARK INTRA:                  -0.019
REMARK UNBOUND:                -0.063
REMARK SMILES CCCCC(=O)[O-]
REMARK SMILES IDX 4 1 5 2 6 3 7 4 3 5 2 6 1 7
REMARK H PARENT
REMARK Flexibility Score: inf
ROOT
ATOM      1  C   UNL     1      41.732  63.872  24.585  1.00  0.00     0.053 C 
ENDROOT
BRANCH   1   2
ATOM      2  C   UNL     1      41.476  65.347  24.606  1.00  0.00     0.041 C 
ATOM      3  O   UNL     1      41.251  65.937  25.696  1.00  0.00    -0.550 OA
ATOM      4  O   UNL     1      41.452  66.066  23.417  1.00  0.00    -0.550 OA
ENDBRANCH   1   2
BRANCH   1   5
ATOM      5  C   UNL     1      42.321  63.378  25.912  1.00  0.00     0.006 C 
BRANCH   5   6
ATOM      6  C   UNL     1      42.890  61.956  25.802  1.00  0.00    -0.003 C 
ATOM      7  C   UNL     1      44.413  61.964  25.904  1.00  0.00     0.004 C 
ENDBRANCH   5   6
ENDBRANCH   1   5
TORSDOF 3
ENDMDL
MODEL 9
REMARK VINA RESULT:    -3.492      2.666      3.647
REMARK INTER + INTRA:          -4.168
REMARK INTER:                  -4.121
REMARK INTRA:                  -0.047
REMARK UNBOUND:                -0.063
REMARK SMILES CCCCC(=O)[O-]
REMARK SMILES IDX 4 1 5 2 6 3 7 4 3 5 2 6 1 7
REMARK H PARENT
REMARK Flexibility Score: inf
ROOT
ATOM      1  C   UNL     1      40.231  66.405  23.639  1.00  0.00     0.053 C 
ENDROOT
BRANCH   1   2
ATOM      2  C   UNL     1      41.087  67.180  24.592  1.00  0.00     0.041 C 
ATOM      3  O   UNL     1      41.894  68.045  24.160  1.00  0.00    -0.550 OA
ATOM      4  O   UNL     1      41.018  66.925  25.955  1.00  0.00    -0.550 OA
ENDBRANCH   1   2
BRANCH   1   5
ATOM      5  C   UNL     1      40.974  66.089  22.335  1.00  0.00     0.006 C 
BRANCH   5   6
ATOM      6  C   UNL     1      40.414  66.878  21.142  1.00  0.00    -0.003 C 
ATOM      7  C   UNL     1      40.555  66.087  19.844  1.00  0.00     0.004 C 
ENDBRANCH   5   6
ENDBRANCH   1   5
TORSDOF 3
ENDMDL
