MODEL 1
REMARK VINA RESULT:    -3.929      0.000      0.000
REMARK INTER + INTRA:          -7.098
REMARK INTER:                  -6.226
REMARK INTRA:                  -0.872
REMARK UNBOUND:                -0.872
REMARK SMILES CCCCCCCCCCCC(=O)[O-]
REMARK SMILES IDX 7 1 8 2 9 3 10 4 11 5 12 6 13 7 14 8 6 9 5 10 4 11 3 12 2 13
REMARK SMILES IDX 1 14
REMARK H PARENT
REMARK Flexibility Score: inf
ROOT
ATOM      1  C   UNL     1      -6.888  25.025   0.875  1.00  0.00     0.000 C 
ENDROOT
BRANCH   1   2
ATOM      2  C   UNL     1      -5.377  25.314   0.808  1.00  0.00     0.000 C 
BRANCH   2   3
ATOM      3  C   UNL     1      -4.612  24.730   2.007  1.00  0.00     0.000 C 
BRANCH   3   4
ATOM      4  C   UNL     1      -4.102  25.818   2.968  1.00  0.00     0.006 C 
BRANCH   4   5
ATOM      5  C   UNL     1      -3.818  27.142   2.245  1.00  0.00     0.053 C 
BRANCH   5   6
ATOM      6  C   UNL     1      -2.490  27.714   2.636  1.00  0.00     0.041 C 
ATOM      7  O   UNL     1      -2.374  28.381   3.698  1.00  0.00    -0.550 OA
ATOM      8  O   UNL     1      -1.371  27.481   1.846  1.00  0.00    -0.550 OA
ENDBRANCH   5   6
ENDBRANCH   4   5
ENDBRANCH   3   4
ENDBRANCH   2   3
ENDBRANCH   1   2
BRANCH   1   9
ATOM      9  C   UNL     1      -7.359  24.684   2.298  1.00  0.00     0.000 C 
BRANCH   9  10
ATOM     10  C   UNL     1      -8.055  25.868   2.988  1.00  0.00    -0.000 C 
BRANCH  10  11
ATOM     11  C   UNL     1      -7.417  26.232   4.339  1.00  0.00    -0.000 C 
BRANCH  11  12
ATOM     12  C   UNL     1      -7.897  25.347   5.508  1.00  0.00    -0.000 C 
BRANCH  12  13
ATOM     13  C   UNL     1      -7.385  25.849   6.867  1.00  0.00    -0.003 C 
ATOM     14  C   UNL     1      -6.254  26.858   6.691  1.00  0.00     0.004 C 
ENDBRANCH  12  13
ENDBRANCH  11  12
ENDBRANCH  10  11
ENDBRANCH   9  10
ENDBRANCH   1   9
TORSDOF 10
ENDMDL
MODEL 2
REMARK VINA RESULT:    -3.803      1.354      2.827
REMARK INTER + INTRA:          -6.898
REMARK INTER:                  -5.642
REMARK INTRA:                  -1.256
REMARK UNBOUND:                -0.872
REMARK SMILES CCCCCCCCCCCC(=O)[O-]
REMARK SMILES IDX 7 1 8 2 9 3 10 4 11 5 12 6 13 7 14 8 6 9 5 10 4 11 3 12 2 13
REMARK SMILES IDX 1 14
REMARK H PARENT
REMARK Flexibility Score: inf
ROOT
ATOM      1  C   UNL     1      -3.261  25.492   1.342  1.00  0.00     0.000 C 
ENDROOT
BRANCH   1   2
ATOM      2  C   UNL     1      -3.374  25.577   2.875  1.00  0.00     0.000 C 
BRANCH   2   3
ATOM      3  C   UNL     1      -3.554  27.020   3.374  1.00  0.00     0.000 C 
BRANCH   3   4
ATOM      4  C   UNL     1      -3.623  28.038   2.222  1.00  0.00     0.006 C 
BRANCH   4   5
ATOM      5  C   UNL     1      -2.664  29.217   2.434  1.00  0.00     0.053 C 
BRANCH   5   6
ATOM      6  C   UNL     1      -1.231  28.781   2.391  1.00  0.00     0.041 C 
ATOM      7  O   UNL     1      -0.443  29.103   3.319  1.00  0.00    -0.550 OA
ATOM      8  O   UNL     1      -0.774  27.989   1.346  1.00  0.00    -0.550 OA
ENDBRANCH   5   6
ENDBRANCH   4   5
ENDBRANCH   3   4
ENDBRANCH   2   3
ENDBRANCH   1   2
BRANCH   1   9
ATOM      9  C   UNL     1      -4.140  24.379   0.749  1.00  0.00     0.000 C 
BRANCH   9  10
ATOM     10  C   UNL     1      -5.269  23.949   1.699  1.00  0.00    -0.000 C 
BRANCH  10  11
ATOM     11  C   UNL     1      -6.570  24.738   1.479  1.00  0.00    -0.000 C 
BRANCH  11  12
ATOM     12  C   UNL     1      -7.441  24.858   2.747  1.00  0.00    -0.000 C 
BRANCH  12  13
ATOM     13  C   UNL     1      -7.425  26.278   3.333  1.00  0.00    -0.003 C 
ATOM     14  C   UNL     1      -6.837  26.287   4.740  1.00  0.00     0.004 C 
ENDBRANCH  12  13
ENDBRANCH  11  12
ENDBRANCH  10  11
ENDBRANCH   9  10
ENDBRANCH   1   9
TORSDOF 10
ENDMDL
MODEL 3
REMARK VINA RESULT:    -3.767      3.287      5.713
REMARK INTER + INTRA:          -6.841
REMARK INTER:                  -5.504
REMARK INTRA:                  -1.337
REMARK UNBOUND:                -0.872
REMARK SMILES CCCCCCCCCCCC(=O)[O-]
REMARK SMILES IDX 7 1 8 2 9 3 10 4 11 5 12 6 13 7 14 8 6 9 5 10 4 11 3 12 2 13
REMARK SMILES IDX 1 14
REMARK H PARENT
REMARK Flexibility Score: inf
ROOT
ATOM      1  C   UNL     1      -3.172  25.722   1.499  1.00  0.00     0.000 C 
ENDROOT
BRANCH   1   2
ATOM      2  C   UNL     1      -3.394  25.864   3.016  1.00  0.00     0.000 C 
BRANCH   2   3
ATOM      3  C   UNL     1      -4.838  26.260   3.366  1.00  0.00     0.000 C 
BRANCH   3   4
ATOM      4  C   UNL     1      -5.709  26.477   2.116  1.00  0.00     0.006 C 
BRANCH   4   5
ATOM      5  C   UNL     1      -7.167  26.058   2.348  1.00  0.00     0.053 C 
BRANCH   5   6
ATOM      6  C   UNL     1      -7.482  24.754   1.681  1.00  0.00     0.041 C 
ATOM      7  O   UNL     1      -8.418  24.681   0.842  1.00  0.00    -0.550 OA
ATOM      8  O   UNL     1      -6.720  23.626   1.960  1.00  0.00    -0.550 OA
ENDBRANCH   5   6
ENDBRANCH   4   5
ENDBRANCH   3   4
ENDBRANCH   2   3
ENDBRANCH   1   2
BRANCH   1   9
ATOM      9  C   UNL     1      -1.870  26.390   1.031  1.00  0.00     0.000 C 
BRANCH   9  10
ATOM     10  C   UNL     1      -2.111  27.470  -0.036  1.00  0.00    -0.000 C 
BRANCH  10  11
ATOM     11  C   UNL     1      -3.006  28.615   0.465  1.00  0.00    -0.000 C 
BRANCH  11  12
ATOM     12  C   UNL     1      -2.252  29.666   1.306  1.00  0.00    -0.000 C 
BRANCH  12  13
ATOM     13  C   UNL     1      -2.844  29.818   2.716  1.00  0.00    -0.003 C 
ATOM     14  C   UNL     1      -1.934  29.188   3.766  1.00  0.00     0.004 C 
ENDBRANCH  12  13
ENDBRANCH  11  12
ENDBRANCH  10  11
ENDBRANCH   9  10
ENDBRANCH   1   9
TORSDOF 10
ENDMDL
MODEL 4
REMARK VINA RESULT:    -3.765      4.410      6.921
REMARK INTER + INTRA:          -6.838
REMARK INTER:                  -5.926
REMARK INTRA:                  -0.912
REMARK UNBOUND:                -0.872
REMARK SMILES CCCCCCCCCCCC(=O)[O-]
REMARK SMILES IDX 7 1 8 2 9 3 10 4 11 5 12 6 13 7 14 8 6 9 5 10 4 11 3 12 2 13
REMARK SMILES IDX 1 14
REMARK H PARENT
REMARK Flexibility Score: inf
ROOT
ATOM      1  C   UNL     1      -3.676  22.695  -1.248  1.00  0.00     0.000 C 
ENDROOT
BRANCH   1   2
ATOM      2  C   UNL     1      -4.696  23.594  -0.526  1.00  0.00     0.000 C 
BRANCH   2   3
ATOM      3  C   UNL     1      -4.257  23.954   0.902  1.00  0.00     0.000 C 
BRANCH   3   4
ATOM      4  C   UNL     1      -5.400  23.817   1.923  1.00  0.00     0.006 C 
BRANCH   4   5
ATOM      5  C   UNL     1      -6.246  25.093   2.019  1.00  0.00     0.053 C 
BRANCH   5   6
ATOM      6  C   UNL     1      -7.691  24.825   1.726  1.00  0.00     0.041 C 
ATOM      7  O   UNL     1      -8.590  25.461   2.336  1.00  0.00    -0.550 OA
ATOM      8  O   UNL     1      -8.044  23.897   0.754  1.00  0.00    -0.550 OA
ENDBRANCH   5   6
ENDBRANCH   4   5
ENDBRANCH   3   4
ENDBRANCH   2   3
ENDBRANCH   1   2
BRANCH   1   9
ATOM      9  C   UNL     1      -3.334  21.430  -0.444  1.00  0.00     0.000 C 
BRANCH   9  10
ATOM     10  C   UNL     1      -1.873  21.411   0.032  1.00  0.00    -0.000 C 
BRANCH  10  11
ATOM     11  C   UNL     1      -0.995  22.445  -0.691  1.00  0.00    -0.000 C 
BRANCH  11  12
ATOM     12  C   UNL     1      -0.484  23.573   0.230  1.00  0.00    -0.000 C 
BRANCH  12  13
ATOM     13  C   UNL     1      -0.571  24.954  -0.436  1.00  0.00    -0.003 C 
ATOM     14  C   UNL     1       0.678  25.249  -1.260  1.00  0.00     0.004 C 
ENDBRANCH  12  13
ENDBRANCH  11  12
ENDBRANCH  10  11
ENDBRANCH   9  10
ENDBRANCH   1   9
TORSDOF 10
ENDMDL
MODEL 5
REMARK VINA RESULT:    -3.651      3.278      5.807
REMARK INTER + INTRA:          -6.656
REMARK INTER:                  -5.008
REMARK INTRA:                  -1.649
REMARK UNBOUND:                -0.872
REMARK SMILES CCCCCCCCCCCC(=O)[O-]
REMARK SMILES IDX 7 1 8 2 9 3 10 4 11 5 12 6 13 7 14 8 6 9 5 10 4 11 3 12 2 13
REMARK SMILES IDX 1 14
REMARK H PARENT
REMARK Flexibility Score: inf
ROOT
ATOM      1  C   UNL     1      -2.237  27.089   2.343  1.00  0.00     0.000 C 
ENDROOT
BRANCH   1   2
ATOM      2  C   UNL     1      -3.192  25.917   2.635  1.00  0.00     0.000 C 
BRANCH   2   3
ATOM      3  C   UNL     1      -4.419  26.347   3.455  1.00  0.00     0.000 C 
BRANCH   3   4
ATOM      4  C   UNL     1      -5.711  26.359   2.621  1.00  0.00     0.006 C 
BRANCH   4   5
ATOM      5  C   UNL     1      -5.635  25.406   1.421  1.00  0.00     0.053 C 
BRANCH   5   6
ATOM      6  C   UNL     1      -6.459  24.174   1.636  1.00  0.00     0.041 C 
ATOM      7  O   UNL     1      -6.092  23.302   2.468  1.00  0.00    -0.550 OA
ATOM      8  O   UNL     1      -7.653  24.005   0.946  1.00  0.00    -0.550 OA
ENDBRANCH   5   6
ENDBRANCH   4   5
ENDBRANCH   3   4
ENDBRANCH   2   3
ENDBRANCH   1   2
BRANCH   1   9
ATOM      9  C   UNL     1      -2.432  28.263   3.316  1.00  0.00     0.000 C 
BRANCH   9  10
ATOM     10  C   UNL     1      -2.823  29.565   2.599  1.00  0.00    -0.000 C 
BRANCH  10  11
ATOM     11  C   UNL     1      -3.135  29.356   1.108  1.00  0.00    -0.000 C 
BRANCH  11  12
ATOM     12  C   UNL     1      -4.633  29.501   0.764  1.00  0.00    -0.000 C 
BRANCH  12  13
ATOM     13  C   UNL     1      -5.057  28.583  -0.392  1.00  0.00    -0.003 C 
ATOM     14  C   UNL     1      -3.877  27.765  -0.908  1.00  0.00     0.004 C 
ENDBRANCH  12  13
ENDBRANCH  11  12
ENDBRANCH  10  11
ENDBRANCH   9  10
ENDBRANCH   1   9
TORSDOF 10
ENDMDL
MODEL 6
REMARK VINA RESULT:    -3.635      3.574      6.385
REMARK INTER + INTRA:          -6.632
REMARK INTER:                  -6.037
REMARK INTRA:                  -0.595
REMARK UNBOUND:                -0.872
REMARK SMILES CCCCCCCCCCCC(=O)[O-]
REMARK SMILES IDX 7 1 8 2 9 3 10 4 11 5 12 6 13 7 14 8 6 9 5 10 4 11 3 12 2 13
REMARK SMILES IDX 1 14
REMARK H PARENT
REMARK Flexibility Score: inf
ROOT
ATOM      1  C   UNL     1      -3.877  24.779   1.547  1.00  0.00     0.000 C 
ENDROOT
BRANCH   1   2
ATOM      2  C   UNL     1      -4.750  25.703   2.415  1.00  0.00     0.000 C 
BRANCH   2   3
ATOM      3  C   UNL     1      -6.233  25.300   2.398  1.00  0.00     0.000 C 
BRANCH   3   4
ATOM      4  C   UNL     1      -7.147  26.386   2.992  1.00  0.00     0.006 C 
BRANCH   4   5
ATOM      5  C   UNL     1      -8.056  25.836   4.099  1.00  0.00     0.053 C 
BRANCH   5   6
ATOM      6  C   UNL     1      -7.378  25.855   5.435  1.00  0.00     0.041 C 
ATOM      7  O   UNL     1      -6.300  26.489   5.589  1.00  0.00    -0.550 OA
ATOM      8  O   UNL     1      -7.954  25.204   6.518  1.00  0.00    -0.550 OA
ENDBRANCH   5   6
ENDBRANCH   4   5
ENDBRANCH   3   4
ENDBRANCH   2   3
ENDBRANCH   1   2
BRANCH   1   9
ATOM      9  C   UNL     1      -4.703  23.711   0.813  1.00  0.00     0.000 C 
BRANCH   9  10
ATOM     10  C   UNL     1      -3.934  23.069  -0.353  1.00  0.00    -0.000 C 
BRANCH  10  11
ATOM     11  C   UNL     1      -3.345  21.694   0.003  1.00  0.00    -0.000 C 
BRANCH  11  12
ATOM     12  C   UNL     1      -1.832  21.579  -0.279  1.00  0.00    -0.000 C 
BRANCH  12  13
ATOM     13  C   UNL     1      -1.080  22.881   0.035  1.00  0.00    -0.003 C 
ATOM     14  C   UNL     1       0.057  23.114  -0.954  1.00  0.00     0.004 C 
ENDBRANCH  12  13
ENDBRANCH  11  12
ENDBRANCH  10  11
ENDBRANCH   9  10
ENDBRANCH   1   9
TORSDOF 10
ENDMDL
MODEL 7
REMARK VINA RESULT:    -3.632      4.150      6.830
REMARK INTER + INTRA:          -6.627
REMARK INTER:                  -5.516
REMARK INTRA:                  -1.111
REMARK UNBOUND:                -0.872
REMARK SMILES CCCCCCCCCCCC(=O)[O-]
REMARK SMILES IDX 7 1 8 2 9 3 10 4 11 5 12 6 13 7 14 8 6 9 5 10 4 11 3 12 2 13
REMARK SMILES IDX 1 14
REMARK H PARENT
REMARK Flexibility Score: inf
ROOT
ATOM      1  C   UNL     1      -3.676  25.083  -0.484  1.00  0.00     0.000 C 
ENDROOT
BRANCH   1   2
ATOM      2  C   UNL     1      -3.848  24.623   0.975  1.00  0.00     0.000 C 
BRANCH   2   3
ATOM      3  C   UNL     1      -4.978  23.594   1.140  1.00  0.00     0.000 C 
BRANCH   3   4
ATOM      4  C   UNL     1      -5.972  23.981   2.248  1.00  0.00     0.006 C 
BRANCH   4   5
ATOM      5  C   UNL     1      -7.053  24.948   1.745  1.00  0.00     0.053 C 
BRANCH   5   6
ATOM      6  C   UNL     1      -7.596  24.529   0.414  1.00  0.00     0.041 C 
ATOM      7  O   UNL     1      -8.439  23.596   0.339  1.00  0.00    -0.550 OA
ATOM      8  O   UNL     1      -7.200  25.192  -0.741  1.00  0.00    -0.550 OA
ENDBRANCH   5   6
ENDBRANCH   4   5
ENDBRANCH   3   4
ENDBRANCH   2   3
ENDBRANCH   1   2
BRANCH   1   9
ATOM      9  C   UNL     1      -2.529  26.092  -0.651  1.00  0.00     0.000 C 
BRANCH   9  10
ATOM     10  C   UNL     1      -1.310  25.749   0.221  1.00  0.00    -0.000 C 
BRANCH  10  11
ATOM     11  C   UNL     1      -0.377  24.718  -0.435  1.00  0.00    -0.000 C 
BRANCH  11  12
ATOM     12  C   UNL     1      -0.485  23.307   0.182  1.00  0.00    -0.000 C 
BRANCH  12  13
ATOM     13  C   UNL     1      -1.028  22.275  -0.819  1.00  0.00    -0.003 C 
ATOM     14  C   UNL     1      -2.177  21.474  -0.215  1.00  0.00     0.004 C 
ENDBRANCH  12  13
ENDBRANCH  11  12
ENDBRANCH  10  11
ENDBRANCH   9  10
ENDBRANCH   1   9
TORSDOF 10
ENDMDL
MODEL 8
REMARK VINA RESULT:    -3.593      3.774      6.339
REMARK INTER + INTRA:          -6.565
REMARK INTER:                  -5.670
REMARK INTRA:                  -0.896
REMARK UNBOUND:                -0.872
REMARK SMILES CCCCCCCCCCCC(=O)[O-]
REMARK SMILES IDX 7 1 8 2 9 3 10 4 11 5 12 6 13 7 14 8 6 9 5 10 4 11 3 12 2 13
REMARK SMILES IDX 1 14
REMARK H PARENT
REMARK Flexibility Score: inf
ROOT
ATOM      1  C   UNL     1      -2.482  25.717   1.509  1.00  0.00     0.000 C 
ENDROOT
BRANCH   1   2
ATOM      2  C   UNL     1      -3.457  25.593   2.693  1.00  0.00     0.000 C 
BRANCH   2   3
ATOM      3  C   UNL     1      -4.276  26.874   2.919  1.00  0.00     0.000 C 
BRANCH   3   4
ATOM      4  C   UNL     1      -5.725  26.745   2.418  1.00  0.00     0.006 C 
BRANCH   4   5
ATOM      5  C   UNL     1      -6.564  25.818   3.307  1.00  0.00     0.053 C 
BRANCH   5   6
ATOM      6  C   UNL     1      -7.192  24.711   2.518  1.00  0.00     0.041 C 
ATOM      7  O   UNL     1      -6.847  23.516   2.716  1.00  0.00    -0.550 OA
ATOM      8  O   UNL     1      -8.185  24.994   1.588  1.00  0.00    -0.550 OA
ENDBRANCH   5   6
ENDBRANCH   4   5
ENDBRANCH   3   4
ENDBRANCH   2   3
ENDBRANCH   1   2
BRANCH   1   9
ATOM      9  C   UNL     1      -3.014  25.039   0.236  1.00  0.00     0.000 C 
BRANCH   9  10
ATOM     10  C   UNL     1      -4.108  24.001   0.533  1.00  0.00    -0.000 C 
BRANCH  10  11
ATOM     11  C   UNL     1      -3.736  22.587   0.058  1.00  0.00    -0.000 C 
BRANCH  11  12
ATOM     12  C   UNL     1      -2.389  22.522  -0.691  1.00  0.00    -0.000 C 
BRANCH  12  13
ATOM     13  C   UNL     1      -1.610  21.235  -0.379  1.00  0.00    -0.003 C 
ATOM     14  C   UNL     1      -2.543  20.031  -0.303  1.00  0.00     0.004 C 
ENDBRANCH  12  13
ENDBRANCH  11  12
ENDBRANCH  10  11
ENDBRANCH   9  10
ENDBRANCH   1   9
TORSDOF 10
ENDMDL
MODEL 9
REMARK VINA RESULT:    -3.581      3.134      4.488
REMARK INTER + INTRA:          -6.547
REMARK INTER:                  -4.963
REMARK INTRA:                  -1.583
REMARK UNBOUND:                -0.872
REMARK SMILES CCCCCCCCCCCC(=O)[O-]
REMARK SMILES IDX 7 1 8 2 9 3 10 4 11 5 12 6 13 7 14 8 6 9 5 10 4 11 3 12 2 13
REMARK SMILES IDX 1 14
REMARK H PARENT
REMARK Flexibility Score: inf
ROOT
ATOM      1  C   UNL     1      -3.269  25.488   2.682  1.00  0.00     0.000 C 
ENDROOT
BRANCH   1   2
ATOM      2  C   UNL     1      -3.383  25.313   1.157  1.00  0.00     0.000 C 
BRANCH   2   3
ATOM      3  C   UNL     1      -4.142  24.034   0.766  1.00  0.00     0.000 C 
BRANCH   3   4
ATOM      4  C   UNL     1      -4.980  24.213  -0.511  1.00  0.00     0.006 C 
BRANCH   4   5
ATOM      5  C   UNL     1      -5.020  25.675  -0.978  1.00  0.00     0.053 C 
BRANCH   5   6
ATOM      6  C   UNL     1      -6.365  26.047  -1.523  1.00  0.00     0.041 C 
ATOM      7  O   UNL     1      -6.640  27.253  -1.762  1.00  0.00    -0.550 OA
ATOM      8  O   UNL     1      -7.302  25.060  -1.801  1.00  0.00    -0.550 OA
ENDBRANCH   5   6
ENDBRANCH   4   5
ENDBRANCH   3   4
ENDBRANCH   2   3
ENDBRANCH   1   2
BRANCH   1   9
ATOM      9  C   UNL     1      -4.094  26.676   3.201  1.00  0.00     0.000 C 
BRANCH   9  10
ATOM     10  C   UNL     1      -4.939  27.334   2.099  1.00  0.00    -0.000 C 
BRANCH  10  11
ATOM     11  C   UNL     1      -6.438  27.013   2.223  1.00  0.00    -0.000 C 
BRANCH  11  12
ATOM     12  C   UNL     1      -6.770  26.057   3.388  1.00  0.00    -0.000 C 
BRANCH  12  13
ATOM     13  C   UNL     1      -7.213  24.671   2.895  1.00  0.00    -0.003 C 
ATOM     14  C   UNL     1      -8.009  24.775   1.598  1.00  0.00     0.004 C 
ENDBRANCH  12  13
ENDBRANCH  11  12
ENDBRANCH  10  11
ENDBRANCH   9  10
ENDBRANCH   1   9
TORSDOF 10
ENDMDL
