MODEL 1
REMARK VINA RESULT:    -7.026      0.000      0.000
REMARK INTER + INTRA:         -10.984
REMARK INTER:                  -9.491
REMARK INTRA:                  -1.493
REMARK UNBOUND:                -1.493
REMARK SMILES CC[C@H](CC[C@H](C)[C@@H]1CC[C@@H]2[C@H]3CC(=O)C4=CC(=O)CC[C@@]4(C)[C@H]3CC[C@]21C)C(C)C
REMARK SMILES IDX 4 1 3 2 2 3 1 4 29 5 30 6 31 7 5 8 6 9 7 10 8 11 9 12 27 13
REMARK SMILES IDX 10 14 11 15 26 16 28 17 12 18 25 19 24 20 13 21 22 22 14 23
REMARK SMILES IDX 16 24 21 25 23 26 15 27 17 28 20 29 18 30 19 31
REMARK H PARENT
REMARK Flexibility Score: inf
ROOT
ATOM      1  C   UNL     1      22.750  33.299  31.722  1.00  0.00     0.004 C 
ENDROOT
BRANCH   1   2
ATOM      2  C   UNL     1      21.856  32.029  31.611  1.00  0.00    -0.009 C 
BRANCH   2   3
ATOM      3  C   UNL     1      20.727  32.246  30.557  1.00  0.00     0.000 C 
ATOM      4  C   UNL     1      20.974  33.471  29.673  1.00  0.00     0.004 C 
ENDBRANCH   2   3
BRANCH   2   5
ATOM      5  C   UNL     1      22.655  30.702  31.361  1.00  0.00    -0.014 C 
ATOM      6  C   UNL     1      22.167  29.985  30.089  1.00  0.00     0.007 C 
ATOM      7  C   UNL     1      22.561  29.725  32.547  1.00  0.00     0.007 C 
ENDBRANCH   2   5
ENDBRANCH   1   2
BRANCH   1   8
ATOM      8  C   UNL     1      24.243  33.017  32.014  1.00  0.00     0.004 C 
BRANCH   8   9
ATOM      9  C   UNL     1      25.211  33.822  31.100  1.00  0.00    -0.011 C 
ATOM     10  C   UNL     1      24.406  34.624  30.062  1.00  0.00     0.008 C 
BRANCH   9  11
ATOM     11  C   UNL     1      26.241  32.863  30.404  1.00  0.00    -0.002 C 
ATOM     12  C   UNL     1      26.312  31.461  31.076  1.00  0.00     0.005 C 
ATOM     13  C   UNL     1      27.738  33.313  30.341  1.00  0.00    -0.026 C 
ATOM     14  C   UNL     1      27.754  30.956  30.929  1.00  0.00     0.005 C 
ATOM     15  C   UNL     1      28.407  31.974  30.010  1.00  0.00    -0.001 C 
ATOM     16  C   UNL     1      28.082  34.311  29.180  1.00  0.00     0.007 C 
ATOM     17  C   UNL     1      28.183  33.866  31.737  1.00  0.00     0.012 C 
ATOM     18  C   UNL     1      29.967  32.003  29.944  1.00  0.00     0.004 C 
ATOM     19  C   UNL     1      29.423  34.012  28.438  1.00  0.00     0.005 C 
ATOM     20  C   UNL     1      30.484  33.390  29.391  1.00  0.00     0.003 C 
ATOM     21  C   UNL     1      30.414  30.799  29.080  1.00  0.00     0.085 C 
ATOM     22  C   UNL     1      32.010  33.400  28.932  1.00  0.00    -0.000 C 
ATOM     23  C   UNL     1      31.852  30.844  28.720  1.00  0.00     0.159 C 
ATOM     24  C   UNL     1      32.432  32.105  28.246  1.00  0.00     0.005 C 
ATOM     25  C   UNL     1      32.314  34.607  27.988  1.00  0.00     0.020 C 
ATOM     26  C   UNL     1      32.887  33.526  30.209  1.00  0.00     0.017 C 
ATOM     27  O   UNL     1      32.534  29.782  28.734  1.00  0.00    -0.295 OA
ATOM     28  C   UNL     1      33.455  32.074  27.369  1.00  0.00     0.055 C 
ATOM     29  C   UNL     1      33.764  34.634  27.491  1.00  0.00     0.081 C 
ATOM     30  C   UNL     1      34.151  33.297  26.939  1.00  0.00     0.156 C 
ATOM     31  O   UNL     1      35.106  33.212  26.123  1.00  0.00    -0.295 OA
ENDBRANCH   9  11
ENDBRANCH   8   9
ENDBRANCH   1   8
TORSDOF 6
ENDMDL
MODEL 2
REMARK VINA RESULT:    -6.914      1.975      4.094
REMARK INTER + INTRA:         -10.832
REMARK INTER:                  -9.297
REMARK INTRA:                  -1.535
REMARK UNBOUND:                -1.493
REMARK SMILES CC[C@H](CC[C@H](C)[C@@H]1CC[C@@H]2[C@H]3CC(=O)C4=CC(=O)CC[C@@]4(C)[C@H]3CC[C@]21C)C(C)C
REMARK SMILES IDX 4 1 3 2 2 3 1 4 29 5 30 6 31 7 5 8 6 9 7 10 8 11 9 12 27 13
REMARK SMILES IDX 10 14 11 15 26 16 28 17 12 18 25 19 24 20 13 21 22 22 14 23
REMARK SMILES IDX 16 24 21 25 23 26 15 27 17 28 20 29 18 30 19 31
REMARK H PARENT
REMARK Flexibility Score: inf
ROOT
ATOM      1  C   UNL     1      19.672  30.653  31.571  1.00  0.00     0.004 C 
ENDROOT
BRANCH   1   2
ATOM      2  C   UNL     1      19.221  32.035  31.015  1.00  0.00    -0.009 C 
BRANCH   2   3
ATOM      3  C   UNL     1      20.391  33.065  31.093  1.00  0.00     0.000 C 
ATOM      4  C   UNL     1      20.714  33.691  29.734  1.00  0.00     0.004 C 
ENDBRANCH   2   3
BRANCH   2   5
ATOM      5  C   UNL     1      18.581  31.972  29.583  1.00  0.00    -0.014 C 
ATOM      6  C   UNL     1      17.135  32.499  29.590  1.00  0.00     0.007 C 
ATOM      7  C   UNL     1      18.587  30.548  28.997  1.00  0.00     0.007 C 
ENDBRANCH   2   5
ENDBRANCH   1   2
BRANCH   1   8
ATOM      8  C   UNL     1      21.166  30.569  31.966  1.00  0.00     0.004 C 
BRANCH   8   9
ATOM      9  C   UNL     1      22.073  30.026  30.823  1.00  0.00    -0.011 C 
ATOM     10  C   UNL     1      21.492  28.712  30.272  1.00  0.00     0.008 C 
BRANCH   9  11
ATOM     11  C   UNL     1      23.545  29.830  31.333  1.00  0.00    -0.002 C 
ATOM     12  C   UNL     1      23.704  30.126  32.852  1.00  0.00     0.005 C 
ATOM     13  C   UNL     1      24.672  30.692  30.673  1.00  0.00    -0.026 C 
ATOM     14  C   UNL     1      25.116  30.693  33.062  1.00  0.00     0.005 C 
ATOM     15  C   UNL     1      25.787  30.515  31.711  1.00  0.00    -0.001 C 
ATOM     16  C   UNL     1      25.211  30.144  29.305  1.00  0.00     0.007 C 
ATOM     17  C   UNL     1      24.201  32.182  30.560  1.00  0.00     0.012 C 
ATOM     18  C   UNL     1      27.094  31.323  31.433  1.00  0.00     0.004 C 
ATOM     19  C   UNL     1      26.762  30.216  29.138  1.00  0.00     0.005 C 
ATOM     20  C   UNL     1      27.366  31.443  29.881  1.00  0.00     0.003 C 
ATOM     21  C   UNL     1      28.240  30.620  32.199  1.00  0.00     0.085 C 
ATOM     22  C   UNL     1      28.840  31.909  29.495  1.00  0.00    -0.000 C 
ATOM     23  C   UNL     1      29.584  31.125  31.826  1.00  0.00     0.159 C 
ATOM     24  C   UNL     1      29.908  31.318  30.409  1.00  0.00     0.005 C 
ATOM     25  C   UNL     1      29.178  31.558  28.010  1.00  0.00     0.020 C 
ATOM     26  C   UNL     1      28.911  33.451  29.676  1.00  0.00     0.017 C 
ATOM     27  O   UNL     1      30.460  31.292  32.719  1.00  0.00    -0.295 OA
ATOM     28  C   UNL     1      31.181  31.161  29.994  1.00  0.00     0.055 C 
ATOM     29  C   UNL     1      30.603  31.956  27.606  1.00  0.00     0.081 C 
ATOM     30  C   UNL     1      31.591  31.446  28.610  1.00  0.00     0.156 C 
ATOM     31  O   UNL     1      32.796  31.290  28.275  1.00  0.00    -0.295 OA
ENDBRANCH   9  11
ENDBRANCH   8   9
ENDBRANCH   1   8
TORSDOF 6
ENDMDL
MODEL 3
REMARK VINA RESULT:    -6.534      3.515      9.463
REMARK INTER + INTRA:         -10.318
REMARK INTER:                  -8.662
REMARK INTRA:                  -1.656
REMARK UNBOUND:                -1.493
REMARK SMILES CC[C@H](CC[C@H](C)[C@@H]1CC[C@@H]2[C@H]3CC(=O)C4=CC(=O)CC[C@@]4(C)[C@H]3CC[C@]21C)C(C)C
REMARK SMILES IDX 4 1 3 2 2 3 1 4 29 5 30 6 31 7 5 8 6 9 7 10 8 11 9 12 27 13
REMARK SMILES IDX 10 14 11 15 26 16 28 17 12 18 25 19 24 20 13 21 22 22 14 23
REMARK SMILES IDX 16 24 21 25 23 26 15 27 17 28 20 29 18 30 19 31
REMARK H PARENT
REMARK Flexibility Score: inf
ROOT
ATOM      1  C   UNL     1      32.048  32.581  30.684  1.00  0.00     0.004 C 
ENDROOT
BRANCH   1   2
ATOM      2  C   UNL     1      32.167  33.980  30.011  1.00  0.00    -0.009 C 
BRANCH   2   3
ATOM      3  C   UNL     1      33.386  34.763  30.589  1.00  0.00     0.000 C 
ATOM      4  C   UNL     1      33.222  35.093  32.075  1.00  0.00     0.004 C 
ENDBRANCH   2   3
BRANCH   2   5
ATOM      5  C   UNL     1      32.180  33.938  28.442  1.00  0.00    -0.014 C 
ATOM      6  C   UNL     1      30.753  34.007  27.867  1.00  0.00     0.007 C 
ATOM      7  C   UNL     1      32.876  32.679  27.892  1.00  0.00     0.007 C 
ENDBRANCH   2   5
ENDBRANCH   1   2
BRANCH   1   8
ATOM      8  C   UNL     1      30.776  32.380  31.540  1.00  0.00     0.004 C 
BRANCH   8   9
ATOM      9  C   UNL     1      29.730  31.439  30.875  1.00  0.00    -0.011 C 
ATOM     10  C   UNL     1      30.392  30.638  29.739  1.00  0.00     0.008 C 
BRANCH   9  11
ATOM     11  C   UNL     1      28.501  32.263  30.349  1.00  0.00    -0.002 C 
ATOM     12  C   UNL     1      28.582  33.772  30.717  1.00  0.00     0.005 C 
ATOM     13  C   UNL     1      27.074  31.846  30.836  1.00  0.00    -0.026 C 
ATOM     14  C   UNL     1      27.145  34.273  30.918  1.00  0.00     0.005 C 
ATOM     15  C   UNL     1      26.284  33.106  30.464  1.00  0.00    -0.001 C 
ATOM     16  C   UNL     1      26.434  30.642  30.058  1.00  0.00     0.007 C 
ATOM     17  C   UNL     1      27.094  31.596  32.382  1.00  0.00     0.012 C 
ATOM     18  C   UNL     1      24.780  33.101  30.883  1.00  0.00     0.004 C 
ATOM     19  C   UNL     1      24.920  30.817  29.715  1.00  0.00     0.005 C 
ATOM     20  C   UNL     1      24.175  31.645  30.802  1.00  0.00     0.003 C 
ATOM     21  C   UNL     1      24.046  34.117  29.975  1.00  0.00     0.085 C 
ATOM     22  C   UNL     1      22.583  31.579  30.841  1.00  0.00    -0.000 C 
ATOM     23  C   UNL     1      22.569  34.035  30.086  1.00  0.00     0.159 C 
ATOM     24  C   UNL     1      21.923  32.719  30.072  1.00  0.00     0.005 C 
ATOM     25  C   UNL     1      22.055  30.213  30.295  1.00  0.00     0.020 C 
ATOM     26  C   UNL     1      22.139  31.734  32.323  1.00  0.00     0.017 C 
ATOM     27  O   UNL     1      21.883  35.094  30.095  1.00  0.00    -0.295 OA
ATOM     28  C   UNL     1      20.682  32.597  29.561  1.00  0.00     0.055 C 
ATOM     29  C   UNL     1      20.524  30.122  30.279  1.00  0.00     0.081 C 
ATOM     30  C   UNL     1      19.936  31.329  29.616  1.00  0.00     0.156 C 
ATOM     31  O   UNL     1      18.776  31.271  29.129  1.00  0.00    -0.295 OA
ENDBRANCH   9  11
ENDBRANCH   8   9
ENDBRANCH   1   8
TORSDOF 6
ENDMDL
MODEL 4
REMARK VINA RESULT:    -6.515      4.612     10.876
REMARK INTER + INTRA:         -10.294
REMARK INTER:                  -8.938
REMARK INTRA:                  -1.356
REMARK UNBOUND:                -1.493
REMARK SMILES CC[C@H](CC[C@H](C)[C@@H]1CC[C@@H]2[C@H]3CC(=O)C4=CC(=O)CC[C@@]4(C)[C@H]3CC[C@]21C)C(C)C
REMARK SMILES IDX 4 1 3 2 2 3 1 4 29 5 30 6 31 7 5 8 6 9 7 10 8 11 9 12 27 13
REMARK SMILES IDX 10 14 11 15 26 16 28 17 12 18 25 19 24 20 13 21 22 22 14 23
REMARK SMILES IDX 16 24 21 25 23 26 15 27 17 28 20 29 18 30 19 31
REMARK H PARENT
REMARK Flexibility Score: inf
ROOT
ATOM      1  C   UNL     1      28.502  32.996  31.422  1.00  0.00     0.004 C 
ENDROOT
BRANCH   1   2
ATOM      2  C   UNL     1      29.783  32.973  30.538  1.00  0.00    -0.009 C 
BRANCH   2   3
ATOM      3  C   UNL     1      30.759  31.855  31.020  1.00  0.00     0.000 C 
ATOM      4  C   UNL     1      30.166  30.999  32.142  1.00  0.00     0.004 C 
ENDBRANCH   2   3
BRANCH   2   5
ATOM      5  C   UNL     1      29.498  32.887  28.997  1.00  0.00    -0.014 C 
ATOM      6  C   UNL     1      29.897  31.514  28.428  1.00  0.00     0.007 C 
ATOM      7  C   UNL     1      30.228  33.985  28.201  1.00  0.00     0.007 C 
ENDBRANCH   2   5
ENDBRANCH   1   2
BRANCH   1   8
ATOM      8  C   UNL     1      27.198  33.343  30.665  1.00  0.00     0.004 C 
BRANCH   8   9
ATOM      9  C   UNL     1      26.082  32.274  30.841  1.00  0.00    -0.011 C 
ATOM     10  C   UNL     1      26.554  30.924  30.271  1.00  0.00     0.008 C 
BRANCH   9  11
ATOM     11  C   UNL     1      24.750  32.746  30.157  1.00  0.00    -0.002 C 
ATOM     12  C   UNL     1      24.597  34.294  30.136  1.00  0.00     0.005 C 
ATOM     13  C   UNL     1      23.396  32.255  30.767  1.00  0.00    -0.026 C 
ATOM     14  C   UNL     1      23.097  34.607  30.241  1.00  0.00     0.005 C 
ATOM     15  C   UNL     1      22.430  33.249  30.112  1.00  0.00    -0.001 C 
ATOM     16  C   UNL     1      22.956  30.813  30.328  1.00  0.00     0.007 C 
ATOM     17  C   UNL     1      23.432  32.404  32.326  1.00  0.00     0.012 C 
ATOM     18  C   UNL     1      20.938  33.124  30.556  1.00  0.00     0.004 C 
ATOM     19  C   UNL     1      21.438  30.668  29.990  1.00  0.00     0.005 C 
ATOM     20  C   UNL     1      20.561  31.619  30.854  1.00  0.00     0.003 C 
ATOM     21  C   UNL     1      20.072  33.758  29.442  1.00  0.00     0.085 C 
ATOM     22  C   UNL     1      18.997  31.327  30.947  1.00  0.00    -0.000 C 
ATOM     23  C   UNL     1      18.623  33.486  29.605  1.00  0.00     0.159 C 
ATOM     24  C   UNL     1      18.183  32.127  29.935  1.00  0.00     0.005 C 
ATOM     25  C   UNL     1      18.689  29.805  30.771  1.00  0.00     0.020 C 
ATOM     26  C   UNL     1      18.514  31.778  32.354  1.00  0.00     0.017 C 
ATOM     27  O   UNL     1      17.784  34.399  29.367  1.00  0.00    -0.295 OA
ATOM     28  C   UNL     1      16.982  31.696  29.500  1.00  0.00     0.055 C 
ATOM     29  C   UNL     1      17.191  29.484  30.815  1.00  0.00     0.081 C 
ATOM     30  C   UNL     1      16.436  30.385  29.887  1.00  0.00     0.156 C 
ATOM     31  O   UNL     1      15.305  30.034  29.458  1.00  0.00    -0.295 OA
ENDBRANCH   9  11
ENDBRANCH   8   9
ENDBRANCH   1   8
TORSDOF 6
ENDMDL
MODEL 5
REMARK VINA RESULT:    -6.513      4.483     10.588
REMARK INTER + INTRA:         -10.291
REMARK INTER:                  -9.188
REMARK INTRA:                  -1.103
REMARK UNBOUND:                -1.493
REMARK SMILES CC[C@H](CC[C@H](C)[C@@H]1CC[C@@H]2[C@H]3CC(=O)C4=CC(=O)CC[C@@]4(C)[C@H]3CC[C@]21C)C(C)C
REMARK SMILES IDX 4 1 3 2 2 3 1 4 29 5 30 6 31 7 5 8 6 9 7 10 8 11 9 12 27 13
REMARK SMILES IDX 10 14 11 15 26 16 28 17 12 18 25 19 24 20 13 21 22 22 14 23
REMARK SMILES IDX 16 24 21 25 23 26 15 27 17 28 20 29 18 30 19 31
REMARK H PARENT
REMARK Flexibility Score: inf
ROOT
ATOM      1  C   UNL     1      28.054  32.687  30.545  1.00  0.00     0.004 C 
ENDROOT
BRANCH   1   2
ATOM      2  C   UNL     1      28.820  33.002  29.226  1.00  0.00    -0.009 C 
BRANCH   2   3
ATOM      3  C   UNL     1      28.384  34.388  28.657  1.00  0.00     0.000 C 
ATOM      4  C   UNL     1      27.181  34.976  29.399  1.00  0.00     0.004 C 
ENDBRANCH   2   3
BRANCH   2   5
ATOM      5  C   UNL     1      30.380  32.874  29.345  1.00  0.00    -0.014 C 
ATOM      6  C   UNL     1      30.869  33.259  30.753  1.00  0.00     0.007 C 
ATOM      7  C   UNL     1      31.123  33.738  28.309  1.00  0.00     0.007 C 
ENDBRANCH   2   5
ENDBRANCH   1   2
BRANCH   1   8
ATOM      8  C   UNL     1      27.622  31.211  30.706  1.00  0.00     0.004 C 
BRANCH   8   9
ATOM      9  C   UNL     1      26.482  31.015  31.748  1.00  0.00    -0.011 C 
ATOM     10  C   UNL     1      27.076  30.591  33.103  1.00  0.00     0.008 C 
BRANCH   9  11
ATOM     11  C   UNL     1      25.435  29.964  31.231  1.00  0.00    -0.002 C 
ATOM     12  C   UNL     1      25.804  29.378  29.839  1.00  0.00     0.005 C 
ATOM     13  C   UNL     1      23.954  30.432  31.049  1.00  0.00    -0.026 C 
ATOM     14  C   UNL     1      24.489  29.074  29.107  1.00  0.00     0.005 C 
ATOM     15  C   UNL     1      23.421  29.299  30.164  1.00  0.00    -0.001 C 
ATOM     16  C   UNL     1      23.096  30.446  32.363  1.00  0.00     0.007 C 
ATOM     17  C   UNL     1      23.922  31.817  30.317  1.00  0.00     0.012 C 
ATOM     18  C   UNL     1      21.943  29.460  29.686  1.00  0.00     0.004 C 
ATOM     19  C   UNL     1      21.644  29.891  32.201  1.00  0.00     0.005 C 
ATOM     20  C   UNL     1      21.070  30.184  30.785  1.00  0.00     0.003 C 
ATOM     21  C   UNL     1      21.420  28.049  29.325  1.00  0.00     0.085 C 
ATOM     22  C   UNL     1      19.495  30.067  30.572  1.00  0.00    -0.000 C 
ATOM     23  C   UNL     1      19.955  28.013  29.098  1.00  0.00     0.159 C 
ATOM     24  C   UNL     1      19.068  28.703  30.040  1.00  0.00     0.005 C 
ATOM     25  C   UNL     1      18.715  30.375  31.890  1.00  0.00     0.020 C 
ATOM     26  C   UNL     1      19.085  31.107  29.491  1.00  0.00     0.017 C 
ATOM     27  O   UNL     1      19.484  27.314  28.158  1.00  0.00    -0.295 OA
ATOM     28  C   UNL     1      17.827  28.221  30.255  1.00  0.00     0.055 C 
ATOM     29  C   UNL     1      17.196  30.237  31.739  1.00  0.00     0.081 C 
ATOM     30  C   UNL     1      16.852  28.925  31.102  1.00  0.00     0.156 C 
ATOM     31  O   UNL     1      15.703  28.435  31.264  1.00  0.00    -0.295 OA
ENDBRANCH   9  11
ENDBRANCH   8   9
ENDBRANCH   1   8
TORSDOF 6
ENDMDL
MODEL 6
REMARK VINA RESULT:    -6.486      3.867      9.517
REMARK INTER + INTRA:         -10.254
REMARK INTER:                  -8.764
REMARK INTRA:                  -1.490
REMARK UNBOUND:                -1.493
REMARK SMILES CC[C@H](CC[C@H](C)[C@@H]1CC[C@@H]2[C@H]3CC(=O)C4=CC(=O)CC[C@@]4(C)[C@H]3CC[C@]21C)C(C)C
REMARK SMILES IDX 4 1 3 2 2 3 1 4 29 5 30 6 31 7 5 8 6 9 7 10 8 11 9 12 27 13
REMARK SMILES IDX 10 14 11 15 26 16 28 17 12 18 25 19 24 20 13 21 22 22 14 23
REMARK SMILES IDX 16 24 21 25 23 26 15 27 17 28 20 29 18 30 19 31
REMARK H PARENT
REMARK Flexibility Score: inf
ROOT
ATOM      1  C   UNL     1      30.594  32.613  30.897  1.00  0.00     0.004 C 
ENDROOT
BRANCH   1   2
ATOM      2  C   UNL     1      30.807  33.642  29.747  1.00  0.00    -0.009 C 
BRANCH   2   3
ATOM      3  C   UNL     1      32.304  33.669  29.309  1.00  0.00     0.000 C 
ATOM      4  C   UNL     1      32.519  34.430  27.998  1.00  0.00     0.004 C 
ENDBRANCH   2   3
BRANCH   2   5
ATOM      5  C   UNL     1      29.836  33.452  28.529  1.00  0.00    -0.014 C 
ATOM      6  C   UNL     1      28.593  34.350  28.657  1.00  0.00     0.007 C 
ATOM      7  C   UNL     1      29.378  31.991  28.363  1.00  0.00     0.007 C 
ENDBRANCH   2   5
ENDBRANCH   1   2
BRANCH   1   8
ATOM      8  C   UNL     1      29.566  33.044  31.970  1.00  0.00     0.004 C 
BRANCH   8   9
ATOM      9  C   UNL     1      28.429  32.004  32.185  1.00  0.00    -0.011 C 
ATOM     10  C   UNL     1      28.906  30.608  31.745  1.00  0.00     0.008 C 
BRANCH   9  11
ATOM     11  C   UNL     1      27.133  32.433  31.410  1.00  0.00    -0.002 C 
ATOM     12  C   UNL     1      26.654  33.867  31.779  1.00  0.00     0.005 C 
ATOM     13  C   UNL     1      25.846  31.562  31.591  1.00  0.00    -0.026 C 
ATOM     14  C   UNL     1      25.122  33.879  31.673  1.00  0.00     0.005 C 
ATOM     15  C   UNL     1      24.787  32.532  31.056  1.00  0.00    -0.001 C 
ATOM     16  C   UNL     1      25.791  30.269  30.703  1.00  0.00     0.007 C 
ATOM     17  C   UNL     1      25.637  31.236  33.109  1.00  0.00     0.012 C 
ATOM     18  C   UNL     1      23.311  32.032  31.152  1.00  0.00     0.004 C 
ATOM     19  C   UNL     1      24.401  29.983  30.051  1.00  0.00     0.005 C 
ATOM     20  C   UNL     1      23.230  30.467  30.955  1.00  0.00     0.003 C 
ATOM     21  C   UNL     1      22.489  32.821  30.106  1.00  0.00     0.085 C 
ATOM     22  C   UNL     1      21.768  29.905  30.661  1.00  0.00    -0.000 C 
ATOM     23  C   UNL     1      21.124  32.276  29.907  1.00  0.00     0.159 C 
ATOM     24  C   UNL     1      20.946  30.827  29.766  1.00  0.00     0.005 C 
ATOM     25  C   UNL     1      21.822  28.479  30.024  1.00  0.00     0.020 C 
ATOM     26  C   UNL     1      21.012  29.822  32.017  1.00  0.00     0.017 C 
ATOM     27  O   UNL     1      20.148  33.065  29.767  1.00  0.00    -0.295 OA
ATOM     28  C   UNL     1      19.937  30.355  29.007  1.00  0.00     0.055 C 
ATOM     29  C   UNL     1      20.436  27.915  29.690  1.00  0.00     0.081 C 
ATOM     30  C   UNL     1      19.638  28.917  28.912  1.00  0.00     0.156 C 
ATOM     31  O   UNL     1      18.679  28.529  28.195  1.00  0.00    -0.295 OA
ENDBRANCH   9  11
ENDBRANCH   8   9
ENDBRANCH   1   8
TORSDOF 6
ENDMDL
MODEL 7
REMARK VINA RESULT:    -6.482      2.131      3.812
REMARK INTER + INTRA:         -10.249
REMARK INTER:                  -8.581
REMARK INTRA:                  -1.668
REMARK UNBOUND:                -1.493
REMARK SMILES CC[C@H](CC[C@H](C)[C@@H]1CC[C@@H]2[C@H]3CC(=O)C4=CC(=O)CC[C@@]4(C)[C@H]3CC[C@]21C)C(C)C
REMARK SMILES IDX 4 1 3 2 2 3 1 4 29 5 30 6 31 7 5 8 6 9 7 10 8 11 9 12 27 13
REMARK SMILES IDX 10 14 11 15 26 16 28 17 12 18 25 19 24 20 13 21 22 22 14 23
REMARK SMILES IDX 16 24 21 25 23 26 15 27 17 28 20 29 18 30 19 31
REMARK H PARENT
REMARK Flexibility Score: inf
ROOT
ATOM      1  C   UNL     1      20.084  31.475  31.516  1.00  0.00     0.004 C 
ENDROOT
BRANCH   1   2
ATOM      2  C   UNL     1      20.113  31.819  29.998  1.00  0.00    -0.009 C 
BRANCH   2   3
ATOM      3  C   UNL     1      18.897  31.171  29.267  1.00  0.00     0.000 C 
ATOM      4  C   UNL     1      17.606  31.254  30.085  1.00  0.00     0.004 C 
ENDBRANCH   2   3
BRANCH   2   5
ATOM      5  C   UNL     1      20.241  33.353  29.690  1.00  0.00    -0.014 C 
ATOM      6  C   UNL     1      21.705  33.754  29.435  1.00  0.00     0.007 C 
ATOM      7  C   UNL     1      19.677  34.231  30.823  1.00  0.00     0.007 C 
ENDBRANCH   2   5
ENDBRANCH   1   2
BRANCH   1   8
ATOM      8  C   UNL     1      21.135  30.432  31.964  1.00  0.00     0.004 C 
BRANCH   8   9
ATOM      9  C   UNL     1      22.447  31.073  32.502  1.00  0.00    -0.011 C 
ATOM     10  C   UNL     1      22.145  32.456  33.107  1.00  0.00     0.008 C 
BRANCH   9  11
ATOM     11  C   UNL     1      23.522  31.172  31.362  1.00  0.00    -0.002 C 
ATOM     12  C   UNL     1      23.519  29.935  30.419  1.00  0.00     0.005 C 
ATOM     13  C   UNL     1      25.024  31.309  31.778  1.00  0.00    -0.026 C 
ATOM     14  C   UNL     1      24.962  29.718  29.943  1.00  0.00     0.005 C 
ATOM     15  C   UNL     1      25.704  30.942  30.454  1.00  0.00    -0.001 C 
ATOM     16  C   UNL     1      25.478  32.764  32.153  1.00  0.00     0.007 C 
ATOM     17  C   UNL     1      25.353  30.283  32.916  1.00  0.00     0.012 C 
ATOM     18  C   UNL     1      27.264  30.886  30.495  1.00  0.00     0.004 C 
ATOM     19  C   UNL     1      26.875  33.177  31.590  1.00  0.00     0.005 C 
ATOM     20  C   UNL     1      27.842  31.962  31.497  1.00  0.00     0.003 C 
ATOM     21  C   UNL     1      27.769  31.071  29.044  1.00  0.00     0.085 C 
ATOM     22  C   UNL     1      29.402  32.249  31.342  1.00  0.00    -0.000 C 
ATOM     23  C   UNL     1      29.234  31.293  28.963  1.00  0.00     0.159 C 
ATOM     24  C   UNL     1      29.866  32.237  29.889  1.00  0.00     0.005 C 
ATOM     25  C   UNL     1      29.800  33.609  32.001  1.00  0.00     0.020 C 
ATOM     26  C   UNL     1      30.168  31.101  32.057  1.00  0.00     0.017 C 
ATOM     27  O   UNL     1      29.900  30.744  28.042  1.00  0.00    -0.295 OA
ATOM     28  C   UNL     1      30.961  32.918  29.495  1.00  0.00     0.055 C 
ATOM     29  C   UNL     1      31.288  33.944  31.842  1.00  0.00     0.081 C 
ATOM     30  C   UNL     1      31.706  33.796  30.411  1.00  0.00     0.156 C 
ATOM     31  O   UNL     1      32.727  34.405  29.993  1.00  0.00    -0.295 OA
ENDBRANCH   9  11
ENDBRANCH   8   9
ENDBRANCH   1   8
TORSDOF 6
ENDMDL
MODEL 8
REMARK VINA RESULT:    -6.438      2.041      3.701
REMARK INTER + INTRA:         -10.189
REMARK INTER:                  -8.937
REMARK INTRA:                  -1.252
REMARK UNBOUND:                -1.493
REMARK SMILES CC[C@H](CC[C@H](C)[C@@H]1CC[C@@H]2[C@H]3CC(=O)C4=CC(=O)CC[C@@]4(C)[C@H]3CC[C@]21C)C(C)C
REMARK SMILES IDX 4 1 3 2 2 3 1 4 29 5 30 6 31 7 5 8 6 9 7 10 8 11 9 12 27 13
REMARK SMILES IDX 10 14 11 15 26 16 28 17 12 18 25 19 24 20 13 21 22 22 14 23
REMARK SMILES IDX 16 24 21 25 23 26 15 27 17 28 20 29 18 30 19 31
REMARK H PARENT
REMARK Flexibility Score: inf
ROOT
ATOM      1  C   UNL     1      20.792  29.584  31.228  1.00  0.00     0.004 C 
ENDROOT
BRANCH   1   2
ATOM      2  C   UNL     1      20.515  29.010  29.807  1.00  0.00    -0.009 C 
BRANCH   2   3
ATOM      3  C   UNL     1      20.938  27.511  29.730  1.00  0.00     0.000 C 
ATOM      4  C   UNL     1      22.057  27.266  28.715  1.00  0.00     0.004 C 
ENDBRANCH   2   3
BRANCH   2   5
ATOM      5  C   UNL     1      19.047  29.239  29.298  1.00  0.00    -0.014 C 
ATOM      6  C   UNL     1      18.736  28.364  28.071  1.00  0.00     0.007 C 
ATOM      7  C   UNL     1      18.771  30.711  28.941  1.00  0.00     0.007 C 
ENDBRANCH   2   5
ENDBRANCH   1   2
BRANCH   1   8
ATOM      8  C   UNL     1      22.277  29.555  31.660  1.00  0.00     0.004 C 
BRANCH   8   9
ATOM      9  C   UNL     1      22.935  30.965  31.693  1.00  0.00    -0.011 C 
ATOM     10  C   UNL     1      21.866  32.048  31.462  1.00  0.00     0.008 C 
BRANCH   9  11
ATOM     11  C   UNL     1      24.085  31.064  30.628  1.00  0.00    -0.002 C 
ATOM     12  C   UNL     1      24.212  29.783  29.754  1.00  0.00     0.005 C 
ATOM     13  C   UNL     1      25.543  31.301  31.142  1.00  0.00    -0.026 C 
ATOM     14  C   UNL     1      25.696  29.620  29.394  1.00  0.00     0.005 C 
ATOM     15  C   UNL     1      26.336  30.905  29.891  1.00  0.00    -0.001 C 
ATOM     16  C   UNL     1      25.896  32.794  31.470  1.00  0.00     0.007 C 
ATOM     17  C   UNL     1      25.838  30.352  32.353  1.00  0.00     0.012 C 
ATOM     18  C   UNL     1      27.890  30.934  30.046  1.00  0.00     0.004 C 
ATOM     19  C   UNL     1      27.309  33.253  30.987  1.00  0.00     0.005 C 
ATOM     20  C   UNL     1      28.339  32.088  31.027  1.00  0.00     0.003 C 
ATOM     21  C   UNL     1      28.491  31.074  28.627  1.00  0.00     0.085 C 
ATOM     22  C   UNL     1      29.890  32.449  30.969  1.00  0.00    -0.000 C 
ATOM     23  C   UNL     1      29.945  31.369  28.638  1.00  0.00     0.159 C 
ATOM     24  C   UNL     1      30.460  32.390  29.556  1.00  0.00     0.005 C 
ATOM     25  C   UNL     1      30.171  33.859  31.581  1.00  0.00     0.020 C 
ATOM     26  C   UNL     1      30.657  31.380  31.797  1.00  0.00     0.017 C 
ATOM     27  O   UNL     1      30.703  30.811  27.797  1.00  0.00    -0.295 OA
ATOM     28  C   UNL     1      31.546  33.107  29.204  1.00  0.00     0.055 C 
ATOM     29  C   UNL     1      31.648  34.264  31.511  1.00  0.00     0.081 C 
ATOM     30  C   UNL     1      32.177  34.068  30.123  1.00  0.00     0.156 C 
ATOM     31  O   UNL     1      33.195  34.708  29.747  1.00  0.00    -0.295 OA
ENDBRANCH   9  11
ENDBRANCH   8   9
ENDBRANCH   1   8
TORSDOF 6
ENDMDL
MODEL 9
REMARK VINA RESULT:    -6.294      4.401      8.085
REMARK INTER + INTRA:          -9.995
REMARK INTER:                  -8.704
REMARK INTRA:                  -1.291
REMARK UNBOUND:                -1.493
REMARK SMILES CC[C@H](CC[C@H](C)[C@@H]1CC[C@@H]2[C@H]3CC(=O)C4=CC(=O)CC[C@@]4(C)[C@H]3CC[C@]21C)C(C)C
REMARK SMILES IDX 4 1 3 2 2 3 1 4 29 5 30 6 31 7 5 8 6 9 7 10 8 11 9 12 27 13
REMARK SMILES IDX 10 14 11 15 26 16 28 17 12 18 25 19 24 20 13 21 22 22 14 23
REMARK SMILES IDX 16 24 21 25 23 26 15 27 17 28 20 29 18 30 19 31
REMARK H PARENT
REMARK Flexibility Score: inf
ROOT
ATOM      1  C   UNL     1      16.738  27.690  29.380  1.00  0.00     0.004 C 
ENDROOT
BRANCH   1   2
ATOM      2  C   UNL     1      16.947  26.885  28.064  1.00  0.00    -0.009 C 
BRANCH   2   3
ATOM      3  C   UNL     1      18.406  27.060  27.541  1.00  0.00     0.000 C 
ATOM      4  C   UNL     1      19.324  25.911  27.965  1.00  0.00     0.004 C 
ENDBRANCH   2   3
BRANCH   2   5
ATOM      5  C   UNL     1      16.529  25.375  28.163  1.00  0.00    -0.014 C 
ATOM      6  C   UNL     1      15.469  25.015  27.108  1.00  0.00     0.007 C 
ATOM      7  C   UNL     1      15.989  25.003  29.557  1.00  0.00     0.007 C 
ENDBRANCH   2   5
ENDBRANCH   1   2
BRANCH   1   8
ATOM      8  C   UNL     1      17.652  28.929  29.533  1.00  0.00     0.004 C 
BRANCH   8   9
ATOM      9  C   UNL     1      18.472  28.927  30.856  1.00  0.00    -0.011 C 
ATOM     10  C   UNL     1      17.521  28.854  32.063  1.00  0.00     0.008 C 
BRANCH   9  11
ATOM     11  C   UNL     1      19.396  30.194  30.935  1.00  0.00    -0.002 C 
ATOM     12  C   UNL     1      19.045  31.267  29.864  1.00  0.00     0.005 C 
ATOM     13  C   UNL     1      20.937  29.992  30.756  1.00  0.00    -0.026 C 
ATOM     14  C   UNL     1      20.353  31.974  29.479  1.00  0.00     0.005 C 
ATOM     15  C   UNL     1      21.367  31.436  30.474  1.00  0.00    -0.001 C 
ATOM     16  C   UNL     1      21.698  29.518  32.045  1.00  0.00     0.007 C 
ATOM     17  C   UNL     1      21.209  29.046  29.537  1.00  0.00     0.012 C 
ATOM     18  C   UNL     1      22.882  31.634  30.150  1.00  0.00     0.004 C 
ATOM     19  C   UNL     1      23.066  30.229  32.294  1.00  0.00     0.005 C 
ATOM     20  C   UNL     1      23.770  30.608  30.959  1.00  0.00     0.003 C 
ATOM     21  C   UNL     1      23.228  33.111  30.454  1.00  0.00     0.085 C 
ATOM     22  C   UNL     1      25.325  30.957  30.999  1.00  0.00    -0.000 C 
ATOM     23  C   UNL     1      24.687  33.382  30.436  1.00  0.00     0.159 C 
ATOM     24  C   UNL     1      25.595  32.453  31.117  1.00  0.00     0.005 C 
ATOM     25  C   UNL     1      26.049  30.207  32.164  1.00  0.00     0.020 C 
ATOM     26  C   UNL     1      25.946  30.505  29.647  1.00  0.00     0.017 C 
ATOM     27  O   UNL     1      25.119  34.450  29.921  1.00  0.00    -0.295 OA
ATOM     28  C   UNL     1      26.739  32.922  31.654  1.00  0.00     0.055 C 
ATOM     29  C   UNL     1      27.541  30.544  32.262  1.00  0.00     0.081 C 
ATOM     30  C   UNL     1      27.743  32.028  32.254  1.00  0.00     0.156 C 
ATOM     31  O   UNL     1      28.799  32.517  32.735  1.00  0.00    -0.295 OA
ENDBRANCH   9  11
ENDBRANCH   8   9
ENDBRANCH   1   8
TORSDOF 6
ENDMDL
