MODEL 1
REMARK VINA RESULT:    -5.981      0.000      0.000
REMARK INTER + INTRA:          -7.172
REMARK INTER:                  -6.855
REMARK INTRA:                  -0.317
REMARK UNBOUND:                -0.317
REMARK SMILES COc1ccc(C(C)=O)c(O)c1
REMARK SMILES IDX 6 1 10 2 12 3 3 4 4 5 5 6 7 7 8 8 9 9 11 10 2 12 1 13
REMARK H PARENT 11 11
REMARK Flexibility Score: inf
ROOT
ATOM      1  C   UNL     1     -28.566  23.925  12.766  1.00  0.00     0.059 A 
ATOM      2  C   UNL     1     -29.721  23.543  13.490  1.00  0.00     0.130 A 
ATOM      3  C   UNL     1     -29.587  22.923  14.739  1.00  0.00     0.093 A 
ATOM      4  C   UNL     1     -28.316  22.643  15.270  1.00  0.00     0.122 A 
ATOM      5  C   UNL     1     -27.180  22.995  14.538  1.00  0.00     0.047 A 
ATOM      6  C   UNL     1     -27.300  23.628  13.300  1.00  0.00     0.019 A 
ENDROOT
BRANCH   1   7
ATOM      7  C   UNL     1     -28.651  24.659  11.481  1.00  0.00     0.163 C 
ATOM      8  C   UNL     1     -27.934  24.170  10.261  1.00  0.00     0.093 C 
ATOM      9  O   UNL     1     -29.266  25.757  11.424  1.00  0.00    -0.294 OA
ENDBRANCH   1   7
BRANCH   2  10
ATOM     10  O   UNL     1     -31.013  23.734  12.994  1.00  0.00    -0.507 OA
ATOM     11  H   UNL     1     -31.754  23.053  13.095  1.00  0.00     0.293 HD
ENDBRANCH   2  10
BRANCH   4  12
ATOM     12  O   UNL     1     -28.140  22.017  16.514  1.00  0.00    -0.497 OA
ATOM     13  C   UNL     1     -28.865  20.871  16.948  1.00  0.00     0.278 C 
ENDBRANCH   4  12
TORSDOF 3
ENDMDL
MODEL 2
REMARK VINA RESULT:    -5.939     15.786     16.908
REMARK INTER + INTRA:          -7.124
REMARK INTER:                  -6.808
REMARK INTRA:                  -0.316
REMARK UNBOUND:                -0.317
REMARK SMILES COc1ccc(C(C)=O)c(O)c1
REMARK SMILES IDX 6 1 10 2 12 3 3 4 4 5 5 6 7 7 8 8 9 9 11 10 2 12 1 13
REMARK H PARENT 11 11
REMARK Flexibility Score: inf
ROOT
ATOM      1  C   UNL     1     -18.258  35.687  12.821  1.00  0.00     0.059 A 
ATOM      2  C   UNL     1     -17.084  35.954  13.566  1.00  0.00     0.130 A 
ATOM      3  C   UNL     1     -17.182  36.549  14.830  1.00  0.00     0.093 A 
ATOM      4  C   UNL     1     -18.432  36.917  15.358  1.00  0.00     0.122 A 
ATOM      5  C   UNL     1     -19.584  36.678  14.607  1.00  0.00     0.047 A 
ATOM      6  C   UNL     1     -19.502  36.071  13.352  1.00  0.00     0.019 A 
ENDROOT
BRANCH   1   7
ATOM      7  C   UNL     1     -18.219  34.984  11.517  1.00  0.00     0.163 C 
ATOM      8  C   UNL     1     -18.884  35.560  10.306  1.00  0.00     0.093 C 
ATOM      9  O   UNL     1     -17.691  33.842  11.434  1.00  0.00    -0.294 OA
ENDBRANCH   1   7
BRANCH   2  10
ATOM     10  O   UNL     1     -15.807  35.674  13.075  1.00  0.00    -0.507 OA
ATOM     11  H   UNL     1     -15.199  34.973  13.477  1.00  0.00     0.293 HD
ENDBRANCH   2  10
BRANCH   4  12
ATOM     12  O   UNL     1     -18.570  37.521  16.617  1.00  0.00    -0.497 OA
ATOM     13  C   UNL     1     -17.902  38.713  17.015  1.00  0.00     0.278 C 
ENDBRANCH   4  12
TORSDOF 3
ENDMDL
MODEL 3
REMARK VINA RESULT:    -5.737      1.501      1.549
REMARK INTER + INTRA:          -6.893
REMARK INTER:                  -6.550
REMARK INTRA:                  -0.343
REMARK UNBOUND:                -0.317
REMARK SMILES COc1ccc(C(C)=O)c(O)c1
REMARK SMILES IDX 6 1 10 2 12 3 3 4 4 5 5 6 7 7 8 8 9 9 11 10 2 12 1 13
REMARK H PARENT 11 11
REMARK Flexibility Score: inf
ROOT
ATOM      1  C   UNL     1     -28.017  23.172  12.660  1.00  0.00     0.059 A 
ATOM      2  C   UNL     1     -28.958  22.131  12.845  1.00  0.00     0.130 A 
ATOM      3  C   UNL     1     -29.016  21.453  14.070  1.00  0.00     0.093 A 
ATOM      4  C   UNL     1     -28.126  21.771  15.110  1.00  0.00     0.122 A 
ATOM      5  C   UNL     1     -27.179  22.778  14.913  1.00  0.00     0.047 A 
ATOM      6  C   UNL     1     -27.122  23.472  13.703  1.00  0.00     0.019 A 
ENDROOT
BRANCH   1   7
ATOM      7  C   UNL     1     -27.969  23.977  11.417  1.00  0.00     0.163 C 
ATOM      8  C   UNL     1     -28.086  25.469  11.455  1.00  0.00     0.093 C 
ATOM      9  O   UNL     1     -27.912  23.401  10.298  1.00  0.00    -0.294 OA
ENDBRANCH   1   7
BRANCH   2  10
ATOM     10  O   UNL     1     -29.829  21.722  11.833  1.00  0.00    -0.507 OA
ATOM     11  H   UNL     1     -30.830  21.864  11.869  1.00  0.00     0.293 HD
ENDBRANCH   2  10
BRANCH   4  12
ATOM     12  O   UNL     1     -28.148  21.110  16.348  1.00  0.00    -0.497 OA
ATOM     13  C   UNL     1     -29.272  20.405  16.865  1.00  0.00     0.278 C 
ENDBRANCH   4  12
TORSDOF 3
ENDMDL
MODEL 4
REMARK VINA RESULT:    -5.699     16.067     17.240
REMARK INTER + INTRA:          -6.848
REMARK INTER:                  -6.520
REMARK INTRA:                  -0.329
REMARK UNBOUND:                -0.317
REMARK SMILES COc1ccc(C(C)=O)c(O)c1
REMARK SMILES IDX 6 1 10 2 12 3 3 4 4 5 5 6 7 7 8 8 9 9 11 10 2 12 1 13
REMARK H PARENT 11 11
REMARK Flexibility Score: inf
ROOT
ATOM      1  C   UNL     1     -18.656  36.313  12.653  1.00  0.00     0.059 A 
ATOM      2  C   UNL     1     -17.647  37.268  12.926  1.00  0.00     0.130 A 
ATOM      3  C   UNL     1     -17.561  37.846  14.199  1.00  0.00     0.093 A 
ATOM      4  C   UNL     1     -18.487  37.514  15.204  1.00  0.00     0.122 A 
ATOM      5  C   UNL     1     -19.498  36.594  14.920  1.00  0.00     0.047 A 
ATOM      6  C   UNL     1     -19.585  35.999  13.661  1.00  0.00     0.019 A 
ENDROOT
BRANCH   1   7
ATOM      7  C   UNL     1     -18.741  35.609  11.351  1.00  0.00     0.163 C 
ATOM      8  C   UNL     1     -18.526  34.131  11.254  1.00  0.00     0.093 C 
ATOM      9  O   UNL     1     -18.916  36.268  10.291  1.00  0.00    -0.294 OA
ENDBRANCH   1   7
BRANCH   2  10
ATOM     10  O   UNL     1     -16.734  37.689  11.956  1.00  0.00    -0.507 OA
ATOM     11  H   UNL     1     -15.731  37.639  12.078  1.00  0.00     0.293 HD
ENDBRANCH   2  10
BRANCH   4  12
ATOM     12  O   UNL     1     -18.438  38.076  16.489  1.00  0.00    -0.497 OA
ATOM     13  C   UNL     1     -17.523  39.091  16.889  1.00  0.00     0.278 C 
ENDBRANCH   4  12
TORSDOF 3
ENDMDL
MODEL 5
REMARK VINA RESULT:    -5.535      1.877      2.129
REMARK INTER + INTRA:          -6.661
REMARK INTER:                  -6.359
REMARK INTRA:                  -0.302
REMARK UNBOUND:                -0.317
REMARK SMILES COc1ccc(C(C)=O)c(O)c1
REMARK SMILES IDX 6 1 10 2 12 3 3 4 4 5 5 6 7 7 8 8 9 9 11 10 2 12 1 13
REMARK H PARENT 11 11
REMARK Flexibility Score: inf
ROOT
ATOM      1  C   UNL     1     -29.424  22.948  12.125  1.00  0.00     0.059 A 
ATOM      2  C   UNL     1     -29.958  23.336  13.377  1.00  0.00     0.130 A 
ATOM      3  C   UNL     1     -30.291  22.360  14.326  1.00  0.00     0.093 A 
ATOM      4  C   UNL     1     -30.134  20.994  14.037  1.00  0.00     0.122 A 
ATOM      5  C   UNL     1     -29.635  20.615  12.789  1.00  0.00     0.047 A 
ATOM      6  C   UNL     1     -29.284  21.577  11.842  1.00  0.00     0.019 A 
ENDROOT
BRANCH   1   7
ATOM      7  C   UNL     1     -28.977  23.940  11.119  1.00  0.00     0.163 C 
ATOM      8  C   UNL     1     -27.908  23.607  10.125  1.00  0.00     0.093 C 
ATOM      9  O   UNL     1     -29.438  25.112  11.145  1.00  0.00    -0.294 OA
ENDBRANCH   1   7
BRANCH   2  10
ATOM     10  O   UNL     1     -30.200  24.672  13.705  1.00  0.00    -0.507 OA
ATOM     11  H   UNL     1     -30.352  24.994  14.652  1.00  0.00     0.293 HD
ENDBRANCH   2  10
BRANCH   4  12
ATOM     12  O   UNL     1     -30.463  19.987  14.958  1.00  0.00    -0.497 OA
ATOM     13  C   UNL     1     -30.329  20.112  16.370  1.00  0.00     0.278 C 
ENDBRANCH   4  12
TORSDOF 3
ENDMDL
MODEL 6
REMARK VINA RESULT:    -5.496     17.572     18.940
REMARK INTER + INTRA:          -6.617
REMARK INTER:                  -6.290
REMARK INTRA:                  -0.327
REMARK UNBOUND:                -0.317
REMARK SMILES COc1ccc(C(C)=O)c(O)c1
REMARK SMILES IDX 6 1 10 2 12 3 3 4 4 5 5 6 7 7 8 8 9 9 11 10 2 12 1 13
REMARK H PARENT 11 11
REMARK Flexibility Score: inf
ROOT
ATOM      1  C   UNL     1     -17.258  38.492  15.041  1.00  0.00     0.059 A 
ATOM      2  C   UNL     1     -17.734  37.179  14.806  1.00  0.00     0.130 A 
ATOM      3  C   UNL     1     -17.775  36.676  13.499  1.00  0.00     0.093 A 
ATOM      4  C   UNL     1     -17.382  37.472  12.409  1.00  0.00     0.122 A 
ATOM      5  C   UNL     1     -16.942  38.776  12.643  1.00  0.00     0.047 A 
ATOM      6  C   UNL     1     -16.880  39.284  13.941  1.00  0.00     0.019 A 
ENDROOT
BRANCH   1   7
ATOM      7  C   UNL     1     -17.114  39.043  16.408  1.00  0.00     0.163 C 
ATOM      8  C   UNL     1     -15.926  39.871  16.788  1.00  0.00     0.093 C 
ATOM      9  O   UNL     1     -17.957  38.748  17.297  1.00  0.00    -0.294 OA
ENDBRANCH   1   7
BRANCH   2  10
ATOM     10  O   UNL     1     -18.199  36.357  15.835  1.00  0.00    -0.507 OA
ATOM     11  H   UNL     1     -17.695  35.548  16.172  1.00  0.00     0.293 HD
ENDBRANCH   2  10
BRANCH   4  12
ATOM     12  O   UNL     1     -17.416  37.006  11.086  1.00  0.00    -0.497 OA
ATOM     13  C   UNL     1     -18.586  36.968  10.276  1.00  0.00     0.278 C 
ENDBRANCH   4  12
TORSDOF 3
ENDMDL
MODEL 7
REMARK VINA RESULT:    -5.432      1.824      2.544
REMARK INTER + INTRA:          -6.543
REMARK INTER:                  -6.196
REMARK INTRA:                  -0.347
REMARK UNBOUND:                -0.317
REMARK SMILES COc1ccc(C(C)=O)c(O)c1
REMARK SMILES IDX 6 1 10 2 12 3 3 4 4 5 5 6 7 7 8 8 9 9 11 10 2 12 1 13
REMARK H PARENT 11 11
REMARK Flexibility Score: inf
ROOT
ATOM      1  C   UNL     1     -28.288  23.357  13.363  1.00  0.00     0.059 A 
ATOM      2  C   UNL     1     -27.246  22.658  14.019  1.00  0.00     0.130 A 
ATOM      3  C   UNL     1     -27.552  21.738  15.030  1.00  0.00     0.093 A 
ATOM      4  C   UNL     1     -28.883  21.523  15.427  1.00  0.00     0.122 A 
ATOM      5  C   UNL     1     -29.905  22.237  14.798  1.00  0.00     0.047 A 
ATOM      6  C   UNL     1     -29.615  23.144  13.778  1.00  0.00     0.019 A 
ENDROOT
BRANCH   1   7
ATOM      7  C   UNL     1     -28.027  24.277  12.231  1.00  0.00     0.163 C 
ATOM      8  C   UNL     1     -28.766  25.573  12.100  1.00  0.00     0.093 C 
ATOM      9  O   UNL     1     -27.233  23.935  11.314  1.00  0.00    -0.294 OA
ENDBRANCH   1   7
BRANCH   2  10
ATOM     10  O   UNL     1     -25.898  22.870  13.717  1.00  0.00    -0.507 OA
ATOM     11  H   UNL     1     -25.517  23.777  13.483  1.00  0.00     0.293 HD
ENDBRANCH   2  10
BRANCH   4  12
ATOM     12  O   UNL     1     -29.229  20.616  16.441  1.00  0.00    -0.497 OA
ATOM     13  C   UNL     1     -30.555  20.166  16.700  1.00  0.00     0.278 C 
ENDBRANCH   4  12
TORSDOF 3
ENDMDL
MODEL 8
REMARK VINA RESULT:    -5.384      1.542      5.032
REMARK INTER + INTRA:          -6.487
REMARK INTER:                  -6.232
REMARK INTRA:                  -0.255
REMARK UNBOUND:                -0.317
REMARK SMILES COc1ccc(C(C)=O)c(O)c1
REMARK SMILES IDX 6 1 10 2 12 3 3 4 4 5 5 6 7 7 8 8 9 9 11 10 2 12 1 13
REMARK H PARENT 11 11
REMARK Flexibility Score: inf
ROOT
ATOM      1  C   UNL     1     -28.593  21.865  14.862  1.00  0.00     0.059 A 
ATOM      2  C   UNL     1     -27.576  22.840  14.716  1.00  0.00     0.130 A 
ATOM      3  C   UNL     1     -27.400  23.485  13.485  1.00  0.00     0.093 A 
ATOM      4  C   UNL     1     -28.201  23.153  12.378  1.00  0.00     0.122 A 
ATOM      5  C   UNL     1     -29.183  22.170  12.519  1.00  0.00     0.047 A 
ATOM      6  C   UNL     1     -29.378  21.531  13.744  1.00  0.00     0.019 A 
ENDROOT
BRANCH   1   7
ATOM      7  C   UNL     1     -28.877  21.213  16.162  1.00  0.00     0.163 C 
ATOM      8  C   UNL     1     -29.875  20.104  16.270  1.00  0.00     0.093 C 
ATOM      9  O   UNL     1     -28.335  21.648  17.214  1.00  0.00    -0.294 OA
ENDBRANCH   1   7
BRANCH   2  10
ATOM     10  O   UNL     1     -26.704  23.172  15.755  1.00  0.00    -0.507 OA
ATOM     11  H   UNL     1     -26.302  22.489  16.384  1.00  0.00     0.293 HD
ENDBRANCH   2  10
BRANCH   4  12
ATOM     12  O   UNL     1     -28.051  23.772  11.128  1.00  0.00    -0.497 OA
ATOM     13  C   UNL     1     -28.460  25.104  10.834  1.00  0.00     0.278 C 
ENDBRANCH   4  12
TORSDOF 3
ENDMDL
MODEL 9
REMARK VINA RESULT:    -5.368     16.283     17.380
REMARK INTER + INTRA:          -6.469
REMARK INTER:                  -6.130
REMARK INTRA:                  -0.339
REMARK UNBOUND:                -0.317
REMARK SMILES COc1ccc(C(C)=O)c(O)c1
REMARK SMILES IDX 6 1 10 2 12 3 3 4 4 5 5 6 7 7 8 8 9 9 11 10 2 12 1 13
REMARK H PARENT 11 11
REMARK Flexibility Score: inf
ROOT
ATOM      1  C   UNL     1     -18.145  36.211  13.077  1.00  0.00     0.059 A 
ATOM      2  C   UNL     1     -19.042  36.915  13.917  1.00  0.00     0.130 A 
ATOM      3  C   UNL     1     -18.542  37.760  14.917  1.00  0.00     0.093 A 
ATOM      4  C   UNL     1     -17.158  37.895  15.119  1.00  0.00     0.122 A 
ATOM      5  C   UNL     1     -16.278  37.177  14.307  1.00  0.00     0.047 A 
ATOM      6  C   UNL     1     -16.762  36.343  13.298  1.00  0.00     0.019 A 
ENDROOT
BRANCH   1   7
ATOM      7  C   UNL     1     -18.617  35.371  11.951  1.00  0.00     0.163 C 
ATOM      8  C   UNL     1     -17.892  34.120  11.562  1.00  0.00     0.093 C 
ATOM      9  O   UNL     1     -19.595  35.749  11.253  1.00  0.00    -0.294 OA
ENDBRANCH   1   7
BRANCH   2  10
ATOM     10  O   UNL     1     -20.428  36.778  13.812  1.00  0.00    -0.507 OA
ATOM     11  H   UNL     1     -21.001  36.357  14.532  1.00  0.00     0.293 HD
ENDBRANCH   2  10
BRANCH   4  12
ATOM     12  O   UNL     1     -16.620  38.726  16.113  1.00  0.00    -0.497 OA
ATOM     13  C   UNL     1     -17.389  39.388  17.113  1.00  0.00     0.278 C 
ENDBRANCH   4  12
TORSDOF 3
ENDMDL
