MODEL 1
REMARK VINA RESULT:    -3.393      0.000      0.000
REMARK INTER + INTRA:          -5.346
REMARK INTER:                  -4.980
REMARK INTRA:                  -0.366
REMARK UNBOUND:                -0.366
REMARK SMILES O=C([O-])CCCCCCCC(=O)[O-]
REMARK SMILES IDX 7 1 6 2 5 3 4 4 2 5 1 6 3 7 8 8 9 9 10 10 11 11 12 12 13 13
REMARK H PARENT
REMARK Flexibility Score: inf
ROOT
ATOM      1  C   UNL     1      -3.130  -4.253   6.305  1.00  0.00     0.000 C 
ENDROOT
BRANCH   1   2
ATOM      2  C   UNL     1      -2.082  -3.491   7.132  1.00  0.00     0.000 C 
BRANCH   2   3
ATOM      3  C   UNL     1      -1.816  -2.075   6.591  1.00  0.00     0.006 C 
BRANCH   3   4
ATOM      4  C   UNL     1      -0.533  -2.008   5.750  1.00  0.00     0.053 C 
BRANCH   4   5
ATOM      5  C   UNL     1      -0.818  -1.646   4.326  1.00  0.00     0.041 C 
ATOM      6  O   UNL     1       0.127  -1.536   3.500  1.00  0.00    -0.550 OA
ATOM      7  O   UNL     1      -2.123  -1.400   3.916  1.00  0.00    -0.550 OA
ENDBRANCH   4   5
ENDBRANCH   3   4
ENDBRANCH   2   3
ENDBRANCH   1   2
BRANCH   1   8
ATOM      8  C   UNL     1      -4.256  -4.839   7.176  1.00  0.00     0.000 C 
BRANCH   8   9
ATOM      9  C   UNL     1      -4.412  -6.357   6.996  1.00  0.00     0.006 C 
BRANCH   9  10
ATOM     10  C   UNL     1      -3.751  -6.873   5.711  1.00  0.00     0.053 C 
BRANCH  10  11
ATOM     11  C   UNL     1      -4.701  -7.741   4.947  1.00  0.00     0.041 C 
ATOM     12  O   UNL     1      -4.266  -8.570   4.106  1.00  0.00    -0.550 OA
ATOM     13  O   UNL     1      -6.065  -7.667   5.200  1.00  0.00    -0.550 OA
ENDBRANCH  10  11
ENDBRANCH   9  10
ENDBRANCH   8   9
ENDBRANCH   1   8
TORSDOF 8
ENDMDL
MODEL 2
REMARK VINA RESULT:    -3.360      0.338      6.104
REMARK INTER + INTRA:          -5.297
REMARK INTER:                  -4.932
REMARK INTRA:                  -0.365
REMARK UNBOUND:                -0.366
REMARK SMILES O=C([O-])CCCCCCCC(=O)[O-]
REMARK SMILES IDX 7 1 6 2 5 3 4 4 2 5 1 6 3 7 8 8 9 9 10 10 11 11 12 12 13 13
REMARK H PARENT
REMARK Flexibility Score: inf
ROOT
ATOM      1  C   UNL     1      -3.043  -4.198   6.282  1.00  0.00     0.000 C 
ENDROOT
BRANCH   1   2
ATOM      2  C   UNL     1      -4.258  -4.657   7.105  1.00  0.00     0.000 C 
BRANCH   2   3
ATOM      3  C   UNL     1      -4.391  -6.189   7.161  1.00  0.00     0.006 C 
BRANCH   3   4
ATOM      4  C   UNL     1      -3.730  -6.872   5.956  1.00  0.00     0.053 C 
BRANCH   4   5
ATOM      5  C   UNL     1      -4.741  -7.489   5.040  1.00  0.00     0.041 C 
ATOM      6  O   UNL     1      -5.924  -7.669   5.432  1.00  0.00    -0.550 OA
ATOM      7  O   UNL     1      -4.369  -7.894   3.763  1.00  0.00    -0.550 OA
ENDBRANCH   4   5
ENDBRANCH   3   4
ENDBRANCH   2   3
ENDBRANCH   1   2
BRANCH   1   8
ATOM      8  C   UNL     1      -2.033  -3.393   7.120  1.00  0.00     0.000 C 
BRANCH   8   9
ATOM      9  C   UNL     1      -1.734  -2.012   6.516  1.00  0.00     0.006 C 
BRANCH   9  10
ATOM     10  C   UNL     1      -0.472  -2.007   5.644  1.00  0.00     0.053 C 
BRANCH  10  11
ATOM     11  C   UNL     1      -0.816  -1.644   4.233  1.00  0.00     0.041 C 
ATOM     12  O   UNL     1      -0.071  -2.008   3.286  1.00  0.00    -0.550 OA
ATOM     13  O   UNL     1      -1.984  -0.944   3.960  1.00  0.00    -0.550 OA
ENDBRANCH  10  11
ENDBRANCH   9  10
ENDBRANCH   8   9
ENDBRANCH   1   8
TORSDOF 8
ENDMDL
MODEL 3
REMARK VINA RESULT:    -3.359      4.105      5.226
REMARK INTER + INTRA:          -5.296
REMARK INTER:                  -4.804
REMARK INTRA:                  -0.493
REMARK UNBOUND:                -0.366
REMARK SMILES O=C([O-])CCCCCCCC(=O)[O-]
REMARK SMILES IDX 7 1 6 2 5 3 4 4 2 5 1 6 3 7 8 8 9 9 10 10 11 11 12 12 13 13
REMARK H PARENT
REMARK Flexibility Score: inf
ROOT
ATOM      1  C   UNL     1      -3.546  -1.102   9.793  1.00  0.00     0.000 C 
ENDROOT
BRANCH   1   2
ATOM      2  C   UNL     1      -2.588  -1.415   8.632  1.00  0.00     0.000 C 
BRANCH   2   3
ATOM      3  C   UNL     1      -2.974  -2.697   7.875  1.00  0.00     0.006 C 
BRANCH   3   4
ATOM      4  C   UNL     1      -1.831  -3.214   6.990  1.00  0.00     0.053 C 
BRANCH   4   5
ATOM      5  C   UNL     1      -1.565  -2.303   5.832  1.00  0.00     0.041 C 
ATOM      6  O   UNL     1      -2.509  -1.946   5.078  1.00  0.00    -0.550 OA
ATOM      7  O   UNL     1      -0.271  -1.873   5.566  1.00  0.00    -0.550 OA
ENDBRANCH   4   5
ENDBRANCH   3   4
ENDBRANCH   2   3
ENDBRANCH   1   2
BRANCH   1   8
ATOM      8  C   UNL     1      -3.018  -1.610  11.147  1.00  0.00     0.000 C 
BRANCH   8   9
ATOM      9  C   UNL     1      -3.980  -2.602  11.821  1.00  0.00     0.006 C 
BRANCH   9  10
ATOM     10  C   UNL     1      -5.455  -2.250  11.585  1.00  0.00     0.053 C 
BRANCH  10  11
ATOM     11  C   UNL     1      -6.198  -3.442  11.068  1.00  0.00     0.041 C 
ATOM     12  O   UNL     1      -5.734  -4.110  10.107  1.00  0.00    -0.550 OA
ATOM     13  O   UNL     1      -7.379  -3.843  11.679  1.00  0.00    -0.550 OA
ENDBRANCH  10  11
ENDBRANCH   9  10
ENDBRANCH   8   9
ENDBRANCH   1   8
TORSDOF 8
ENDMDL
MODEL 4
REMARK VINA RESULT:    -3.336      4.094      5.050
REMARK INTER + INTRA:          -5.262
REMARK INTER:                  -4.571
REMARK INTRA:                  -0.691
REMARK UNBOUND:                -0.366
REMARK SMILES O=C([O-])CCCCCCCC(=O)[O-]
REMARK SMILES IDX 7 1 6 2 5 3 4 4 2 5 1 6 3 7 8 8 9 9 10 10 11 11 12 12 13 13
REMARK H PARENT
REMARK Flexibility Score: inf
ROOT
ATOM      1  C   UNL     1      -4.320  -4.526   7.262  1.00  0.00     0.000 C 
ENDROOT
BRANCH   1   2
ATOM      2  C   UNL     1      -3.090  -4.279   6.374  1.00  0.00     0.000 C 
BRANCH   2   3
ATOM      3  C   UNL     1      -1.962  -3.540   7.115  1.00  0.00     0.006 C 
BRANCH   3   4
ATOM      4  C   UNL     1      -1.937  -2.041   6.785  1.00  0.00     0.053 C 
BRANCH   4   5
ATOM      5  C   UNL     1      -2.263  -1.200   7.980  1.00  0.00     0.041 C 
ATOM      6  O   UNL     1      -2.139   0.052   7.926  1.00  0.00    -0.550 OA
ATOM      7  O   UNL     1      -2.673  -1.801   9.165  1.00  0.00    -0.550 OA
ENDBRANCH   4   5
ENDBRANCH   3   4
ENDBRANCH   2   3
ENDBRANCH   1   2
BRANCH   1   8
ATOM      8  C   UNL     1      -5.363  -3.399   7.153  1.00  0.00     0.000 C 
BRANCH   8   9
ATOM      9  C   UNL     1      -5.967  -3.020   8.515  1.00  0.00     0.006 C 
BRANCH   9  10
ATOM     10  C   UNL     1      -5.616  -4.025   9.619  1.00  0.00     0.053 C 
BRANCH  10  11
ATOM     11  C   UNL     1      -5.735  -3.382  10.966  1.00  0.00     0.041 C 
ATOM     12  O   UNL     1      -4.712  -2.935  11.547  1.00  0.00    -0.550 OA
ATOM     13  O   UNL     1      -6.983  -3.234  11.558  1.00  0.00    -0.550 OA
ENDBRANCH  10  11
ENDBRANCH   9  10
ENDBRANCH   8   9
ENDBRANCH   1   8
TORSDOF 8
ENDMDL
MODEL 5
REMARK VINA RESULT:    -3.326      4.059      6.422
REMARK INTER + INTRA:          -5.247
REMARK INTER:                  -4.664
REMARK INTRA:                  -0.583
REMARK UNBOUND:                -0.366
REMARK SMILES O=C([O-])CCCCCCCC(=O)[O-]
REMARK SMILES IDX 7 1 6 2 5 3 4 4 2 5 1 6 3 7 8 8 9 9 10 10 11 11 12 12 13 13
REMARK H PARENT
REMARK Flexibility Score: inf
ROOT
ATOM      1  C   UNL     1      -2.541  -0.098   9.425  1.00  0.00     0.000 C 
ENDROOT
BRANCH   1   2
ATOM      2  C   UNL     1      -2.353  -1.064  10.606  1.00  0.00     0.000 C 
BRANCH   2   3
ATOM      3  C   UNL     1      -3.547  -1.055  11.576  1.00  0.00     0.006 C 
BRANCH   3   4
ATOM      4  C   UNL     1      -4.143  -2.455  11.772  1.00  0.00     0.053 C 
BRANCH   4   5
ATOM      5  C   UNL     1      -5.263  -2.725  10.816  1.00  0.00     0.041 C 
ATOM      6  O   UNL     1      -5.718  -3.893  10.685  1.00  0.00    -0.550 OA
ATOM      7  O   UNL     1      -5.786  -1.693  10.045  1.00  0.00    -0.550 OA
ENDBRANCH   4   5
ENDBRANCH   3   4
ENDBRANCH   2   3
ENDBRANCH   1   2
BRANCH   1   8
ATOM      8  C   UNL     1      -2.304  -0.776   8.063  1.00  0.00     0.000 C 
BRANCH   8   9
ATOM      9  C   UNL     1      -2.784  -2.236   8.040  1.00  0.00     0.006 C 
BRANCH   9  10
ATOM     10  C   UNL     1      -1.856  -3.153   7.233  1.00  0.00     0.053 C 
BRANCH  10  11
ATOM     11  C   UNL     1      -1.542  -2.537   5.905  1.00  0.00     0.041 C 
ATOM     12  O   UNL     1      -2.442  -2.419   5.033  1.00  0.00    -0.550 OA
ATOM     13  O   UNL     1      -0.266  -2.052   5.648  1.00  0.00    -0.550 OA
ENDBRANCH  10  11
ENDBRANCH   9  10
ENDBRANCH   8   9
ENDBRANCH   1   8
TORSDOF 8
ENDMDL
MODEL 6
REMARK VINA RESULT:    -3.300      3.747      6.035
REMARK INTER + INTRA:          -5.209
REMARK INTER:                  -4.545
REMARK INTRA:                  -0.664
REMARK UNBOUND:                -0.366
REMARK SMILES O=C([O-])CCCCCCCC(=O)[O-]
REMARK SMILES IDX 7 1 6 2 5 3 4 4 2 5 1 6 3 7 8 8 9 9 10 10 11 11 12 12 13 13
REMARK H PARENT
REMARK Flexibility Score: inf
ROOT
ATOM      1  C   UNL     1      -2.186  -0.973   6.588  1.00  0.00     0.000 C 
ENDROOT
BRANCH   1   2
ATOM      2  C   UNL     1      -1.381  -2.254   6.316  1.00  0.00     0.000 C 
BRANCH   2   3
ATOM      3  C   UNL     1      -1.881  -3.454   7.138  1.00  0.00     0.006 C 
BRANCH   3   4
ATOM      4  C   UNL     1      -3.398  -3.652   7.010  1.00  0.00     0.053 C 
BRANCH   4   5
ATOM      5  C   UNL     1      -3.747  -5.045   6.587  1.00  0.00     0.041 C 
ATOM      6  O   UNL     1      -4.307  -5.831   7.396  1.00  0.00    -0.550 OA
ATOM      7  O   UNL     1      -3.425  -5.487   5.309  1.00  0.00    -0.550 OA
ENDBRANCH   4   5
ENDBRANCH   3   4
ENDBRANCH   2   3
ENDBRANCH   1   2
BRANCH   1   8
ATOM      8  C   UNL     1      -1.742  -0.260   7.879  1.00  0.00     0.000 C 
BRANCH   8   9
ATOM      9  C   UNL     1      -2.825  -0.283   8.969  1.00  0.00     0.006 C 
BRANCH   9  10
ATOM     10  C   UNL     1      -2.474  -1.218  10.133  1.00  0.00     0.053 C 
BRANCH  10  11
ATOM     11  C   UNL     1      -3.703  -1.911  10.634  1.00  0.00     0.041 C 
ATOM     12  O   UNL     1      -4.690  -2.080   9.872  1.00  0.00    -0.550 OA
ATOM     13  O   UNL     1      -3.739  -2.411  11.930  1.00  0.00    -0.550 OA
ENDBRANCH  10  11
ENDBRANCH   9  10
ENDBRANCH   8   9
ENDBRANCH   1   8
TORSDOF 8
ENDMDL
MODEL 7
REMARK VINA RESULT:    -3.274      3.816      6.515
REMARK INTER + INTRA:          -5.171
REMARK INTER:                  -4.717
REMARK INTRA:                  -0.454
REMARK UNBOUND:                -0.366
REMARK SMILES O=C([O-])CCCCCCCC(=O)[O-]
REMARK SMILES IDX 7 1 6 2 5 3 4 4 2 5 1 6 3 7 8 8 9 9 10 10 11 11 12 12 13 13
REMARK H PARENT
REMARK Flexibility Score: inf
ROOT
ATOM      1  C   UNL     1      -4.511  -4.092   6.525  1.00  0.00     0.000 C 
ENDROOT
BRANCH   1   2
ATOM      2  C   UNL     1      -4.765  -4.511   7.981  1.00  0.00     0.000 C 
BRANCH   2   3
ATOM      3  C   UNL     1      -5.513  -3.434   8.787  1.00  0.00     0.006 C 
BRANCH   3   4
ATOM      4  C   UNL     1      -6.024  -3.968  10.132  1.00  0.00     0.053 C 
BRANCH   4   5
ATOM      5  C   UNL     1      -5.706  -3.036  11.260  1.00  0.00     0.041 C 
ATOM      6  O   UNL     1      -4.508  -2.826  11.589  1.00  0.00    -0.550 OA
ATOM      7  O   UNL     1      -6.733  -2.423  11.968  1.00  0.00    -0.550 OA
ENDBRANCH   4   5
ENDBRANCH   3   4
ENDBRANCH   2   3
ENDBRANCH   1   2
BRANCH   1   8
ATOM      8  C   UNL     1      -3.033  -4.234   6.118  1.00  0.00     0.000 C 
BRANCH   8   9
ATOM      9  C   UNL     1      -2.080  -3.543   7.107  1.00  0.00     0.006 C 
BRANCH   9  10
ATOM     10  C   UNL     1      -2.033  -2.021   6.919  1.00  0.00     0.053 C 
BRANCH  10  11
ATOM     11  C   UNL     1      -1.281  -1.673   5.673  1.00  0.00     0.041 C 
ATOM     12  O   UNL     1      -0.083  -2.034   5.535  1.00  0.00    -0.550 OA
ATOM     13  O   UNL     1      -1.918  -0.991   4.644  1.00  0.00    -0.550 OA
ENDBRANCH  10  11
ENDBRANCH   9  10
ENDBRANCH   8   9
ENDBRANCH   1   8
TORSDOF 8
ENDMDL
MODEL 8
REMARK VINA RESULT:    -3.263      3.667      5.473
REMARK INTER + INTRA:          -5.156
REMARK INTER:                  -4.433
REMARK INTRA:                  -0.723
REMARK UNBOUND:                -0.366
REMARK SMILES O=C([O-])CCCCCCCC(=O)[O-]
REMARK SMILES IDX 7 1 6 2 5 3 4 4 2 5 1 6 3 7 8 8 9 9 10 10 11 11 12 12 13 13
REMARK H PARENT
REMARK Flexibility Score: inf
ROOT
ATOM      1  C   UNL     1      -5.022  -3.575   7.780  1.00  0.00     0.000 C 
ENDROOT
BRANCH   1   2
ATOM      2  C   UNL     1      -4.215  -4.741   7.186  1.00  0.00     0.000 C 
BRANCH   2   3
ATOM      3  C   UNL     1      -2.985  -4.267   6.393  1.00  0.00     0.006 C 
BRANCH   3   4
ATOM      4  C   UNL     1      -2.016  -3.451   7.261  1.00  0.00     0.053 C 
BRANCH   4   5
ATOM      5  C   UNL     1      -1.636  -2.158   6.610  1.00  0.00     0.041 C 
ATOM      6  O   UNL     1      -2.332  -1.126   6.798  1.00  0.00    -0.550 OA
ATOM      7  O   UNL     1      -0.530  -2.099   5.770  1.00  0.00    -0.550 OA
ENDBRANCH   4   5
ENDBRANCH   3   4
ENDBRANCH   2   3
ENDBRANCH   1   2
BRANCH   1   8
ATOM      8  C   UNL     1      -5.476  -3.848   9.226  1.00  0.00     0.000 C 
BRANCH   8   9
ATOM      9  C   UNL     1      -5.481  -2.578  10.092  1.00  0.00     0.006 C 
BRANCH   9  10
ATOM     10  C   UNL     1      -4.424  -1.556   9.653  1.00  0.00     0.053 C 
BRANCH  10  11
ATOM     11  C   UNL     1      -3.270  -1.558  10.606  1.00  0.00     0.041 C 
ATOM     12  O   UNL     1      -3.345  -2.193  11.691  1.00  0.00    -0.550 OA
ATOM     13  O   UNL     1      -2.094  -0.897  10.275  1.00  0.00    -0.550 OA
ENDBRANCH  10  11
ENDBRANCH   9  10
ENDBRANCH   8   9
ENDBRANCH   1   8
TORSDOF 8
ENDMDL
MODEL 9
REMARK VINA RESULT:    -3.203      4.261      5.355
REMARK INTER + INTRA:          -5.067
REMARK INTER:                  -4.280
REMARK INTRA:                  -0.787
REMARK UNBOUND:                -0.366
REMARK SMILES O=C([O-])CCCCCCCC(=O)[O-]
REMARK SMILES IDX 7 1 6 2 5 3 4 4 2 5 1 6 3 7 8 8 9 9 10 10 11 11 12 12 13 13
REMARK H PARENT
REMARK Flexibility Score: inf
ROOT
ATOM      1  C   UNL     1      -1.753  -2.099   6.657  1.00  0.00     0.000 C 
ENDROOT
BRANCH   1   2
ATOM      2  C   UNL     1      -2.314  -1.016   7.592  1.00  0.00     0.000 C 
BRANCH   2   3
ATOM      3  C   UNL     1      -2.506  -1.519   9.034  1.00  0.00     0.006 C 
BRANCH   3   4
ATOM      4  C   UNL     1      -3.729  -0.886   9.710  1.00  0.00     0.053 C 
BRANCH   4   5
ATOM      5  C   UNL     1      -3.698  -1.059  11.197  1.00  0.00     0.041 C 
ATOM      6  O   UNL     1      -3.791  -0.056  11.953  1.00  0.00    -0.550 OA
ATOM      7  O   UNL     1      -3.537  -2.325  11.748  1.00  0.00    -0.550 OA
ENDBRANCH   4   5
ENDBRANCH   3   4
ENDBRANCH   2   3
ENDBRANCH   1   2
BRANCH   1   8
ATOM      8  C   UNL     1      -2.014  -3.523   7.178  1.00  0.00     0.000 C 
BRANCH   8   9
ATOM      9  C   UNL     1      -3.053  -4.280   6.334  1.00  0.00     0.006 C 
BRANCH   9  10
ATOM     10  C   UNL     1      -4.150  -4.928   7.187  1.00  0.00     0.053 C 
BRANCH  10  11
ATOM     11  C   UNL     1      -5.023  -3.878   7.800  1.00  0.00     0.041 C 
ATOM     12  O   UNL     1      -5.333  -3.945   9.018  1.00  0.00    -0.550 OA
ATOM     13  O   UNL     1      -5.454  -2.800   7.037  1.00  0.00    -0.550 OA
ENDBRANCH  10  11
ENDBRANCH   9  10
ENDBRANCH   8   9
ENDBRANCH   1   8
TORSDOF 8
ENDMDL
