MODEL 1
REMARK VINA RESULT:    -5.168      0.000      0.000
REMARK INTER + INTRA:          -5.911
REMARK INTER:                  -5.772
REMARK INTRA:                  -0.138
REMARK UNBOUND:                -0.138
REMARK SMILES COc1cc2ccc(=O)oc2cc1OC
REMARK SMILES IDX 3 1 13 2 12 3 11 4 5 5 4 6 6 7 7 8 8 9 9 10 10 11 2 12 1 13
REMARK SMILES IDX 14 14 15 15
REMARK H PARENT
REMARK Flexibility Score: inf
ROOT
ATOM      1  C   UNL     1     174.291 170.243 173.222  1.00  0.00     0.161 A 
ATOM      2  C   UNL     1     174.971 169.378 172.348  1.00  0.00     0.164 A 
ATOM      3  C   UNL     1     176.281 169.692 171.932  1.00  0.00     0.098 A 
ATOM      4  C   UNL     1     176.905 170.857 172.381  1.00  0.00     0.142 A 
ATOM      5  C   UNL     1     176.223 171.726 173.257  1.00  0.00     0.022 A 
ATOM      6  C   UNL     1     174.922 171.419 173.674  1.00  0.00     0.062 A 
ATOM      7  C   UNL     1     176.876 172.886 173.690  1.00  0.00     0.019 A 
ATOM      8  C   UNL     1     178.172 173.148 173.246  1.00  0.00     0.094 A 
ATOM      9  C   UNL     1     178.786 172.240 172.377  1.00  0.00     0.336 A 
ATOM     10  O   UNL     1     179.956 172.457 171.964  1.00  0.00    -0.246 OA
ATOM     11  O   UNL     1     178.142 171.145 171.982  1.00  0.00    -0.423 OA
ENDROOT
BRANCH   1  12
ATOM     12  O   UNL     1     172.988 169.899 173.616  1.00  0.00    -0.493 OA
ATOM     13  C   UNL     1     171.805 170.527 173.130  1.00  0.00     0.278 C 
ENDBRANCH   1  12
BRANCH   2  14
ATOM     14  O   UNL     1     174.312 168.216 171.916  1.00  0.00    -0.493 OA
ATOM     15  C   UNL     1     174.576 166.908 172.413  1.00  0.00     0.278 C 
ENDBRANCH   2  14
TORSDOF 2
ENDMDL
MODEL 2
REMARK VINA RESULT:    -5.145      2.068      3.351
REMARK INTER + INTRA:          -5.885
REMARK INTER:                  -5.766
REMARK INTRA:                  -0.118
REMARK UNBOUND:                -0.138
REMARK SMILES COc1cc2ccc(=O)oc2cc1OC
REMARK SMILES IDX 3 1 13 2 12 3 11 4 5 5 4 6 6 7 7 8 8 9 9 10 10 11 2 12 1 13
REMARK SMILES IDX 14 14 15 15
REMARK H PARENT
REMARK Flexibility Score: inf
ROOT
ATOM      1  C   UNL     1     176.242 169.384 170.704  1.00  0.00     0.161 A 
ATOM      2  C   UNL     1     175.045 169.595 171.409  1.00  0.00     0.164 A 
ATOM      3  C   UNL     1     174.983 170.595 172.400  1.00  0.00     0.098 A 
ATOM      4  C   UNL     1     176.103 171.376 172.686  1.00  0.00     0.142 A 
ATOM      5  C   UNL     1     177.305 171.166 171.980  1.00  0.00     0.022 A 
ATOM      6  C   UNL     1     177.373 170.174 170.994  1.00  0.00     0.062 A 
ATOM      7  C   UNL     1     178.410 171.967 172.290  1.00  0.00     0.019 A 
ATOM      8  C   UNL     1     178.294 172.942 173.280  1.00  0.00     0.094 A 
ATOM      9  C   UNL     1     177.069 173.093 173.939  1.00  0.00     0.336 A 
ATOM     10  O   UNL     1     176.942 173.967 174.837  1.00  0.00    -0.246 OA
ATOM     11  O   UNL     1     176.035 172.318 173.624  1.00  0.00    -0.423 OA
ENDROOT
BRANCH   1  12
ATOM     12  O   UNL     1     176.268 168.380 169.724  1.00  0.00    -0.493 OA
ATOM     13  C   UNL     1     177.375 167.516 169.482  1.00  0.00     0.278 C 
ENDBRANCH   1  12
BRANCH   2  14
ATOM     14  O   UNL     1     173.939 168.789 171.094  1.00  0.00    -0.493 OA
ATOM     15  C   UNL     1     172.871 169.184 170.237  1.00  0.00     0.278 C 
ENDBRANCH   2  14
TORSDOF 2
ENDMDL
MODEL 3
REMARK VINA RESULT:    -5.033      1.899      2.205
REMARK INTER + INTRA:          -5.760
REMARK INTER:                  -5.657
REMARK INTRA:                  -0.104
REMARK UNBOUND:                -0.138
REMARK SMILES COc1cc2ccc(=O)oc2cc1OC
REMARK SMILES IDX 3 1 13 2 12 3 11 4 5 5 4 6 6 7 7 8 8 9 9 10 10 11 2 12 1 13
REMARK SMILES IDX 14 14 15 15
REMARK H PARENT
REMARK Flexibility Score: inf
ROOT
ATOM      1  C   UNL     1     174.764 170.311 170.823  1.00  0.00     0.161 A 
ATOM      2  C   UNL     1     175.142 169.206 171.604  1.00  0.00     0.164 A 
ATOM      3  C   UNL     1     176.143 169.352 172.586  1.00  0.00     0.098 A 
ATOM      4  C   UNL     1     176.761 170.588 172.786  1.00  0.00     0.142 A 
ATOM      5  C   UNL     1     176.383 171.697 172.002  1.00  0.00     0.022 A 
ATOM      6  C   UNL     1     175.390 171.557 171.026  1.00  0.00     0.062 A 
ATOM      7  C   UNL     1     177.022 172.922 172.227  1.00  0.00     0.019 A 
ATOM      8  C   UNL     1     178.005 173.011 173.212  1.00  0.00     0.094 A 
ATOM      9  C   UNL     1     178.328 171.867 173.950  1.00  0.00     0.336 A 
ATOM     10  O   UNL     1     179.214 171.926 174.843  1.00  0.00    -0.246 OA
ATOM     11  O   UNL     1     177.706 170.716 173.715  1.00  0.00    -0.423 OA
ENDROOT
BRANCH   1  12
ATOM     12  O   UNL     1     173.764 170.129 169.855  1.00  0.00    -0.493 OA
ATOM     13  C   UNL     1     173.661 170.881 168.650  1.00  0.00     0.278 C 
ENDBRANCH   1  12
BRANCH   2  14
ATOM     14  O   UNL     1     174.499 167.979 171.375  1.00  0.00    -0.493 OA
ATOM     15  C   UNL     1     174.885 166.743 171.968  1.00  0.00     0.278 C 
ENDBRANCH   2  14
TORSDOF 2
ENDMDL
MODEL 4
REMARK VINA RESULT:    -4.981      1.864      2.980
REMARK INTER + INTRA:          -5.702
REMARK INTER:                  -5.584
REMARK INTRA:                  -0.119
REMARK UNBOUND:                -0.138
REMARK SMILES COc1cc2ccc(=O)oc2cc1OC
REMARK SMILES IDX 3 1 13 2 12 3 11 4 5 5 4 6 6 7 7 8 8 9 9 10 10 11 2 12 1 13
REMARK SMILES IDX 14 14 15 15
REMARK H PARENT
REMARK Flexibility Score: inf
ROOT
ATOM      1  C   UNL     1     175.447 168.923 171.014  1.00  0.00     0.161 A 
ATOM      2  C   UNL     1     174.428 169.319 171.896  1.00  0.00     0.164 A 
ATOM      3  C   UNL     1     174.641 170.403 172.771  1.00  0.00     0.098 A 
ATOM      4  C   UNL     1     175.860 171.084 172.769  1.00  0.00     0.142 A 
ATOM      5  C   UNL     1     176.884 170.687 171.885  1.00  0.00     0.022 A 
ATOM      6  C   UNL     1     176.678 169.611 171.013  1.00  0.00     0.062 A 
ATOM      7  C   UNL     1     178.094 171.390 171.906  1.00  0.00     0.019 A 
ATOM      8  C   UNL     1     178.252 172.454 172.794  1.00  0.00     0.094 A 
ATOM      9  C   UNL     1     177.191 172.791 173.641  1.00  0.00     0.336 A 
ATOM     10  O   UNL     1     177.313 173.749 174.450  1.00  0.00    -0.246 OA
ATOM     11  O   UNL     1     176.052 172.106 173.600  1.00  0.00    -0.423 OA
ENDROOT
BRANCH   1  12
ATOM     12  O   UNL     1     175.200 167.840 170.156  1.00  0.00    -0.493 OA
ATOM     13  C   UNL     1     175.027 167.949 168.746  1.00  0.00     0.278 C 
ENDBRANCH   1  12
BRANCH   2  14
ATOM     14  O   UNL     1     173.215 168.611 171.871  1.00  0.00    -0.493 OA
ATOM     15  C   UNL     1     172.186 168.740 172.846  1.00  0.00     0.278 C 
ENDBRANCH   2  14
TORSDOF 2
ENDMDL
MODEL 5
REMARK VINA RESULT:    -4.922      1.877      2.585
REMARK INTER + INTRA:          -5.636
REMARK INTER:                  -5.530
REMARK INTRA:                  -0.106
REMARK UNBOUND:                -0.138
REMARK SMILES COc1cc2ccc(=O)oc2cc1OC
REMARK SMILES IDX 3 1 13 2 12 3 11 4 5 5 4 6 6 7 7 8 8 9 9 10 10 11 2 12 1 13
REMARK SMILES IDX 14 14 15 15
REMARK H PARENT
REMARK Flexibility Score: inf
ROOT
ATOM      1  C   UNL     1     175.154 168.738 172.165  1.00  0.00     0.161 A 
ATOM      2  C   UNL     1     174.490 169.532 171.215  1.00  0.00     0.164 A 
ATOM      3  C   UNL     1     174.920 170.855 170.986  1.00  0.00     0.098 A 
ATOM      4  C   UNL     1     175.999 171.381 171.699  1.00  0.00     0.142 A 
ATOM      5  C   UNL     1     176.665 170.585 172.653  1.00  0.00     0.022 A 
ATOM      6  C   UNL     1     176.243 169.270 172.884  1.00  0.00     0.062 A 
ATOM      7  C   UNL     1     177.744 171.141 173.350  1.00  0.00     0.019 A 
ATOM      8  C   UNL     1     178.126 172.455 173.084  1.00  0.00     0.094 A 
ATOM      9  C   UNL     1     177.418 173.185 172.123  1.00  0.00     0.336 A 
ATOM     10  O   UNL     1     177.747 174.373 171.868  1.00  0.00    -0.246 OA
ATOM     11  O   UNL     1     176.397 172.631 171.475  1.00  0.00    -0.423 OA
ENDROOT
BRANCH   1  12
ATOM     12  O   UNL     1     174.699 167.425 172.367  1.00  0.00    -0.493 OA
ATOM     13  C   UNL     1     175.115 166.582 173.437  1.00  0.00     0.278 C 
ENDBRANCH   1  12
BRANCH   2  14
ATOM     14  O   UNL     1     173.409 168.970 170.518  1.00  0.00    -0.493 OA
ATOM     15  C   UNL     1     172.219 169.673 170.174  1.00  0.00     0.278 C 
ENDBRANCH   2  14
TORSDOF 2
ENDMDL
MODEL 6
REMARK VINA RESULT:    -4.544      1.675      2.527
REMARK INTER + INTRA:          -5.214
REMARK INTER:                  -5.077
REMARK INTRA:                  -0.137
REMARK UNBOUND:                -0.138
REMARK SMILES COc1cc2ccc(=O)oc2cc1OC
REMARK SMILES IDX 3 1 13 2 12 3 11 4 5 5 4 6 6 7 7 8 8 9 9 10 10 11 2 12 1 13
REMARK SMILES IDX 14 14 15 15
REMARK H PARENT
REMARK Flexibility Score: inf
ROOT
ATOM      1  C   UNL     1     174.968 168.442 171.450  1.00  0.00     0.161 A 
ATOM      2  C   UNL     1     176.066 168.455 170.573  1.00  0.00     0.164 A 
ATOM      3  C   UNL     1     177.025 169.483 170.666  1.00  0.00     0.098 A 
ATOM      4  C   UNL     1     176.890 170.490 171.624  1.00  0.00     0.142 A 
ATOM      5  C   UNL     1     175.789 170.480 172.503  1.00  0.00     0.022 A 
ATOM      6  C   UNL     1     174.833 169.460 172.415  1.00  0.00     0.062 A 
ATOM      7  C   UNL     1     175.682 171.503 173.452  1.00  0.00     0.019 A 
ATOM      8  C   UNL     1     176.660 172.496 173.500  1.00  0.00     0.094 A 
ATOM      9  C   UNL     1     177.725 172.442 172.595  1.00  0.00     0.336 A 
ATOM     10  O   UNL     1     178.618 173.329 172.621  1.00  0.00    -0.246 OA
ATOM     11  O   UNL     1     177.801 171.458 171.704  1.00  0.00    -0.423 OA
ENDROOT
BRANCH   1  12
ATOM     12  O   UNL     1     174.033 167.403 171.328  1.00  0.00    -0.493 OA
ATOM     13  C   UNL     1     173.989 166.254 172.169  1.00  0.00     0.278 C 
ENDBRANCH   1  12
BRANCH   2  14
ATOM     14  O   UNL     1     176.169 167.426 169.623  1.00  0.00    -0.493 OA
ATOM     15  C   UNL     1     177.329 166.624 169.425  1.00  0.00     0.278 C 
ENDBRANCH   2  14
TORSDOF 2
ENDMDL
MODEL 7
REMARK VINA RESULT:    -4.400      1.500      1.706
REMARK INTER + INTRA:          -5.053
REMARK INTER:                  -4.934
REMARK INTRA:                  -0.119
REMARK UNBOUND:                -0.138
REMARK SMILES COc1cc2ccc(=O)oc2cc1OC
REMARK SMILES IDX 3 1 13 2 12 3 11 4 5 5 4 6 6 7 7 8 8 9 9 10 10 11 2 12 1 13
REMARK SMILES IDX 14 14 15 15
REMARK H PARENT
REMARK Flexibility Score: inf
ROOT
ATOM      1  C   UNL     1     173.934 168.983 172.347  1.00  0.00     0.161 A 
ATOM      2  C   UNL     1     174.957 168.221 172.938  1.00  0.00     0.164 A 
ATOM      3  C   UNL     1     176.242 168.777 173.095  1.00  0.00     0.098 A 
ATOM      4  C   UNL     1     176.506 170.079 172.665  1.00  0.00     0.142 A 
ATOM      5  C   UNL     1     175.482 170.843 172.071  1.00  0.00     0.022 A 
ATOM      6  C   UNL     1     174.203 170.296 171.913  1.00  0.00     0.062 A 
ATOM      7  C   UNL     1     175.778 172.145 171.651  1.00  0.00     0.019 A 
ATOM      8  C   UNL     1     177.067 172.646 171.830  1.00  0.00     0.094 A 
ATOM      9  C   UNL     1     178.033 171.829 172.427  1.00  0.00     0.336 A 
ATOM     10  O   UNL     1     179.203 172.261 172.598  1.00  0.00    -0.246 OA
ATOM     11  O   UNL     1     177.724 170.595 172.817  1.00  0.00    -0.423 OA
ENDROOT
BRANCH   1  12
ATOM     12  O   UNL     1     172.667 168.397 172.207  1.00  0.00    -0.493 OA
ATOM     13  C   UNL     1     171.434 169.098 172.340  1.00  0.00     0.278 C 
ENDBRANCH   1  12
BRANCH   2  14
ATOM     14  O   UNL     1     174.655 166.916 173.358  1.00  0.00    -0.493 OA
ATOM     15  C   UNL     1     174.755 166.458 174.703  1.00  0.00     0.278 C 
ENDBRANCH   2  14
TORSDOF 2
ENDMDL
MODEL 8
REMARK VINA RESULT:    -4.086     11.424     14.839
REMARK INTER + INTRA:          -4.702
REMARK INTER:                  -4.624
REMARK INTRA:                  -0.079
REMARK UNBOUND:                -0.138
REMARK SMILES COc1cc2ccc(=O)oc2cc1OC
REMARK SMILES IDX 3 1 13 2 12 3 11 4 5 5 4 6 6 7 7 8 8 9 9 10 10 11 2 12 1 13
REMARK SMILES IDX 14 14 15 15
REMARK H PARENT
REMARK Flexibility Score: inf
ROOT
ATOM      1  C   UNL     1     168.828 160.529 178.408  1.00  0.00     0.161 A 
ATOM      2  C   UNL     1     168.658 161.767 177.765  1.00  0.00     0.164 A 
ATOM      3  C   UNL     1     167.592 162.610 178.140  1.00  0.00     0.098 A 
ATOM      4  C   UNL     1     166.704 162.222 179.145  1.00  0.00     0.142 A 
ATOM      5  C   UNL     1     166.873 160.980 179.790  1.00  0.00     0.022 A 
ATOM      6  C   UNL     1     167.930 160.138 179.422  1.00  0.00     0.062 A 
ATOM      7  C   UNL     1     165.967 160.620 180.794  1.00  0.00     0.019 A 
ATOM      8  C   UNL     1     164.930 161.492 181.125  1.00  0.00     0.094 A 
ATOM      9  C   UNL     1     164.825 162.708 180.442  1.00  0.00     0.336 A 
ATOM     10  O   UNL     1     163.896 163.510 180.725  1.00  0.00    -0.246 OA
ATOM     11  O   UNL     1     165.701 163.025 179.492  1.00  0.00    -0.423 OA
ENDROOT
BRANCH   1  12
ATOM     12  O   UNL     1     169.899 159.715 178.009  1.00  0.00    -0.493 OA
ATOM     13  C   UNL     1     170.202 158.444 178.575  1.00  0.00     0.278 C 
ENDBRANCH   1  12
BRANCH   2  14
ATOM     14  O   UNL     1     169.569 162.123 176.758  1.00  0.00    -0.493 OA
ATOM     15  C   UNL     1     170.784 162.831 176.985  1.00  0.00     0.278 C 
ENDBRANCH   2  14
TORSDOF 2
ENDMDL
MODEL 9
REMARK VINA RESULT:    -4.015      1.900      3.483
REMARK INTER + INTRA:          -4.623
REMARK INTER:                  -4.462
REMARK INTRA:                  -0.161
REMARK UNBOUND:                -0.138
REMARK SMILES COc1cc2ccc(=O)oc2cc1OC
REMARK SMILES IDX 3 1 13 2 12 3 11 4 5 5 4 6 6 7 7 8 8 9 9 10 10 11 2 12 1 13
REMARK SMILES IDX 14 14 15 15
REMARK H PARENT
REMARK Flexibility Score: inf
ROOT
ATOM      1  C   UNL     1     172.329 169.526 171.702  1.00  0.00     0.161 A 
ATOM      2  C   UNL     1     172.285 170.177 172.947  1.00  0.00     0.164 A 
ATOM      3  C   UNL     1     173.467 170.713 173.498  1.00  0.00     0.098 A 
ATOM      4  C   UNL     1     174.680 170.600 172.816  1.00  0.00     0.142 A 
ATOM      5  C   UNL     1     174.725 169.947 171.568  1.00  0.00     0.022 A 
ATOM      6  C   UNL     1     173.554 169.413 171.015  1.00  0.00     0.062 A 
ATOM      7  C   UNL     1     175.956 169.850 170.909  1.00  0.00     0.019 A 
ATOM      8  C   UNL     1     177.094 170.398 171.500  1.00  0.00     0.094 A 
ATOM      9  C   UNL     1     176.973 171.032 172.741  1.00  0.00     0.336 A 
ATOM     10  O   UNL     1     177.987 171.532 173.293  1.00  0.00    -0.246 OA
ATOM     11  O   UNL     1     175.790 171.109 173.346  1.00  0.00    -0.423 OA
ENDROOT
BRANCH   1  12
ATOM     12  O   UNL     1     171.134 169.005 171.183  1.00  0.00    -0.493 OA
ATOM     13  C   UNL     1     170.410 169.573 170.096  1.00  0.00     0.278 C 
ENDBRANCH   1  12
BRANCH   2  14
ATOM     14  O   UNL     1     171.048 170.271 173.604  1.00  0.00    -0.493 OA
ATOM     15  C   UNL     1     170.281 171.466 173.711  1.00  0.00     0.278 C 
ENDBRANCH   2  14
TORSDOF 2
ENDMDL
