MODEL 1
REMARK VINA RESULT:    -4.911      0.000      0.000
REMARK INTER + INTRA:          -7.325
REMARK INTER:                  -7.494
REMARK INTRA:                   0.170
REMARK UNBOUND:                 0.170
REMARK SMILES CC1=CCC[C@@H](C)C(=O)C[C@@H](C(C)C)C(=O)C1
REMARK SMILES IDX 8 1 9 2 6 3 7 4 5 5 4 6 3 7 2 8 1 9 10 11 11 12 15 13 16 14
REMARK SMILES IDX 17 15 12 17 13 18 14 19
REMARK H PARENT
REMARK Flexibility Score: 70.00
ROOT
ATOM      1  C   UNL     1     -11.148 -17.546  28.817  1.00  0.00     0.136 C 
ATOM      2  O   UNL     1     -10.051 -17.045  28.632  1.00  0.00    -0.299 OA
ENDROOT
BRANCH   1   3
ATOM      3  C   UNL     1     -12.151 -17.536  27.676  1.00  0.00     0.053 C 
ATOM      4  C   UNL     1     -11.417 -17.243  26.358  1.00  0.00     0.016 C 
BRANCH   3   5
ATOM      5  C   UNL     1     -13.270 -16.484  27.932  1.00  0.00     0.015 C 
BRANCH   5   6
ATOM      6  C   UNL     1     -12.948 -15.362  28.954  1.00  0.00     0.028 C 
BRANCH   6   7
ATOM      7  C   UNL     1     -14.050 -14.980  29.916  1.00  0.00    -0.028 C 
ATOM      8  C   UNL     1     -14.092 -15.300  31.227  1.00  0.00    -0.070 CG0
ATOM      9  C   UNL     1     -15.197 -14.688  32.057  1.00  0.00     0.039 C 
ATOM     10  G   UNL     1     -13.010 -16.125  31.897  1.00  0.00     0.000 G0
ENDBRANCH   6   7
ENDBRANCH   5   6
ENDBRANCH   3   5
ENDBRANCH   1   3
BRANCH   1  11
ATOM     11  C   UNL     1     -11.416 -18.308  30.097  1.00  0.00     0.087 C 
BRANCH  11  12
ATOM     12  C   UNL     1     -12.897 -18.444  30.580  1.00  0.00     0.066 C 
BRANCH  12  13
ATOM     13  C   UNL     1     -13.284 -17.603  31.788  1.00  0.00     0.140 C 
ATOM     14  O   UNL     1     -13.830 -18.163  32.729  1.00  0.00    -0.299 OA
BRANCH  13  15
ATOM     15  C   UNL     1     -13.017 -16.123  31.905  1.00  0.00     0.106 CG0
ATOM     16  G   UNL     1     -14.102 -15.290  31.248  1.00  0.00     0.000 G0
ENDBRANCH  13  15
ENDBRANCH  12  13
BRANCH  12  17
ATOM     17  C   UNL     1     -13.522 -19.878  30.657  1.00  0.00    -0.006 C 
ATOM     18  C   UNL     1     -12.687 -20.908  31.441  1.00  0.00     0.008 C 
ATOM     19  C   UNL     1     -13.963 -20.429  29.292  1.00  0.00     0.008 C 
ENDBRANCH  12  17
ENDBRANCH  11  12
ENDBRANCH   1  11
TORSDOF 1
ENDMDL
MODEL 2
REMARK VINA RESULT:    -4.855      2.115      3.839
REMARK INTER + INTRA:          -7.239
REMARK INTER:                  -7.481
REMARK INTRA:                   0.242
REMARK UNBOUND:                 0.170
REMARK SMILES CC1=CCC[C@@H](C)C(=O)C[C@@H](C(C)C)C(=O)C1
REMARK SMILES IDX 8 1 9 2 6 3 7 4 5 5 4 6 3 7 2 8 1 9 10 11 11 12 15 13 16 14
REMARK SMILES IDX 17 15 12 17 13 18 14 19
REMARK H PARENT
REMARK Flexibility Score: 70.00
ROOT
ATOM      1  C   UNL     1     -13.170 -16.719  29.220  1.00  0.00     0.136 C 
ATOM      2  O   UNL     1     -13.782 -17.748  28.984  1.00  0.00    -0.299 OA
ENDROOT
BRANCH   1   3
ATOM      3  C   UNL     1     -12.048 -16.312  28.279  1.00  0.00     0.053 C 
ATOM      4  C   UNL     1     -11.548 -17.552  27.520  1.00  0.00     0.016 C 
BRANCH   3   5
ATOM      5  C   UNL     1     -10.885 -15.638  29.065  1.00  0.00     0.015 C 
BRANCH   5   6
ATOM      6  C   UNL     1      -9.977 -16.575  29.902  1.00  0.00     0.028 C 
BRANCH   6   7
ATOM      7  C   UNL     1      -9.875 -16.282  31.382  1.00  0.00    -0.028 C 
ATOM      8  C   UNL     1     -10.523 -16.950  32.361  1.00  0.00    -0.070 CG0
ATOM      9  C   UNL     1     -10.166 -16.609  33.789  1.00  0.00     0.039 C 
ATOM     10  G   UNL     1     -11.474 -18.096  32.070  1.00  0.00     0.000 G0
ENDBRANCH   6   7
ENDBRANCH   5   6
ENDBRANCH   3   5
ENDBRANCH   1   3
BRANCH   1  11
ATOM     11  C   UNL     1     -13.648 -15.799  30.322  1.00  0.00     0.087 C 
BRANCH  11  12
ATOM     12  C   UNL     1     -13.352 -16.203  31.803  1.00  0.00     0.066 C 
BRANCH  12  13
ATOM     13  C   UNL     1     -12.927 -17.648  32.027  1.00  0.00     0.140 C 
ATOM     14  O   UNL     1     -13.803 -18.492  32.155  1.00  0.00    -0.299 OA
BRANCH  13  15
ATOM     15  C   UNL     1     -11.491 -18.105  32.081  1.00  0.00     0.106 CG0
ATOM     16  G   UNL     1     -10.533 -16.958  32.345  1.00  0.00     0.000 G0
ENDBRANCH  13  15
ENDBRANCH  12  13
BRANCH  12  17
ATOM     17  C   UNL     1     -14.342 -15.718  32.916  1.00  0.00    -0.006 C 
ATOM     18  C   UNL     1     -15.602 -15.000  32.394  1.00  0.00     0.008 C 
ATOM     19  C   UNL     1     -13.660 -14.920  34.038  1.00  0.00     0.008 C 
ENDBRANCH  12  17
ENDBRANCH  11  12
ENDBRANCH   1  11
TORSDOF 1
ENDMDL
MODEL 3
REMARK VINA RESULT:    -4.777      1.818      4.681
REMARK INTER + INTRA:          -7.121
REMARK INTER:                  -7.833
REMARK INTRA:                   0.712
REMARK UNBOUND:                 0.170
REMARK SMILES CC1=CCC[C@@H](C)C(=O)C[C@@H](C(C)C)C(=O)C1
REMARK SMILES IDX 8 1 9 2 6 3 7 4 5 5 4 6 3 7 2 8 1 9 10 11 11 12 15 13 16 14
REMARK SMILES IDX 17 15 12 17 13 18 14 19
REMARK H PARENT
REMARK Flexibility Score: 70.00
ROOT
ATOM      1  C   UNL     1     -13.981 -15.045  30.173  1.00  0.00     0.136 C 
ATOM      2  O   UNL     1     -14.815 -14.284  29.710  1.00  0.00    -0.299 OA
ENDROOT
BRANCH   1   3
ATOM      3  C   UNL     1     -14.288 -15.743  31.488  1.00  0.00     0.053 C 
ATOM      4  C   UNL     1     -15.218 -14.855  32.329  1.00  0.00     0.016 C 
BRANCH   3   5
ATOM      5  C   UNL     1     -12.976 -16.062  32.264  1.00  0.00     0.015 C 
BRANCH   5   6
ATOM      6  C   UNL     1     -12.705 -17.555  32.585  1.00  0.00     0.028 C 
BRANCH   6   7
ATOM      7  C   UNL     1     -13.397 -18.576  31.710  1.00  0.00    -0.028 C 
ATOM      8  C   UNL     1     -12.858 -19.174  30.626  1.00  0.00    -0.070 CG0
ATOM      9  C   UNL     1     -13.652 -20.285  29.979  1.00  0.00     0.039 C 
ATOM     10  G   UNL     1     -11.457 -18.859  30.136  1.00  0.00     0.000 G0
ENDBRANCH   6   7
ENDBRANCH   5   6
ENDBRANCH   3   5
ENDBRANCH   1   3
BRANCH   1  11
ATOM     11  C   UNL     1     -12.759 -15.404  29.355  1.00  0.00     0.087 C 
BRANCH  11  12
ATOM     12  C   UNL     1     -12.640 -16.862  28.804  1.00  0.00     0.066 C 
BRANCH  12  13
ATOM     13  C   UNL     1     -11.411 -17.644  29.247  1.00  0.00     0.140 C 
ATOM     14  O   UNL     1     -10.313 -17.241  28.889  1.00  0.00    -0.299 OA
BRANCH  13  15
ATOM     15  C   UNL     1     -11.463 -18.874  30.118  1.00  0.00     0.106 CG0
ATOM     16  G   UNL     1     -12.867 -19.168  30.613  1.00  0.00     0.000 G0
ENDBRANCH  13  15
ENDBRANCH  12  13
BRANCH  12  17
ATOM     17  C   UNL     1     -12.963 -17.111  27.292  1.00  0.00    -0.006 C 
ATOM     18  C   UNL     1     -11.728 -17.267  26.383  1.00  0.00     0.008 C 
ATOM     19  C   UNL     1     -13.972 -16.111  26.707  1.00  0.00     0.008 C 
ENDBRANCH  12  17
ENDBRANCH  11  12
ENDBRANCH   1  11
TORSDOF 1
ENDMDL
MODEL 4
REMARK VINA RESULT:    -4.683      2.381      4.631
REMARK INTER + INTRA:          -6.978
REMARK INTER:                  -7.029
REMARK INTRA:                   0.051
REMARK UNBOUND:                 0.170
REMARK SMILES CC1=CCC[C@@H](C)C(=O)C[C@@H](C(C)C)C(=O)C1
REMARK SMILES IDX 8 1 9 2 6 3 7 4 5 5 4 6 3 7 2 8 1 9 10 11 11 12 15 13 16 14
REMARK SMILES IDX 17 15 12 17 13 18 14 19
REMARK H PARENT
REMARK Flexibility Score: 70.00
ROOT
ATOM      1  C   UNL     1     -13.470 -19.174  29.744  1.00  0.00     0.136 C 
ATOM      2  O   UNL     1     -13.329 -20.071  28.929  1.00  0.00    -0.299 OA
ENDROOT
BRANCH   1   3
ATOM      3  C   UNL     1     -13.598 -19.544  31.212  1.00  0.00     0.053 C 
ATOM      4  C   UNL     1     -13.911 -18.280  32.028  1.00  0.00     0.016 C 
BRANCH   3   5
ATOM      5  C   UNL     1     -12.296 -20.226  31.727  1.00  0.00     0.015 C 
BRANCH   5   6
ATOM      6  C   UNL     1     -10.958 -19.534  31.360  1.00  0.00     0.028 C 
BRANCH   6   7
ATOM      7  C   UNL     1     -10.610 -18.277  32.125  1.00  0.00    -0.028 C 
ATOM      8  C   UNL     1     -10.136 -17.134  31.582  1.00  0.00    -0.070 CG0
ATOM      9  C   UNL     1     -10.001 -15.936  32.493  1.00  0.00     0.039 C 
ATOM     10  G   UNL     1      -9.870 -16.990  30.096  1.00  0.00     0.000 G0
ENDBRANCH   6   7
ENDBRANCH   5   6
ENDBRANCH   3   5
ENDBRANCH   1   3
BRANCH   1  11
ATOM     11  C   UNL     1     -13.341 -17.733  29.301  1.00  0.00     0.087 C 
BRANCH  11  12
ATOM     12  C   UNL     1     -12.040 -17.304  28.547  1.00  0.00     0.066 C 
BRANCH  12  13
ATOM     13  C   UNL     1     -11.063 -16.445  29.339  1.00  0.00     0.140 C 
ATOM     14  O   UNL     1     -11.262 -15.239  29.381  1.00  0.00    -0.299 OA
BRANCH  13  15
ATOM     15  C   UNL     1      -9.877 -16.994  30.092  1.00  0.00     0.106 CG0
ATOM     16  G   UNL     1     -10.145 -17.108  31.581  1.00  0.00     0.000 G0
ENDBRANCH  13  15
ENDBRANCH  12  13
BRANCH  12  17
ATOM     17  C   UNL     1     -12.170 -16.807  27.068  1.00  0.00    -0.006 C 
ATOM     18  C   UNL     1     -13.617 -16.648  26.563  1.00  0.00     0.008 C 
ATOM     19  C   UNL     1     -11.310 -17.605  26.075  1.00  0.00     0.008 C 
ENDBRANCH  12  17
ENDBRANCH  11  12
ENDBRANCH   1  11
TORSDOF 1
ENDMDL
MODEL 5
REMARK VINA RESULT:    -4.481      1.678      3.438
REMARK INTER + INTRA:          -6.669
REMARK INTER:                  -6.825
REMARK INTRA:                   0.157
REMARK UNBOUND:                 0.170
REMARK SMILES CC1=CCC[C@@H](C)C(=O)C[C@@H](C(C)C)C(=O)C1
REMARK SMILES IDX 8 1 9 2 6 3 7 4 5 5 4 6 3 7 2 8 1 9 10 11 11 12 15 13 16 14
REMARK SMILES IDX 17 15 12 17 13 18 14 19
REMARK H PARENT
REMARK Flexibility Score: 70.00
ROOT
ATOM      1  C   UNL     1     -10.700 -17.882  32.206  1.00  0.00     0.136 C 
ATOM      2  O   UNL     1     -10.212 -18.361  33.217  1.00  0.00    -0.299 OA
ENDROOT
BRANCH   1   3
ATOM      3  C   UNL     1     -11.401 -16.538  32.308  1.00  0.00     0.053 C 
ATOM      4  C   UNL     1     -10.542 -15.579  33.147  1.00  0.00     0.016 C 
BRANCH   3   5
ATOM      5  C   UNL     1     -12.819 -16.699  32.930  1.00  0.00     0.015 C 
BRANCH   5   6
ATOM      6  C   UNL     1     -14.023 -16.553  31.963  1.00  0.00     0.028 C 
BRANCH   6   7
ATOM      7  C   UNL     1     -13.904 -15.502  30.883  1.00  0.00    -0.028 C 
ATOM      8  C   UNL     1     -13.708 -15.746  29.569  1.00  0.00    -0.070 CG0
ATOM      9  C   UNL     1     -13.778 -14.568  28.625  1.00  0.00     0.039 C 
ATOM     10  G   UNL     1     -13.557 -17.151  29.018  1.00  0.00     0.000 G0
ENDBRANCH   6   7
ENDBRANCH   5   6
ENDBRANCH   3   5
ENDBRANCH   1   3
BRANCH   1  11
ATOM     11  C   UNL     1     -10.447 -18.541  30.867  1.00  0.00     0.087 C 
BRANCH  11  12
ATOM     12  C   UNL     1     -11.673 -18.817  29.936  1.00  0.00     0.066 C 
BRANCH  12  13
ATOM     13  C   UNL     1     -12.127 -17.650  29.070  1.00  0.00     0.140 C 
ATOM     14  O   UNL     1     -11.292 -17.091  28.372  1.00  0.00    -0.299 OA
BRANCH  13  15
ATOM     15  C   UNL     1     -13.550 -17.154  29.004  1.00  0.00     0.106 CG0
ATOM     16  G   UNL     1     -13.698 -15.755  29.573  1.00  0.00     0.000 G0
ENDBRANCH  13  15
ENDBRANCH  12  13
BRANCH  12  17
ATOM     17  C   UNL     1     -12.893 -19.599  30.529  1.00  0.00    -0.006 C 
ATOM     18  C   UNL     1     -12.552 -20.544  31.697  1.00  0.00     0.008 C 
ATOM     19  C   UNL     1     -13.746 -20.304  29.463  1.00  0.00     0.008 C 
ENDBRANCH  12  17
ENDBRANCH  11  12
ENDBRANCH   1  11
TORSDOF 1
ENDMDL
MODEL 6
REMARK VINA RESULT:    -4.472      1.985      4.242
REMARK INTER + INTRA:          -6.656
REMARK INTER:                  -6.975
REMARK INTRA:                   0.319
REMARK UNBOUND:                 0.170
REMARK SMILES CC1=CCC[C@@H](C)C(=O)C[C@@H](C(C)C)C(=O)C1
REMARK SMILES IDX 8 1 9 2 6 3 7 4 5 5 4 6 3 7 2 8 1 9 10 11 11 12 15 13 16 14
REMARK SMILES IDX 17 15 12 17 13 18 14 19
REMARK H PARENT
REMARK Flexibility Score: 70.00
ROOT
ATOM      1  C   UNL     1     -12.669 -18.746  31.936  1.00  0.00     0.136 C 
ATOM      2  O   UNL     1     -13.604 -19.397  32.374  1.00  0.00    -0.299 OA
ENDROOT
BRANCH   1   3
ATOM      3  C   UNL     1     -11.666 -19.438  31.028  1.00  0.00     0.053 C 
ATOM      4  C   UNL     1     -10.322 -18.698  31.100  1.00  0.00     0.016 C 
BRANCH   3   5
ATOM      5  C   UNL     1     -12.191 -19.492  29.563  1.00  0.00     0.015 C 
BRANCH   5   6
ATOM      6  C   UNL     1     -13.680 -19.119  29.345  1.00  0.00     0.028 C 
BRANCH   6   7
ATOM      7  C   UNL     1     -13.987 -18.185  28.197  1.00  0.00    -0.028 C 
ATOM      8  C   UNL     1     -13.614 -16.889  28.119  1.00  0.00    -0.070 CG0
ATOM      9  C   UNL     1     -13.878 -16.166  26.818  1.00  0.00     0.039 C 
ATOM     10  G   UNL     1     -12.837 -16.199  29.224  1.00  0.00     0.000 G0
ENDBRANCH   6   7
ENDBRANCH   5   6
ENDBRANCH   3   5
ENDBRANCH   1   3
BRANCH   1  11
ATOM     11  C   UNL     1     -12.628 -17.250  32.162  1.00  0.00     0.087 C 
BRANCH  11  12
ATOM     12  C   UNL     1     -13.860 -16.400  31.709  1.00  0.00     0.066 C 
BRANCH  12  13
ATOM     13  C   UNL     1     -13.733 -15.710  30.358  1.00  0.00     0.140 C 
ATOM     14  O   UNL     1     -14.378 -14.688  30.170  1.00  0.00    -0.299 OA
BRANCH  13  15
ATOM     15  C   UNL     1     -12.842 -16.198  29.243  1.00  0.00     0.106 CG0
ATOM     16  G   UNL     1     -13.628 -16.871  28.133  1.00  0.00     0.000 G0
ENDBRANCH  13  15
ENDBRANCH  12  13
BRANCH  12  17
ATOM     17  C   UNL     1     -14.547 -15.469  32.765  1.00  0.00    -0.006 C 
ATOM     18  C   UNL     1     -13.628 -15.000  33.909  1.00  0.00     0.008 C 
ATOM     19  C   UNL     1     -15.876 -16.024  33.299  1.00  0.00     0.008 C 
ENDBRANCH  12  17
ENDBRANCH  11  12
ENDBRANCH   1  11
TORSDOF 1
ENDMDL
MODEL 7
REMARK VINA RESULT:    -4.370      1.962      4.957
REMARK INTER + INTRA:          -6.500
REMARK INTER:                  -7.130
REMARK INTRA:                   0.631
REMARK UNBOUND:                 0.170
REMARK SMILES CC1=CCC[C@@H](C)C(=O)C[C@@H](C(C)C)C(=O)C1
REMARK SMILES IDX 8 1 9 2 6 3 7 4 5 5 4 6 3 7 2 8 1 9 10 11 11 12 15 13 16 14
REMARK SMILES IDX 17 15 12 17 13 18 14 19
REMARK H PARENT
REMARK Flexibility Score: 70.00
ROOT
ATOM      1  C   UNL     1     -12.971 -16.802  31.925  1.00  0.00     0.136 C 
ATOM      2  O   UNL     1     -13.957 -17.489  32.138  1.00  0.00    -0.299 OA
ENDROOT
BRANCH   1   3
ATOM      3  C   UNL     1     -11.677 -17.150  32.641  1.00  0.00     0.053 C 
ATOM      4  C   UNL     1     -10.557 -16.221  32.146  1.00  0.00     0.016 C 
BRANCH   3   5
ATOM      5  C   UNL     1     -11.301 -18.643  32.409  1.00  0.00     0.015 C 
BRANCH   5   6
ATOM      6  C   UNL     1     -11.213 -19.116  30.935  1.00  0.00     0.028 C 
BRANCH   6   7
ATOM      7  C   UNL     1     -12.481 -19.659  30.317  1.00  0.00    -0.028 C 
ATOM      8  C   UNL     1     -12.942 -19.363  29.082  1.00  0.00    -0.070 CG0
ATOM      9  C   UNL     1     -14.144 -20.132  28.586  1.00  0.00     0.039 C 
ATOM     10  G   UNL     1     -12.223 -18.400  28.156  1.00  0.00     0.000 G0
ENDBRANCH   6   7
ENDBRANCH   5   6
ENDBRANCH   3   5
ENDBRANCH   1   3
BRANCH   1  11
ATOM     11  C   UNL     1     -13.014 -15.746  30.842  1.00  0.00     0.087 C 
BRANCH  11  12
ATOM     12  C   UNL     1     -13.200 -16.213  29.361  1.00  0.00     0.066 C 
BRANCH  12  13
ATOM     13  C   UNL     1     -12.056 -17.026  28.771  1.00  0.00     0.140 C 
ATOM     14  O   UNL     1     -10.931 -16.549  28.808  1.00  0.00    -0.299 OA
BRANCH  13  15
ATOM     15  C   UNL     1     -12.224 -18.396  28.161  1.00  0.00     0.106 CG0
ATOM     16  G   UNL     1     -12.947 -19.354  29.090  1.00  0.00     0.000 G0
ENDBRANCH  13  15
ENDBRANCH  12  13
BRANCH  12  17
ATOM     17  C   UNL     1     -13.764 -15.183  28.325  1.00  0.00    -0.006 C 
ATOM     18  C   UNL     1     -14.676 -14.095  28.923  1.00  0.00     0.008 C 
ATOM     19  C   UNL     1     -14.404 -15.842  27.093  1.00  0.00     0.008 C 
ENDBRANCH  12  17
ENDBRANCH  11  12
ENDBRANCH   1  11
TORSDOF 1
ENDMDL
MODEL 8
REMARK VINA RESULT:    -4.220      1.469      3.886
REMARK INTER + INTRA:          -6.270
REMARK INTER:                  -6.501
REMARK INTRA:                   0.231
REMARK UNBOUND:                 0.170
REMARK SMILES CC1=CCC[C@@H](C)C(=O)C[C@@H](C(C)C)C(=O)C1
REMARK SMILES IDX 8 1 9 2 6 3 7 4 5 5 4 6 3 7 2 8 1 9 10 11 11 12 15 13 16 14
REMARK SMILES IDX 17 15 12 17 13 18 14 19
REMARK H PARENT
REMARK Flexibility Score: 70.00
ROOT
ATOM      1  C   UNL     1     -13.598 -16.319  32.172  1.00  0.00     0.136 C 
ATOM      2  O   UNL     1     -12.832 -16.319  33.122  1.00  0.00    -0.299 OA
ENDROOT
BRANCH   1   3
ATOM      3  C   UNL     1     -14.420 -15.070  31.904  1.00  0.00     0.053 C 
ATOM      4  C   UNL     1     -15.676 -15.089  32.788  1.00  0.00     0.016 C 
BRANCH   3   5
ATOM      5  C   UNL     1     -14.804 -14.972  30.398  1.00  0.00     0.015 C 
BRANCH   5   6
ATOM      6  C   UNL     1     -13.686 -14.520  29.424  1.00  0.00     0.028 C 
BRANCH   6   7
ATOM      7  C   UNL     1     -13.278 -15.504  28.351  1.00  0.00    -0.028 C 
ATOM      8  C   UNL     1     -12.206 -16.325  28.406  1.00  0.00    -0.070 CG0
ATOM      9  C   UNL     1     -12.058 -17.350  27.306  1.00  0.00     0.039 C 
ATOM     10  G   UNL     1     -11.249 -16.333  29.583  1.00  0.00     0.000 G0
ENDBRANCH   6   7
ENDBRANCH   5   6
ENDBRANCH   3   5
ENDBRANCH   1   3
BRANCH   1  11
ATOM     11  C   UNL     1     -13.582 -17.478  31.198  1.00  0.00     0.087 C 
BRANCH  11  12
ATOM     12  C   UNL     1     -12.271 -18.321  31.072  1.00  0.00     0.066 C 
BRANCH  12  13
ATOM     13  C   UNL     1     -11.154 -17.695  30.247  1.00  0.00     0.140 C 
ATOM     14  O   UNL     1     -10.121 -18.333  30.100  1.00  0.00    -0.299 OA
BRANCH  13  15
ATOM     15  C   UNL     1     -11.252 -16.344  29.583  1.00  0.00     0.106 CG0
ATOM     16  G   UNL     1     -12.218 -16.348  28.413  1.00  0.00     0.000 G0
ENDBRANCH  13  15
ENDBRANCH  12  13
BRANCH  12  17
ATOM     17  C   UNL     1     -12.401 -19.855  30.789  1.00  0.00    -0.006 C 
ATOM     18  C   UNL     1     -13.203 -20.215  29.523  1.00  0.00     0.008 C 
ATOM     19  C   UNL     1     -12.874 -20.665  32.006  1.00  0.00     0.008 C 
ENDBRANCH  12  17
ENDBRANCH  11  12
ENDBRANCH   1  11
TORSDOF 1
ENDMDL
MODEL 9
REMARK VINA RESULT:    -4.123      2.051      3.733
REMARK INTER + INTRA:          -6.123
REMARK INTER:                  -6.178
REMARK INTRA:                   0.055
REMARK UNBOUND:                 0.170
REMARK SMILES CC1=CCC[C@@H](C)C(=O)C[C@@H](C(C)C)C(=O)C1
REMARK SMILES IDX 8 1 9 2 6 3 7 4 5 5 4 6 3 7 2 8 1 9 10 11 11 12 15 13 16 14
REMARK SMILES IDX 17 15 12 17 13 18 14 19
REMARK H PARENT
REMARK Flexibility Score: 70.00
ROOT
ATOM      1  C   UNL     1     -12.440 -16.230  29.040  1.00  0.00     0.136 C 
ATOM      2  O   UNL     1     -13.130 -15.276  28.718  1.00  0.00    -0.299 OA
ENDROOT
BRANCH   1   3
ATOM      3  C   UNL     1     -12.426 -17.451  28.136  1.00  0.00     0.053 C 
ATOM      4  C   UNL     1     -11.749 -17.090  26.805  1.00  0.00     0.016 C 
BRANCH   3   5
ATOM      5  C   UNL     1     -13.871 -17.979  27.898  1.00  0.00     0.015 C 
BRANCH   5   6
ATOM      6  C   UNL     1     -14.414 -19.005  28.926  1.00  0.00     0.028 C 
BRANCH   6   7
ATOM      7  C   UNL     1     -13.389 -19.788  29.714  1.00  0.00    -0.028 C 
ATOM      8  C   UNL     1     -13.131 -19.639  31.032  1.00  0.00    -0.070 CG0
ATOM      9  C   UNL     1     -12.182 -20.626  31.670  1.00  0.00     0.039 C 
ATOM     10  G   UNL     1     -13.854 -18.618  31.890  1.00  0.00     0.000 G0
ENDBRANCH   6   7
ENDBRANCH   5   6
ENDBRANCH   3   5
ENDBRANCH   1   3
BRANCH   1  11
ATOM     11  C   UNL     1     -11.497 -16.108  30.217  1.00  0.00     0.087 C 
BRANCH  11  12
ATOM     12  C   UNL     1     -11.753 -17.013  31.467  1.00  0.00     0.066 C 
BRANCH  12  13
ATOM     13  C   UNL     1     -13.212 -17.250  31.829  1.00  0.00     0.140 C 
ATOM     14  O   UNL     1     -13.914 -16.275  32.060  1.00  0.00    -0.299 OA
BRANCH  13  15
ATOM     15  C   UNL     1     -13.852 -18.615  31.901  1.00  0.00     0.106 CG0
ATOM     16  G   UNL     1     -13.123 -19.635  31.047  1.00  0.00     0.000 G0
ENDBRANCH  13  15
ENDBRANCH  12  13
BRANCH  12  17
ATOM     17  C   UNL     1     -10.876 -16.778  32.744  1.00  0.00    -0.006 C 
ATOM     18  C   UNL     1     -10.056 -15.474  32.736  1.00  0.00     0.008 C 
ATOM     19  C   UNL     1     -10.010 -17.989  33.123  1.00  0.00     0.008 C 
ENDBRANCH  12  17
ENDBRANCH  11  12
ENDBRANCH   1  11
TORSDOF 1
ENDMDL
