MODEL 1
REMARK VINA RESULT:    -4.642      0.000      0.000
REMARK INTER + INTRA:          -4.777
REMARK INTER:                  -4.777
REMARK INTRA:                   0.000
REMARK UNBOUND:                 0.000
REMARK SMILES Cc1cccc(O)c1C
REMARK SMILES IDX 1 1 2 2 8 3 6 4 5 5 4 6 3 7 9 8 7 9
REMARK H PARENT 7 10
REMARK Flexibility Score: inf
ROOT
ATOM      1  C   UNL     1      25.348   7.611  22.003  1.00  0.00     0.045 C 
ATOM      2  C   UNL     1      25.129   7.524  20.514  1.00  0.00    -0.045 A 
ATOM      3  C   UNL     1      24.045   8.185  19.871  1.00  0.00    -0.006 A 
ATOM      4  C   UNL     1      23.899   8.058  18.466  1.00  0.00     0.118 A 
ATOM      5  C   UNL     1      24.811   7.293  17.732  1.00  0.00     0.046 A 
ATOM      6  C   UNL     1      25.868   6.649  18.369  1.00  0.00     0.004 A 
ATOM      7  C   UNL     1      26.027   6.762  19.748  1.00  0.00     0.004 A 
ATOM      8  C   UNL     1      23.047   9.017  20.643  1.00  0.00     0.048 C 
ENDROOT
BRANCH   4   9
ATOM      9  O   UNL     1      22.861   8.679  17.765  1.00  0.00    -0.508 OA
ATOM     10  H   UNL     1      22.050   8.184  17.418  1.00  0.00     0.293 HD
ENDBRANCH   4   9
TORSDOF 1
ENDMDL
MODEL 2
REMARK VINA RESULT:    -4.583      4.712      5.904
REMARK INTER + INTRA:          -4.717
REMARK INTER:                  -4.717
REMARK INTRA:                   0.000
REMARK UNBOUND:                 0.000
REMARK SMILES Cc1cccc(O)c1C
REMARK SMILES IDX 1 1 2 2 8 3 6 4 5 5 4 6 3 7 9 8 7 9
REMARK H PARENT 7 10
REMARK Flexibility Score: inf
ROOT
ATOM      1  C   UNL     1      25.589   4.612  21.672  1.00  0.00     0.045 C 
ATOM      2  C   UNL     1      24.976   5.135  22.945  1.00  0.00    -0.045 A 
ATOM      3  C   UNL     1      23.710   4.685  23.414  1.00  0.00    -0.006 A 
ATOM      4  C   UNL     1      23.194   5.222  24.622  1.00  0.00     0.118 A 
ATOM      5  C   UNL     1      23.925   6.177  25.333  1.00  0.00     0.046 A 
ATOM      6  C   UNL     1      25.162   6.613  24.868  1.00  0.00     0.004 A 
ATOM      7  C   UNL     1      25.685   6.098  23.685  1.00  0.00     0.004 A 
ATOM      8  C   UNL     1      22.902   3.652  22.662  1.00  0.00     0.048 C 
ENDROOT
BRANCH   4   9
ATOM      9  O   UNL     1      21.959   4.827  25.144  1.00  0.00    -0.508 OA
ATOM     10  H   UNL     1      21.802   4.643  26.126  1.00  0.00     0.293 HD
ENDBRANCH   4   9
TORSDOF 1
ENDMDL
MODEL 3
REMARK VINA RESULT:    -4.543      1.888      2.969
REMARK INTER + INTRA:          -4.675
REMARK INTER:                  -4.675
REMARK INTRA:                   0.000
REMARK UNBOUND:                 0.000
REMARK SMILES Cc1cccc(O)c1C
REMARK SMILES IDX 1 1 2 2 8 3 6 4 5 5 4 6 3 7 9 8 7 9
REMARK H PARENT 7 10
REMARK Flexibility Score: inf
ROOT
ATOM      1  C   UNL     1      23.817   7.827  17.414  1.00  0.00     0.045 C 
ATOM      2  C   UNL     1      24.781   7.436  18.504  1.00  0.00    -0.045 A 
ATOM      3  C   UNL     1      24.575   7.807  19.862  1.00  0.00    -0.006 A 
ATOM      4  C   UNL     1      25.524   7.405  20.837  1.00  0.00     0.118 A 
ATOM      5  C   UNL     1      26.643   6.658  20.459  1.00  0.00     0.046 A 
ATOM      6  C   UNL     1      26.839   6.300  19.128  1.00  0.00     0.004 A 
ATOM      7  C   UNL     1      25.918   6.685  18.158  1.00  0.00     0.004 A 
ATOM      8  C   UNL     1      23.372   8.615  20.295  1.00  0.00     0.048 C 
ENDROOT
BRANCH   4   9
ATOM      9  O   UNL     1      25.387   7.731  22.189  1.00  0.00    -0.508 OA
ATOM     10  H   UNL     1      26.142   7.661  22.858  1.00  0.00     0.293 HD
ENDBRANCH   4   9
TORSDOF 1
ENDMDL
MODEL 4
REMARK VINA RESULT:    -4.502      4.692      5.788
REMARK INTER + INTRA:          -4.633
REMARK INTER:                  -4.633
REMARK INTRA:                   0.000
REMARK UNBOUND:                 0.000
REMARK SMILES Cc1cccc(O)c1C
REMARK SMILES IDX 1 1 2 2 8 3 6 4 5 5 4 6 3 7 9 8 7 9
REMARK H PARENT 7 10
REMARK Flexibility Score: inf
ROOT
ATOM      1  C   UNL     1      21.965   4.281  24.582  1.00  0.00     0.045 C 
ATOM      2  C   UNL     1      23.266   5.001  24.337  1.00  0.00    -0.045 A 
ATOM      3  C   UNL     1      24.086   4.716  23.209  1.00  0.00    -0.006 A 
ATOM      4  C   UNL     1      25.299   5.431  23.042  1.00  0.00     0.118 A 
ATOM      5  C   UNL     1      25.676   6.400  23.976  1.00  0.00     0.046 A 
ATOM      6  C   UNL     1      24.869   6.673  25.078  1.00  0.00     0.004 A 
ATOM      7  C   UNL     1      23.675   5.980  25.259  1.00  0.00     0.004 A 
ATOM      8  C   UNL     1      23.699   3.672  22.185  1.00  0.00     0.048 C 
ENDROOT
BRANCH   4   9
ATOM      9  O   UNL     1      26.153   5.206  21.959  1.00  0.00    -0.508 OA
ATOM     10  H   UNL     1      26.236   4.313  21.491  1.00  0.00     0.293 HD
ENDBRANCH   4   9
TORSDOF 1
ENDMDL
MODEL 5
REMARK VINA RESULT:    -4.494      3.369      3.676
REMARK INTER + INTRA:          -4.625
REMARK INTER:                  -4.625
REMARK INTRA:                   0.000
REMARK UNBOUND:                 0.000
REMARK SMILES Cc1cccc(O)c1C
REMARK SMILES IDX 1 1 2 2 8 3 6 4 5 5 4 6 3 7 9 8 7 9
REMARK H PARENT 7 10
REMARK Flexibility Score: inf
ROOT
ATOM      1  C   UNL     1      24.294   6.046  23.034  1.00  0.00     0.045 C 
ATOM      2  C   UNL     1      24.323   7.498  22.634  1.00  0.00    -0.045 A 
ATOM      3  C   UNL     1      23.148   8.301  22.621  1.00  0.00    -0.006 A 
ATOM      4  C   UNL     1      23.250   9.662  22.233  1.00  0.00     0.118 A 
ATOM      5  C   UNL     1      24.489  10.198  21.871  1.00  0.00     0.046 A 
ATOM      6  C   UNL     1      25.634   9.406  21.886  1.00  0.00     0.004 A 
ATOM      7  C   UNL     1      25.554   8.068  22.264  1.00  0.00     0.004 A 
ATOM      8  C   UNL     1      21.797   7.744  23.008  1.00  0.00     0.048 C 
ENDROOT
BRANCH   4   9
ATOM      9  O   UNL     1      22.140  10.511  22.197  1.00  0.00    -0.508 OA
ATOM     10  H   UNL     1      21.274  10.276  21.730  1.00  0.00     0.293 HD
ENDBRANCH   4   9
TORSDOF 1
ENDMDL
MODEL 6
REMARK VINA RESULT:    -4.491      3.778      4.426
REMARK INTER + INTRA:          -4.623
REMARK INTER:                  -4.623
REMARK INTRA:                   0.000
REMARK UNBOUND:                 0.000
REMARK SMILES Cc1cccc(O)c1C
REMARK SMILES IDX 1 1 2 2 8 3 6 4 5 5 4 6 3 7 9 8 7 9
REMARK H PARENT 7 10
REMARK Flexibility Score: inf
ROOT
ATOM      1  C   UNL     1      21.836   9.795  22.291  1.00  0.00     0.045 C 
ATOM      2  C   UNL     1      23.259   9.302  22.335  1.00  0.00    -0.045 A 
ATOM      3  C   UNL     1      23.597   8.019  22.851  1.00  0.00    -0.006 A 
ATOM      4  C   UNL     1      24.958   7.620  22.863  1.00  0.00     0.118 A 
ATOM      5  C   UNL     1      25.946   8.480  22.374  1.00  0.00     0.046 A 
ATOM      6  C   UNL     1      25.607   9.734  21.872  1.00  0.00     0.004 A 
ATOM      7  C   UNL     1      24.276  10.143  21.852  1.00  0.00     0.004 A 
ATOM      8  C   UNL     1      22.547   7.072  23.385  1.00  0.00     0.048 C 
ENDROOT
BRANCH   4   9
ATOM      9  O   UNL     1      25.365   6.376  23.353  1.00  0.00    -0.508 OA
ATOM     10  H   UNL     1      25.513   5.567  22.765  1.00  0.00     0.293 HD
ENDBRANCH   4   9
TORSDOF 1
ENDMDL
MODEL 7
REMARK VINA RESULT:    -4.464      3.849      4.845
REMARK INTER + INTRA:          -4.594
REMARK INTER:                  -4.594
REMARK INTRA:                   0.000
REMARK UNBOUND:                 0.000
REMARK SMILES Cc1cccc(O)c1C
REMARK SMILES IDX 1 1 2 2 8 3 6 4 5 5 4 6 3 7 9 8 7 9
REMARK H PARENT 7 10
REMARK Flexibility Score: inf
ROOT
ATOM      1  C   UNL     1      25.330   9.480  21.875  1.00  0.00     0.045 C 
ATOM      2  C   UNL     1      23.945   9.014  22.242  1.00  0.00    -0.045 A 
ATOM      3  C   UNL     1      23.724   7.844  23.021  1.00  0.00    -0.006 A 
ATOM      4  C   UNL     1      22.392   7.464  23.329  1.00  0.00     0.118 A 
ATOM      5  C   UNL     1      21.320   8.234  22.869  1.00  0.00     0.046 A 
ATOM      6  C   UNL     1      21.544   9.377  22.106  1.00  0.00     0.004 A 
ATOM      7  C   UNL     1      22.844   9.765  21.795  1.00  0.00     0.004 A 
ATOM      8  C   UNL     1      24.868   6.997  23.530  1.00  0.00     0.048 C 
ENDROOT
BRANCH   4   9
ATOM      9  O   UNL     1      22.098   6.329  24.089  1.00  0.00    -0.508 OA
ATOM     10  H   UNL     1      21.857   6.364  25.071  1.00  0.00     0.293 HD
ENDBRANCH   4   9
TORSDOF 1
ENDMDL
MODEL 8
REMARK VINA RESULT:    -4.453      1.265      1.855
REMARK INTER + INTRA:          -4.583
REMARK INTER:                  -4.583
REMARK INTRA:                   0.000
REMARK UNBOUND:                 0.000
REMARK SMILES Cc1cccc(O)c1C
REMARK SMILES IDX 1 1 2 2 8 3 6 4 5 5 4 6 3 7 9 8 7 9
REMARK H PARENT 7 10
REMARK Flexibility Score: inf
ROOT
ATOM      1  C   UNL     1      27.642   6.303  21.441  1.00  0.00     0.045 C 
ATOM      2  C   UNL     1      26.620   6.720  20.416  1.00  0.00    -0.045 A 
ATOM      3  C   UNL     1      25.500   7.531  20.754  1.00  0.00    -0.006 A 
ATOM      4  C   UNL     1      24.576   7.885  19.738  1.00  0.00     0.118 A 
ATOM      5  C   UNL     1      24.771   7.440  18.427  1.00  0.00     0.046 A 
ATOM      6  C   UNL     1      25.868   6.647  18.104  1.00  0.00     0.004 A 
ATOM      7  C   UNL     1      26.786   6.289  19.089  1.00  0.00     0.004 A 
ATOM      8  C   UNL     1      25.269   8.024  22.164  1.00  0.00     0.048 C 
ENDROOT
BRANCH   4   9
ATOM      9  O   UNL     1      23.454   8.678  19.994  1.00  0.00    -0.508 OA
ATOM     10  H   UNL     1      23.409   9.353  20.747  1.00  0.00     0.293 HD
ENDBRANCH   4   9
TORSDOF 1
ENDMDL
MODEL 9
REMARK VINA RESULT:    -4.444      3.931      4.799
REMARK INTER + INTRA:          -4.574
REMARK INTER:                  -4.574
REMARK INTRA:                   0.000
REMARK UNBOUND:                 0.000
REMARK SMILES Cc1cccc(O)c1C
REMARK SMILES IDX 1 1 2 2 8 3 6 4 5 5 4 6 3 7 9 8 7 9
REMARK H PARENT 7 10
REMARK Flexibility Score: inf
ROOT
ATOM      1  C   UNL     1      25.361   6.623  20.152  1.00  0.00     0.045 C 
ATOM      2  C   UNL     1      25.401   5.197  20.638  1.00  0.00    -0.045 A 
ATOM      3  C   UNL     1      24.652   4.164  20.009  1.00  0.00    -0.006 A 
ATOM      4  C   UNL     1      24.737   2.843  20.520  1.00  0.00     0.118 A 
ATOM      5  C   UNL     1      25.548   2.570  21.625  1.00  0.00     0.046 A 
ATOM      6  C   UNL     1      26.278   3.586  22.236  1.00  0.00     0.004 A 
ATOM      7  C   UNL     1      26.207   4.889  21.748  1.00  0.00     0.004 A 
ATOM      8  C   UNL     1      23.769   4.435  18.812  1.00  0.00     0.048 C 
ENDROOT
BRANCH   4   9
ATOM      9  O   UNL     1      24.031   1.778  19.953  1.00  0.00    -0.508 OA
ATOM     10  H   UNL     1      24.033   1.572  18.963  1.00  0.00     0.293 HD
ENDBRANCH   4   9
TORSDOF 1
ENDMDL
