MODEL 1
REMARK VINA RESULT:    -5.614      0.000      0.000
REMARK INTER + INTRA:          -6.342
REMARK INTER:                  -6.106
REMARK INTRA:                  -0.236
REMARK UNBOUND:                -0.236
REMARK SMILES CC(C)c1cc2c(cc1O)[C@@]1(C)CCCC(C)(C)[C@H]1CC2=O
REMARK SMILES IDX 4 1 9 2 8 3 7 4 6 5 5 6 21 7 22 8 20 9 19 10 11 11 13 12
REMARK SMILES IDX 14 13 15 14 16 15 17 16 18 17 12 18 2 19 1 20 3 21 10 22
REMARK H PARENT 10 23
REMARK Flexibility Score: inf
ROOT
ATOM      1  C   UNL     1    -116.713 -95.188   1.687  1.00  0.00    -0.003 A 
ATOM      2  C   UNL     1    -118.102 -95.214   1.968  1.00  0.00     0.119 A 
ATOM      3  C   UNL     1    -118.846 -96.375   1.705  1.00  0.00     0.051 A 
ATOM      4  C   UNL     1    -118.246 -97.555   1.184  1.00  0.00    -0.027 A 
ATOM      5  C   UNL     1    -116.849 -97.543   1.016  1.00  0.00     0.022 A 
ATOM      6  C   UNL     1    -116.107 -96.368   1.237  1.00  0.00     0.020 A 
ATOM      7  C   UNL     1    -116.155 -98.774   0.645  1.00  0.00     0.163 C 
ATOM      8  O   UNL     1    -115.006 -98.717   0.123  1.00  0.00    -0.294 OA
ATOM      9  C   UNL     1    -116.783-100.113   0.862  1.00  0.00     0.086 C 
ATOM     10  C   UNL     1    -118.312-100.122   1.239  1.00  0.00     0.013 C 
ATOM     11  C   UNL     1    -119.057 -98.817   0.743  1.00  0.00    -0.003 C 
ATOM     12  C   UNL     1    -119.131 -98.875  -0.810  1.00  0.00     0.012 C 
ATOM     13  C   UNL     1    -119.822-100.148  -1.335  1.00  0.00     0.001 C 
ATOM     14  C   UNL     1    -119.175-101.444  -0.816  1.00  0.00     0.007 C 
ATOM     15  C   UNL     1    -118.970-101.491   0.734  1.00  0.00    -0.031 C 
ATOM     16  C   UNL     1    -118.048-102.708   1.055  1.00  0.00     0.011 C 
ATOM     17  C   UNL     1    -120.325-101.803   1.456  1.00  0.00     0.011 C 
ATOM     18  C   UNL     1    -120.515 -98.688   1.292  1.00  0.00     0.017 C 
ENDROOT
BRANCH   1  19
ATOM     19  C   UNL     1    -115.812 -93.969   1.894  1.00  0.00     0.017 C 
ATOM     20  C   UNL     1    -115.303 -93.762   3.331  1.00  0.00     0.012 C 
ATOM     21  C   UNL     1    -114.646 -93.968   0.893  1.00  0.00     0.012 C 
ENDBRANCH   1  19
BRANCH   2  22
ATOM     22  O   UNL     1    -118.768 -94.095   2.462  1.00  0.00    -0.508 OA
ATOM     23  H   UNL     1    -119.079 -93.338   1.860  1.00  0.00     0.293 HD
ENDBRANCH   2  22
TORSDOF 2
ENDMDL
MODEL 2
REMARK VINA RESULT:    -5.487      2.219      6.241
REMARK INTER + INTRA:          -6.204
REMARK INTER:                  -5.978
REMARK INTRA:                  -0.226
REMARK UNBOUND:                -0.236
REMARK SMILES CC(C)c1cc2c(cc1O)[C@@]1(C)CCCC(C)(C)[C@H]1CC2=O
REMARK SMILES IDX 4 1 9 2 8 3 7 4 6 5 5 6 21 7 22 8 20 9 19 10 11 11 13 12
REMARK SMILES IDX 14 13 15 14 16 15 17 16 18 17 12 18 2 19 1 20 3 21 10 22
REMARK H PARENT 10 23
REMARK Flexibility Score: inf
ROOT
ATOM      1  C   UNL     1    -120.118-100.860   1.515  1.00  0.00    -0.003 A 
ATOM      2  C   UNL     1    -119.108-101.693   0.974  1.00  0.00     0.119 A 
ATOM      3  C   UNL     1    -117.925-101.124   0.478  1.00  0.00     0.051 A 
ATOM      4  C   UNL     1    -117.684 -99.722   0.524  1.00  0.00    -0.027 A 
ATOM      5  C   UNL     1    -118.652 -98.927   1.164  1.00  0.00     0.022 A 
ATOM      6  C   UNL     1    -119.858 -99.488   1.621  1.00  0.00     0.020 A 
ATOM      7  C   UNL     1    -118.385 -97.508   1.391  1.00  0.00     0.163 C 
ATOM      8  O   UNL     1    -119.344 -96.712   1.596  1.00  0.00    -0.294 OA
ATOM      9  C   UNL     1    -116.991 -96.969   1.376  1.00  0.00     0.086 C 
ATOM     10  C   UNL     1    -115.869 -97.931   0.834  1.00  0.00     0.013 C 
ATOM     11  C   UNL     1    -116.449 -99.034  -0.143  1.00  0.00    -0.003 C 
ATOM     12  C   UNL     1    -116.891 -98.322  -1.453  1.00  0.00     0.012 C 
ATOM     13  C   UNL     1    -115.753 -97.523  -2.121  1.00  0.00     0.001 C 
ATOM     14  C   UNL     1    -115.109 -96.490  -1.181  1.00  0.00     0.007 C 
ATOM     15  C   UNL     1    -114.681 -97.058   0.212  1.00  0.00    -0.031 C 
ATOM     16  C   UNL     1    -114.336 -95.846   1.133  1.00  0.00     0.011 C 
ATOM     17  C   UNL     1    -113.346 -97.868   0.086  1.00  0.00     0.011 C 
ATOM     18  C   UNL     1    -115.408-100.138  -0.521  1.00  0.00     0.017 C 
ENDROOT
BRANCH   1  19
ATOM     19  C   UNL     1    -121.462-101.363   2.044  1.00  0.00     0.017 C 
ATOM     20  C   UNL     1    -122.103-100.499   3.144  1.00  0.00     0.012 C 
ATOM     21  C   UNL     1    -122.452-101.610   0.894  1.00  0.00     0.012 C 
ENDBRANCH   1  19
BRANCH   2  22
ATOM     22  O   UNL     1    -119.274-103.072   0.876  1.00  0.00    -0.508 OA
ATOM     23  H   UNL     1    -119.915-103.586   1.474  1.00  0.00     0.293 HD
ENDBRANCH   2  22
TORSDOF 2
ENDMDL
MODEL 3
REMARK VINA RESULT:    -5.424      1.500      6.561
REMARK INTER + INTRA:          -6.136
REMARK INTER:                  -5.907
REMARK INTRA:                  -0.229
REMARK UNBOUND:                -0.236
REMARK SMILES CC(C)c1cc2c(cc1O)[C@@]1(C)CCCC(C)(C)[C@H]1CC2=O
REMARK SMILES IDX 4 1 9 2 8 3 7 4 6 5 5 6 21 7 22 8 20 9 19 10 11 11 13 12
REMARK SMILES IDX 14 13 15 14 16 15 17 16 18 17 12 18 2 19 1 20 3 21 10 22
REMARK H PARENT 10 23
REMARK Flexibility Score: inf
ROOT
ATOM      1  C   UNL     1    -118.804-100.510   0.879  1.00  0.00    -0.003 A 
ATOM      2  C   UNL     1    -117.407-100.732   0.957  1.00  0.00     0.119 A 
ATOM      3  C   UNL     1    -116.532 -99.640   1.067  1.00  0.00     0.051 A 
ATOM      4  C   UNL     1    -117.002 -98.298   1.131  1.00  0.00    -0.027 A 
ATOM      5  C   UNL     1    -118.396 -98.110   1.163  1.00  0.00     0.022 A 
ATOM      6  C   UNL     1    -119.274 -99.197   1.009  1.00  0.00     0.020 A 
ATOM      7  C   UNL     1    -118.939 -96.773   1.397  1.00  0.00     0.163 C 
ATOM      8  O   UNL     1    -120.124 -96.506   1.054  1.00  0.00    -0.294 OA
ATOM      9  C   UNL     1    -118.111 -95.700   2.029  1.00  0.00     0.086 C 
ATOM     10  C   UNL     1    -116.570 -95.989   2.170  1.00  0.00     0.013 C 
ATOM     11  C   UNL     1    -116.062 -97.049   1.109  1.00  0.00    -0.003 C 
ATOM     12  C   UNL     1    -116.115 -96.380  -0.293  1.00  0.00     0.012 C 
ATOM     13  C   UNL     1    -115.299 -95.074  -0.371  1.00  0.00     0.001 C 
ATOM     14  C   UNL     1    -115.709 -94.041   0.693  1.00  0.00     0.007 C 
ATOM     15  C   UNL     1    -115.771 -94.603   2.151  1.00  0.00    -0.031 C 
ATOM     16  C   UNL     1    -116.481 -93.535   3.042  1.00  0.00     0.011 C 
ATOM     17  C   UNL     1    -114.329 -94.737   2.748  1.00  0.00     0.011 C 
ATOM     18  C   UNL     1    -114.595 -97.526   1.363  1.00  0.00     0.017 C 
ENDROOT
BRANCH   1  19
ATOM     19  C   UNL     1    -119.847-101.618   0.716  1.00  0.00     0.017 C 
ATOM     20  C   UNL     1    -120.619-101.989   1.994  1.00  0.00     0.012 C 
ATOM     21  C   UNL     1    -120.812-101.302  -0.437  1.00  0.00     0.012 C 
ENDBRANCH   1  19
BRANCH   2  22
ATOM     22  O   UNL     1    -116.865-102.013   0.883  1.00  0.00    -0.508 OA
ATOM     23  H   UNL     1    -117.440-102.838   0.736  1.00  0.00     0.293 HD
ENDBRANCH   2  22
TORSDOF 2
ENDMDL
MODEL 4
REMARK VINA RESULT:    -5.248      1.795      2.226
REMARK INTER + INTRA:          -5.944
REMARK INTER:                  -5.739
REMARK INTRA:                  -0.205
REMARK UNBOUND:                -0.236
REMARK SMILES CC(C)c1cc2c(cc1O)[C@@]1(C)CCCC(C)(C)[C@H]1CC2=O
REMARK SMILES IDX 4 1 9 2 8 3 7 4 6 5 5 6 21 7 22 8 20 9 19 10 11 11 13 12
REMARK SMILES IDX 14 13 15 14 16 15 17 16 18 17 12 18 2 19 1 20 3 21 10 22
REMARK H PARENT 10 23
REMARK Flexibility Score: inf
ROOT
ATOM      1  C   UNL     1    -114.773 -96.989   1.280  1.00  0.00    -0.003 A 
ATOM      2  C   UNL     1    -115.850 -96.196   1.746  1.00  0.00     0.119 A 
ATOM      3  C   UNL     1    -117.163 -96.690   1.676  1.00  0.00     0.051 A 
ATOM      4  C   UNL     1    -117.455 -97.988   1.171  1.00  0.00    -0.027 A 
ATOM      5  C   UNL     1    -116.361 -98.799   0.817  1.00  0.00     0.022 A 
ATOM      6  C   UNL     1    -115.049 -98.291   0.844  1.00  0.00     0.020 A 
ATOM      7  C   UNL     1    -116.585-100.196   0.452  1.00  0.00     0.163 C 
ATOM      8  O   UNL     1    -115.718-100.818  -0.223  1.00  0.00    -0.294 OA
ATOM      9  C   UNL     1    -117.835-100.911   0.854  1.00  0.00     0.086 C 
ATOM     10  C   UNL     1    -119.000-100.024   1.433  1.00  0.00     0.013 C 
ATOM     11  C   UNL     1    -118.907 -98.521   0.942  1.00  0.00    -0.003 C 
ATOM     12  C   UNL     1    -119.239 -98.498  -0.577  1.00  0.00     0.012 C 
ATOM     13  C   UNL     1    -120.615 -99.110  -0.905  1.00  0.00     0.001 C 
ATOM     14  C   UNL     1    -120.778-100.546  -0.379  1.00  0.00     0.007 C 
ATOM     15  C   UNL     1    -120.403-100.731   1.128  1.00  0.00    -0.031 C 
ATOM     16  C   UNL     1    -120.330-102.264   1.415  1.00  0.00     0.011 C 
ATOM     17  C   UNL     1    -121.553-100.198   2.048  1.00  0.00     0.011 C 
ATOM     18  C   UNL     1    -119.908 -97.567   1.671  1.00  0.00     0.017 C 
ENDROOT
BRANCH   1  19
ATOM     19  C   UNL     1    -113.311 -96.539   1.268  1.00  0.00     0.017 C 
ATOM     20  C   UNL     1    -112.632 -96.469   2.648  1.00  0.00     0.012 C 
ATOM     21  C   UNL     1    -112.480 -97.385   0.291  1.00  0.00     0.012 C 
ENDBRANCH   1  19
BRANCH   2  22
ATOM     22  O   UNL     1    -115.650 -94.908   2.237  1.00  0.00    -0.508 OA
ATOM     23  H   UNL     1    -116.213 -94.118   1.936  1.00  0.00     0.293 HD
ENDBRANCH   2  22
TORSDOF 2
ENDMDL
MODEL 5
REMARK VINA RESULT:    -5.233      2.219      6.410
REMARK INTER + INTRA:          -5.928
REMARK INTER:                  -5.693
REMARK INTRA:                  -0.235
REMARK UNBOUND:                -0.236
REMARK SMILES CC(C)c1cc2c(cc1O)[C@@]1(C)CCCC(C)(C)[C@H]1CC2=O
REMARK SMILES IDX 4 1 9 2 8 3 7 4 6 5 5 6 21 7 22 8 20 9 19 10 11 11 13 12
REMARK SMILES IDX 14 13 15 14 16 15 17 16 18 17 12 18 2 19 1 20 3 21 10 22
REMARK H PARENT 10 23
REMARK Flexibility Score: inf
ROOT
ATOM      1  C   UNL     1    -120.921-100.945   1.085  1.00  0.00    -0.003 A 
ATOM      2  C   UNL     1    -119.742-101.728   1.022  1.00  0.00     0.119 A 
ATOM      3  C   UNL     1    -118.500-101.104   0.827  1.00  0.00     0.051 A 
ATOM      4  C   UNL     1    -118.373 -99.691   0.716  1.00  0.00    -0.027 A 
ATOM      5  C   UNL     1    -119.542 -98.928   0.892  1.00  0.00     0.022 A 
ATOM      6  C   UNL     1    -120.793 -99.551   1.043  1.00  0.00     0.020 A 
ATOM      7  C   UNL     1    -119.450 -97.471   0.957  1.00  0.00     0.163 C 
ATOM      8  O   UNL     1    -120.471 -96.764   0.727  1.00  0.00    -0.294 OA
ATOM      9  C   UNL     1    -118.160 -96.789   1.282  1.00  0.00     0.086 C 
ATOM     10  C   UNL     1    -116.866 -97.686   1.272  1.00  0.00     0.013 C 
ATOM     11  C   UNL     1    -117.034 -98.967   0.357  1.00  0.00    -0.003 C 
ATOM     12  C   UNL     1    -117.079 -98.490  -1.122  1.00  0.00     0.012 C 
ATOM     13  C   UNL     1    -115.839 -97.669  -1.530  1.00  0.00     0.001 C 
ATOM     14  C   UNL     1    -115.593 -96.454  -0.619  1.00  0.00     0.007 C 
ATOM     15  C   UNL     1    -115.598 -96.779   0.911  1.00  0.00    -0.031 C 
ATOM     16  C   UNL     1    -115.641 -95.425   1.685  1.00  0.00     0.011 C 
ATOM     17  C   UNL     1    -114.246 -97.448   1.333  1.00  0.00     0.011 C 
ATOM     18  C   UNL     1    -115.861 -99.991   0.500  1.00  0.00     0.017 C 
ENDROOT
BRANCH   1  19
ATOM     19  C   UNL     1    -122.330-101.517   1.252  1.00  0.00     0.017 C 
ATOM     20  C   UNL     1    -123.246-100.743   2.216  1.00  0.00     0.012 C 
ATOM     21  C   UNL     1    -123.011-101.715  -0.111  1.00  0.00     0.012 C 
ENDBRANCH   1  19
BRANCH   2  22
ATOM     22  O   UNL     1    -119.783-103.117   1.103  1.00  0.00    -0.508 OA
ATOM     23  H   UNL     1    -119.156-103.712   0.568  1.00  0.00     0.293 HD
ENDBRANCH   2  22
TORSDOF 2
ENDMDL
MODEL 6
REMARK VINA RESULT:    -5.146      2.465      4.885
REMARK INTER + INTRA:          -5.834
REMARK INTER:                  -5.609
REMARK INTRA:                  -0.225
REMARK UNBOUND:                -0.236
REMARK SMILES CC(C)c1cc2c(cc1O)[C@@]1(C)CCCC(C)(C)[C@H]1CC2=O
REMARK SMILES IDX 4 1 9 2 8 3 7 4 6 5 5 6 21 7 22 8 20 9 19 10 11 11 13 12
REMARK SMILES IDX 14 13 15 14 16 15 17 16 18 17 12 18 2 19 1 20 3 21 10 22
REMARK H PARENT 10 23
REMARK Flexibility Score: inf
ROOT
ATOM      1  C   UNL     1    -116.663 -99.377   0.043  1.00  0.00    -0.003 A 
ATOM      2  C   UNL     1    -116.826-100.768   0.253  1.00  0.00     0.119 A 
ATOM      3  C   UNL     1    -118.084-101.277   0.614  1.00  0.00     0.051 A 
ATOM      4  C   UNL     1    -119.226-100.439   0.754  1.00  0.00    -0.027 A 
ATOM      5  C   UNL     1    -119.065 -99.078   0.434  1.00  0.00     0.022 A 
ATOM      6  C   UNL     1    -117.798 -98.558   0.115  1.00  0.00     0.020 A 
ATOM      7  C   UNL     1    -120.234 -98.202   0.396  1.00  0.00     0.163 C 
ATOM      8  O   UNL     1    -120.087 -96.952   0.497  1.00  0.00    -0.294 OA
ATOM      9  C   UNL     1    -121.614 -98.757   0.248  1.00  0.00     0.086 C 
ATOM     10  C   UNL     1    -121.770-100.315   0.418  1.00  0.00     0.013 C 
ATOM     11  C   UNL     1    -120.606-100.939   1.291  1.00  0.00    -0.003 C 
ATOM     12  C   UNL     1    -120.802-100.457   2.757  1.00  0.00     0.012 C 
ATOM     13  C   UNL     1    -122.188-100.815   3.331  1.00  0.00     0.001 C 
ATOM     14  C   UNL     1    -123.351-100.291   2.471  1.00  0.00     0.007 C 
ATOM     15  C   UNL     1    -123.243-100.642   0.950  1.00  0.00    -0.031 C 
ATOM     16  C   UNL     1    -124.313 -99.797   0.191  1.00  0.00     0.011 C 
ATOM     17  C   UNL     1    -123.649-102.134   0.703  1.00  0.00     0.011 C 
ATOM     18  C   UNL     1    -120.602-102.503   1.293  1.00  0.00     0.017 C 
ENDROOT
BRANCH   1  19
ATOM     19  C   UNL     1    -115.334 -98.707  -0.312  1.00  0.00     0.017 C 
ATOM     20  C   UNL     1    -115.277 -98.051  -1.703  1.00  0.00     0.012 C 
ATOM     21  C   UNL     1    -114.907 -97.714   0.780  1.00  0.00     0.012 C 
ENDBRANCH   1  19
BRANCH   2  22
ATOM     22  O   UNL     1    -115.756-101.652   0.153  1.00  0.00    -0.508 OA
ATOM     23  H   UNL     1    -115.824-102.624   0.444  1.00  0.00     0.293 HD
ENDBRANCH   2  22
TORSDOF 2
ENDMDL
MODEL 7
REMARK VINA RESULT:    -5.083      4.166      7.099
REMARK INTER + INTRA:          -5.764
REMARK INTER:                  -5.542
REMARK INTRA:                  -0.222
REMARK UNBOUND:                -0.236
REMARK SMILES CC(C)c1cc2c(cc1O)[C@@]1(C)CCCC(C)(C)[C@H]1CC2=O
REMARK SMILES IDX 4 1 9 2 8 3 7 4 6 5 5 6 21 7 22 8 20 9 19 10 11 11 13 12
REMARK SMILES IDX 14 13 15 14 16 15 17 16 18 17 12 18 2 19 1 20 3 21 10 22
REMARK H PARENT 10 23
REMARK Flexibility Score: inf
ROOT
ATOM      1  C   UNL     1    -125.005 -99.779   2.917  1.00  0.00    -0.003 A 
ATOM      2  C   UNL     1    -124.955 -99.351   1.568  1.00  0.00     0.119 A 
ATOM      3  C   UNL     1    -123.736 -99.377   0.872  1.00  0.00     0.051 A 
ATOM      4  C   UNL     1    -122.534 -99.850   1.470  1.00  0.00    -0.027 A 
ATOM      5  C   UNL     1    -122.631-100.373   2.773  1.00  0.00     0.022 A 
ATOM      6  C   UNL     1    -123.840-100.307   3.488  1.00  0.00     0.020 A 
ATOM      7  C   UNL     1    -121.471-101.026   3.376  1.00  0.00     0.163 C 
ATOM      8  O   UNL     1    -121.400-101.149   4.631  1.00  0.00    -0.294 OA
ATOM      9  C   UNL     1    -120.350-101.547   2.536  1.00  0.00     0.086 C 
ATOM     10  C   UNL     1    -120.344-101.116   1.021  1.00  0.00     0.013 C 
ATOM     11  C   UNL     1    -121.133 -99.764   0.783  1.00  0.00    -0.003 C 
ATOM     12  C   UNL     1    -120.306 -98.614   1.424  1.00  0.00     0.012 C 
ATOM     13  C   UNL     1    -118.866 -98.527   0.880  1.00  0.00     0.001 C 
ATOM     14  C   UNL     1    -118.086 -99.845   1.023  1.00  0.00     0.007 C 
ATOM     15  C   UNL     1    -118.838-101.106   0.482  1.00  0.00    -0.031 C 
ATOM     16  C   UNL     1    -118.061-102.369   0.969  1.00  0.00     0.011 C 
ATOM     17  C   UNL     1    -118.763-101.159  -1.082  1.00  0.00     0.011 C 
ATOM     18  C   UNL     1    -121.340 -99.425  -0.730  1.00  0.00     0.017 C 
ENDROOT
BRANCH   1  19
ATOM     19  C   UNL     1    -126.264 -99.755   3.785  1.00  0.00     0.017 C 
ATOM     20  C   UNL     1    -127.291-100.863   3.488  1.00  0.00     0.012 C 
ATOM     21  C   UNL     1    -125.906 -99.727   5.279  1.00  0.00     0.012 C 
ENDBRANCH   1  19
BRANCH   2  22
ATOM     22  O   UNL     1    -126.082 -98.857   0.916  1.00  0.00    -0.508 OA
ATOM     23  H   UNL     1    -126.794 -98.314   1.397  1.00  0.00     0.293 HD
ENDBRANCH   2  22
TORSDOF 2
ENDMDL
MODEL 8
REMARK VINA RESULT:    -5.078      2.201      3.842
REMARK INTER + INTRA:          -5.759
REMARK INTER:                  -5.529
REMARK INTRA:                  -0.231
REMARK UNBOUND:                -0.236
REMARK SMILES CC(C)c1cc2c(cc1O)[C@@]1(C)CCCC(C)(C)[C@H]1CC2=O
REMARK SMILES IDX 4 1 9 2 8 3 7 4 6 5 5 6 21 7 22 8 20 9 19 10 11 11 13 12
REMARK SMILES IDX 14 13 15 14 16 15 17 16 18 17 12 18 2 19 1 20 3 21 10 22
REMARK H PARENT 10 23
REMARK Flexibility Score: inf
ROOT
ATOM      1  C   UNL     1    -114.582 -93.063   4.156  1.00  0.00    -0.003 A 
ATOM      2  C   UNL     1    -115.970 -92.815   4.010  1.00  0.00     0.119 A 
ATOM      3  C   UNL     1    -116.754 -93.676   3.227  1.00  0.00     0.051 A 
ATOM      4  C   UNL     1    -116.208 -94.822   2.586  1.00  0.00    -0.027 A 
ATOM      5  C   UNL     1    -114.853 -95.110   2.834  1.00  0.00     0.022 A 
ATOM      6  C   UNL     1    -114.054 -94.226   3.581  1.00  0.00     0.020 A 
ATOM      7  C   UNL     1    -114.278 -96.360   2.342  1.00  0.00     0.163 C 
ATOM      8  O   UNL     1    -113.027 -96.468   2.208  1.00  0.00    -0.294 OA
ATOM      9  C   UNL     1    -115.145 -97.523   1.981  1.00  0.00     0.086 C 
ATOM     10  C   UNL     1    -116.692 -97.247   1.888  1.00  0.00     0.013 C 
ATOM     11  C   UNL     1    -117.010 -95.724   1.592  1.00  0.00    -0.003 C 
ATOM     12  C   UNL     1    -116.563 -95.421   0.134  1.00  0.00     0.012 C 
ATOM     13  C   UNL     1    -117.228 -96.345  -0.907  1.00  0.00     0.001 C 
ATOM     14  C   UNL     1    -117.008 -97.839  -0.615  1.00  0.00     0.007 C 
ATOM     15  C   UNL     1    -117.349 -98.272   0.849  1.00  0.00    -0.031 C 
ATOM     16  C   UNL     1    -116.793 -99.715   1.060  1.00  0.00     0.011 C 
ATOM     17  C   UNL     1    -118.899 -98.399   1.035  1.00  0.00     0.011 C 
ATOM     18  C   UNL     1    -118.528 -95.371   1.716  1.00  0.00     0.017 C 
ENDROOT
BRANCH   1  19
ATOM     19  C   UNL     1    -113.624 -92.172   4.948  1.00  0.00     0.017 C 
ATOM     20  C   UNL     1    -112.703 -92.909   5.937  1.00  0.00     0.012 C 
ATOM     21  C   UNL     1    -112.809 -91.266   4.012  1.00  0.00     0.012 C 
ENDBRANCH   1  19
BRANCH   2  22
ATOM     22  O   UNL     1    -116.578 -91.705   4.590  1.00  0.00    -0.508 OA
ATOM     23  H   UNL     1    -116.088 -90.824   4.724  1.00  0.00     0.293 HD
ENDBRANCH   2  22
TORSDOF 2
ENDMDL
MODEL 9
REMARK VINA RESULT:    -5.000      5.329      8.120
REMARK INTER + INTRA:          -5.675
REMARK INTER:                  -5.661
REMARK INTRA:                  -0.014
REMARK UNBOUND:                -0.236
REMARK SMILES CC(C)c1cc2c(cc1O)[C@@]1(C)CCCC(C)(C)[C@H]1CC2=O
REMARK SMILES IDX 4 1 9 2 8 3 7 4 6 5 5 6 21 7 22 8 20 9 19 10 11 11 13 12
REMARK SMILES IDX 14 13 15 14 16 15 17 16 18 17 12 18 2 19 1 20 3 21 10 22
REMARK H PARENT 10 23
REMARK Flexibility Score: inf
ROOT
ATOM      1  C   UNL     1    -126.066 -99.793   4.530  1.00  0.00    -0.003 A 
ATOM      2  C   UNL     1    -126.537-100.519   3.409  1.00  0.00     0.119 A 
ATOM      3  C   UNL     1    -125.644-100.885   2.389  1.00  0.00     0.051 A 
ATOM      4  C   UNL     1    -124.257-100.572   2.451  1.00  0.00    -0.027 A 
ATOM      5  C   UNL     1    -123.793 -99.948   3.624  1.00  0.00     0.022 A 
ATOM      6  C   UNL     1    -124.691 -99.541   4.627  1.00  0.00     0.020 A 
ATOM      7  C   UNL     1    -122.358 -99.753   3.819  1.00  0.00     0.163 C 
ATOM      8  O   UNL     1    -121.946 -98.882   4.636  1.00  0.00    -0.294 OA
ATOM      9  C   UNL     1    -121.355-100.561   3.059  1.00  0.00     0.086 C 
ATOM     10  C   UNL     1    -121.905-101.416   1.856  1.00  0.00     0.013 C 
ATOM     11  C   UNL     1    -123.258-100.832   1.277  1.00  0.00    -0.003 C 
ATOM     12  C   UNL     1    -122.928 -99.490   0.565  1.00  0.00     0.012 C 
ATOM     13  C   UNL     1    -121.862 -99.637  -0.540  1.00  0.00     0.001 C 
ATOM     14  C   UNL     1    -120.555-100.272  -0.037  1.00  0.00     0.007 C 
ATOM     15  C   UNL     1    -120.746-101.599   0.768  1.00  0.00    -0.031 C 
ATOM     16  C   UNL     1    -119.385-101.940   1.452  1.00  0.00     0.011 C 
ATOM     17  C   UNL     1    -121.024-102.794  -0.205  1.00  0.00     0.011 C 
ATOM     18  C   UNL     1    -123.946-101.775   0.237  1.00  0.00     0.017 C 
ENDROOT
BRANCH   1  19
ATOM     19  C   UNL     1    -126.952 -99.306   5.679  1.00  0.00     0.017 C 
ATOM     20  C   UNL     1    -128.103 -98.370   5.272  1.00  0.00     0.012 C 
ATOM     21  C   UNL     1    -127.474-100.487   6.512  1.00  0.00     0.012 C 
ENDBRANCH   1  19
BRANCH   2  22
ATOM     22  O   UNL     1    -127.882-100.848   3.264  1.00  0.00    -0.508 OA
ATOM     23  H   UNL     1    -128.577-100.172   2.961  1.00  0.00     0.293 HD
ENDBRANCH   2  22
TORSDOF 2
ENDMDL
