MODEL 1
REMARK VINA RESULT:    -6.666      0.000      0.000
REMARK INTER + INTRA:          -8.099
REMARK INTER:                  -7.835
REMARK INTRA:                  -0.264
REMARK UNBOUND:                -0.264
REMARK SMILES O=c1cc(-c2ccc(O)c(O)c2)oc2cc(O)cc(O)c12
REMARK SMILES IDX 4 1 3 2 2 3 1 4 21 5 19 6 18 7 16 8 15 9 14 10 13 11 5 12
REMARK SMILES IDX 6 13 7 14 8 15 12 16 10 17 9 18 11 20 20 22 17 24
REMARK H PARENT 9 19 11 21 20 23 17 25
REMARK Flexibility Score: inf
ROOT
ATOM      1  C   UNL     1      56.338  -2.559  20.485  1.00  0.00     0.138 A 
ATOM      2  C   UNL     1      55.874  -3.840  20.811  1.00  0.00     0.100 A 
ATOM      3  C   UNL     1      54.982  -4.000  21.873  1.00  0.00     0.197 A 
ATOM      4  O   UNL     1      54.534  -5.154  22.103  1.00  0.00    -0.289 OA
ATOM      5  C   UNL     1      54.579  -2.875  22.630  1.00  0.00     0.107 A 
ATOM      6  C   UNL     1      53.706  -2.924  23.758  1.00  0.00     0.134 A 
ATOM      7  C   UNL     1      53.285  -1.731  24.357  1.00  0.00     0.093 A 
ATOM      8  C   UNL     1      53.752  -0.493  23.906  1.00  0.00     0.123 A 
ATOM      9  C   UNL     1      54.647  -0.438  22.839  1.00  0.00     0.094 A 
ATOM     10  C   UNL     1      55.059  -1.609  22.199  1.00  0.00     0.146 A 
ATOM     11  O   UNL     1      55.902  -1.512  21.176  1.00  0.00    -0.456 OA
ENDROOT
BRANCH   1  12
ATOM     12  C   UNL     1      57.289  -2.331  19.366  1.00  0.00     0.021 A 
ATOM     13  C   UNL     1      58.680  -2.401  19.554  1.00  0.00     0.016 A 
ATOM     14  C   UNL     1      59.551  -2.172  18.486  1.00  0.00     0.051 A 
ATOM     15  C   UNL     1      59.057  -1.864  17.215  1.00  0.00     0.157 A 
ATOM     16  C   UNL     1      56.794  -2.008  18.091  1.00  0.00     0.062 A 
ATOM     17  C   UNL     1      57.659  -1.778  17.015  1.00  0.00     0.158 A 
BRANCH  15  18
ATOM     18  O   UNL     1      59.981  -1.650  16.190  1.00  0.00    -0.504 OA
ATOM     19  H   UNL     1      60.865  -1.178  16.315  1.00  0.00     0.293 HD
ENDBRANCH  15  18
BRANCH  17  20
ATOM     20  O   UNL     1      57.092  -1.470  15.777  1.00  0.00    -0.504 OA
ATOM     21  H   UNL     1      56.712  -2.158  15.143  1.00  0.00     0.293 HD
ENDBRANCH  17  20
ENDBRANCH   1  12
BRANCH   6  22
ATOM     22  O   UNL     1      53.248  -4.109  24.340  1.00  0.00    -0.507 OA
ATOM     23  H   UNL     1      52.635  -4.159  25.139  1.00  0.00     0.293 HD
ENDBRANCH   6  22
BRANCH   8  24
ATOM     24  O   UNL     1      53.341   0.688  24.519  1.00  0.00    -0.508 OA
ATOM     25  H   UNL     1      53.239   1.550  23.994  1.00  0.00     0.293 HD
ENDBRANCH   8  24
TORSDOF 5
ENDMDL
MODEL 2
REMARK VINA RESULT:    -6.340     15.043     16.360
REMARK INTER + INTRA:          -7.716
REMARK INTER:                  -7.447
REMARK INTRA:                  -0.269
REMARK UNBOUND:                -0.264
REMARK SMILES O=c1cc(-c2ccc(O)c(O)c2)oc2cc(O)cc(O)c12
REMARK SMILES IDX 4 1 3 2 2 3 1 4 21 5 19 6 18 7 16 8 15 9 14 10 13 11 5 12
REMARK SMILES IDX 6 13 7 14 8 15 12 16 10 17 9 18 11 20 20 22 17 24
REMARK H PARENT 9 19 11 21 20 23 17 25
REMARK Flexibility Score: inf
ROOT
ATOM      1  C   UNL     1      44.030   7.874  15.916  1.00  0.00     0.138 A 
ATOM      2  C   UNL     1      42.710   8.241  15.622  1.00  0.00     0.100 A 
ATOM      3  C   UNL     1      41.767   8.305  16.649  1.00  0.00     0.197 A 
ATOM      4  O   UNL     1      40.606   8.698  16.366  1.00  0.00    -0.289 OA
ATOM      5  C   UNL     1      42.143   7.968  17.971  1.00  0.00     0.107 A 
ATOM      6  C   UNL     1      41.257   7.958  19.090  1.00  0.00     0.134 A 
ATOM      7  C   UNL     1      41.767   7.721  20.372  1.00  0.00     0.093 A 
ATOM      8  C   UNL     1      43.121   7.435  20.568  1.00  0.00     0.123 A 
ATOM      9  C   UNL     1      43.984   7.389  19.475  1.00  0.00     0.094 A 
ATOM     10  C   UNL     1      43.511   7.655  18.188  1.00  0.00     0.146 A 
ATOM     11  O   UNL     1      44.370   7.616  17.174  1.00  0.00    -0.456 OA
ENDROOT
BRANCH   1  12
ATOM     12  C   UNL     1      45.073   7.789  14.862  1.00  0.00     0.021 A 
ATOM     13  C   UNL     1      45.206   6.653  14.045  1.00  0.00     0.016 A 
ATOM     14  C   UNL     1      46.203   6.596  13.068  1.00  0.00     0.051 A 
ATOM     15  C   UNL     1      47.090   7.663  12.889  1.00  0.00     0.157 A 
ATOM     16  C   UNL     1      45.973   8.855  14.691  1.00  0.00     0.062 A 
ATOM     17  C   UNL     1      46.975   8.807  13.714  1.00  0.00     0.158 A 
BRANCH  15  18
ATOM     18  O   UNL     1      48.061   7.544  11.893  1.00  0.00    -0.504 OA
ATOM     19  H   UNL     1      48.721   6.782  11.835  1.00  0.00     0.293 HD
ENDBRANCH  15  18
BRANCH  17  20
ATOM     20  O   UNL     1      47.826   9.908  13.598  1.00  0.00    -0.504 OA
ATOM     21  H   UNL     1      48.306  10.163  12.747  1.00  0.00     0.293 HD
ENDBRANCH  17  20
ENDBRANCH   1  12
BRANCH   6  22
ATOM     22  O   UNL     1      39.875   8.148  18.995  1.00  0.00    -0.507 OA
ATOM     23  H   UNL     1      39.401   9.023  19.156  1.00  0.00     0.293 HD
ENDBRANCH   6  22
BRANCH   8  24
ATOM     24  O   UNL     1      43.618   7.184  21.846  1.00  0.00    -0.508 OA
ATOM     25  H   UNL     1      43.292   6.397  22.395  1.00  0.00     0.293 HD
ENDBRANCH   8  24
TORSDOF 5
ENDMDL
MODEL 3
REMARK VINA RESULT:    -6.224     15.570     17.734
REMARK INTER + INTRA:          -7.579
REMARK INTER:                  -7.287
REMARK INTRA:                  -0.292
REMARK UNBOUND:                -0.264
REMARK SMILES O=c1cc(-c2ccc(O)c(O)c2)oc2cc(O)cc(O)c12
REMARK SMILES IDX 4 1 3 2 2 3 1 4 21 5 19 6 18 7 16 8 15 9 14 10 13 11 5 12
REMARK SMILES IDX 6 13 7 14 8 15 12 16 10 17 9 18 11 20 20 22 17 24
REMARK H PARENT 9 19 11 21 20 23 17 25
REMARK Flexibility Score: inf
ROOT
ATOM      1  C   UNL     1      43.092   7.469  16.943  1.00  0.00     0.138 A 
ATOM      2  C   UNL     1      42.427   6.712  15.967  1.00  0.00     0.100 A 
ATOM      3  C   UNL     1      42.921   6.684  14.662  1.00  0.00     0.197 A 
ATOM      4  O   UNL     1      42.340   5.948  13.823  1.00  0.00    -0.289 OA
ATOM      5  C   UNL     1      44.067   7.444  14.326  1.00  0.00     0.107 A 
ATOM      6  C   UNL     1      44.635   7.523  13.019  1.00  0.00     0.134 A 
ATOM      7  C   UNL     1      45.838   8.213  12.831  1.00  0.00     0.093 A 
ATOM      8  C   UNL     1      46.463   8.876  13.891  1.00  0.00     0.123 A 
ATOM      9  C   UNL     1      45.887   8.850  15.159  1.00  0.00     0.094 A 
ATOM     10  C   UNL     1      44.706   8.141  15.386  1.00  0.00     0.146 A 
ATOM     11  O   UNL     1      44.197   8.129  16.614  1.00  0.00    -0.456 OA
ENDROOT
BRANCH   1  12
ATOM     12  C   UNL     1      42.610   7.535  18.346  1.00  0.00     0.021 A 
ATOM     13  C   UNL     1      41.262   7.791  18.652  1.00  0.00     0.016 A 
ATOM     14  C   UNL     1      40.839   7.859  19.982  1.00  0.00     0.051 A 
ATOM     15  C   UNL     1      41.745   7.678  21.031  1.00  0.00     0.157 A 
ATOM     16  C   UNL     1      43.523   7.368  19.401  1.00  0.00     0.062 A 
ATOM     17  C   UNL     1      43.108   7.433  20.736  1.00  0.00     0.158 A 
BRANCH  15  18
ATOM     18  O   UNL     1      41.257   7.754  22.336  1.00  0.00    -0.504 OA
ATOM     19  H   UNL     1      41.343   7.012  23.016  1.00  0.00     0.293 HD
ENDBRANCH  15  18
BRANCH  17  20
ATOM     20  O   UNL     1      44.072   7.248  21.729  1.00  0.00    -0.504 OA
ATOM     21  H   UNL     1      44.968   6.812  21.572  1.00  0.00     0.293 HD
ENDBRANCH  17  20
ENDBRANCH   1  12
BRANCH   6  22
ATOM     22  O   UNL     1      44.049   6.969  11.878  1.00  0.00    -0.507 OA
ATOM     23  H   UNL     1      44.463   6.972  10.958  1.00  0.00     0.293 HD
ENDBRANCH   6  22
BRANCH   8  24
ATOM     24  O   UNL     1      47.652   9.575  13.691  1.00  0.00    -0.508 OA
ATOM     25  H   UNL     1      48.517   9.284  14.131  1.00  0.00     0.293 HD
ENDBRANCH   8  24
TORSDOF 5
ENDMDL
MODEL 4
REMARK VINA RESULT:    -6.106      1.821      7.318
REMARK INTER + INTRA:          -7.441
REMARK INTER:                  -7.170
REMARK INTRA:                  -0.270
REMARK UNBOUND:                -0.264
REMARK SMILES O=c1cc(-c2ccc(O)c(O)c2)oc2cc(O)cc(O)c12
REMARK SMILES IDX 4 1 3 2 2 3 1 4 21 5 19 6 18 7 16 8 15 9 14 10 13 11 5 12
REMARK SMILES IDX 6 13 7 14 8 15 12 16 10 17 9 18 11 20 20 22 17 24
REMARK H PARENT 9 19 11 21 20 23 17 25
REMARK Flexibility Score: inf
ROOT
ATOM      1  C   UNL     1      56.266  -2.745  19.040  1.00  0.00     0.138 A 
ATOM      2  C   UNL     1      57.652  -2.897  18.901  1.00  0.00     0.100 A 
ATOM      3  C   UNL     1      58.252  -2.655  17.665  1.00  0.00     0.197 A 
ATOM      4  O   UNL     1      59.505  -2.739  17.586  1.00  0.00    -0.289 OA
ATOM      5  C   UNL     1      57.454  -2.288  16.555  1.00  0.00     0.107 A 
ATOM      6  C   UNL     1      57.952  -2.056  15.238  1.00  0.00     0.134 A 
ATOM      7  C   UNL     1      57.084  -1.585  14.246  1.00  0.00     0.093 A 
ATOM      8  C   UNL     1      55.724  -1.394  14.508  1.00  0.00     0.123 A 
ATOM      9  C   UNL     1      55.219  -1.670  15.777  1.00  0.00     0.094 A 
ATOM     10  C   UNL     1      56.066  -2.109  16.797  1.00  0.00     0.146 A 
ATOM     11  O   UNL     1      55.547  -2.347  17.997  1.00  0.00    -0.456 OA
ENDROOT
BRANCH   1  12
ATOM     12  C   UNL     1      55.576  -2.991  20.332  1.00  0.00     0.021 A 
ATOM     13  C   UNL     1      55.254  -4.291  20.761  1.00  0.00     0.016 A 
ATOM     14  C   UNL     1      54.595  -4.491  21.977  1.00  0.00     0.051 A 
ATOM     15  C   UNL     1      54.239  -3.408  22.785  1.00  0.00     0.157 A 
ATOM     16  C   UNL     1      55.205  -1.901  21.139  1.00  0.00     0.062 A 
ATOM     17  C   UNL     1      54.546  -2.093  22.358  1.00  0.00     0.158 A 
BRANCH  15  18
ATOM     18  O   UNL     1      53.586  -3.678  23.989  1.00  0.00    -0.504 OA
ATOM     19  H   UNL     1      53.358  -2.975  24.678  1.00  0.00     0.293 HD
ENDBRANCH  15  18
BRANCH  17  20
ATOM     20  O   UNL     1      54.218  -0.962  23.108  1.00  0.00    -0.504 OA
ATOM     21  H   UNL     1      54.740  -0.099  23.086  1.00  0.00     0.293 HD
ENDBRANCH  17  20
ENDBRANCH   1  12
BRANCH   6  22
ATOM     22  O   UNL     1      59.273  -2.294  14.848  1.00  0.00    -0.507 OA
ATOM     23  H   UNL     1      59.953  -2.801  15.395  1.00  0.00     0.293 HD
ENDBRANCH   6  22
BRANCH   8  24
ATOM     24  O   UNL     1      54.864  -0.941  13.510  1.00  0.00    -0.508 OA
ATOM     25  H   UNL     1      54.245  -1.573  13.016  1.00  0.00     0.293 HD
ENDBRANCH   8  24
TORSDOF 5
ENDMDL
MODEL 5
REMARK VINA RESULT:    -5.928      5.627      8.076
REMARK INTER + INTRA:          -7.232
REMARK INTER:                  -6.968
REMARK INTRA:                  -0.263
REMARK UNBOUND:                -0.264
REMARK SMILES O=c1cc(-c2ccc(O)c(O)c2)oc2cc(O)cc(O)c12
REMARK SMILES IDX 4 1 3 2 2 3 1 4 21 5 19 6 18 7 16 8 15 9 14 10 13 11 5 12
REMARK SMILES IDX 6 13 7 14 8 15 12 16 10 17 9 18 11 20 20 22 17 24
REMARK H PARENT 9 19 11 21 20 23 17 25
REMARK Flexibility Score: inf
ROOT
ATOM      1  C   UNL     1      52.940  -4.644  17.815  1.00  0.00     0.138 A 
ATOM      2  C   UNL     1      53.775  -4.637  16.688  1.00  0.00     0.100 A 
ATOM      3  C   UNL     1      53.249  -4.966  15.438  1.00  0.00     0.197 A 
ATOM      4  O   UNL     1      54.007  -4.889  14.436  1.00  0.00    -0.289 OA
ATOM      5  C   UNL     1      51.888  -5.336  15.322  1.00  0.00     0.107 A 
ATOM      6  C   UNL     1      51.254  -5.730  14.106  1.00  0.00     0.134 A 
ATOM      7  C   UNL     1      49.873  -5.961  14.092  1.00  0.00     0.093 A 
ATOM      8  C   UNL     1      49.115  -5.871  15.262  1.00  0.00     0.123 A 
ATOM      9  C   UNL     1      49.735  -5.539  16.465  1.00  0.00     0.094 A 
ATOM     10  C   UNL     1      51.104  -5.269  16.505  1.00  0.00     0.146 A 
ATOM     11  O   UNL     1      51.654  -4.942  17.670  1.00  0.00    -0.456 OA
ENDROOT
BRANCH   1  12
ATOM     12  C   UNL     1      53.448  -4.304  19.168  1.00  0.00     0.021 A 
ATOM     13  C   UNL     1      53.588  -5.279  20.171  1.00  0.00     0.016 A 
ATOM     14  C   UNL     1      54.058  -4.927  21.439  1.00  0.00     0.051 A 
ATOM     15  C   UNL     1      54.391  -3.602  21.736  1.00  0.00     0.157 A 
ATOM     16  C   UNL     1      53.770  -2.969  19.472  1.00  0.00     0.062 A 
ATOM     17  C   UNL     1      54.242  -2.608  20.739  1.00  0.00     0.158 A 
BRANCH  15  18
ATOM     18  O   UNL     1      54.858  -3.318  23.021  1.00  0.00    -0.504 OA
ATOM     19  H   UNL     1      54.387  -3.601  23.868  1.00  0.00     0.293 HD
ENDBRANCH  15  18
BRANCH  17  20
ATOM     20  O   UNL     1      54.550  -1.265  20.962  1.00  0.00    -0.504 OA
ATOM     21  H   UNL     1      54.708  -0.592  20.227  1.00  0.00     0.293 HD
ENDBRANCH  17  20
ENDBRANCH   1  12
BRANCH   6  22
ATOM     22  O   UNL     1      51.932  -5.932  12.901  1.00  0.00    -0.507 OA
ATOM     23  H   UNL     1      51.533  -5.794  11.985  1.00  0.00     0.293 HD
ENDBRANCH   6  22
BRANCH   8  24
ATOM     24  O   UNL     1      47.743  -6.119  15.241  1.00  0.00    -0.508 OA
ATOM     25  H   UNL     1      47.152  -5.893  16.033  1.00  0.00     0.293 HD
ENDBRANCH   8  24
TORSDOF 5
ENDMDL
MODEL 6
REMARK VINA RESULT:    -5.910     15.874     18.113
REMARK INTER + INTRA:          -7.211
REMARK INTER:                  -6.939
REMARK INTRA:                  -0.272
REMARK UNBOUND:                -0.264
REMARK SMILES O=c1cc(-c2ccc(O)c(O)c2)oc2cc(O)cc(O)c12
REMARK SMILES IDX 4 1 3 2 2 3 1 4 21 5 19 6 18 7 16 8 15 9 14 10 13 11 5 12
REMARK SMILES IDX 6 13 7 14 8 15 12 16 10 17 9 18 11 20 20 22 17 24
REMARK H PARENT 9 19 11 21 20 23 17 25
REMARK Flexibility Score: inf
ROOT
ATOM      1  C   UNL     1      43.133   7.806  17.240  1.00  0.00     0.138 A 
ATOM      2  C   UNL     1      44.189   8.654  16.878  1.00  0.00     0.100 A 
ATOM      3  C   UNL     1      44.598   8.715  15.545  1.00  0.00     0.197 A 
ATOM      4  O   UNL     1      45.506   9.531  15.240  1.00  0.00    -0.289 OA
ATOM      5  C   UNL     1      43.968   7.898  14.577  1.00  0.00     0.107 A 
ATOM      6  C   UNL     1      44.329   7.848  13.197  1.00  0.00     0.134 A 
ATOM      7  C   UNL     1      43.557   7.088  12.310  1.00  0.00     0.093 A 
ATOM      8  C   UNL     1      42.473   6.331  12.763  1.00  0.00     0.123 A 
ATOM      9  C   UNL     1      42.146   6.332  14.117  1.00  0.00     0.094 A 
ATOM     10  C   UNL     1      42.875   7.106  15.022  1.00  0.00     0.146 A 
ATOM     11  O   UNL     1      42.522   7.091  16.303  1.00  0.00    -0.456 OA
ENDROOT
BRANCH   1  12
ATOM     12  C   UNL     1      42.658   7.702  18.643  1.00  0.00     0.021 A 
ATOM     13  C   UNL     1      41.300   7.850  18.976  1.00  0.00     0.016 A 
ATOM     14  C   UNL     1      40.884   7.757  20.306  1.00  0.00     0.051 A 
ATOM     15  C   UNL     1      41.807   7.522  21.330  1.00  0.00     0.157 A 
ATOM     16  C   UNL     1      43.587   7.480  19.674  1.00  0.00     0.062 A 
ATOM     17  C   UNL     1      43.178   7.385  21.010  1.00  0.00     0.158 A 
BRANCH  15  18
ATOM     18  O   UNL     1      41.324   7.437  22.638  1.00  0.00    -0.504 OA
ATOM     19  H   UNL     1      41.192   8.234  23.244  1.00  0.00     0.293 HD
ENDBRANCH  15  18
BRANCH  17  20
ATOM     20  O   UNL     1      44.158   7.155  21.977  1.00  0.00    -0.504 OA
ATOM     21  H   UNL     1      44.035   7.343  22.961  1.00  0.00     0.293 HD
ENDBRANCH  17  20
ENDBRANCH   1  12
BRANCH   6  22
ATOM     22  O   UNL     1      45.442   8.497  12.656  1.00  0.00    -0.507 OA
ATOM     23  H   UNL     1      46.363   8.093  12.576  1.00  0.00     0.293 HD
ENDBRANCH   6  22
BRANCH   8  24
ATOM     24  O   UNL     1      41.720   5.565  11.875  1.00  0.00    -0.508 OA
ATOM     25  H   UNL     1      42.004   5.440  10.910  1.00  0.00     0.293 HD
ENDBRANCH   8  24
TORSDOF 5
ENDMDL
MODEL 7
REMARK VINA RESULT:    -5.857      4.691      6.344
REMARK INTER + INTRA:          -7.148
REMARK INTER:                  -6.829
REMARK INTRA:                  -0.318
REMARK UNBOUND:                -0.264
REMARK SMILES O=c1cc(-c2ccc(O)c(O)c2)oc2cc(O)cc(O)c12
REMARK SMILES IDX 4 1 3 2 2 3 1 4 21 5 19 6 18 7 16 8 15 9 14 10 13 11 5 12
REMARK SMILES IDX 6 13 7 14 8 15 12 16 10 17 9 18 11 20 20 22 17 24
REMARK H PARENT 9 19 11 21 20 23 17 25
REMARK Flexibility Score: inf
ROOT
ATOM      1  C   UNL     1      53.471  -4.133  17.727  1.00  0.00     0.138 A 
ATOM      2  C   UNL     1      54.715  -3.726  17.226  1.00  0.00     0.100 A 
ATOM      3  C   UNL     1      55.685  -3.238  18.103  1.00  0.00     0.197 A 
ATOM      4  O   UNL     1      56.814  -2.939  17.634  1.00  0.00    -0.289 OA
ATOM      5  C   UNL     1      55.394  -3.127  19.484  1.00  0.00     0.107 A 
ATOM      6  C   UNL     1      56.291  -2.605  20.464  1.00  0.00     0.134 A 
ATOM      7  C   UNL     1      55.936  -2.652  21.818  1.00  0.00     0.093 A 
ATOM      8  C   UNL     1      54.693  -3.148  22.221  1.00  0.00     0.123 A 
ATOM      9  C   UNL     1      53.790  -3.610  21.266  1.00  0.00     0.094 A 
ATOM     10  C   UNL     1      54.127  -3.607  19.911  1.00  0.00     0.146 A 
ATOM     11  O   UNL     1      53.242  -4.070  19.034  1.00  0.00    -0.456 OA
ENDROOT
BRANCH   1  12
ATOM     12  C   UNL     1      52.403  -4.659  16.839  1.00  0.00     0.021 A 
ATOM     13  C   UNL     1      52.566  -4.719  15.444  1.00  0.00     0.016 A 
ATOM     14  C   UNL     1      51.540  -5.208  14.632  1.00  0.00     0.051 A 
ATOM     15  C   UNL     1      50.333  -5.642  15.188  1.00  0.00     0.157 A 
ATOM     16  C   UNL     1      51.184  -5.082  17.396  1.00  0.00     0.062 A 
ATOM     17  C   UNL     1      50.151  -5.575  16.590  1.00  0.00     0.158 A 
BRANCH  15  18
ATOM     18  O   UNL     1      49.350  -6.124  14.322  1.00  0.00    -0.504 OA
ATOM     19  H   UNL     1      49.010  -7.075  14.326  1.00  0.00     0.293 HD
ENDBRANCH  15  18
BRANCH  17  20
ATOM     20  O   UNL     1      48.973  -5.985  17.217  1.00  0.00    -0.504 OA
ATOM     21  H   UNL     1      48.942  -6.445  18.115  1.00  0.00     0.293 HD
ENDBRANCH  17  20
ENDBRANCH   1  12
BRANCH   6  22
ATOM     22  O   UNL     1      57.519  -2.011  20.162  1.00  0.00    -0.507 OA
ATOM     23  H   UNL     1      57.684  -1.016  20.122  1.00  0.00     0.293 HD
ENDBRANCH   6  22
BRANCH   8  24
ATOM     24  O   UNL     1      54.342  -3.176  23.569  1.00  0.00    -0.508 OA
ATOM     25  H   UNL     1      53.969  -2.358  24.036  1.00  0.00     0.293 HD
ENDBRANCH   8  24
TORSDOF 5
ENDMDL
MODEL 8
REMARK VINA RESULT:    -5.839      5.499      8.043
REMARK INTER + INTRA:          -7.127
REMARK INTER:                  -6.858
REMARK INTRA:                  -0.269
REMARK UNBOUND:                -0.264
REMARK SMILES O=c1cc(-c2ccc(O)c(O)c2)oc2cc(O)cc(O)c12
REMARK SMILES IDX 4 1 3 2 2 3 1 4 21 5 19 6 18 7 16 8 15 9 14 10 13 11 5 12
REMARK SMILES IDX 6 13 7 14 8 15 12 16 10 17 9 18 11 20 20 22 17 24
REMARK H PARENT 9 19 11 21 20 23 17 25
REMARK Flexibility Score: inf
ROOT
ATOM      1  C   UNL     1      52.504  -4.820  18.238  1.00  0.00     0.138 A 
ATOM      2  C   UNL     1      51.155  -5.189  18.329  1.00  0.00     0.100 A 
ATOM      3  C   UNL     1      50.465  -5.567  17.177  1.00  0.00     0.197 A 
ATOM      4  O   UNL     1      49.273  -5.954  17.298  1.00  0.00    -0.289 OA
ATOM      5  C   UNL     1      51.121  -5.544  15.923  1.00  0.00     0.107 A 
ATOM      6  C   UNL     1      50.505  -5.869  14.677  1.00  0.00     0.134 A 
ATOM      7  C   UNL     1      51.285  -5.923  13.516  1.00  0.00     0.093 A 
ATOM      8  C   UNL     1      52.645  -5.605  13.545  1.00  0.00     0.123 A 
ATOM      9  C   UNL     1      53.243  -5.234  14.747  1.00  0.00     0.094 A 
ATOM     10  C   UNL     1      52.500  -5.204  15.929  1.00  0.00     0.146 A 
ATOM     11  O   UNL     1      53.112  -4.858  17.057  1.00  0.00    -0.456 OA
ENDROOT
BRANCH   1  12
ATOM     12  C   UNL     1      53.286  -4.408  19.431  1.00  0.00     0.021 A 
ATOM     13  C   UNL     1      53.717  -5.341  20.390  1.00  0.00     0.016 A 
ATOM     14  C   UNL     1      54.441  -4.923  21.509  1.00  0.00     0.051 A 
ATOM     15  C   UNL     1      54.747  -3.572  21.699  1.00  0.00     0.157 A 
ATOM     16  C   UNL     1      53.581  -3.048  19.631  1.00  0.00     0.062 A 
ATOM     17  C   UNL     1      54.308  -2.620  20.749  1.00  0.00     0.158 A 
BRANCH  15  18
ATOM     18  O   UNL     1      55.477  -3.222  22.837  1.00  0.00    -0.504 OA
ATOM     19  H   UNL     1      56.485  -3.159  22.863  1.00  0.00     0.293 HD
ENDBRANCH  15  18
BRANCH  17  20
ATOM     20  O   UNL     1      54.569  -1.255  20.873  1.00  0.00    -0.504 OA
ATOM     21  H   UNL     1      54.457  -0.588  20.124  1.00  0.00     0.293 HD
ENDBRANCH  17  20
ENDBRANCH   1  12
BRANCH   6  22
ATOM     22  O   UNL     1      49.139  -6.121  14.523  1.00  0.00    -0.507 OA
ATOM     23  H   UNL     1      48.631  -6.031  13.656  1.00  0.00     0.293 HD
ENDBRANCH   6  22
BRANCH   8  24
ATOM     24  O   UNL     1      53.410  -5.646  12.381  1.00  0.00    -0.508 OA
ATOM     25  H   UNL     1      53.455  -4.855  11.749  1.00  0.00     0.293 HD
ENDBRANCH   8  24
TORSDOF 5
ENDMDL
MODEL 9
REMARK VINA RESULT:    -5.833      1.819      7.176
REMARK INTER + INTRA:          -7.120
REMARK INTER:                  -6.824
REMARK INTRA:                  -0.296
REMARK UNBOUND:                -0.264
REMARK SMILES O=c1cc(-c2ccc(O)c(O)c2)oc2cc(O)cc(O)c12
REMARK SMILES IDX 4 1 3 2 2 3 1 4 21 5 19 6 18 7 16 8 15 9 14 10 13 11 5 12
REMARK SMILES IDX 6 13 7 14 8 15 12 16 10 17 9 18 11 20 20 22 17 24
REMARK H PARENT 9 19 11 21 20 23 17 25
REMARK Flexibility Score: inf
ROOT
ATOM      1  C   UNL     1      55.660  -3.321  19.136  1.00  0.00     0.138 A 
ATOM      2  C   UNL     1      55.173  -4.106  18.081  1.00  0.00     0.100 A 
ATOM      3  C   UNL     1      55.759  -4.004  16.819  1.00  0.00     0.197 A 
ATOM      4  O   UNL     1      55.343  -4.766  15.907  1.00  0.00    -0.289 OA
ATOM      5  C   UNL     1      56.816  -3.088  16.605  1.00  0.00     0.107 A 
ATOM      6  C   UNL     1      57.462  -2.870  15.351  1.00  0.00     0.134 A 
ATOM      7  C   UNL     1      58.574  -2.022  15.286  1.00  0.00     0.093 A 
ATOM      8  C   UNL     1      59.027  -1.338  16.418  1.00  0.00     0.123 A 
ATOM      9  C   UNL     1      58.370  -1.503  17.635  1.00  0.00     0.094 A 
ATOM     10  C   UNL     1      57.279  -2.368  17.739  1.00  0.00     0.146 A 
ATOM     11  O   UNL     1      56.689  -2.509  18.922  1.00  0.00    -0.456 OA
ENDROOT
BRANCH   1  12
ATOM     12  C   UNL     1      55.072  -3.389  20.498  1.00  0.00     0.021 A 
ATOM     13  C   UNL     1      54.686  -4.611  21.076  1.00  0.00     0.016 A 
ATOM     14  C   UNL     1      54.126  -4.643  22.355  1.00  0.00     0.051 A 
ATOM     15  C   UNL     1      53.934  -3.464  23.082  1.00  0.00     0.157 A 
ATOM     16  C   UNL     1      54.866  -2.203  21.223  1.00  0.00     0.062 A 
ATOM     17  C   UNL     1      54.306  -2.226  22.506  1.00  0.00     0.158 A 
BRANCH  15  18
ATOM     18  O   UNL     1      53.373  -3.566  24.356  1.00  0.00    -0.504 OA
ATOM     19  H   UNL     1      53.579  -2.934  25.116  1.00  0.00     0.293 HD
ENDBRANCH  15  18
BRANCH  17  20
ATOM     20  O   UNL     1      54.141  -1.008  23.168  1.00  0.00    -0.504 OA
ATOM     21  H   UNL     1      54.899  -0.474  23.567  1.00  0.00     0.293 HD
ENDBRANCH  17  20
ENDBRANCH   1  12
BRANCH   6  22
ATOM     22  O   UNL     1      57.039  -3.436  14.145  1.00  0.00    -0.507 OA
ATOM     23  H   UNL     1      56.265  -3.101  13.592  1.00  0.00     0.293 HD
ENDBRANCH   6  22
BRANCH   8  24
ATOM     24  O   UNL     1      60.125  -0.484  16.340  1.00  0.00    -0.508 OA
ATOM     25  H   UNL     1      60.395   0.104  17.121  1.00  0.00     0.293 HD
ENDBRANCH   8  24
TORSDOF 5
ENDMDL
