MODEL 1
REMARK VINA RESULT:    -1.147      0.000      0.000
REMARK INTER + INTRA:          -3.911
REMARK INTER:                  -2.892
REMARK INTRA:                  -1.020
REMARK UNBOUND:                -1.020
REMARK SMILES CCCCCCCCCCCCCCCCCCCCCCCCCCCC(=O)[O-]
REMARK SMILES IDX 15 1 16 2 17 3 18 4 19 5 20 6 21 7 22 8 23 9 24 10 25 11
REMARK SMILES IDX 26 12 27 13 28 14 29 15 30 16 14 17 13 18 12 19 11 20 10 21
REMARK SMILES IDX 9 22 8 23 7 24 6 25 5 26 4 27 3 28 2 29 1 30
REMARK H PARENT
REMARK Flexibility Score: inf
ROOT
ATOM      1  C   UNL     1      16.340  42.166   5.393  1.00  0.00     0.000 C 
ENDROOT
BRANCH   1   2
ATOM      2  C   UNL     1      17.073  41.885   6.718  1.00  0.00     0.000 C 
BRANCH   2   3
ATOM      3  C   UNL     1      16.336  42.481   7.940  1.00  0.00     0.000 C 
BRANCH   3   4
ATOM      4  C   UNL     1      17.124  42.355   9.258  1.00  0.00     0.000 C 
BRANCH   4   5
ATOM      5  C   UNL     1      16.694  43.392  10.307  1.00  0.00     0.000 C 
BRANCH   5   6
ATOM      6  C   UNL     1      16.991  42.935  11.750  1.00  0.00     0.000 C 
BRANCH   6   7
ATOM      7  C   UNL     1      15.753  42.437  12.520  1.00  0.00     0.000 C 
BRANCH   7   8
ATOM      8  C   UNL     1      16.096  41.873  13.910  1.00  0.00     0.000 C 
BRANCH   8   9
ATOM      9  C   UNL     1      16.731  40.472  13.840  1.00  0.00     0.000 C 
BRANCH   9  10
ATOM     10  C   UNL     1      15.704  39.324  13.811  1.00  0.00     0.000 C 
BRANCH  10  11
ATOM     11  C   UNL     1      15.689  38.581  12.464  1.00  0.00     0.000 C 
BRANCH  11  12
ATOM     12  C   UNL     1      15.487  39.514  11.259  1.00  0.00     0.006 C 
BRANCH  12  13
ATOM     13  C   UNL     1      16.110  38.992   9.950  1.00  0.00     0.053 C 
BRANCH  13  14
ATOM     14  C   UNL     1      15.085  38.595   8.933  1.00  0.00     0.041 C 
ATOM     15  O   UNL     1      15.257  38.855   7.711  1.00  0.00    -0.550 OA
ATOM     16  O   UNL     1      13.914  37.970   9.343  1.00  0.00    -0.550 OA
ENDBRANCH  13  14
ENDBRANCH  12  13
ENDBRANCH  11  12
ENDBRANCH  10  11
ENDBRANCH   9  10
ENDBRANCH   8   9
ENDBRANCH   7   8
ENDBRANCH   6   7
ENDBRANCH   5   6
ENDBRANCH   4   5
ENDBRANCH   3   4
ENDBRANCH   2   3
ENDBRANCH   1   2
BRANCH   1  17
ATOM     17  C   UNL     1      17.123  43.127   4.481  1.00  0.00     0.000 C 
BRANCH  17  18
ATOM     18  C   UNL     1      16.373  43.422   3.170  1.00  0.00     0.000 C 
BRANCH  18  19
ATOM     19  C   UNL     1      17.123  44.410   2.261  1.00  0.00     0.000 C 
BRANCH  19  20
ATOM     20  C   UNL     1      16.331  44.761   0.989  1.00  0.00     0.000 C 
BRANCH  20  21
ATOM     21  C   UNL     1      16.970  45.915   0.191  1.00  0.00     0.000 C 
BRANCH  21  22
ATOM     22  C   UNL     1      16.188  47.243   0.254  1.00  0.00    -0.000 C 
BRANCH  22  23
ATOM     23  C   UNL     1      15.926  47.847  -1.137  1.00  0.00    -0.000 C 
BRANCH  23  24
ATOM     24  C   UNL     1      14.965  46.997  -1.984  1.00  0.00    -0.000 C 
BRANCH  24  25
ATOM     25  C   UNL     1      14.308  45.842  -1.199  1.00  0.00    -0.000 C 
BRANCH  25  26
ATOM     26  C   UNL     1      12.861  46.170  -0.787  1.00  0.00    -0.000 C 
BRANCH  26  27
ATOM     27  C   UNL     1      11.882  45.022  -1.093  1.00  0.00    -0.000 C 
BRANCH  27  28
ATOM     28  C   UNL     1      12.362  43.673  -0.526  1.00  0.00    -0.000 C 
BRANCH  28  29
ATOM     29  C   UNL     1      12.957  43.803   0.884  1.00  0.00    -0.003 C 
ATOM     30  C   UNL     1      13.179  42.451   1.562  1.00  0.00     0.004 C 
ENDBRANCH  28  29
ENDBRANCH  27  28
ENDBRANCH  26  27
ENDBRANCH  25  26
ENDBRANCH  24  25
ENDBRANCH  23  24
ENDBRANCH  22  23
ENDBRANCH  21  22
ENDBRANCH  20  21
ENDBRANCH  19  20
ENDBRANCH  18  19
ENDBRANCH  17  18
ENDBRANCH   1  17
TORSDOF 26
ENDMDL
MODEL 2
REMARK VINA RESULT:    -0.937      1.488      2.284
REMARK INTER + INTRA:          -3.380
REMARK INTER:                  -1.482
REMARK INTRA:                  -1.898
REMARK UNBOUND:                -1.020
REMARK SMILES CCCCCCCCCCCCCCCCCCCCCCCCCCCC(=O)[O-]
REMARK SMILES IDX 15 1 16 2 17 3 18 4 19 5 20 6 21 7 22 8 23 9 24 10 25 11
REMARK SMILES IDX 26 12 27 13 28 14 29 15 30 16 14 17 13 18 12 19 11 20 10 21
REMARK SMILES IDX 9 22 8 23 7 24 6 25 5 26 4 27 3 28 2 29 1 30
REMARK H PARENT
REMARK Flexibility Score: inf
ROOT
ATOM      1  C   UNL     1      14.145  42.067   5.725  1.00  0.00     0.000 C 
ENDROOT
BRANCH   1   2
ATOM      2  C   UNL     1      15.359  41.738   6.613  1.00  0.00     0.000 C 
BRANCH   2   3
ATOM      3  C   UNL     1      15.122  42.102   8.098  1.00  0.00     0.000 C 
BRANCH   3   4
ATOM      4  C   UNL     1      16.165  41.495   9.056  1.00  0.00     0.000 C 
BRANCH   4   5
ATOM      5  C   UNL     1      16.739  42.527  10.037  1.00  0.00     0.000 C 
BRANCH   5   6
ATOM      6  C   UNL     1      16.825  41.990  11.481  1.00  0.00     0.000 C 
BRANCH   6   7
ATOM      7  C   UNL     1      16.386  43.002  12.557  1.00  0.00     0.000 C 
BRANCH   7   8
ATOM      8  C   UNL     1      15.611  42.351  13.715  1.00  0.00     0.000 C 
BRANCH   8   9
ATOM      9  C   UNL     1      16.130  40.941  14.055  1.00  0.00     0.000 C 
BRANCH   9  10
ATOM     10  C   UNL     1      15.030  39.865  14.088  1.00  0.00     0.000 C 
BRANCH  10  11
ATOM     11  C   UNL     1      15.578  38.454  13.812  1.00  0.00     0.000 C 
BRANCH  11  12
ATOM     12  C   UNL     1      16.906  38.461  13.037  1.00  0.00     0.006 C 
BRANCH  12  13
ATOM     13  C   UNL     1      16.758  38.146  11.536  1.00  0.00     0.053 C 
BRANCH  13  14
ATOM     14  C   UNL     1      15.786  37.038  11.265  1.00  0.00     0.041 C 
ATOM     15  O   UNL     1      16.082  35.843  11.537  1.00  0.00    -0.550 OA
ATOM     16  O   UNL     1      14.563  37.324  10.671  1.00  0.00    -0.550 OA
ENDBRANCH  13  14
ENDBRANCH  12  13
ENDBRANCH  11  12
ENDBRANCH  10  11
ENDBRANCH   9  10
ENDBRANCH   8   9
ENDBRANCH   7   8
ENDBRANCH   6   7
ENDBRANCH   5   6
ENDBRANCH   4   5
ENDBRANCH   3   4
ENDBRANCH   2   3
ENDBRANCH   1   2
BRANCH   1  17
ATOM     17  C   UNL     1      14.554  42.480   4.299  1.00  0.00     0.000 C 
BRANCH  17  18
ATOM     18  C   UNL     1      13.362  42.464   3.327  1.00  0.00     0.000 C 
BRANCH  18  19
ATOM     19  C   UNL     1      13.760  42.826   1.886  1.00  0.00     0.000 C 
BRANCH  19  20
ATOM     20  C   UNL     1      14.599  44.113   1.811  1.00  0.00     0.000 C 
BRANCH  20  21
ATOM     21  C   UNL     1      15.873  43.943   0.961  1.00  0.00     0.000 C 
BRANCH  21  22
ATOM     22  C   UNL     1      17.017  44.912   1.324  1.00  0.00    -0.000 C 
BRANCH  22  23
ATOM     23  C   UNL     1      17.031  46.174   0.442  1.00  0.00    -0.000 C 
BRANCH  23  24
ATOM     24  C   UNL     1      16.685  45.878  -1.026  1.00  0.00    -0.000 C 
BRANCH  24  25
ATOM     25  C   UNL     1      15.955  47.040  -1.734  1.00  0.00    -0.000 C 
BRANCH  25  26
ATOM     26  C   UNL     1      14.481  47.147  -1.301  1.00  0.00    -0.000 C 
BRANCH  26  27
ATOM     27  C   UNL     1      13.881  45.787  -0.899  1.00  0.00    -0.000 C 
BRANCH  27  28
ATOM     28  C   UNL     1      12.386  45.888  -0.541  1.00  0.00    -0.000 C 
BRANCH  28  29
ATOM     29  C   UNL     1      11.548  44.776  -1.189  1.00  0.00    -0.003 C 
ATOM     30  C   UNL     1      12.211  43.402  -1.096  1.00  0.00     0.004 C 
ENDBRANCH  28  29
ENDBRANCH  27  28
ENDBRANCH  26  27
ENDBRANCH  25  26
ENDBRANCH  24  25
ENDBRANCH  23  24
ENDBRANCH  22  23
ENDBRANCH  21  22
ENDBRANCH  20  21
ENDBRANCH  19  20
ENDBRANCH  18  19
ENDBRANCH  17  18
ENDBRANCH   1  17
TORSDOF 26
ENDMDL
MODEL 3
REMARK VINA RESULT:    -0.892      1.023      3.031
REMARK INTER + INTRA:          -3.268
REMARK INTER:                  -2.719
REMARK INTRA:                  -0.549
REMARK UNBOUND:                -1.020
REMARK SMILES CCCCCCCCCCCCCCCCCCCCCCCCCCCC(=O)[O-]
REMARK SMILES IDX 15 1 16 2 17 3 18 4 19 5 20 6 21 7 22 8 23 9 24 10 25 11
REMARK SMILES IDX 26 12 27 13 28 14 29 15 30 16 14 17 13 18 12 19 11 20 10 21
REMARK SMILES IDX 9 22 8 23 7 24 6 25 5 26 4 27 3 28 2 29 1 30
REMARK H PARENT
REMARK Flexibility Score: inf
ROOT
ATOM      1  C   UNL     1      15.388  43.277   8.275  1.00  0.00     0.000 C 
ENDROOT
BRANCH   1   2
ATOM      2  C   UNL     1      15.612  43.569   9.771  1.00  0.00     0.000 C 
BRANCH   2   3
ATOM      3  C   UNL     1      16.973  43.038  10.279  1.00  0.00     0.000 C 
BRANCH   3   4
ATOM      4  C   UNL     1      16.992  42.738  11.790  1.00  0.00     0.000 C 
BRANCH   4   5
ATOM      5  C   UNL     1      16.715  41.260  12.104  1.00  0.00     0.000 C 
BRANCH   5   6
ATOM      6  C   UNL     1      16.223  41.043  13.550  1.00  0.00     0.000 C 
BRANCH   6   7
ATOM      7  C   UNL     1      16.477  39.624  14.095  1.00  0.00     0.000 C 
BRANCH   7   8
ATOM      8  C   UNL     1      16.759  38.596  12.987  1.00  0.00     0.000 C 
BRANCH   8   9
ATOM      9  C   UNL     1      15.517  37.759  12.627  1.00  0.00     0.000 C 
BRANCH   9  10
ATOM     10  C   UNL     1      15.376  37.472  11.121  1.00  0.00     0.000 C 
BRANCH  10  11
ATOM     11  C   UNL     1      16.263  38.388  10.261  1.00  0.00     0.000 C 
BRANCH  11  12
ATOM     12  C   UNL     1      15.458  39.330   9.350  1.00  0.00     0.006 C 
BRANCH  12  13
ATOM     13  C   UNL     1      15.467  38.924   7.863  1.00  0.00     0.053 C 
BRANCH  13  14
ATOM     14  C   UNL     1      14.112  38.536   7.355  1.00  0.00     0.041 C 
ATOM     15  O   UNL     1      13.587  39.155   6.391  1.00  0.00    -0.550 OA
ATOM     16  O   UNL     1      13.411  37.512   7.978  1.00  0.00    -0.550 OA
ENDBRANCH  13  14
ENDBRANCH  12  13
ENDBRANCH  11  12
ENDBRANCH  10  11
ENDBRANCH   9  10
ENDBRANCH   8   9
ENDBRANCH   7   8
ENDBRANCH   6   7
ENDBRANCH   5   6
ENDBRANCH   4   5
ENDBRANCH   3   4
ENDBRANCH   2   3
ENDBRANCH   1   2
BRANCH   1  17
ATOM     17  C   UNL     1      15.877  41.874   7.871  1.00  0.00     0.000 C 
BRANCH  17  18
ATOM     18  C   UNL     1      17.125  41.932   6.971  1.00  0.00     0.000 C 
BRANCH  18  19
ATOM     19  C   UNL     1      16.785  41.859   5.473  1.00  0.00     0.000 C 
BRANCH  19  20
ATOM     20  C   UNL     1      17.039  43.189   4.744  1.00  0.00     0.000 C 
BRANCH  20  21
ATOM     21  C   UNL     1      16.432  43.215   3.327  1.00  0.00     0.000 C 
BRANCH  21  22
ATOM     22  C   UNL     1      17.124  44.192   2.354  1.00  0.00    -0.000 C 
BRANCH  22  23
ATOM     23  C   UNL     1      16.240  44.558   1.149  1.00  0.00    -0.000 C 
BRANCH  23  24
ATOM     24  C   UNL     1      17.020  45.268   0.030  1.00  0.00    -0.000 C 
BRANCH  24  25
ATOM     25  C   UNL     1      16.603  46.740  -0.175  1.00  0.00    -0.000 C 
BRANCH  25  26
ATOM     26  C   UNL     1      15.161  46.865  -0.699  1.00  0.00    -0.000 C 
BRANCH  26  27
ATOM     27  C   UNL     1      14.409  45.521  -0.694  1.00  0.00    -0.000 C 
BRANCH  27  28
ATOM     28  C   UNL     1      12.905  45.688  -0.981  1.00  0.00    -0.000 C 
BRANCH  28  29
ATOM     29  C   UNL     1      12.045  44.650  -0.245  1.00  0.00    -0.003 C 
ATOM     30  C   UNL     1      12.879  43.629   0.527  1.00  0.00     0.004 C 
ENDBRANCH  28  29
ENDBRANCH  27  28
ENDBRANCH  26  27
ENDBRANCH  25  26
ENDBRANCH  24  25
ENDBRANCH  23  24
ENDBRANCH  22  23
ENDBRANCH  21  22
ENDBRANCH  20  21
ENDBRANCH  19  20
ENDBRANCH  18  19
ENDBRANCH  17  18
ENDBRANCH   1  17
TORSDOF 26
ENDMDL
MODEL 4
REMARK VINA RESULT:    -0.846      1.979      3.267
REMARK INTER + INTRA:          -3.152
REMARK INTER:                  -3.170
REMARK INTRA:                   0.018
REMARK UNBOUND:                -1.020
REMARK SMILES CCCCCCCCCCCCCCCCCCCCCCCCCCCC(=O)[O-]
REMARK SMILES IDX 15 1 16 2 17 3 18 4 19 5 20 6 21 7 22 8 23 9 24 10 25 11
REMARK SMILES IDX 26 12 27 13 28 14 29 15 30 16 14 17 13 18 12 19 11 20 10 21
REMARK SMILES IDX 9 22 8 23 7 24 6 25 5 26 4 27 3 28 2 29 1 30
REMARK H PARENT
REMARK Flexibility Score: inf
ROOT
ATOM      1  C   UNL     1      16.252  41.874   5.902  1.00  0.00     0.000 C 
ENDROOT
BRANCH   1   2
ATOM      2  C   UNL     1      17.090  40.806   6.631  1.00  0.00     0.000 C 
BRANCH   2   3
ATOM      3  C   UNL     1      17.004  40.936   8.170  1.00  0.00     0.000 C 
BRANCH   3   4
ATOM      4  C   UNL     1      15.593  40.678   8.732  1.00  0.00     0.000 C 
BRANCH   4   5
ATOM      5  C   UNL     1      14.984  39.363   8.224  1.00  0.00     0.000 C 
BRANCH   5   6
ATOM      6  C   UNL     1      14.106  38.666   9.284  1.00  0.00     0.000 C 
BRANCH   6   7
ATOM      7  C   UNL     1      14.837  38.361  10.606  1.00  0.00     0.000 C 
BRANCH   7   8
ATOM      8  C   UNL     1      15.304  36.900  10.711  1.00  0.00     0.000 C 
BRANCH   8   9
ATOM      9  C   UNL     1      16.147  36.638  11.974  1.00  0.00     0.000 C 
BRANCH   9  10
ATOM     10  C   UNL     1      15.875  37.630  13.120  1.00  0.00     0.000 C 
BRANCH  10  11
ATOM     11  C   UNL     1      16.596  38.974  12.920  1.00  0.00     0.000 C 
BRANCH  11  12
ATOM     12  C   UNL     1      15.779  40.180  13.413  1.00  0.00     0.006 C 
BRANCH  12  13
ATOM     13  C   UNL     1      16.604  41.471  13.580  1.00  0.00     0.053 C 
BRANCH  13  14
ATOM     14  C   UNL     1      16.081  42.609  12.758  1.00  0.00     0.041 C 
ATOM     15  O   UNL     1      16.415  42.734  11.549  1.00  0.00    -0.550 OA
ATOM     16  O   UNL     1      15.252  43.558  13.344  1.00  0.00    -0.550 OA
ENDBRANCH  13  14
ENDBRANCH  12  13
ENDBRANCH  11  12
ENDBRANCH  10  11
ENDBRANCH   9  10
ENDBRANCH   8   9
ENDBRANCH   7   8
ENDBRANCH   6   7
ENDBRANCH   5   6
ENDBRANCH   4   5
ENDBRANCH   3   4
ENDBRANCH   2   3
ENDBRANCH   1   2
BRANCH   1  17
ATOM     17  C   UNL     1      17.125  42.961   5.250  1.00  0.00     0.000 C 
BRANCH  17  18
ATOM     18  C   UNL     1      17.125  42.860   3.714  1.00  0.00     0.000 C 
BRANCH  18  19
ATOM     19  C   UNL     1      17.059  44.232   3.024  1.00  0.00     0.000 C 
BRANCH  19  20
ATOM     20  C   UNL     1      16.266  44.194   1.707  1.00  0.00     0.000 C 
BRANCH  20  21
ATOM     21  C   UNL     1      17.044  44.807   0.526  1.00  0.00     0.000 C 
BRANCH  21  22
ATOM     22  C   UNL     1      16.400  46.074  -0.074  1.00  0.00    -0.000 C 
BRANCH  22  23
ATOM     23  C   UNL     1      15.121  45.770  -0.873  1.00  0.00    -0.000 C 
BRANCH  23  24
ATOM     24  C   UNL     1      13.886  45.593   0.026  1.00  0.00    -0.000 C 
BRANCH  24  25
ATOM     25  C   UNL     1      12.554  45.913  -0.687  1.00  0.00    -0.000 C 
BRANCH  25  26
ATOM     26  C   UNL     1      11.747  44.641  -1.004  1.00  0.00    -0.000 C 
BRANCH  26  27
ATOM     27  C   UNL     1      12.440  43.359  -0.506  1.00  0.00    -0.000 C 
BRANCH  27  28
ATOM     28  C   UNL     1      12.841  43.447   0.979  1.00  0.00    -0.000 C 
BRANCH  28  29
ATOM     29  C   UNL     1      12.824  42.080   1.677  1.00  0.00    -0.003 C 
ATOM     30  C   UNL     1      12.791  42.192   3.201  1.00  0.00     0.004 C 
ENDBRANCH  28  29
ENDBRANCH  27  28
ENDBRANCH  26  27
ENDBRANCH  25  26
ENDBRANCH  24  25
ENDBRANCH  23  24
ENDBRANCH  22  23
ENDBRANCH  21  22
ENDBRANCH  20  21
ENDBRANCH  19  20
ENDBRANCH  18  19
ENDBRANCH  17  18
ENDBRANCH   1  17
TORSDOF 26
ENDMDL
MODEL 5
REMARK VINA RESULT:    -0.824      2.966     11.884
REMARK INTER + INTRA:          -3.096
REMARK INTER:                  -0.873
REMARK INTRA:                  -2.223
REMARK UNBOUND:                -1.020
REMARK SMILES CCCCCCCCCCCCCCCCCCCCCCCCCCCC(=O)[O-]
REMARK SMILES IDX 15 1 16 2 17 3 18 4 19 5 20 6 21 7 22 8 23 9 24 10 25 11
REMARK SMILES IDX 26 12 27 13 28 14 29 15 30 16 14 17 13 18 12 19 11 20 10 21
REMARK SMILES IDX 9 22 8 23 7 24 6 25 5 26 4 27 3 28 2 29 1 30
REMARK H PARENT
REMARK Flexibility Score: inf
ROOT
ATOM      1  C   UNL     1      15.038  41.698   6.771  1.00  0.00     0.000 C 
ENDROOT
BRANCH   1   2
ATOM      2  C   UNL     1      14.994  41.607   5.234  1.00  0.00     0.000 C 
BRANCH   2   3
ATOM      3  C   UNL     1      13.759  42.319   4.635  1.00  0.00     0.000 C 
BRANCH   3   4
ATOM      4  C   UNL     1      13.947  42.752   3.168  1.00  0.00     0.000 C 
BRANCH   4   5
ATOM      5  C   UNL     1      15.238  43.553   2.948  1.00  0.00     0.000 C 
BRANCH   5   6
ATOM      6  C   UNL     1      15.418  43.998   1.482  1.00  0.00     0.000 C 
BRANCH   6   7
ATOM      7  C   UNL     1      16.840  44.482   1.140  1.00  0.00     0.000 C 
BRANCH   7   8
ATOM      8  C   UNL     1      16.892  45.346  -0.131  1.00  0.00     0.000 C 
BRANCH   8   9
ATOM      9  C   UNL     1      16.579  46.828   0.147  1.00  0.00     0.000 C 
BRANCH   9  10
ATOM     10  C   UNL     1      16.093  47.604  -1.091  1.00  0.00     0.000 C 
BRANCH  10  11
ATOM     11  C   UNL     1      14.582  47.442  -1.332  1.00  0.00     0.000 C 
BRANCH  11  12
ATOM     12  C   UNL     1      14.110  45.980  -1.263  1.00  0.00     0.006 C 
BRANCH  12  13
ATOM     13  C   UNL     1      12.987  45.732  -0.237  1.00  0.00     0.053 C 
BRANCH  13  14
ATOM     14  C   UNL     1      12.176  44.511  -0.544  1.00  0.00     0.041 C 
ATOM     15  O   UNL     1      12.249  43.490   0.191  1.00  0.00    -0.550 OA
ATOM     16  O   UNL     1      11.366  44.487  -1.673  1.00  0.00    -0.550 OA
ENDBRANCH  13  14
ENDBRANCH  12  13
ENDBRANCH  11  12
ENDBRANCH  10  11
ENDBRANCH   9  10
ENDBRANCH   8   9
ENDBRANCH   7   8
ENDBRANCH   6   7
ENDBRANCH   5   6
ENDBRANCH   4   5
ENDBRANCH   3   4
ENDBRANCH   2   3
ENDBRANCH   1   2
BRANCH   1  17
ATOM     17  C   UNL     1      16.308  41.059   7.361  1.00  0.00     0.000 C 
BRANCH  17  18
ATOM     18  C   UNL     1      17.081  42.034   8.267  1.00  0.00     0.000 C 
BRANCH  18  19
ATOM     19  C   UNL     1      16.188  43.143   8.850  1.00  0.00     0.000 C 
BRANCH  19  20
ATOM     20  C   UNL     1      16.241  43.198  10.386  1.00  0.00     0.000 C 
BRANCH  20  21
ATOM     21  C   UNL     1      16.742  41.881  11.011  1.00  0.00     0.000 C 
BRANCH  21  22
ATOM     22  C   UNL     1      15.969  41.439  12.272  1.00  0.00    -0.000 C 
BRANCH  22  23
ATOM     23  C   UNL     1      16.900  41.066  13.439  1.00  0.00    -0.000 C 
BRANCH  23  24
ATOM     24  C   UNL     1      16.931  39.554  13.716  1.00  0.00    -0.000 C 
BRANCH  24  25
ATOM     25  C   UNL     1      17.125  38.698  12.446  1.00  0.00    -0.000 C 
BRANCH  25  26
ATOM     26  C   UNL     1      16.310  37.393  12.497  1.00  0.00    -0.000 C 
BRANCH  26  27
ATOM     27  C   UNL     1      15.513  37.140  11.204  1.00  0.00    -0.000 C 
BRANCH  27  28
ATOM     28  C   UNL     1      15.717  38.254  10.160  1.00  0.00    -0.000 C 
BRANCH  28  29
ATOM     29  C   UNL     1      14.391  38.859   9.676  1.00  0.00    -0.003 C 
ATOM     30  C   UNL     1      14.018  38.413   8.262  1.00  0.00     0.004 C 
ENDBRANCH  28  29
ENDBRANCH  27  28
ENDBRANCH  26  27
ENDBRANCH  25  26
ENDBRANCH  24  25
ENDBRANCH  23  24
ENDBRANCH  22  23
ENDBRANCH  21  22
ENDBRANCH  20  21
ENDBRANCH  19  20
ENDBRANCH  18  19
ENDBRANCH  17  18
ENDBRANCH   1  17
TORSDOF 26
ENDMDL
MODEL 6
REMARK VINA RESULT:    -0.724      2.784     11.767
REMARK INTER + INTRA:          -2.845
REMARK INTER:                  -1.038
REMARK INTRA:                  -1.807
REMARK UNBOUND:                -1.020
REMARK SMILES CCCCCCCCCCCCCCCCCCCCCCCCCCCC(=O)[O-]
REMARK SMILES IDX 15 1 16 2 17 3 18 4 19 5 20 6 21 7 22 8 23 9 24 10 25 11
REMARK SMILES IDX 26 12 27 13 28 14 29 15 30 16 14 17 13 18 12 19 11 20 10 21
REMARK SMILES IDX 9 22 8 23 7 24 6 25 5 26 4 27 3 28 2 29 1 30
REMARK H PARENT
REMARK Flexibility Score: inf
ROOT
ATOM      1  C   UNL     1      15.095  40.157   6.945  1.00  0.00     0.000 C 
ENDROOT
BRANCH   1   2
ATOM      2  C   UNL     1      15.328  41.576   6.392  1.00  0.00     0.000 C 
BRANCH   2   3
ATOM      3  C   UNL     1      16.759  41.766   5.838  1.00  0.00     0.000 C 
BRANCH   3   4
ATOM      4  C   UNL     1      16.979  43.128   5.153  1.00  0.00     0.000 C 
BRANCH   4   5
ATOM      5  C   UNL     1      17.119  43.008   3.628  1.00  0.00     0.000 C 
BRANCH   5   6
ATOM      6  C   UNL     1      16.709  44.300   2.891  1.00  0.00     0.000 C 
BRANCH   6   7
ATOM      7  C   UNL     1      16.871  44.231   1.360  1.00  0.00     0.000 C 
BRANCH   7   8
ATOM      8  C   UNL     1      16.972  45.617   0.702  1.00  0.00     0.000 C 
BRANCH   8   9
ATOM      9  C   UNL     1      16.823  45.558  -0.829  1.00  0.00     0.000 C 
BRANCH   9  10
ATOM     10  C   UNL     1      16.073  46.762  -1.429  1.00  0.00     0.000 C 
BRANCH  10  11
ATOM     11  C   UNL     1      15.078  47.389  -0.436  1.00  0.00     0.000 C 
BRANCH  11  12
ATOM     12  C   UNL     1      14.081  46.374   0.147  1.00  0.00     0.006 C 
BRANCH  12  13
ATOM     13  C   UNL     1      13.362  45.521  -0.915  1.00  0.00     0.053 C 
BRANCH  13  14
ATOM     14  C   UNL     1      12.672  44.325  -0.334  1.00  0.00     0.041 C 
ATOM     15  O   UNL     1      11.505  44.017  -0.700  1.00  0.00    -0.550 OA
ATOM     16  O   UNL     1      13.306  43.572   0.646  1.00  0.00    -0.550 OA
ENDBRANCH  13  14
ENDBRANCH  12  13
ENDBRANCH  11  12
ENDBRANCH  10  11
ENDBRANCH   9  10
ENDBRANCH   8   9
ENDBRANCH   7   8
ENDBRANCH   6   7
ENDBRANCH   5   6
ENDBRANCH   4   5
ENDBRANCH   3   4
ENDBRANCH   2   3
ENDBRANCH   1   2
BRANCH   1  17
ATOM     17  C   UNL     1      16.376  39.304   6.934  1.00  0.00     0.000 C 
BRANCH  17  18
ATOM     18  C   UNL     1      16.720  38.757   8.330  1.00  0.00     0.000 C 
BRANCH  18  19
ATOM     19  C   UNL     1      15.776  39.279   9.426  1.00  0.00     0.000 C 
BRANCH  19  20
ATOM     20  C   UNL     1      14.934  38.159  10.063  1.00  0.00     0.000 C 
BRANCH  20  21
ATOM     21  C   UNL     1      15.703  37.382  11.149  1.00  0.00     0.000 C 
BRANCH  21  22
ATOM     22  C   UNL     1      15.704  38.057  12.537  1.00  0.00    -0.000 C 
BRANCH  22  23
ATOM     23  C   UNL     1      14.805  39.304  12.593  1.00  0.00    -0.000 C 
BRANCH  23  24
ATOM     24  C   UNL     1      15.030  40.146  13.860  1.00  0.00    -0.000 C 
BRANCH  24  25
ATOM     25  C   UNL     1      15.513  41.583  13.568  1.00  0.00    -0.000 C 
BRANCH  25  26
ATOM     26  C   UNL     1      16.897  41.603  12.894  1.00  0.00    -0.000 C 
BRANCH  26  27
ATOM     27  C   UNL     1      16.993  42.648  11.767  1.00  0.00    -0.000 C 
BRANCH  27  28
ATOM     28  C   UNL     1      16.819  42.024  10.370  1.00  0.00    -0.000 C 
BRANCH  28  29
ATOM     29  C   UNL     1      16.363  43.046   9.319  1.00  0.00    -0.003 C 
ATOM     30  C   UNL     1      14.929  43.529   9.544  1.00  0.00     0.004 C 
ENDBRANCH  28  29
ENDBRANCH  27  28
ENDBRANCH  26  27
ENDBRANCH  25  26
ENDBRANCH  24  25
ENDBRANCH  23  24
ENDBRANCH  22  23
ENDBRANCH  21  22
ENDBRANCH  20  21
ENDBRANCH  19  20
ENDBRANCH  18  19
ENDBRANCH  17  18
ENDBRANCH   1  17
TORSDOF 26
ENDMDL
MODEL 7
REMARK VINA RESULT:    -0.670      1.209      2.895
REMARK INTER + INTRA:          -2.708
REMARK INTER:                  -1.094
REMARK INTRA:                  -1.613
REMARK UNBOUND:                -1.020
REMARK SMILES CCCCCCCCCCCCCCCCCCCCCCCCCCCC(=O)[O-]
REMARK SMILES IDX 15 1 16 2 17 3 18 4 19 5 20 6 21 7 22 8 23 9 24 10 25 11
REMARK SMILES IDX 26 12 27 13 28 14 29 15 30 16 14 17 13 18 12 19 11 20 10 21
REMARK SMILES IDX 9 22 8 23 7 24 6 25 5 26 4 27 3 28 2 29 1 30
REMARK H PARENT
REMARK Flexibility Score: inf
ROOT
ATOM      1  C   UNL     1      14.822  41.690   5.957  1.00  0.00     0.000 C 
ENDROOT
BRANCH   1   2
ATOM      2  C   UNL     1      16.166  41.761   6.705  1.00  0.00     0.000 C 
BRANCH   2   3
ATOM      3  C   UNL     1      16.095  42.659   7.963  1.00  0.00     0.000 C 
BRANCH   3   4
ATOM      4  C   UNL     1      16.183  41.875   9.286  1.00  0.00     0.000 C 
BRANCH   4   5
ATOM      5  C   UNL     1      16.148  42.789  10.520  1.00  0.00     0.000 C 
BRANCH   5   6
ATOM      6  C   UNL     1      17.125  42.334  11.624  1.00  0.00     0.000 C 
BRANCH   6   7
ATOM      7  C   UNL     1      16.474  41.478  12.728  1.00  0.00     0.000 C 
BRANCH   7   8
ATOM      8  C   UNL     1      16.657  39.968  12.505  1.00  0.00     0.000 C 
BRANCH   8   9
ATOM      9  C   UNL     1      15.351  39.177  12.707  1.00  0.00     0.000 C 
BRANCH   9  10
ATOM     10  C   UNL     1      15.539  37.649  12.679  1.00  0.00     0.000 C 
BRANCH  10  11
ATOM     11  C   UNL     1      15.340  37.056  11.274  1.00  0.00     0.000 C 
BRANCH  11  12
ATOM     12  C   UNL     1      14.176  37.701  10.503  1.00  0.00     0.006 C 
BRANCH  12  13
ATOM     13  C   UNL     1      14.599  38.867   9.588  1.00  0.00     0.053 C 
BRANCH  13  14
ATOM     14  C   UNL     1      14.531  38.520   8.132  1.00  0.00     0.041 C 
ATOM     15  O   UNL     1      15.515  38.735   7.374  1.00  0.00    -0.550 OA
ATOM     16  O   UNL     1      13.358  37.995   7.603  1.00  0.00    -0.550 OA
ENDBRANCH  13  14
ENDBRANCH  12  13
ENDBRANCH  11  12
ENDBRANCH  10  11
ENDBRANCH   9  10
ENDBRANCH   8   9
ENDBRANCH   7   8
ENDBRANCH   6   7
ENDBRANCH   5   6
ENDBRANCH   4   5
ENDBRANCH   3   4
ENDBRANCH   2   3
ENDBRANCH   1   2
BRANCH   1  17
ATOM     17  C   UNL     1      14.918  42.236   4.521  1.00  0.00     0.000 C 
BRANCH  17  18
ATOM     18  C   UNL     1      13.539  42.605   3.947  1.00  0.00     0.000 C 
BRANCH  18  19
ATOM     19  C   UNL     1      13.491  42.530   2.412  1.00  0.00     0.000 C 
BRANCH  19  20
ATOM     20  C   UNL     1      12.198  43.130   1.831  1.00  0.00     0.000 C 
BRANCH  20  21
ATOM     21  C   UNL     1      12.286  43.373   0.312  1.00  0.00     0.000 C 
BRANCH  21  22
ATOM     22  C   UNL     1      13.601  44.032  -0.154  1.00  0.00    -0.000 C 
BRANCH  22  23
ATOM     23  C   UNL     1      13.694  45.517   0.240  1.00  0.00    -0.000 C 
BRANCH  23  24
ATOM     24  C   UNL     1      13.430  46.465  -0.942  1.00  0.00    -0.000 C 
BRANCH  24  25
ATOM     25  C   UNL     1      14.701  47.170  -1.462  1.00  0.00    -0.000 C 
BRANCH  25  26
ATOM     26  C   UNL     1      15.781  47.297  -0.372  1.00  0.00    -0.000 C 
BRANCH  26  27
ATOM     27  C   UNL     1      17.015  46.421  -0.655  1.00  0.00    -0.000 C 
BRANCH  27  28
ATOM     28  C   UNL     1      16.934  45.048   0.039  1.00  0.00    -0.000 C 
BRANCH  28  29
ATOM     29  C   UNL     1      16.848  45.164   1.568  1.00  0.00    -0.003 C 
ATOM     30  C   UNL     1      17.118  43.838   2.279  1.00  0.00     0.004 C 
ENDBRANCH  28  29
ENDBRANCH  27  28
ENDBRANCH  26  27
ENDBRANCH  25  26
ENDBRANCH  24  25
ENDBRANCH  23  24
ENDBRANCH  22  23
ENDBRANCH  21  22
ENDBRANCH  20  21
ENDBRANCH  19  20
ENDBRANCH  18  19
ENDBRANCH  17  18
ENDBRANCH   1  17
TORSDOF 26
ENDMDL
MODEL 8
REMARK VINA RESULT:    -0.333      2.333     11.608
REMARK INTER + INTRA:          -1.859
REMARK INTER:                   0.107
REMARK INTRA:                  -1.965
REMARK UNBOUND:                -1.020
REMARK SMILES CCCCCCCCCCCCCCCCCCCCCCCCCCCC(=O)[O-]
REMARK SMILES IDX 15 1 16 2 17 3 18 4 19 5 20 6 21 7 22 8 23 9 24 10 25 11
REMARK SMILES IDX 26 12 27 13 28 14 29 15 30 16 14 17 13 18 12 19 11 20 10 21
REMARK SMILES IDX 9 22 8 23 7 24 6 25 5 26 4 27 3 28 2 29 1 30
REMARK H PARENT
REMARK Flexibility Score: inf
ROOT
ATOM      1  C   UNL     1      15.716  41.976   5.812  1.00  0.00     0.000 C 
ENDROOT
BRANCH   1   2
ATOM      2  C   UNL     1      17.125  42.459   5.419  1.00  0.00     0.000 C 
BRANCH   2   3
ATOM      3  C   UNL     1      17.088  43.666   4.453  1.00  0.00     0.000 C 
BRANCH   3   4
ATOM      4  C   UNL     1      16.852  43.273   2.982  1.00  0.00     0.000 C 
BRANCH   4   5
ATOM      5  C   UNL     1      16.175  44.388   2.172  1.00  0.00     0.000 C 
BRANCH   5   6
ATOM      6  C   UNL     1      17.125  45.034   1.142  1.00  0.00     0.000 C 
BRANCH   6   7
ATOM      7  C   UNL     1      16.509  45.208  -0.259  1.00  0.00     0.000 C 
BRANCH   7   8
ATOM      8  C   UNL     1      15.863  46.589  -0.465  1.00  0.00     0.000 C 
BRANCH   8   9
ATOM      9  C   UNL     1      14.356  46.590  -0.147  1.00  0.00     0.000 C 
BRANCH   9  10
ATOM     10  C   UNL     1      13.501  45.840  -1.186  1.00  0.00     0.000 C 
BRANCH  10  11
ATOM     11  C   UNL     1      12.029  45.714  -0.756  1.00  0.00     0.000 C 
BRANCH  11  12
ATOM     12  C   UNL     1      11.560  44.256  -0.617  1.00  0.00     0.006 C 
BRANCH  12  13
ATOM     13  C   UNL     1      12.709  43.240  -0.465  1.00  0.00     0.053 C 
BRANCH  13  14
ATOM     14  C   UNL     1      13.034  42.935   0.965  1.00  0.00     0.041 C 
ATOM     15  O   UNL     1      13.281  43.865   1.779  1.00  0.00    -0.550 OA
ATOM     16  O   UNL     1      13.103  41.614   1.389  1.00  0.00    -0.550 OA
ENDBRANCH  13  14
ENDBRANCH  12  13
ENDBRANCH  11  12
ENDBRANCH  10  11
ENDBRANCH   9  10
ENDBRANCH   8   9
ENDBRANCH   7   8
ENDBRANCH   6   7
ENDBRANCH   5   6
ENDBRANCH   4   5
ENDBRANCH   3   4
ENDBRANCH   2   3
ENDBRANCH   1   2
BRANCH   1  17
ATOM     17  C   UNL     1      15.722  41.135   7.102  1.00  0.00     0.000 C 
BRANCH  17  18
ATOM     18  C   UNL     1      17.046  41.270   7.875  1.00  0.00     0.000 C 
BRANCH  18  19
ATOM     19  C   UNL     1      16.931  42.190   9.102  1.00  0.00     0.000 C 
BRANCH  19  20
ATOM     20  C   UNL     1      17.037  41.421  10.430  1.00  0.00     0.000 C 
BRANCH  20  21
ATOM     21  C   UNL     1      16.750  42.309  11.656  1.00  0.00     0.000 C 
BRANCH  21  22
ATOM     22  C   UNL     1      16.676  41.546  12.995  1.00  0.00    -0.000 C 
BRANCH  22  23
ATOM     23  C   UNL     1      16.663  40.018  12.809  1.00  0.00    -0.000 C 
BRANCH  23  24
ATOM     24  C   UNL     1      15.518  39.334  13.573  1.00  0.00    -0.000 C 
BRANCH  24  25
ATOM     25  C   UNL     1      15.125  37.958  12.994  1.00  0.00    -0.000 C 
BRANCH  25  26
ATOM     26  C   UNL     1      16.104  37.489  11.902  1.00  0.00    -0.000 C 
BRANCH  26  27
ATOM     27  C   UNL     1      15.501  37.576  10.487  1.00  0.00    -0.000 C 
BRANCH  27  28
ATOM     28  C   UNL     1      14.199  38.400  10.453  1.00  0.00    -0.000 C 
BRANCH  28  29
ATOM     29  C   UNL     1      13.968  39.082   9.097  1.00  0.00    -0.003 C 
ATOM     30  C   UNL     1      14.064  38.111   7.920  1.00  0.00     0.004 C 
ENDBRANCH  28  29
ENDBRANCH  27  28
ENDBRANCH  26  27
ENDBRANCH  25  26
ENDBRANCH  24  25
ENDBRANCH  23  24
ENDBRANCH  22  23
ENDBRANCH  21  22
ENDBRANCH  20  21
ENDBRANCH  19  20
ENDBRANCH  18  19
ENDBRANCH  17  18
ENDBRANCH   1  17
TORSDOF 26
ENDMDL
