MODEL 1
REMARK VINA RESULT:    -3.735      0.000      0.000
REMARK INTER + INTRA:          -4.909
REMARK INTER:                  -5.045
REMARK INTRA:                   0.136
REMARK UNBOUND:                 0.136
REMARK SMILES C=C(C)[C@H]1CC[C@H](C)C2=C(C1)[C@H](C)CC2
REMARK SMILES IDX 10 1 9 2 15 3 14 4 12 5 13 6 7 7 8 8 6 9 11 11 4 12 5 13
REMARK SMILES IDX 2 15 1 16 3 17
REMARK H PARENT
REMARK Flexibility Score: 80.00
ROOT
ATOM      1  C   UNL     1      30.341  24.187  12.063  1.00  0.00    -0.067 C 
ATOM      2  C   UNL     1      29.109  23.814  12.409  1.00  0.00    -0.068 C 
ATOM      3  C   UNL     1      29.139  22.693  13.400  1.00  0.00     0.032 C 
ATOM      4  C   UNL     1      30.614  22.546  13.775  1.00  0.00     0.012 C 
ATOM      5  C   UNL     1      31.395  23.370  12.740  1.00  0.00     0.012 C 
ATOM      6  C   UNL     1      32.123  22.472  11.734  1.00  0.00     0.012 C 
ENDROOT
BRANCH   2   7
ATOM      7  C   UNL     1      27.846  24.444  11.843  1.00  0.00     0.012 C 
ATOM      8  C   UNL     1      26.580  23.687  12.275  1.00  0.00     0.012 C 
BRANCH   7   9
ATOM      9  C   UNL     1      27.746  25.928  12.260  1.00  0.00     0.008 CG0
ATOM     10  G   UNL     1      28.643  26.852  11.421  1.00  0.00     0.000 G0
ENDBRANCH   7   9
ENDBRANCH   2   7
BRANCH   1  11
ATOM     11  C   UNL     1      30.659  25.311  11.108  1.00  0.00     0.039 C 
BRANCH  11  12
ATOM     12  C   UNL     1      30.148  26.671  11.635  1.00  0.00     0.018 C 
BRANCH  12  13
ATOM     13  C   UNL     1      28.631  26.859  11.406  1.00  0.00     0.009 CG0
ATOM     14  G   UNL     1      27.752  25.927  12.256  1.00  0.00     0.000 G0
ENDBRANCH  12  13
BRANCH  12  15
ATOM     15  C   UNL     1      30.918  27.815  10.985  1.00  0.00    -0.077 C 
ATOM     16  C   UNL     1      31.726  27.598   9.932  1.00  0.00     0.008 C 
ATOM     17  C   UNL     1      30.789  29.218  11.519  1.00  0.00     0.039 C 
ENDBRANCH  12  15
ENDBRANCH  11  12
ENDBRANCH   1  11
TORSDOF 1
ENDMDL
MODEL 2
REMARK VINA RESULT:    -3.729      1.593      5.322
REMARK INTER + INTRA:          -4.901
REMARK INTER:                  -5.028
REMARK INTRA:                   0.127
REMARK UNBOUND:                 0.136
REMARK SMILES C=C(C)[C@H]1CC[C@H](C)C2=C(C1)[C@H](C)CC2
REMARK SMILES IDX 10 1 9 2 15 3 14 4 12 5 13 6 7 7 8 8 6 9 11 11 4 12 5 13
REMARK SMILES IDX 2 15 1 16 3 17
REMARK H PARENT
REMARK Flexibility Score: 80.00
ROOT
ATOM      1  C   UNL     1      29.099  27.207  11.616  1.00  0.00    -0.067 C 
ATOM      2  C   UNL     1      30.195  27.543  10.935  1.00  0.00    -0.068 C 
ATOM      3  C   UNL     1      30.455  29.015  11.016  1.00  0.00     0.032 C 
ATOM      4  C   UNL     1      29.439  29.533  12.035  1.00  0.00     0.012 C 
ATOM      5  C   UNL     1      28.433  28.391  12.244  1.00  0.00     0.012 C 
ATOM      6  C   UNL     1      27.091  28.687  11.566  1.00  0.00     0.012 C 
ENDROOT
BRANCH   2   7
ATOM      7  C   UNL     1      31.047  26.549  10.163  1.00  0.00     0.012 C 
ATOM      8  C   UNL     1      32.125  27.245   9.318  1.00  0.00     0.012 C 
BRANCH   7   9
ATOM      9  C   UNL     1      31.701  25.532  11.125  1.00  0.00     0.008 CG0
ATOM     10  G   UNL     1      30.747  24.404  11.549  1.00  0.00     0.000 G0
ENDBRANCH   7   9
ENDBRANCH   2   7
BRANCH   1  11
ATOM     11  C   UNL     1      28.579  25.798  11.760  1.00  0.00     0.039 C 
BRANCH  11  12
ATOM     12  C   UNL     1      29.597  24.884  12.478  1.00  0.00     0.018 C 
BRANCH  12  13
ATOM     13  C   UNL     1      30.729  24.412  11.537  1.00  0.00     0.009 CG0
ATOM     14  G   UNL     1      31.695  25.531  11.114  1.00  0.00     0.000 G0
ENDBRANCH  12  13
BRANCH  12  15
ATOM     15  C   UNL     1      28.890  23.678  13.086  1.00  0.00    -0.077 C 
ATOM     16  C   UNL     1      27.572  23.706  13.349  1.00  0.00     0.008 C 
ATOM     17  C   UNL     1      29.664  22.427  13.409  1.00  0.00     0.039 C 
ENDBRANCH  12  15
ENDBRANCH  11  12
ENDBRANCH   1  11
TORSDOF 1
ENDMDL
MODEL 3
REMARK VINA RESULT:    -3.237      2.213      5.455
REMARK INTER + INTRA:          -4.236
REMARK INTER:                  -4.367
REMARK INTRA:                   0.131
REMARK UNBOUND:                 0.136
REMARK SMILES C=C(C)[C@H]1CC[C@H](C)C2=C(C1)[C@H](C)CC2
REMARK SMILES IDX 10 1 9 2 15 3 14 4 12 5 13 6 7 7 8 8 6 9 11 11 4 12 5 13
REMARK SMILES IDX 2 15 1 16 3 17
REMARK H PARENT
REMARK Flexibility Score: 80.00
ROOT
ATOM      1  C   UNL     1      29.174  23.815  12.622  1.00  0.00    -0.067 C 
ATOM      2  C   UNL     1      29.894  24.901  12.338  1.00  0.00    -0.068 C 
ATOM      3  C   UNL     1      29.020  26.105  12.177  1.00  0.00     0.032 C 
ATOM      4  C   UNL     1      27.629  25.635  12.602  1.00  0.00     0.012 C 
ATOM      5  C   UNL     1      27.707  24.103  12.676  1.00  0.00     0.012 C 
ATOM      6  C   UNL     1      26.976  23.441  11.501  1.00  0.00     0.012 C 
ENDROOT
BRANCH   2   7
ATOM      7  C   UNL     1      31.406  24.894  12.181  1.00  0.00     0.012 C 
ATOM      8  C   UNL     1      31.939  26.238  11.660  1.00  0.00     0.012 C 
BRANCH   7   9
ATOM      9  C   UNL     1      32.089  24.534  13.519  1.00  0.00     0.008 CG0
ATOM     10  G   UNL     1      32.083  23.025  13.812  1.00  0.00     0.000 G0
ENDBRANCH   7   9
ENDBRANCH   2   7
BRANCH   1  11
ATOM     11  C   UNL     1      29.754  22.446  12.876  1.00  0.00     0.039 C 
BRANCH  11  12
ATOM     12  C   UNL     1      30.681  22.438  14.113  1.00  0.00     0.018 C 
BRANCH  12  13
ATOM     13  C   UNL     1      32.079  23.021  13.804  1.00  0.00     0.009 CG0
ATOM     14  G   UNL     1      32.077  24.533  13.527  1.00  0.00     0.000 G0
ENDBRANCH  12  13
BRANCH  12  15
ATOM     15  C   UNL     1      30.817  21.023  14.665  1.00  0.00    -0.077 C 
ATOM     16  C   UNL     1      31.710  20.738  15.629  1.00  0.00     0.008 C 
ATOM     17  C   UNL     1      29.951  19.913  14.129  1.00  0.00     0.039 C 
ENDBRANCH  12  15
ENDBRANCH  11  12
ENDBRANCH   1  11
TORSDOF 1
ENDMDL
MODEL 4
REMARK VINA RESULT:    -2.531      1.602      4.434
REMARK INTER + INTRA:          -3.283
REMARK INTER:                  -4.466
REMARK INTRA:                   1.183
REMARK UNBOUND:                 0.136
REMARK SMILES C=C(C)[C@H]1CC[C@H](C)C2=C(C1)[C@H](C)CC2
REMARK SMILES IDX 10 1 9 2 15 3 14 4 12 5 13 6 7 7 8 8 6 9 11 11 4 12 5 13
REMARK SMILES IDX 2 15 1 16 3 17
REMARK H PARENT
REMARK Flexibility Score: 80.00
ROOT
ATOM      1  C   UNL     1      31.024  26.071  11.826  1.00  0.00    -0.067 C 
ATOM      2  C   UNL     1      29.698  25.991  11.713  1.00  0.00    -0.068 C 
ATOM      3  C   UNL     1      29.147  27.151  10.945  1.00  0.00     0.032 C 
ATOM      4  C   UNL     1      30.379  27.887  10.416  1.00  0.00     0.012 C 
ATOM      5  C   UNL     1      31.577  27.299  11.176  1.00  0.00     0.012 C 
ATOM      6  C   UNL     1      32.116  28.278  12.226  1.00  0.00     0.012 C 
ENDROOT
BRANCH   2   7
ATOM      7  C   UNL     1      28.865  24.869  12.313  1.00  0.00     0.012 C 
ATOM      8  C   UNL     1      27.357  25.130  12.174  1.00  0.00     0.012 C 
BRANCH   7   9
ATOM      9  C   UNL     1      29.232  23.515  11.667  1.00  0.00     0.008 CG0
ATOM     10  G   UNL     1      30.562  23.556  10.897  1.00  0.00     0.000 G0
ENDBRANCH   7   9
ENDBRANCH   2   7
BRANCH   1  11
ATOM     11  C   UNL     1      31.888  25.043  12.514  1.00  0.00     0.039 C 
BRANCH  11  12
ATOM     12  C   UNL     1      31.827  23.674  11.799  1.00  0.00     0.018 C 
BRANCH  12  13
ATOM     13  C   UNL     1      30.575  23.534  10.903  1.00  0.00     0.009 CG0
ATOM     14  G   UNL     1      29.250  23.511  11.682  1.00  0.00     0.000 G0
ENDBRANCH  12  13
BRANCH  12  15
ATOM     15  C   UNL     1      31.865  22.541  12.820  1.00  0.00    -0.077 C 
ATOM     16  C   UNL     1      31.804  22.794  14.139  1.00  0.00     0.008 C 
ATOM     17  C   UNL     1      31.980  21.111  12.362  1.00  0.00     0.039 C 
ENDBRANCH  12  15
ENDBRANCH  11  12
ENDBRANCH   1  11
TORSDOF 1
ENDMDL
MODEL 5
REMARK VINA RESULT:    -2.443      1.848      2.961
REMARK INTER + INTRA:          -3.164
REMARK INTER:                  -4.751
REMARK INTRA:                   1.587
REMARK UNBOUND:                 0.136
REMARK SMILES C=C(C)[C@H]1CC[C@H](C)C2=C(C1)[C@H](C)CC2
REMARK SMILES IDX 10 1 9 2 15 3 14 4 12 5 13 6 7 7 8 8 6 9 11 11 4 12 5 13
REMARK SMILES IDX 2 15 1 16 3 17
REMARK H PARENT
REMARK Flexibility Score: 80.00
ROOT
ATOM      1  C   UNL     1      30.378  26.189  11.014  1.00  0.00    -0.067 C 
ATOM      2  C   UNL     1      29.224  26.672  11.475  1.00  0.00    -0.068 C 
ATOM      3  C   UNL     1      28.531  25.680  12.355  1.00  0.00     0.032 C 
ATOM      4  C   UNL     1      29.544  24.548  12.535  1.00  0.00     0.012 C 
ATOM      5  C   UNL     1      30.640  24.794  11.487  1.00  0.00     0.012 C 
ATOM      6  C   UNL     1      30.549  23.796  10.327  1.00  0.00     0.012 C 
ENDROOT
BRANCH   2   7
ATOM      7  C   UNL     1      28.685  28.050  11.122  1.00  0.00     0.012 C 
ATOM      8  C   UNL     1      27.244  28.250  11.615  1.00  0.00     0.012 C 
BRANCH   7   9
ATOM      9  C   UNL     1      29.601  29.154  11.695  1.00  0.00     0.008 CG0
ATOM     10  G   UNL     1      31.010  28.648  12.042  1.00  0.00     0.000 G0
ENDBRANCH   7   9
ENDBRANCH   2   7
BRANCH   1  11
ATOM     11  C   UNL     1      31.332  26.950  10.127  1.00  0.00     0.039 C 
BRANCH  11  12
ATOM     12  C   UNL     1      31.869  28.221  10.823  1.00  0.00     0.018 C 
BRANCH  12  13
ATOM     13  C   UNL     1      31.011  28.632  12.041  1.00  0.00     0.009 CG0
ATOM     14  G   UNL     1      29.612  29.151  11.672  1.00  0.00     0.000 G0
ENDBRANCH  12  13
BRANCH  12  15
ATOM     15  C   UNL     1      31.949  29.375   9.830  1.00  0.00    -0.077 C 
ATOM     16  C   UNL     1      32.069  29.148   8.510  1.00  0.00     0.008 C 
ATOM     17  C   UNL     1      31.900  30.800  10.316  1.00  0.00     0.039 C 
ENDBRANCH  12  15
ENDBRANCH  11  12
ENDBRANCH   1  11
TORSDOF 1
ENDMDL
MODEL 6
REMARK VINA RESULT:    -1.997      1.793      3.359
REMARK INTER + INTRA:          -2.561
REMARK INTER:                  -2.704
REMARK INTRA:                   0.143
REMARK UNBOUND:                 0.136
REMARK SMILES C=C(C)[C@H]1CC[C@H](C)C2=C(C1)[C@H](C)CC2
REMARK SMILES IDX 10 1 9 2 15 3 14 4 12 5 13 6 7 7 8 8 6 9 11 11 4 12 5 13
REMARK SMILES IDX 2 15 1 16 3 17
REMARK H PARENT
REMARK Flexibility Score: 80.00
ROOT
ATOM      1  C   UNL     1      29.174  25.200  12.035  1.00  0.00    -0.067 C 
ATOM      2  C   UNL     1      30.169  24.501  12.581  1.00  0.00    -0.068 C 
ATOM      3  C   UNL     1      30.098  23.058  12.191  1.00  0.00     0.032 C 
ATOM      4  C   UNL     1      28.992  22.995  11.137  1.00  0.00     0.012 C 
ATOM      5  C   UNL     1      28.263  24.346  11.211  1.00  0.00     0.012 C 
ATOM      6  C   UNL     1      26.889  24.212  11.876  1.00  0.00     0.012 C 
ENDROOT
BRANCH   2   7
ATOM      7  C   UNL     1      31.221  25.105  13.499  1.00  0.00     0.012 C 
ATOM      8  C   UNL     1      32.121  24.032  14.131  1.00  0.00     0.012 C 
BRANCH   7   9
ATOM      9  C   UNL     1      32.080  26.137  12.735  1.00  0.00     0.008 CG0
ATOM     10  G   UNL     1      31.396  27.506  12.597  1.00  0.00     0.000 G0
ENDBRANCH   7   9
ENDBRANCH   2   7
BRANCH   1  11
ATOM     11  C   UNL     1      28.978  26.686  12.204  1.00  0.00     0.039 C 
BRANCH  11  12
ATOM     12  C   UNL     1      30.171  27.489  11.636  1.00  0.00     0.018 C 
BRANCH  12  13
ATOM     13  C   UNL     1      31.387  27.491  12.592  1.00  0.00     0.009 CG0
ATOM     14  G   UNL     1      32.086  26.127  12.713  1.00  0.00     0.000 G0
ENDBRANCH  12  13
BRANCH  12  15
ATOM     15  C   UNL     1      29.748  28.921  11.330  1.00  0.00    -0.077 C 
ATOM     16  C   UNL     1      28.471  29.315  11.482  1.00  0.00     0.008 C 
ATOM     17  C   UNL     1      30.761  29.924  10.842  1.00  0.00     0.039 C 
ENDBRANCH  12  15
ENDBRANCH  11  12
ENDBRANCH   1  11
TORSDOF 1
ENDMDL
MODEL 7
REMARK VINA RESULT:    -1.851      1.745      4.780
REMARK INTER + INTRA:          -2.364
REMARK INTER:                  -2.537
REMARK INTRA:                   0.173
REMARK UNBOUND:                 0.136
REMARK SMILES C=C(C)[C@H]1CC[C@H](C)C2=C(C1)[C@H](C)CC2
REMARK SMILES IDX 10 1 9 2 15 3 14 4 12 5 13 6 7 7 8 8 6 9 11 11 4 12 5 13
REMARK SMILES IDX 2 15 1 16 3 17
REMARK H PARENT
REMARK Flexibility Score: 80.00
ROOT
ATOM      1  C   UNL     1      28.926  25.361  11.613  1.00  0.00    -0.067 C 
ATOM      2  C   UNL     1      29.372  26.517  11.121  1.00  0.00    -0.068 C 
ATOM      3  C   UNL     1      28.386  27.620  11.346  1.00  0.00     0.032 C 
ATOM      4  C   UNL     1      27.313  27.004  12.246  1.00  0.00     0.012 C 
ATOM      5  C   UNL     1      27.567  25.489  12.225  1.00  0.00     0.012 C 
ATOM      6  C   UNL     1      26.517  24.750  11.388  1.00  0.00     0.012 C 
ENDROOT
BRANCH   2   7
ATOM      7  C   UNL     1      30.705  26.673  10.406  1.00  0.00     0.012 C 
ATOM      8  C   UNL     1      30.867  28.068   9.782  1.00  0.00     0.012 C 
BRANCH   7   9
ATOM      9  C   UNL     1      31.876  26.383  11.372  1.00  0.00     0.008 CG0
ATOM     10  G   UNL     1      32.134  24.881  11.572  1.00  0.00     0.000 G0
ENDBRANCH   7   9
ENDBRANCH   2   7
BRANCH   1  11
ATOM     11  C   UNL     1      29.694  24.063  11.578  1.00  0.00     0.039 C 
BRANCH  11  12
ATOM     12  C   UNL     1      31.022  24.163  12.361  1.00  0.00     0.018 C 
BRANCH  12  13
ATOM     13  C   UNL     1      32.125  24.891  11.558  1.00  0.00     0.009 CG0
ATOM     14  G   UNL     1      31.873  26.396  11.377  1.00  0.00     0.000 G0
ENDBRANCH  12  13
BRANCH  12  15
ATOM     15  C   UNL     1      31.504  22.774  12.766  1.00  0.00    -0.077 C 
ATOM     16  C   UNL     1      31.929  21.891  11.845  1.00  0.00     0.008 C 
ATOM     17  C   UNL     1      31.508  22.365  14.216  1.00  0.00     0.039 C 
ENDBRANCH  12  15
ENDBRANCH  11  12
ENDBRANCH   1  11
TORSDOF 1
ENDMDL
MODEL 8
REMARK VINA RESULT:    -1.355      1.565      4.835
REMARK INTER + INTRA:          -1.694
REMARK INTER:                  -2.848
REMARK INTRA:                   1.154
REMARK UNBOUND:                 0.136
REMARK SMILES C=C(C)[C@H]1CC[C@H](C)C2=C(C1)[C@H](C)CC2
REMARK SMILES IDX 10 1 9 2 15 3 14 4 12 5 13 6 7 7 8 8 6 9 11 11 4 12 5 13
REMARK SMILES IDX 2 15 1 16 3 17
REMARK H PARENT
REMARK Flexibility Score: 80.00
ROOT
ATOM      1  C   UNL     1      29.388  26.729  11.733  1.00  0.00    -0.067 C 
ATOM      2  C   UNL     1      30.448  26.112  11.212  1.00  0.00    -0.068 C 
ATOM      3  C   UNL     1      31.652  27.001  11.217  1.00  0.00     0.032 C 
ATOM      4  C   UNL     1      31.222  28.231  12.017  1.00  0.00     0.012 C 
ATOM      5  C   UNL     1      29.695  28.132  12.152  1.00  0.00     0.012 C 
ATOM      6  C   UNL     1      28.980  29.142  11.247  1.00  0.00     0.012 C 
ENDROOT
BRANCH   2   7
ATOM      7  C   UNL     1      30.415  24.693  10.665  1.00  0.00     0.012 C 
ATOM      8  C   UNL     1      31.743  24.299   9.999  1.00  0.00     0.012 C 
BRANCH   7   9
ATOM      9  C   UNL     1      30.064  23.689  11.785  1.00  0.00     0.008 CG0
ATOM     10  G   UNL     1      29.461  24.360  13.030  1.00  0.00     0.000 G0
ENDBRANCH   7   9
ENDBRANCH   2   7
BRANCH   1  11
ATOM     11  C   UNL     1      28.028  26.099  11.902  1.00  0.00     0.039 C 
BRANCH  11  12
ATOM     12  C   UNL     1      28.057  24.945  12.929  1.00  0.00     0.018 C 
BRANCH  12  13
ATOM     13  C   UNL     1      29.464  24.321  13.073  1.00  0.00     0.009 CG0
ATOM     14  G   UNL     1      30.012  23.712  11.773  1.00  0.00     0.000 G0
ENDBRANCH  12  13
BRANCH  12  15
ATOM     15  C   UNL     1      27.047  23.868  12.545  1.00  0.00    -0.077 C 
ATOM     16  C   UNL     1      26.664  23.701  11.267  1.00  0.00     0.008 C 
ATOM     17  C   UNL     1      26.454  22.972  13.601  1.00  0.00     0.039 C 
ENDBRANCH  12  15
ENDBRANCH  11  12
ENDBRANCH   1  11
TORSDOF 1
ENDMDL
