MODEL 1
REMARK VINA RESULT:    -5.245      0.000      0.000
REMARK INTER + INTRA:          -8.726
REMARK INTER:                  -8.157
REMARK INTRA:                  -0.568
REMARK UNBOUND:                -0.568
REMARK SMILES COc1cc(CNC(=O)CCCCC=CC(C)C)ccc1O
REMARK SMILES IDX 11 1 12 2 13 3 14 4 15 5 16 6 17 7 18 8 10 9 8 10 9 11 7 12
REMARK SMILES IDX 6 14 5 15 4 16 19 17 3 18 20 19 21 20 2 21 1 22 22 23
REMARK H PARENT 7 13 22 24
REMARK Flexibility Score: inf
ROOT
ATOM      1  C   UNL     1     115.144 257.389 338.593  1.00  0.00     0.010 C 
ENDROOT
BRANCH   1   2
ATOM      2  C   UNL     1     114.546 258.725 338.119  1.00  0.00     0.005 C 
BRANCH   2   3
ATOM      3  C   UNL     1     113.074 258.583 337.705  1.00  0.00     0.027 C 
BRANCH   3   4
ATOM      4  C   UNL     1     112.885 258.755 336.221  1.00  0.00    -0.031 C 
ATOM      5  C   UNL     1     113.161 257.764 335.357  1.00  0.00    -0.028 C 
BRANCH   5   6
ATOM      6  C   UNL     1     113.025 257.923 333.860  1.00  0.00     0.005 C 
ATOM      7  C   UNL     1     112.542 259.330 333.487  1.00  0.00     0.012 C 
ATOM      8  C   UNL     1     114.334 257.575 333.144  1.00  0.00     0.012 C 
ENDBRANCH   5   6
ENDBRANCH   3   4
ENDBRANCH   2   3
ENDBRANCH   1   2
BRANCH   1   9
ATOM      9  C   UNL     1     116.557 257.558 339.165  1.00  0.00     0.100 C 
BRANCH   9  10
ATOM     10  C   UNL     1     116.855 256.520 340.207  1.00  0.00     0.220 C 
ATOM     11  O   UNL     1     117.809 255.716 340.024  1.00  0.00    -0.275 OA
ATOM     12  N   UNL     1     116.033 256.415 341.379  1.00  0.00    -0.352 N 
ATOM     13  H   UNL     1     115.235 257.078 341.502  1.00  0.00     0.163 HD
BRANCH  12  14
ATOM     14  C   UNL     1     116.243 255.384 342.393  1.00  0.00     0.151 C 
BRANCH  14  15
ATOM     15  C   UNL     1     115.077 255.343 343.345  1.00  0.00    -0.025 A 
ATOM     16  C   UNL     1     115.059 256.186 344.467  1.00  0.00     0.056 A 
ATOM     17  C   UNL     1     114.019 254.449 343.137  1.00  0.00     0.009 A 
ATOM     18  C   UNL     1     113.983 256.146 345.377  1.00  0.00     0.160 A 
ATOM     19  C   UNL     1     112.950 254.404 344.034  1.00  0.00     0.050 A 
ATOM     20  C   UNL     1     112.926 255.246 345.150  1.00  0.00     0.157 A 
BRANCH  18  21
ATOM     21  O   UNL     1     113.935 256.977 346.507  1.00  0.00    -0.493 OA
ATOM     22  C   UNL     1     115.033 257.742 346.995  1.00  0.00     0.278 C 
ENDBRANCH  18  21
BRANCH  20  23
ATOM     23  O   UNL     1     111.840 255.174 346.023  1.00  0.00    -0.504 OA
ATOM     24  H   UNL     1     110.882 255.222 345.697  1.00  0.00     0.293 HD
ENDBRANCH  20  23
ENDBRANCH  14  15
ENDBRANCH  12  14
ENDBRANCH   9  10
ENDBRANCH   1   9
TORSDOF 10
ENDMDL
MODEL 2
REMARK VINA RESULT:    -5.174      3.024      8.986
REMARK INTER + INTRA:          -8.616
REMARK INTER:                  -8.290
REMARK INTRA:                  -0.326
REMARK UNBOUND:                -0.568
REMARK SMILES COc1cc(CNC(=O)CCCCC=CC(C)C)ccc1O
REMARK SMILES IDX 11 1 12 2 13 3 14 4 15 5 16 6 17 7 18 8 10 9 8 10 9 11 7 12
REMARK SMILES IDX 6 14 5 15 4 16 19 17 3 18 20 19 21 20 2 21 1 22 22 23
REMARK H PARENT 7 13 22 24
REMARK Flexibility Score: inf
ROOT
ATOM      1  C   UNL     1     117.997 255.947 340.855  1.00  0.00     0.010 C 
ENDROOT
BRANCH   1   2
ATOM      2  C   UNL     1     117.292 255.584 342.173  1.00  0.00     0.005 C 
BRANCH   2   3
ATOM      3  C   UNL     1     115.771 255.776 342.084  1.00  0.00     0.027 C 
BRANCH   3   4
ATOM      4  C   UNL     1     115.135 255.897 343.443  1.00  0.00    -0.031 C 
ATOM      5  C   UNL     1     114.057 255.172 343.784  1.00  0.00    -0.028 C 
BRANCH   5   6
ATOM      6  C   UNL     1     113.372 255.306 345.124  1.00  0.00     0.005 C 
ATOM      7  C   UNL     1     114.039 256.381 345.990  1.00  0.00     0.012 C 
ATOM      8  C   UNL     1     111.873 255.577 344.955  1.00  0.00     0.012 C 
ENDBRANCH   5   6
ENDBRANCH   3   4
ENDBRANCH   2   3
ENDBRANCH   1   2
BRANCH   1   9
ATOM      9  C   UNL     1     117.072 255.793 339.641  1.00  0.00     0.100 C 
BRANCH   9  10
ATOM     10  C   UNL     1     116.411 257.093 339.287  1.00  0.00     0.220 C 
ATOM     11  O   UNL     1     116.985 258.177 339.576  1.00  0.00    -0.275 OA
ATOM     12  N   UNL     1     115.118 257.102 338.665  1.00  0.00    -0.352 N 
ATOM     13  H   UNL     1     114.650 256.192 338.452  1.00  0.00     0.163 HD
BRANCH  12  14
ATOM     14  C   UNL     1     114.406 258.339 338.355  1.00  0.00     0.151 C 
BRANCH  14  15
ATOM     15  C   UNL     1     113.744 258.237 337.007  1.00  0.00    -0.025 A 
ATOM     16  C   UNL     1     114.059 259.161 335.999  1.00  0.00     0.056 A 
ATOM     17  C   UNL     1     112.790 257.241 336.755  1.00  0.00     0.009 A 
ATOM     18  C   UNL     1     113.434 259.089 334.737  1.00  0.00     0.160 A 
ATOM     19  C   UNL     1     112.167 257.165 335.509  1.00  0.00     0.050 A 
ATOM     20  C   UNL     1     112.483 258.080 334.500  1.00  0.00     0.157 A 
BRANCH  18  21
ATOM     21  O   UNL     1     113.731 259.997 333.709  1.00  0.00    -0.493 OA
ATOM     22  C   UNL     1     115.006 260.125 333.086  1.00  0.00     0.278 C 
ENDBRANCH  18  21
BRANCH  20  23
ATOM     23  O   UNL     1     111.841 257.970 333.266  1.00  0.00    -0.504 OA
ATOM     24  H   UNL     1     111.030 258.528 333.029  1.00  0.00     0.293 HD
ENDBRANCH  20  23
ENDBRANCH  14  15
ENDBRANCH  12  14
ENDBRANCH   9  10
ENDBRANCH   1   9
TORSDOF 10
ENDMDL
MODEL 3
REMARK VINA RESULT:    -5.150      2.761     10.302
REMARK INTER + INTRA:          -8.579
REMARK INTER:                  -8.054
REMARK INTRA:                  -0.524
REMARK UNBOUND:                -0.568
REMARK SMILES COc1cc(CNC(=O)CCCCC=CC(C)C)ccc1O
REMARK SMILES IDX 11 1 12 2 13 3 14 4 15 5 16 6 17 7 18 8 10 9 8 10 9 11 7 12
REMARK SMILES IDX 6 14 5 15 4 16 19 17 3 18 20 19 21 20 2 21 1 22 22 23
REMARK H PARENT 7 13 22 24
REMARK Flexibility Score: inf
ROOT
ATOM      1  C   UNL     1     115.318 257.502 346.952  1.00  0.00     0.010 C 
ENDROOT
BRANCH   1   2
ATOM      2  C   UNL     1     115.461 259.012 347.210  1.00  0.00     0.005 C 
BRANCH   2   3
ATOM      3  C   UNL     1     116.791 259.356 347.895  1.00  0.00     0.027 C 
BRANCH   3   4
ATOM      4  C   UNL     1     116.598 259.773 349.329  1.00  0.00    -0.031 C 
ATOM      5  C   UNL     1     116.585 258.874 350.327  1.00  0.00    -0.028 C 
BRANCH   5   6
ATOM      6  C   UNL     1     116.347 259.258 351.769  1.00  0.00     0.005 C 
ATOM      7  C   UNL     1     115.543 258.184 352.511  1.00  0.00     0.012 C 
ATOM      8  C   UNL     1     117.666 259.562 352.488  1.00  0.00     0.012 C 
ENDBRANCH   5   6
ENDBRANCH   3   4
ENDBRANCH   2   3
ENDBRANCH   1   2
BRANCH   1   9
ATOM      9  C   UNL     1     114.005 257.159 346.238  1.00  0.00     0.100 C 
BRANCH   9  10
ATOM     10  C   UNL     1     114.189 256.034 345.261  1.00  0.00     0.220 C 
ATOM     11  O   UNL     1     113.794 254.878 345.567  1.00  0.00    -0.275 OA
ATOM     12  N   UNL     1     114.850 256.266 344.008  1.00  0.00    -0.352 N 
ATOM     13  H   UNL     1     115.188 257.229 343.781  1.00  0.00     0.163 HD
BRANCH  12  14
ATOM     14  C   UNL     1     115.109 255.195 343.049  1.00  0.00     0.151 C 
BRANCH  14  15
ATOM     15  C   UNL     1     116.147 255.629 342.048  1.00  0.00    -0.025 A 
ATOM     16  C   UNL     1     115.766 256.374 340.922  1.00  0.00     0.056 A 
ATOM     17  C   UNL     1     117.491 255.270 342.216  1.00  0.00     0.009 A 
ATOM     18  C   UNL     1     116.725 256.773 339.968  1.00  0.00     0.160 A 
ATOM     19  C   UNL     1     118.445 255.660 341.275  1.00  0.00     0.050 A 
ATOM     20  C   UNL     1     118.071 256.409 340.154  1.00  0.00     0.157 A 
BRANCH  18  21
ATOM     21  O   UNL     1     116.376 257.521 338.833  1.00  0.00    -0.493 OA
ATOM     22  C   UNL     1     115.042 257.870 338.474  1.00  0.00     0.278 C 
ENDBRANCH  18  21
BRANCH  20  23
ATOM     23  O   UNL     1     119.053 256.782 339.237  1.00  0.00    -0.504 OA
ATOM     24  H   UNL     1     119.698 257.542 339.417  1.00  0.00     0.293 HD
ENDBRANCH  20  23
ENDBRANCH  14  15
ENDBRANCH  12  14
ENDBRANCH   9  10
ENDBRANCH   1   9
TORSDOF 10
ENDMDL
MODEL 4
REMARK VINA RESULT:    -3.742      1.160      2.039
REMARK INTER + INTRA:          -6.388
REMARK INTER:                  -5.869
REMARK INTRA:                  -0.519
REMARK UNBOUND:                -0.568
REMARK SMILES COc1cc(CNC(=O)CCCCC=CC(C)C)ccc1O
REMARK SMILES IDX 11 1 12 2 13 3 14 4 15 5 16 6 17 7 18 8 10 9 8 10 9 11 7 12
REMARK SMILES IDX 6 14 5 15 4 16 19 17 3 18 20 19 21 20 2 21 1 22 22 23
REMARK H PARENT 7 13 22 24
REMARK Flexibility Score: inf
ROOT
ATOM      1  C   UNL     1     118.160 257.453 339.545  1.00  0.00     0.010 C 
ENDROOT
BRANCH   1   2
ATOM      2  C   UNL     1     116.828 256.940 338.972  1.00  0.00     0.005 C 
BRANCH   2   3
ATOM      3  C   UNL     1     115.709 257.985 339.090  1.00  0.00     0.027 C 
BRANCH   3   4
ATOM      4  C   UNL     1     114.666 257.821 338.017  1.00  0.00    -0.031 C 
ATOM      5  C   UNL     1     113.725 258.756 337.801  1.00  0.00    -0.028 C 
BRANCH   5   6
ATOM      6  C   UNL     1     112.639 258.597 336.763  1.00  0.00     0.005 C 
ATOM      7  C   UNL     1     113.132 259.002 335.369  1.00  0.00     0.012 C 
ATOM      8  C   UNL     1     112.076 257.171 336.762  1.00  0.00     0.012 C 
ENDBRANCH   5   6
ENDBRANCH   3   4
ENDBRANCH   2   3
ENDBRANCH   1   2
BRANCH   1   9
ATOM      9  C   UNL     1     118.246 257.266 341.065  1.00  0.00     0.100 C 
BRANCH   9  10
ATOM     10  C   UNL     1     117.570 255.999 341.501  1.00  0.00     0.220 C 
ATOM     11  O   UNL     1     118.107 254.889 341.237  1.00  0.00    -0.275 OA
ATOM     12  N   UNL     1     116.302 256.049 342.173  1.00  0.00    -0.352 N 
ATOM     13  H   UNL     1     115.865 256.979 342.364  1.00  0.00     0.163 HD
BRANCH  12  14
ATOM     14  C   UNL     1     115.574 254.845 342.563  1.00  0.00     0.151 C 
BRANCH  14  15
ATOM     15  C   UNL     1     114.548 255.172 343.615  1.00  0.00    -0.025 A 
ATOM     16  C   UNL     1     114.855 256.088 344.633  1.00  0.00     0.056 A 
ATOM     17  C   UNL     1     113.293 254.548 343.603  1.00  0.00     0.009 A 
ATOM     18  C   UNL     1     113.910 256.391 345.634  1.00  0.00     0.160 A 
ATOM     19  C   UNL     1     112.353 254.843 344.592  1.00  0.00     0.050 A 
ATOM     20  C   UNL     1     112.653 255.760 345.605  1.00  0.00     0.157 A 
BRANCH  18  21
ATOM     21  O   UNL     1     114.187 257.304 346.663  1.00  0.00    -0.493 OA
ATOM     22  C   UNL     1     115.476 257.518 347.229  1.00  0.00     0.278 C 
ENDBRANCH  18  21
BRANCH  20  23
ATOM     23  O   UNL     1     111.688 256.031 346.575  1.00  0.00    -0.504 OA
ATOM     24  H   UNL     1     111.356 256.970 346.757  1.00  0.00     0.293 HD
ENDBRANCH  20  23
ENDBRANCH  14  15
ENDBRANCH  12  14
ENDBRANCH   9  10
ENDBRANCH   1   9
TORSDOF 10
ENDMDL
MODEL 5
REMARK VINA RESULT:    -3.615      2.553      8.965
REMARK INTER + INTRA:          -6.191
REMARK INTER:                  -5.658
REMARK INTRA:                  -0.533
REMARK UNBOUND:                -0.568
REMARK SMILES COc1cc(CNC(=O)CCCCC=CC(C)C)ccc1O
REMARK SMILES IDX 11 1 12 2 13 3 14 4 15 5 16 6 17 7 18 8 10 9 8 10 9 11 7 12
REMARK SMILES IDX 6 14 5 15 4 16 19 17 3 18 20 19 21 20 2 21 1 22 22 23
REMARK H PARENT 7 13 22 24
REMARK Flexibility Score: inf
ROOT
ATOM      1  C   UNL     1     115.102 255.989 343.154  1.00  0.00     0.010 C 
ENDROOT
BRANCH   1   2
ATOM      2  C   UNL     1     114.954 255.348 344.545  1.00  0.00     0.005 C 
BRANCH   2   3
ATOM      3  C   UNL     1     113.662 255.790 345.248  1.00  0.00     0.027 C 
BRANCH   3   4
ATOM      4  C   UNL     1     113.930 256.769 346.360  1.00  0.00    -0.031 C 
ATOM      5  C   UNL     1     115.107 257.407 346.467  1.00  0.00    -0.028 C 
BRANCH   5   6
ATOM      6  C   UNL     1     115.420 258.359 347.598  1.00  0.00     0.005 C 
ATOM      7  C   UNL     1     116.768 258.032 348.250  1.00  0.00     0.012 C 
ATOM      8  C   UNL     1     115.368 259.817 347.127  1.00  0.00     0.012 C 
ENDBRANCH   5   6
ENDBRANCH   3   4
ENDBRANCH   2   3
ENDBRANCH   1   2
BRANCH   1   9
ATOM      9  C   UNL     1     116.262 255.379 342.356  1.00  0.00     0.100 C 
BRANCH   9  10
ATOM     10  C   UNL     1     116.670 256.266 341.216  1.00  0.00     0.220 C 
ATOM     11  O   UNL     1     117.665 257.027 341.350  1.00  0.00    -0.275 OA
ATOM     12  N   UNL     1     115.907 256.279 340.000  1.00  0.00    -0.352 N 
ATOM     13  H   UNL     1     115.073 255.654 339.916  1.00  0.00     0.163 HD
BRANCH  12  14
ATOM     14  C   UNL     1     116.225 257.167 338.885  1.00  0.00     0.151 C 
BRANCH  14  15
ATOM     15  C   UNL     1     114.972 257.818 338.362  1.00  0.00    -0.025 A 
ATOM     16  C   UNL     1     114.241 257.205 337.334  1.00  0.00     0.056 A 
ATOM     17  C   UNL     1     114.543 259.050 338.875  1.00  0.00     0.009 A 
ATOM     18  C   UNL     1     113.075 257.812 336.822  1.00  0.00     0.160 A 
ATOM     19  C   UNL     1     113.391 259.657 338.372  1.00  0.00     0.050 A 
ATOM     20  C   UNL     1     112.655 259.046 337.351  1.00  0.00     0.157 A 
BRANCH  18  21
ATOM     21  O   UNL     1     112.321 257.222 335.796  1.00  0.00    -0.493 OA
ATOM     22  C   UNL     1     112.393 257.595 334.423  1.00  0.00     0.278 C 
ENDBRANCH  18  21
BRANCH  20  23
ATOM     23  O   UNL     1     111.508 259.681 336.876  1.00  0.00    -0.504 OA
ATOM     24  H   UNL     1     110.597 259.241 336.906  1.00  0.00     0.293 HD
ENDBRANCH  20  23
ENDBRANCH  14  15
ENDBRANCH  12  14
ENDBRANCH   9  10
ENDBRANCH   1   9
TORSDOF 10
ENDMDL
MODEL 6
REMARK VINA RESULT:    -3.224      2.694      9.219
REMARK INTER + INTRA:          -5.583
REMARK INTER:                  -5.209
REMARK INTRA:                  -0.374
REMARK UNBOUND:                -0.568
REMARK SMILES COc1cc(CNC(=O)CCCCC=CC(C)C)ccc1O
REMARK SMILES IDX 11 1 12 2 13 3 14 4 15 5 16 6 17 7 18 8 10 9 8 10 9 11 7 12
REMARK SMILES IDX 6 14 5 15 4 16 19 17 3 18 20 19 21 20 2 21 1 22 22 23
REMARK H PARENT 7 13 22 24
REMARK Flexibility Score: inf
ROOT
ATOM      1  C   UNL     1     113.017 256.012 346.005  1.00  0.00     0.010 C 
ENDROOT
BRANCH   1   2
ATOM      2  C   UNL     1     114.443 256.510 346.298  1.00  0.00     0.005 C 
BRANCH   2   3
ATOM      3  C   UNL     1     114.515 258.043 346.363  1.00  0.00     0.027 C 
BRANCH   3   4
ATOM      4  C   UNL     1     115.685 258.520 347.182  1.00  0.00    -0.031 C 
ATOM      5  C   UNL     1     115.536 259.431 348.158  1.00  0.00    -0.028 C 
BRANCH   5   6
ATOM      6  C   UNL     1     116.698 259.961 348.965  1.00  0.00     0.005 C 
ATOM      7  C   UNL     1     116.327 260.125 350.444  1.00  0.00     0.012 C 
ATOM      8  C   UNL     1     117.940 259.078 348.797  1.00  0.00     0.012 C 
ENDBRANCH   5   6
ENDBRANCH   3   4
ENDBRANCH   2   3
ENDBRANCH   1   2
BRANCH   1   9
ATOM      9  C   UNL     1     112.715 255.975 344.502  1.00  0.00     0.100 C 
BRANCH   9  10
ATOM     10  C   UNL     1     113.688 255.100 343.767  1.00  0.00     0.220 C 
ATOM     11  O   UNL     1     113.370 253.910 343.500  1.00  0.00    -0.275 OA
ATOM     12  N   UNL     1     114.986 255.601 343.412  1.00  0.00    -0.352 N 
ATOM     13  H   UNL     1     115.237 256.584 343.661  1.00  0.00     0.163 HD
BRANCH  12  14
ATOM     14  C   UNL     1     115.991 254.772 342.752  1.00  0.00     0.151 C 
BRANCH  14  15
ATOM     15  C   UNL     1     116.756 255.585 341.742  1.00  0.00    -0.025 A 
ATOM     16  C   UNL     1     116.065 256.355 340.794  1.00  0.00     0.056 A 
ATOM     17  C   UNL     1     118.157 255.558 341.720  1.00  0.00     0.009 A 
ATOM     18  C   UNL     1     116.768 257.107 339.831  1.00  0.00     0.160 A 
ATOM     19  C   UNL     1     118.859 256.299 340.768  1.00  0.00     0.050 A 
ATOM     20  C   UNL     1     118.175 257.073 339.826  1.00  0.00     0.157 A 
BRANCH  18  21
ATOM     21  O   UNL     1     116.106 257.889 338.872  1.00  0.00    -0.493 OA
ATOM     22  C   UNL     1     114.967 257.465 338.129  1.00  0.00     0.278 C 
ENDBRANCH  18  21
BRANCH  20  23
ATOM     23  O   UNL     1     118.911 257.803 338.892  1.00  0.00    -0.504 OA
ATOM     24  H   UNL     1     119.351 257.365 338.092  1.00  0.00     0.293 HD
ENDBRANCH  20  23
ENDBRANCH  14  15
ENDBRANCH  12  14
ENDBRANCH   9  10
ENDBRANCH   1   9
TORSDOF 10
ENDMDL
MODEL 7
REMARK VINA RESULT:    -3.062      2.939      8.196
REMARK INTER + INTRA:          -5.330
REMARK INTER:                  -4.616
REMARK INTRA:                  -0.714
REMARK UNBOUND:                -0.568
REMARK SMILES COc1cc(CNC(=O)CCCCC=CC(C)C)ccc1O
REMARK SMILES IDX 11 1 12 2 13 3 14 4 15 5 16 6 17 7 18 8 10 9 8 10 9 11 7 12
REMARK SMILES IDX 6 14 5 15 4 16 19 17 3 18 20 19 21 20 2 21 1 22 22 23
REMARK H PARENT 7 13 22 24
REMARK Flexibility Score: inf
ROOT
ATOM      1  C   UNL     1     115.836 255.962 342.510  1.00  0.00     0.010 C 
ENDROOT
BRANCH   1   2
ATOM      2  C   UNL     1     115.495 254.965 343.631  1.00  0.00     0.005 C 
BRANCH   2   3
ATOM      3  C   UNL     1     114.272 254.104 343.284  1.00  0.00     0.027 C 
BRANCH   3   4
ATOM      4  C   UNL     1     113.067 254.474 344.107  1.00  0.00    -0.031 C 
ATOM      5  C   UNL     1     112.638 255.744 344.194  1.00  0.00    -0.028 C 
BRANCH   5   6
ATOM      6  C   UNL     1     111.460 256.152 345.048  1.00  0.00     0.005 C 
ATOM      7  C   UNL     1     110.310 256.701 344.195  1.00  0.00     0.012 C 
ATOM      8  C   UNL     1     110.991 254.993 345.936  1.00  0.00     0.012 C 
ENDBRANCH   5   6
ENDBRANCH   3   4
ENDBRANCH   2   3
ENDBRANCH   1   2
BRANCH   1   9
ATOM      9  C   UNL     1     117.210 255.684 341.886  1.00  0.00     0.100 C 
BRANCH   9  10
ATOM     10  C   UNL     1     117.304 256.243 340.496  1.00  0.00     0.220 C 
ATOM     11  O   UNL     1     118.437 256.512 340.014  1.00  0.00    -0.275 OA
ATOM     12  N   UNL     1     116.113 256.509 339.741  1.00  0.00    -0.352 N 
ATOM     13  H   UNL     1     115.183 256.297 340.167  1.00  0.00     0.163 HD
BRANCH  12  14
ATOM     14  C   UNL     1     116.148 257.109 338.410  1.00  0.00     0.151 C 
BRANCH  14  15
ATOM     15  C   UNL     1     114.830 257.767 338.099  1.00  0.00    -0.025 A 
ATOM     16  C   UNL     1     114.035 257.283 337.049  1.00  0.00     0.056 A 
ATOM     17  C   UNL     1     114.401 258.882 338.832  1.00  0.00     0.009 A 
ATOM     18  C   UNL     1     112.807 257.900 336.735  1.00  0.00     0.160 A 
ATOM     19  C   UNL     1     113.187 259.499 338.526  1.00  0.00     0.050 A 
ATOM     20  C   UNL     1     112.389 259.015 337.484  1.00  0.00     0.157 A 
BRANCH  18  21
ATOM     21  O   UNL     1     111.989 257.438 335.693  1.00  0.00    -0.493 OA
ATOM     22  C   UNL     1     112.153 257.784 334.321  1.00  0.00     0.278 C 
ENDBRANCH  18  21
BRANCH  20  23
ATOM     23  O   UNL     1     111.181 259.656 337.210  1.00  0.00    -0.504 OA
ATOM     24  H   UNL     1     110.379 259.159 336.841  1.00  0.00     0.293 HD
ENDBRANCH  20  23
ENDBRANCH  14  15
ENDBRANCH  12  14
ENDBRANCH   9  10
ENDBRANCH   1   9
TORSDOF 10
ENDMDL
MODEL 8
REMARK VINA RESULT:    -2.446      2.958      8.315
REMARK INTER + INTRA:          -4.374
REMARK INTER:                  -3.886
REMARK INTRA:                  -0.488
REMARK UNBOUND:                -0.568
REMARK SMILES COc1cc(CNC(=O)CCCCC=CC(C)C)ccc1O
REMARK SMILES IDX 11 1 12 2 13 3 14 4 15 5 16 6 17 7 18 8 10 9 8 10 9 11 7 12
REMARK SMILES IDX 6 14 5 15 4 16 19 17 3 18 20 19 21 20 2 21 1 22 22 23
REMARK H PARENT 7 13 22 24
REMARK Flexibility Score: inf
ROOT
ATOM      1  C   UNL     1     117.644 255.494 341.704  1.00  0.00     0.010 C 
ENDROOT
BRANCH   1   2
ATOM      2  C   UNL     1     116.248 255.988 342.121  1.00  0.00     0.005 C 
BRANCH   2   3
ATOM      3  C   UNL     1     115.359 254.843 342.628  1.00  0.00     0.027 C 
BRANCH   3   4
ATOM      4  C   UNL     1     114.596 255.227 343.868  1.00  0.00    -0.031 C 
ATOM      5  C   UNL     1     113.321 255.646 343.809  1.00  0.00    -0.028 C 
BRANCH   5   6
ATOM      6  C   UNL     1     112.546 256.081 345.031  1.00  0.00     0.005 C 
ATOM      7  C   UNL     1     111.330 255.179 345.274  1.00  0.00     0.012 C 
ATOM      8  C   UNL     1     113.450 256.143 346.268  1.00  0.00     0.012 C 
ENDBRANCH   5   6
ENDBRANCH   3   4
ENDBRANCH   2   3
ENDBRANCH   1   2
BRANCH   1   9
ATOM      9  C   UNL     1     117.942 255.780 340.227  1.00  0.00     0.100 C 
BRANCH   9  10
ATOM     10  C   UNL     1     117.388 257.108 339.803  1.00  0.00     0.220 C 
ATOM     11  O   UNL     1     118.026 258.160 340.075  1.00  0.00    -0.275 OA
ATOM     12  N   UNL     1     116.121 257.182 339.131  1.00  0.00    -0.352 N 
ATOM     13  H   UNL     1     115.599 256.299 338.932  1.00  0.00     0.163 HD
BRANCH  12  14
ATOM     14  C   UNL     1     115.509 258.453 338.752  1.00  0.00     0.151 C 
BRANCH  14  15
ATOM     15  C   UNL     1     114.471 258.234 337.684  1.00  0.00    -0.025 A 
ATOM     16  C   UNL     1     113.831 256.990 337.573  1.00  0.00     0.056 A 
ATOM     17  C   UNL     1     114.155 259.256 336.778  1.00  0.00     0.009 A 
ATOM     18  C   UNL     1     112.869 256.766 336.567  1.00  0.00     0.160 A 
ATOM     19  C   UNL     1     113.205 259.039 335.778  1.00  0.00     0.050 A 
ATOM     20  C   UNL     1     112.561 257.803 335.668  1.00  0.00     0.157 A 
BRANCH  18  21
ATOM     21  O   UNL     1     112.210 255.534 336.432  1.00  0.00    -0.493 OA
ATOM     22  C   UNL     1     112.666 254.307 336.994  1.00  0.00     0.278 C 
ENDBRANCH  18  21
BRANCH  20  23
ATOM     23  O   UNL     1     111.615 257.626 334.658  1.00  0.00    -0.504 OA
ATOM     24  H   UNL     1     111.846 257.735 333.678  1.00  0.00     0.293 HD
ENDBRANCH  20  23
ENDBRANCH  14  15
ENDBRANCH  12  14
ENDBRANCH   9  10
ENDBRANCH   1   9
TORSDOF 10
ENDMDL
