MODEL 1
REMARK VINA RESULT:    -2.754      0.000      0.000
REMARK INTER + INTRA:          -4.119
REMARK INTER:                  -3.559
REMARK INTRA:                  -0.560
REMARK UNBOUND:                -0.560
REMARK SMILES C=CC(=O)CCCCC
REMARK SMILES IDX 6 1 7 2 8 3 9 4 5 5 3 6 4 7 2 8 1 9
REMARK H PARENT
REMARK Flexibility Score: inf
ROOT
ATOM      1  C   UNL     1     187.105 201.165 213.554  1.00  0.00     0.008 C 
ENDROOT
BRANCH   1   2
ATOM      2  C   UNL     1     185.751 201.874 213.719  1.00  0.00     0.000 C 
BRANCH   2   3
ATOM      3  C   UNL     1     185.118 202.258 212.372  1.00  0.00    -0.003 C 
ATOM      4  C   UNL     1     185.173 201.093 211.388  1.00  0.00     0.004 C 
ENDBRANCH   2   3
ENDBRANCH   1   2
BRANCH   1   5
ATOM      5  C   UNL     1     188.272 201.982 214.124  1.00  0.00     0.080 C 
BRANCH   5   6
ATOM      6  C   UNL     1     189.090 202.572 213.014  1.00  0.00     0.155 C 
ATOM      7  O   UNL     1     190.056 203.333 213.295  1.00  0.00    -0.295 OA
BRANCH   6   8
ATOM      8  C   UNL     1     188.791 202.226 211.610  1.00  0.00     0.039 C 
ATOM      9  C   UNL     1     188.429 203.139 210.710  1.00  0.00     0.012 C 
ENDBRANCH   6   8
ENDBRANCH   5   6
ENDBRANCH   1   5
TORSDOF 5
ENDMDL
MODEL 2
REMARK VINA RESULT:    -2.730      2.179      3.526
REMARK INTER + INTRA:          -4.088
REMARK INTER:                  -3.559
REMARK INTRA:                  -0.529
REMARK UNBOUND:                -0.560
REMARK SMILES C=CC(=O)CCCCC
REMARK SMILES IDX 6 1 7 2 8 3 9 4 5 5 3 6 4 7 2 8 1 9
REMARK H PARENT
REMARK Flexibility Score: inf
ROOT
ATOM      1  C   UNL     1     186.977 200.488 213.706  1.00  0.00     0.008 C 
ENDROOT
BRANCH   1   2
ATOM      2  C   UNL     1     188.431 200.868 214.029  1.00  0.00     0.000 C 
BRANCH   2   3
ATOM      3  C   UNL     1     188.638 202.387 214.125  1.00  0.00    -0.003 C 
ATOM      4  C   UNL     1     189.791 202.842 213.235  1.00  0.00     0.004 C 
ENDBRANCH   2   3
ENDBRANCH   1   2
BRANCH   1   5
ATOM      5  C   UNL     1     186.067 201.714 213.552  1.00  0.00     0.080 C 
BRANCH   5   6
ATOM      6  C   UNL     1     185.642 201.874 212.122  1.00  0.00     0.155 C 
ATOM      7  O   UNL     1     184.496 202.333 211.866  1.00  0.00    -0.295 OA
BRANCH   6   8
ATOM      8  C   UNL     1     186.578 201.540 211.030  1.00  0.00     0.039 C 
ATOM      9  C   UNL     1     187.329 202.458 210.427  1.00  0.00     0.012 C 
ENDBRANCH   6   8
ENDBRANCH   5   6
ENDBRANCH   1   5
TORSDOF 5
ENDMDL
MODEL 3
REMARK VINA RESULT:    -2.703      1.073      1.073
REMARK INTER + INTRA:          -4.052
REMARK INTER:                  -3.433
REMARK INTRA:                  -0.620
REMARK UNBOUND:                -0.560
REMARK SMILES C=CC(=O)CCCCC
REMARK SMILES IDX 6 1 7 2 8 3 9 4 5 5 3 6 4 7 2 8 1 9
REMARK H PARENT
REMARK Flexibility Score: inf
ROOT
ATOM      1  C   UNL     1     186.935 201.151 214.068  1.00  0.00     0.008 C 
ENDROOT
BRANCH   1   2
ATOM      2  C   UNL     1     185.709 202.012 213.726  1.00  0.00     0.000 C 
BRANCH   2   3
ATOM      3  C   UNL     1     185.237 201.818 212.276  1.00  0.00    -0.003 C 
ATOM      4  C   UNL     1     185.669 200.458 211.736  1.00  0.00     0.004 C 
ENDBRANCH   2   3
ENDBRANCH   1   2
BRANCH   1   5
ATOM      5  C   UNL     1     188.232 201.967 214.125  1.00  0.00     0.080 C 
BRANCH   5   6
ATOM      6  C   UNL     1     188.988 201.840 212.835  1.00  0.00     0.155 C 
ATOM      7  O   UNL     1     189.497 200.729 212.524  1.00  0.00    -0.295 OA
BRANCH   6   8
ATOM      8  C   UNL     1     189.093 202.995 211.922  1.00  0.00     0.039 C 
ATOM      9  C   UNL     1     188.414 203.067 210.780  1.00  0.00     0.012 C 
ENDBRANCH   6   8
ENDBRANCH   5   6
ENDBRANCH   1   5
TORSDOF 5
ENDMDL
MODEL 4
REMARK VINA RESULT:    -2.695      2.430      4.476
REMARK INTER + INTRA:          -4.043
REMARK INTER:                  -3.503
REMARK INTRA:                  -0.540
REMARK UNBOUND:                -0.560
REMARK SMILES C=CC(=O)CCCCC
REMARK SMILES IDX 6 1 7 2 8 3 9 4 5 5 3 6 4 7 2 8 1 9
REMARK H PARENT
REMARK Flexibility Score: inf
ROOT
ATOM      1  C   UNL     1     187.008 202.305 210.233  1.00  0.00     0.008 C 
ENDROOT
BRANCH   1   2
ATOM      2  C   UNL     1     188.472 202.175 210.680  1.00  0.00     0.000 C 
BRANCH   2   3
ATOM      3  C   UNL     1     188.944 203.374 211.517  1.00  0.00    -0.003 C 
ATOM      4  C   UNL     1     189.517 202.918 212.856  1.00  0.00     0.004 C 
ENDBRANCH   2   3
ENDBRANCH   1   2
BRANCH   1   5
ATOM      5  C   UNL     1     186.112 201.205 210.816  1.00  0.00     0.080 C 
BRANCH   5   6
ATOM      6  C   UNL     1     185.061 201.801 211.705  1.00  0.00     0.155 C 
ATOM      7  O   UNL     1     183.877 201.902 211.281  1.00  0.00    -0.295 OA
BRANCH   6   8
ATOM      8  C   UNL     1     185.404 202.221 213.079  1.00  0.00     0.039 C 
ATOM      9  C   UNL     1     186.198 201.501 213.868  1.00  0.00     0.012 C 
ENDBRANCH   6   8
ENDBRANCH   5   6
ENDBRANCH   1   5
TORSDOF 5
ENDMDL
MODEL 5
REMARK VINA RESULT:    -2.666      2.207      4.489
REMARK INTER + INTRA:          -4.005
REMARK INTER:                  -3.851
REMARK INTRA:                  -0.155
REMARK UNBOUND:                -0.560
REMARK SMILES C=CC(=O)CCCCC
REMARK SMILES IDX 6 1 7 2 8 3 9 4 5 5 3 6 4 7 2 8 1 9
REMARK H PARENT
REMARK Flexibility Score: inf
ROOT
ATOM      1  C   UNL     1     188.943 202.499 212.969  1.00  0.00     0.008 C 
ENDROOT
BRANCH   1   2
ATOM      2  C   UNL     1     190.285 203.097 213.419  1.00  0.00     0.000 C 
BRANCH   2   3
ATOM      3  C   UNL     1     190.279 204.633 213.415  1.00  0.00    -0.003 C 
ATOM      4  C   UNL     1     191.639 205.188 213.830  1.00  0.00     0.004 C 
ENDBRANCH   2   3
ENDBRANCH   1   2
BRANCH   1   5
ATOM      5  C   UNL     1     188.166 201.856 214.125  1.00  0.00     0.080 C 
BRANCH   5   6
ATOM      6  C   UNL     1     186.882 201.261 213.626  1.00  0.00     0.155 C 
ATOM      7  O   UNL     1     186.791 200.011 213.490  1.00  0.00    -0.295 OA
BRANCH   6   8
ATOM      8  C   UNL     1     185.724 202.133 213.343  1.00  0.00     0.039 C 
ATOM      9  C   UNL     1     185.062 202.090 212.188  1.00  0.00     0.012 C 
ENDBRANCH   6   8
ENDBRANCH   5   6
ENDBRANCH   1   5
TORSDOF 5
ENDMDL
MODEL 6
REMARK VINA RESULT:    -2.601      1.252      2.503
REMARK INTER + INTRA:          -3.921
REMARK INTER:                  -3.388
REMARK INTRA:                  -0.533
REMARK UNBOUND:                -0.560
REMARK SMILES C=CC(=O)CCCCC
REMARK SMILES IDX 6 1 7 2 8 3 9 4 5 5 3 6 4 7 2 8 1 9
REMARK H PARENT
REMARK Flexibility Score: inf
ROOT
ATOM      1  C   UNL     1     186.811 201.351 210.992  1.00  0.00     0.008 C 
ENDROOT
BRANCH   1   2
ATOM      2  C   UNL     1     185.335 201.632 211.318  1.00  0.00     0.000 C 
BRANCH   2   3
ATOM      3  C   UNL     1     185.155 202.361 212.659  1.00  0.00    -0.003 C 
ATOM      4  C   UNL     1     185.930 201.663 213.772  1.00  0.00     0.004 C 
ENDBRANCH   2   3
ENDBRANCH   1   2
BRANCH   1   5
ATOM      5  C   UNL     1     187.480 202.510 210.242  1.00  0.00     0.080 C 
BRANCH   5   6
ATOM      6  C   UNL     1     188.573 203.112 211.076  1.00  0.00     0.155 C 
ATOM      7  O   UNL     1     188.924 204.305 210.867  1.00  0.00    -0.295 OA
BRANCH   6   8
ATOM      8  C   UNL     1     189.196 202.325 212.159  1.00  0.00     0.039 C 
ATOM      9  C   UNL     1     189.490 202.851 213.346  1.00  0.00     0.012 C 
ENDBRANCH   6   8
ENDBRANCH   5   6
ENDBRANCH   1   5
TORSDOF 5
ENDMDL
MODEL 7
REMARK VINA RESULT:    -2.570      2.807      4.185
REMARK INTER + INTRA:          -3.881
REMARK INTER:                  -3.324
REMARK INTRA:                  -0.557
REMARK UNBOUND:                -0.560
REMARK SMILES C=CC(=O)CCCCC
REMARK SMILES IDX 6 1 7 2 8 3 9 4 5 5 3 6 4 7 2 8 1 9
REMARK H PARENT
REMARK Flexibility Score: inf
ROOT
ATOM      1  C   UNL     1     185.477 202.355 212.271  1.00  0.00     0.008 C 
ENDROOT
BRANCH   1   2
ATOM      2  C   UNL     1     185.719 201.580 213.576  1.00  0.00     0.000 C 
BRANCH   2   3
ATOM      3  C   UNL     1     187.182 201.646 214.039  1.00  0.00    -0.003 C 
ATOM      4  C   UNL     1     188.114 201.961 212.872  1.00  0.00     0.004 C 
ENDBRANCH   2   3
ENDBRANCH   1   2
BRANCH   1   5
ATOM      5  C   UNL     1     184.376 201.727 211.407  1.00  0.00     0.080 C 
BRANCH   5   6
ATOM      6  C   UNL     1     184.894 200.508 210.703  1.00  0.00     0.155 C 
ATOM      7  O   UNL     1     184.207 199.450 210.712  1.00  0.00    -0.295 OA
BRANCH   6   8
ATOM      8  C   UNL     1     186.174 200.565 209.969  1.00  0.00     0.039 C 
ATOM      9  C   UNL     1     187.096 199.609 210.065  1.00  0.00     0.012 C 
ENDBRANCH   6   8
ENDBRANCH   5   6
ENDBRANCH   1   5
TORSDOF 5
ENDMDL
MODEL 8
REMARK VINA RESULT:    -2.543      2.566      3.332
REMARK INTER + INTRA:          -3.847
REMARK INTER:                  -3.294
REMARK INTRA:                  -0.553
REMARK UNBOUND:                -0.560
REMARK SMILES C=CC(=O)CCCCC
REMARK SMILES IDX 6 1 7 2 8 3 9 4 5 5 3 6 4 7 2 8 1 9
REMARK H PARENT
REMARK Flexibility Score: inf
ROOT
ATOM      1  C   UNL     1     187.182 201.267 214.124  1.00  0.00     0.008 C 
ENDROOT
BRANCH   1   2
ATOM      2  C   UNL     1     187.348 199.740 214.125  1.00  0.00     0.000 C 
BRANCH   2   3
ATOM      3  C   UNL     1     188.349 199.254 213.065  1.00  0.00    -0.003 C 
ATOM      4  C   UNL     1     187.626 198.721 211.831  1.00  0.00     0.004 C 
ENDBRANCH   2   3
ENDBRANCH   1   2
BRANCH   1   5
ATOM      5  C   UNL     1     185.761 201.707 213.749  1.00  0.00     0.080 C 
BRANCH   5   6
ATOM      6  C   UNL     1     185.675 202.005 212.282  1.00  0.00     0.155 C 
ATOM      7  O   UNL     1     184.550 201.984 211.711  1.00  0.00    -0.295 OA
BRANCH   6   8
ATOM      8  C   UNL     1     186.892 202.365 211.527  1.00  0.00     0.039 C 
ATOM      9  C   UNL     1     186.978 202.234 210.205  1.00  0.00     0.012 C 
ENDBRANCH   6   8
ENDBRANCH   5   6
ENDBRANCH   1   5
TORSDOF 5
ENDMDL
