MODEL 1
REMARK VINA RESULT:    -5.166      0.000      0.000
REMARK INTER + INTRA:          -8.518
REMARK INTER:                  -8.035
REMARK INTRA:                  -0.482
REMARK UNBOUND:                -0.482
REMARK SMILES COc1cc(CNC(=O)CCCCC=CC(C)C)ccc1O
REMARK SMILES IDX 11 1 12 2 13 3 14 4 15 5 16 6 17 7 18 8 10 9 8 10 9 11 7 12
REMARK SMILES IDX 6 14 5 15 4 16 19 17 3 18 20 19 21 20 2 21 1 22 22 23
REMARK H PARENT 7 13 22 24
REMARK Flexibility Score: inf
ROOT
ATOM      1  C   UNL     1     -13.257 -19.168  20.603  1.00  0.00     0.010 C 
ENDROOT
BRANCH   1   2
ATOM      2  C   UNL     1     -13.001 -18.897  19.112  1.00  0.00     0.005 C 
BRANCH   2   3
ATOM      3  C   UNL     1     -11.504 -18.869  18.767  1.00  0.00     0.027 C 
BRANCH   3   4
ATOM      4  C   UNL     1     -11.157 -17.658  17.944  1.00  0.00    -0.031 C 
ATOM      5  C   UNL     1     -11.600 -17.510  16.687  1.00  0.00    -0.028 C 
BRANCH   5   6
ATOM      6  C   UNL     1     -11.253 -16.287  15.870  1.00  0.00     0.005 C 
ATOM      7  C   UNL     1     -11.229 -15.038  16.759  1.00  0.00     0.012 C 
ATOM      8  C   UNL     1     -12.254 -16.108  14.724  1.00  0.00     0.012 C 
ENDBRANCH   5   6
ENDBRANCH   3   4
ENDBRANCH   2   3
ENDBRANCH   1   2
BRANCH   1   9
ATOM      9  C   UNL     1     -13.682 -20.617  20.876  1.00  0.00     0.100 C 
BRANCH   9  10
ATOM     10  C   UNL     1     -13.680 -20.893  22.348  1.00  0.00     0.220 C 
ATOM     11  O   UNL     1     -12.812 -20.347  23.082  1.00  0.00    -0.275 OA
ATOM     12  N   UNL     1     -14.633 -21.806  22.909  1.00  0.00    -0.352 N 
ATOM     13  H   UNL     1     -15.312 -22.284  22.274  1.00  0.00     0.163 HD
BRANCH  12  14
ATOM     14  C   UNL     1     -14.685 -22.108  24.337  1.00  0.00     0.151 C 
BRANCH  14  15
ATOM     15  C   UNL     1     -16.015 -22.716  24.693  1.00  0.00    -0.025 A 
ATOM     16  C   UNL     1     -16.535 -23.766  23.920  1.00  0.00     0.056 A 
ATOM     17  C   UNL     1     -16.758 -22.222  25.775  1.00  0.00     0.009 A 
ATOM     18  C   UNL     1     -17.790 -24.327  24.228  1.00  0.00     0.160 A 
ATOM     19  C   UNL     1     -18.003 -22.776  26.085  1.00  0.00     0.050 A 
ATOM     20  C   UNL     1     -18.519 -23.826  25.315  1.00  0.00     0.157 A 
BRANCH  18  21
ATOM     21  O   UNL     1     -18.344 -25.376  23.479  1.00  0.00    -0.493 OA
ATOM     22  C   UNL     1     -17.912 -26.731  23.546  1.00  0.00     0.278 C 
ENDBRANCH  18  21
BRANCH  20  23
ATOM     23  O   UNL     1     -19.762 -24.376  25.625  1.00  0.00    -0.504 OA
ATOM     24  H   UNL     1     -20.556 -24.279  25.003  1.00  0.00     0.293 HD
ENDBRANCH  20  23
ENDBRANCH  14  15
ENDBRANCH  12  14
ENDBRANCH   9  10
ENDBRANCH   1   9
TORSDOF 10
ENDMDL
MODEL 2
REMARK VINA RESULT:    -5.141      1.152      2.178
REMARK INTER + INTRA:          -8.479
REMARK INTER:                  -7.990
REMARK INTRA:                  -0.489
REMARK UNBOUND:                -0.482
REMARK SMILES COc1cc(CNC(=O)CCCCC=CC(C)C)ccc1O
REMARK SMILES IDX 11 1 12 2 13 3 14 4 15 5 16 6 17 7 18 8 10 9 8 10 9 11 7 12
REMARK SMILES IDX 6 14 5 15 4 16 19 17 3 18 20 19 21 20 2 21 1 22 22 23
REMARK H PARENT 7 13 22 24
REMARK Flexibility Score: inf
ROOT
ATOM      1  C   UNL     1     -12.652 -19.968  20.106  1.00  0.00     0.010 C 
ENDROOT
BRANCH   1   2
ATOM      2  C   UNL     1     -12.645 -18.689  19.254  1.00  0.00     0.005 C 
BRANCH   2   3
ATOM      3  C   UNL     1     -11.704 -18.794  18.043  1.00  0.00     0.027 C 
BRANCH   3   4
ATOM      4  C   UNL     1     -11.447 -17.442  17.434  1.00  0.00    -0.031 C 
ATOM      5  C   UNL     1     -11.595 -17.222  16.119  1.00  0.00    -0.028 C 
BRANCH   5   6
ATOM      6  C   UNL     1     -11.343 -15.860  15.517  1.00  0.00     0.005 C 
ATOM      7  C   UNL     1     -11.377 -14.779  16.603  1.00  0.00     0.012 C 
ATOM      8  C   UNL     1     -12.377 -15.556  14.428  1.00  0.00     0.012 C 
ENDBRANCH   5   6
ENDBRANCH   3   4
ENDBRANCH   2   3
ENDBRANCH   1   2
BRANCH   1   9
ATOM      9  C   UNL     1     -13.908 -20.091  20.978  1.00  0.00     0.100 C 
BRANCH   9  10
ATOM     10  C   UNL     1     -13.881 -21.371  21.755  1.00  0.00     0.220 C 
ATOM     11  O   UNL     1     -13.509 -22.434  21.189  1.00  0.00    -0.275 OA
ATOM     12  N   UNL     1     -14.317 -21.390  23.121  1.00  0.00    -0.352 N 
ATOM     13  H   UNL     1     -14.666 -20.507  23.555  1.00  0.00     0.163 HD
BRANCH  12  14
ATOM     14  C   UNL     1     -14.305 -22.606  23.932  1.00  0.00     0.151 C 
BRANCH  14  15
ATOM     15  C   UNL     1     -15.707 -22.983  24.326  1.00  0.00    -0.025 A 
ATOM     16  C   UNL     1     -16.368 -22.266  25.336  1.00  0.00     0.056 A 
ATOM     17  C   UNL     1     -16.353 -24.067  23.714  1.00  0.00     0.009 A 
ATOM     18  C   UNL     1     -17.672 -22.625  25.732  1.00  0.00     0.160 A 
ATOM     19  C   UNL     1     -17.646 -24.425  24.101  1.00  0.00     0.050 A 
ATOM     20  C   UNL     1     -18.306 -23.708  25.107  1.00  0.00     0.157 A 
BRANCH  18  21
ATOM     21  O   UNL     1     -18.365 -21.935  26.738  1.00  0.00    -0.493 OA
ATOM     22  C   UNL     1     -18.046 -21.995  28.124  1.00  0.00     0.278 C 
ENDBRANCH  18  21
BRANCH  20  23
ATOM     23  O   UNL     1     -19.596 -24.068  25.493  1.00  0.00    -0.504 OA
ATOM     24  H   UNL     1     -19.761 -24.761  26.215  1.00  0.00     0.293 HD
ENDBRANCH  20  23
ENDBRANCH  14  15
ENDBRANCH  12  14
ENDBRANCH   9  10
ENDBRANCH   1   9
TORSDOF 10
ENDMDL
MODEL 3
REMARK VINA RESULT:    -4.976      1.467      2.471
REMARK INTER + INTRA:          -8.221
REMARK INTER:                  -7.328
REMARK INTRA:                  -0.893
REMARK UNBOUND:                -0.482
REMARK SMILES COc1cc(CNC(=O)CCCCC=CC(C)C)ccc1O
REMARK SMILES IDX 11 1 12 2 13 3 14 4 15 5 16 6 17 7 18 8 10 9 8 10 9 11 7 12
REMARK SMILES IDX 6 14 5 15 4 16 19 17 3 18 20 19 21 20 2 21 1 22 22 23
REMARK H PARENT 7 13 22 24
REMARK Flexibility Score: inf
ROOT
ATOM      1  C   UNL     1     -13.441 -22.354  21.531  1.00  0.00     0.010 C 
ENDROOT
BRANCH   1   2
ATOM      2  C   UNL     1     -12.860 -22.645  20.139  1.00  0.00     0.005 C 
BRANCH   2   3
ATOM      3  C   UNL     1     -13.477 -21.757  19.046  1.00  0.00     0.027 C 
BRANCH   3   4
ATOM      4  C   UNL     1     -12.666 -20.508  18.837  1.00  0.00    -0.031 C 
ATOM      5  C   UNL     1     -13.118 -19.303  19.216  1.00  0.00    -0.028 C 
BRANCH   5   6
ATOM      6  C   UNL     1     -12.293 -18.054  19.010  1.00  0.00     0.005 C 
ATOM      7  C   UNL     1     -11.677 -18.043  17.606  1.00  0.00     0.012 C 
ATOM      8  C   UNL     1     -11.196 -17.955  20.075  1.00  0.00     0.012 C 
ENDBRANCH   5   6
ENDBRANCH   3   4
ENDBRANCH   2   3
ENDBRANCH   1   2
BRANCH   1   9
ATOM      9  C   UNL     1     -12.550 -21.422  22.361  1.00  0.00     0.100 C 
BRANCH   9  10
ATOM     10  C   UNL     1     -13.081 -21.297  23.756  1.00  0.00     0.220 C 
ATOM     11  O   UNL     1     -12.337 -20.835  24.665  1.00  0.00    -0.275 OA
ATOM     12  N   UNL     1     -14.410 -21.738  24.061  1.00  0.00    -0.352 N 
ATOM     13  H   UNL     1     -14.991 -22.161  23.303  1.00  0.00     0.163 HD
BRANCH  12  14
ATOM     14  C   UNL     1     -14.986 -21.632  25.400  1.00  0.00     0.151 C 
BRANCH  14  15
ATOM     15  C   UNL     1     -16.292 -22.375  25.466  1.00  0.00    -0.025 A 
ATOM     16  C   UNL     1     -16.609 -23.326  24.483  1.00  0.00     0.056 A 
ATOM     17  C   UNL     1     -17.215 -22.105  26.487  1.00  0.00     0.009 A 
ATOM     18  C   UNL     1     -17.840 -24.010  24.519  1.00  0.00     0.160 A 
ATOM     19  C   UNL     1     -18.437 -22.782  26.528  1.00  0.00     0.050 A 
ATOM     20  C   UNL     1     -18.751 -23.733  25.549  1.00  0.00     0.157 A 
BRANCH  18  21
ATOM     21  O   UNL     1     -18.194 -24.965  23.554  1.00  0.00    -0.493 OA
ATOM     22  C   UNL     1     -17.855 -26.346  23.623  1.00  0.00     0.278 C 
ENDBRANCH  18  21
BRANCH  20  23
ATOM     23  O   UNL     1     -19.971 -24.406  25.591  1.00  0.00    -0.504 OA
ATOM     24  H   UNL     1     -20.851 -23.917  25.478  1.00  0.00     0.293 HD
ENDBRANCH  20  23
ENDBRANCH  14  15
ENDBRANCH  12  14
ENDBRANCH   9  10
ENDBRANCH   1   9
TORSDOF 10
ENDMDL
MODEL 4
REMARK VINA RESULT:    -4.756      2.694      4.641
REMARK INTER + INTRA:          -7.880
REMARK INTER:                  -6.425
REMARK INTRA:                  -1.455
REMARK UNBOUND:                -0.482
REMARK SMILES COc1cc(CNC(=O)CCCCC=CC(C)C)ccc1O
REMARK SMILES IDX 11 1 12 2 13 3 14 4 15 5 16 6 17 7 18 8 10 9 8 10 9 11 7 12
REMARK SMILES IDX 6 14 5 15 4 16 19 17 3 18 20 19 21 20 2 21 1 22 22 23
REMARK H PARENT 7 13 22 24
REMARK Flexibility Score: inf
ROOT
ATOM      1  C   UNL     1     -13.976 -20.085  20.830  1.00  0.00     0.010 C 
ENDROOT
BRANCH   1   2
ATOM      2  C   UNL     1     -13.101 -20.305  19.586  1.00  0.00     0.005 C 
BRANCH   2   3
ATOM      3  C   UNL     1     -13.196 -21.741  19.047  1.00  0.00     0.027 C 
BRANCH   3   4
ATOM      4  C   UNL     1     -12.433 -22.702  19.917  1.00  0.00    -0.031 C 
ATOM      5  C   UNL     1     -13.055 -23.650  20.633  1.00  0.00    -0.028 C 
BRANCH   5   6
ATOM      6  C   UNL     1     -12.281 -24.616  21.499  1.00  0.00     0.005 C 
ATOM      7  C   UNL     1     -13.238 -25.476  22.332  1.00  0.00     0.012 C 
ATOM      8  C   UNL     1     -11.311 -23.857  22.411  1.00  0.00     0.012 C 
ENDBRANCH   5   6
ENDBRANCH   3   4
ENDBRANCH   2   3
ENDBRANCH   1   2
BRANCH   1   9
ATOM      9  C   UNL     1     -13.175 -19.573  22.034  1.00  0.00     0.100 C 
BRANCH   9  10
ATOM     10  C   UNL     1     -13.131 -20.612  23.112  1.00  0.00     0.220 C 
ATOM     11  O   UNL     1     -12.090 -20.734  23.814  1.00  0.00    -0.275 OA
ATOM     12  N   UNL     1     -14.249 -21.487  23.313  1.00  0.00    -0.352 N 
ATOM     13  H   UNL     1     -15.081 -21.398  22.688  1.00  0.00     0.163 HD
BRANCH  12  14
ATOM     14  C   UNL     1     -14.266 -22.512  24.354  1.00  0.00     0.151 C 
BRANCH  14  15
ATOM     15  C   UNL     1     -15.682 -22.921  24.658  1.00  0.00    -0.025 A 
ATOM     16  C   UNL     1     -16.257 -24.012  23.989  1.00  0.00     0.056 A 
ATOM     17  C   UNL     1     -16.448 -22.200  25.587  1.00  0.00     0.009 A 
ATOM     18  C   UNL     1     -17.590 -24.389  24.247  1.00  0.00     0.160 A 
ATOM     19  C   UNL     1     -17.770 -22.571  25.847  1.00  0.00     0.050 A 
ATOM     20  C   UNL     1     -18.341 -23.662  25.181  1.00  0.00     0.157 A 
BRANCH  18  21
ATOM     21  O   UNL     1     -18.200 -25.473  23.597  1.00  0.00    -0.493 OA
ATOM     22  C   UNL     1     -17.683 -26.800  23.583  1.00  0.00     0.278 C 
ENDBRANCH  18  21
BRANCH  20  23
ATOM     23  O   UNL     1     -19.660 -24.029  25.441  1.00  0.00    -0.504 OA
ATOM     24  H   UNL     1     -19.902 -24.967  25.739  1.00  0.00     0.293 HD
ENDBRANCH  20  23
ENDBRANCH  14  15
ENDBRANCH  12  14
ENDBRANCH   9  10
ENDBRANCH   1   9
TORSDOF 10
ENDMDL
MODEL 5
REMARK VINA RESULT:    -4.748      2.781      5.015
REMARK INTER + INTRA:          -7.867
REMARK INTER:                  -6.352
REMARK INTRA:                  -1.515
REMARK UNBOUND:                -0.482
REMARK SMILES COc1cc(CNC(=O)CCCCC=CC(C)C)ccc1O
REMARK SMILES IDX 11 1 12 2 13 3 14 4 15 5 16 6 17 7 18 8 10 9 8 10 9 11 7 12
REMARK SMILES IDX 6 14 5 15 4 16 19 17 3 18 20 19 21 20 2 21 1 22 22 23
REMARK H PARENT 7 13 22 24
REMARK Flexibility Score: inf
ROOT
ATOM      1  C   UNL     1     -13.887 -19.875  20.819  1.00  0.00     0.010 C 
ENDROOT
BRANCH   1   2
ATOM      2  C   UNL     1     -13.295 -20.185  19.435  1.00  0.00     0.005 C 
BRANCH   2   3
ATOM      3  C   UNL     1     -13.460 -21.661  19.041  1.00  0.00     0.027 C 
BRANCH   3   4
ATOM      4  C   UNL     1     -12.595 -22.552  19.890  1.00  0.00    -0.031 C 
ATOM      5  C   UNL     1     -13.123 -23.420  20.765  1.00  0.00    -0.028 C 
BRANCH   5   6
ATOM      6  C   UNL     1     -12.247 -24.317  21.608  1.00  0.00     0.005 C 
ATOM      7  C   UNL     1     -13.105 -25.285  22.432  1.00  0.00     0.012 C 
ATOM      8  C   UNL     1     -11.354 -23.479  22.530  1.00  0.00     0.012 C 
ENDBRANCH   5   6
ENDBRANCH   3   4
ENDBRANCH   2   3
ENDBRANCH   1   2
BRANCH   1   9
ATOM      9  C   UNL     1     -12.832 -19.381  21.816  1.00  0.00     0.100 C 
BRANCH   9  10
ATOM     10  C   UNL     1     -12.894 -20.181  23.082  1.00  0.00     0.220 C 
ATOM     11  O   UNL     1     -11.951 -20.098  23.915  1.00  0.00    -0.275 OA
ATOM     12  N   UNL     1     -13.998 -21.064  23.320  1.00  0.00    -0.352 N 
ATOM     13  H   UNL     1     -14.744 -21.151  22.594  1.00  0.00     0.163 HD
BRANCH  12  14
ATOM     14  C   UNL     1     -14.117 -21.861  24.539  1.00  0.00     0.151 C 
BRANCH  14  15
ATOM     15  C   UNL     1     -15.486 -22.481  24.624  1.00  0.00    -0.025 A 
ATOM     16  C   UNL     1     -16.298 -22.236  25.742  1.00  0.00     0.056 A 
ATOM     17  C   UNL     1     -15.950 -23.328  23.607  1.00  0.00     0.009 A 
ATOM     18  C   UNL     1     -17.572 -22.830  25.846  1.00  0.00     0.160 A 
ATOM     19  C   UNL     1     -17.212 -23.918  23.704  1.00  0.00     0.050 A 
ATOM     20  C   UNL     1     -18.023 -23.671  24.819  1.00  0.00     0.157 A 
BRANCH  18  21
ATOM     21  O   UNL     1     -18.411 -22.611  26.949  1.00  0.00    -0.493 OA
ATOM     22  C   UNL     1     -18.477 -21.394  27.684  1.00  0.00     0.278 C 
ENDBRANCH  18  21
BRANCH  20  23
ATOM     23  O   UNL     1     -19.282 -24.262  24.915  1.00  0.00    -0.504 OA
ATOM     24  H   UNL     1     -19.811 -24.522  24.090  1.00  0.00     0.293 HD
ENDBRANCH  20  23
ENDBRANCH  14  15
ENDBRANCH  12  14
ENDBRANCH   9  10
ENDBRANCH   1   9
TORSDOF 10
ENDMDL
MODEL 6
REMARK VINA RESULT:    -4.656      2.723      3.868
REMARK INTER + INTRA:          -7.724
REMARK INTER:                  -6.701
REMARK INTRA:                  -1.023
REMARK UNBOUND:                -0.482
REMARK SMILES COc1cc(CNC(=O)CCCCC=CC(C)C)ccc1O
REMARK SMILES IDX 11 1 12 2 13 3 14 4 15 5 16 6 17 7 18 8 10 9 8 10 9 11 7 12
REMARK SMILES IDX 6 14 5 15 4 16 19 17 3 18 20 19 21 20 2 21 1 22 22 23
REMARK H PARENT 7 13 22 24
REMARK Flexibility Score: inf
ROOT
ATOM      1  C   UNL     1     -12.197 -19.348  23.539  1.00  0.00     0.010 C 
ENDROOT
BRANCH   1   2
ATOM      2  C   UNL     1     -12.717 -17.987  23.051  1.00  0.00     0.005 C 
BRANCH   2   3
ATOM      3  C   UNL     1     -12.698 -17.864  21.519  1.00  0.00     0.027 C 
BRANCH   3   4
ATOM      4  C   UNL     1     -12.594 -19.216  20.866  1.00  0.00    -0.031 C 
ATOM      5  C   UNL     1     -13.517 -19.650  19.996  1.00  0.00    -0.028 C 
BRANCH   5   6
ATOM      6  C   UNL     1     -13.401 -21.006  19.339  1.00  0.00     0.005 C 
ATOM      7  C   UNL     1     -13.131 -22.090  20.388  1.00  0.00     0.012 C 
ATOM      8  C   UNL     1     -12.290 -20.995  18.283  1.00  0.00     0.012 C 
ENDBRANCH   5   6
ENDBRANCH   3   4
ENDBRANCH   2   3
ENDBRANCH   1   2
BRANCH   1   9
ATOM      9  C   UNL     1     -13.115 -19.990  24.587  1.00  0.00     0.100 C 
BRANCH   9  10
ATOM     10  C   UNL     1     -13.417 -21.410  24.217  1.00  0.00     0.220 C 
ATOM     11  O   UNL     1     -12.507 -22.279  24.294  1.00  0.00    -0.275 OA
ATOM     12  N   UNL     1     -14.721 -21.765  23.738  1.00  0.00    -0.352 N 
ATOM     13  H   UNL     1     -15.445 -21.019  23.637  1.00  0.00     0.163 HD
BRANCH  12  14
ATOM     14  C   UNL     1     -15.077 -23.134  23.371  1.00  0.00     0.151 C 
BRANCH  14  15
ATOM     15  C   UNL     1     -16.363 -23.535  24.040  1.00  0.00    -0.025 A 
ATOM     16  C   UNL     1     -16.839 -22.806  25.140  1.00  0.00     0.056 A 
ATOM     17  C   UNL     1     -17.081 -24.654  23.592  1.00  0.00     0.009 A 
ATOM     18  C   UNL     1     -18.029 -23.186  25.791  1.00  0.00     0.160 A 
ATOM     19  C   UNL     1     -18.263 -25.035  24.233  1.00  0.00     0.050 A 
ATOM     20  C   UNL     1     -18.738 -24.304  25.329  1.00  0.00     0.157 A 
BRANCH  18  21
ATOM     21  O   UNL     1     -18.535 -22.483  26.895  1.00  0.00    -0.493 OA
ATOM     22  C   UNL     1     -18.052 -21.219  27.337  1.00  0.00     0.278 C 
ENDBRANCH  18  21
BRANCH  20  23
ATOM     23  O   UNL     1     -19.916 -24.686  25.968  1.00  0.00    -0.504 OA
ATOM     24  H   UNL     1     -20.193 -25.659  26.034  1.00  0.00     0.293 HD
ENDBRANCH  20  23
ENDBRANCH  14  15
ENDBRANCH  12  14
ENDBRANCH   9  10
ENDBRANCH   1   9
TORSDOF 10
ENDMDL
MODEL 7
REMARK VINA RESULT:    -4.644      3.586      8.749
REMARK INTER + INTRA:          -7.706
REMARK INTER:                  -6.703
REMARK INTRA:                  -1.003
REMARK UNBOUND:                -0.482
REMARK SMILES COc1cc(CNC(=O)CCCCC=CC(C)C)ccc1O
REMARK SMILES IDX 11 1 12 2 13 3 14 4 15 5 16 6 17 7 18 8 10 9 8 10 9 11 7 12
REMARK SMILES IDX 6 14 5 15 4 16 19 17 3 18 20 19 21 20 2 21 1 22 22 23
REMARK H PARENT 7 13 22 24
REMARK Flexibility Score: inf
ROOT
ATOM      1  C   UNL     1     -13.096 -24.796  23.161  1.00  0.00     0.010 C 
ENDROOT
BRANCH   1   2
ATOM      2  C   UNL     1     -14.562 -24.611  23.583  1.00  0.00     0.005 C 
BRANCH   2   3
ATOM      3  C   UNL     1     -15.020 -23.146  23.492  1.00  0.00     0.027 C 
BRANCH   3   4
ATOM      4  C   UNL     1     -16.399 -22.970  24.066  1.00  0.00    -0.031 C 
ATOM      5  C   UNL     1     -16.590 -22.593  25.339  1.00  0.00    -0.028 C 
BRANCH   5   6
ATOM      6  C   UNL     1     -17.979 -22.410  25.905  1.00  0.00     0.005 C 
ATOM      7  C   UNL     1     -17.913 -21.753  27.288  1.00  0.00     0.012 C 
ATOM      8  C   UNL     1     -18.704 -23.758  25.987  1.00  0.00     0.012 C 
ENDBRANCH   5   6
ENDBRANCH   3   4
ENDBRANCH   2   3
ENDBRANCH   1   2
BRANCH   1   9
ATOM      9  C   UNL     1     -12.956 -25.394  21.756  1.00  0.00     0.100 C 
BRANCH   9  10
ATOM     10  C   UNL     1     -12.426 -24.367  20.802  1.00  0.00     0.220 C 
ATOM     11  O   UNL     1     -11.270 -24.507  20.318  1.00  0.00    -0.275 OA
ATOM     12  N   UNL     1     -13.215 -23.214  20.477  1.00  0.00    -0.352 N 
ATOM     13  H   UNL     1     -14.150 -23.095  20.928  1.00  0.00     0.163 HD
BRANCH  12  14
ATOM     14  C   UNL     1     -12.755 -22.185  19.547  1.00  0.00     0.151 C 
BRANCH  14  15
ATOM     15  C   UNL     1     -12.794 -20.833  20.206  1.00  0.00    -0.025 A 
ATOM     16  C   UNL     1     -12.854 -20.736  21.605  1.00  0.00     0.056 A 
ATOM     17  C   UNL     1     -12.803 -19.663  19.433  1.00  0.00     0.009 A 
ATOM     18  C   UNL     1     -12.916 -19.476  22.233  1.00  0.00     0.160 A 
ATOM     19  C   UNL     1     -12.863 -18.411  20.050  1.00  0.00     0.050 A 
ATOM     20  C   UNL     1     -12.919 -18.315  21.446  1.00  0.00     0.157 A 
BRANCH  18  21
ATOM     21  O   UNL     1     -12.979 -19.338  23.628  1.00  0.00    -0.493 OA
ATOM     22  C   UNL     1     -11.848 -19.368  24.493  1.00  0.00     0.278 C 
ENDBRANCH  18  21
BRANCH  20  23
ATOM     23  O   UNL     1     -12.981 -17.066  22.061  1.00  0.00    -0.504 OA
ATOM     24  H   UNL     1     -13.683 -16.382  21.804  1.00  0.00     0.293 HD
ENDBRANCH  20  23
ENDBRANCH  14  15
ENDBRANCH  12  14
ENDBRANCH   9  10
ENDBRANCH   1   9
TORSDOF 10
ENDMDL
MODEL 8
REMARK VINA RESULT:    -4.608      2.467      4.568
REMARK INTER + INTRA:          -7.649
REMARK INTER:                  -6.542
REMARK INTRA:                  -1.107
REMARK UNBOUND:                -0.482
REMARK SMILES COc1cc(CNC(=O)CCCCC=CC(C)C)ccc1O
REMARK SMILES IDX 11 1 12 2 13 3 14 4 15 5 16 6 17 7 18 8 10 9 8 10 9 11 7 12
REMARK SMILES IDX 6 14 5 15 4 16 19 17 3 18 20 19 21 20 2 21 1 22 22 23
REMARK H PARENT 7 13 22 24
REMARK Flexibility Score: inf
ROOT
ATOM      1  C   UNL     1     -13.883 -20.002  20.480  1.00  0.00     0.010 C 
ENDROOT
BRANCH   1   2
ATOM      2  C   UNL     1     -13.018 -18.934  19.793  1.00  0.00     0.005 C 
BRANCH   2   3
ATOM      3  C   UNL     1     -12.189 -18.114  20.795  1.00  0.00     0.027 C 
BRANCH   3   4
ATOM      4  C   UNL     1     -12.837 -18.097  22.153  1.00  0.00    -0.031 C 
ATOM      5  C   UNL     1     -12.121 -18.244  23.277  1.00  0.00    -0.028 C 
BRANCH   5   6
ATOM      6  C   UNL     1     -12.778 -18.218  24.637  1.00  0.00     0.005 C 
ATOM      7  C   UNL     1     -11.847 -17.575  25.671  1.00  0.00     0.012 C 
ATOM      8  C   UNL     1     -13.164 -19.635  25.072  1.00  0.00     0.012 C 
ENDBRANCH   5   6
ENDBRANCH   3   4
ENDBRANCH   2   3
ENDBRANCH   1   2
BRANCH   1   9
ATOM      9  C   UNL     1     -13.196 -21.373  20.536  1.00  0.00     0.100 C 
BRANCH   9  10
ATOM     10  C   UNL     1     -13.161 -21.883  21.944  1.00  0.00     0.220 C 
ATOM     11  O   UNL     1     -12.063 -21.920  22.565  1.00  0.00    -0.275 OA
ATOM     12  N   UNL     1     -14.361 -22.364  22.564  1.00  0.00    -0.352 N 
ATOM     13  H   UNL     1     -15.249 -22.369  22.014  1.00  0.00     0.163 HD
BRANCH  12  14
ATOM     14  C   UNL     1     -14.390 -22.865  23.936  1.00  0.00     0.151 C 
BRANCH  14  15
ATOM     15  C   UNL     1     -15.802 -23.195  24.340  1.00  0.00    -0.025 A 
ATOM     16  C   UNL     1     -16.461 -22.404  25.293  1.00  0.00     0.056 A 
ATOM     17  C   UNL     1     -16.458 -24.308  23.794  1.00  0.00     0.009 A 
ATOM     18  C   UNL     1     -17.774 -22.717  25.699  1.00  0.00     0.160 A 
ATOM     19  C   UNL     1     -17.760 -24.622  24.191  1.00  0.00     0.050 A 
ATOM     20  C   UNL     1     -18.418 -23.830  25.140  1.00  0.00     0.157 A 
BRANCH  18  21
ATOM     21  O   UNL     1     -18.466 -21.952  26.650  1.00  0.00    -0.493 OA
ATOM     22  C   UNL     1     -18.032 -21.747  27.991  1.00  0.00     0.278 C 
ENDBRANCH  18  21
BRANCH  20  23
ATOM     23  O   UNL     1     -19.717 -24.146  25.537  1.00  0.00    -0.504 OA
ATOM     24  H   UNL     1     -20.446 -23.443  25.578  1.00  0.00     0.293 HD
ENDBRANCH  20  23
ENDBRANCH  14  15
ENDBRANCH  12  14
ENDBRANCH   9  10
ENDBRANCH   1   9
TORSDOF 10
ENDMDL
MODEL 9
REMARK VINA RESULT:    -4.595      2.527      3.964
REMARK INTER + INTRA:          -7.629
REMARK INTER:                  -6.737
REMARK INTRA:                  -0.893
REMARK UNBOUND:                -0.482
REMARK SMILES COc1cc(CNC(=O)CCCCC=CC(C)C)ccc1O
REMARK SMILES IDX 11 1 12 2 13 3 14 4 15 5 16 6 17 7 18 8 10 9 8 10 9 11 7 12
REMARK SMILES IDX 6 14 5 15 4 16 19 17 3 18 20 19 21 20 2 21 1 22 22 23
REMARK H PARENT 7 13 22 24
REMARK Flexibility Score: inf
ROOT
ATOM      1  C   UNL     1     -13.942 -20.666  20.822  1.00  0.00     0.010 C 
ENDROOT
BRANCH   1   2
ATOM      2  C   UNL     1     -13.072 -19.771  19.925  1.00  0.00     0.005 C 
BRANCH   2   3
ATOM      3  C   UNL     1     -12.773 -18.407  20.567  1.00  0.00     0.027 C 
BRANCH   3   4
ATOM      4  C   UNL     1     -12.141 -18.569  21.923  1.00  0.00    -0.031 C 
ATOM      5  C   UNL     1     -12.705 -18.059  23.028  1.00  0.00    -0.028 C 
BRANCH   5   6
ATOM      6  C   UNL     1     -12.067 -18.233  24.386  1.00  0.00     0.005 C 
ATOM      7  C   UNL     1     -13.100 -18.009  25.497  1.00  0.00     0.012 C 
ATOM      8  C   UNL     1     -10.888 -17.268  24.552  1.00  0.00     0.012 C 
ENDBRANCH   5   6
ENDBRANCH   3   4
ENDBRANCH   2   3
ENDBRANCH   1   2
BRANCH   1   9
ATOM      9  C   UNL     1     -13.227 -21.957  21.240  1.00  0.00     0.100 C 
BRANCH   9  10
ATOM     10  C   UNL     1     -13.395 -22.196  22.709  1.00  0.00     0.220 C 
ATOM     11  O   UNL     1     -12.506 -22.829  23.341  1.00  0.00    -0.275 OA
ATOM     12  N   UNL     1     -14.580 -21.744  23.379  1.00  0.00    -0.352 N 
ATOM     13  H   UNL     1     -15.324 -21.265  22.826  1.00  0.00     0.163 HD
BRANCH  12  14
ATOM     14  C   UNL     1     -14.795 -21.940  24.811  1.00  0.00     0.151 C 
BRANCH  14  15
ATOM     15  C   UNL     1     -16.132 -22.587  25.053  1.00  0.00    -0.025 A 
ATOM     16  C   UNL     1     -16.565 -23.633  24.223  1.00  0.00     0.056 A 
ATOM     17  C   UNL     1     -16.967 -22.135  26.085  1.00  0.00     0.009 A 
ATOM     18  C   UNL     1     -17.826 -24.230  24.423  1.00  0.00     0.160 A 
ATOM     19  C   UNL     1     -18.216 -22.725  26.289  1.00  0.00     0.050 A 
ATOM     20  C   UNL     1     -18.647 -23.770  25.462  1.00  0.00     0.157 A 
BRANCH  18  21
ATOM     21  O   UNL     1     -18.295 -25.275  23.613  1.00  0.00    -0.493 OA
ATOM     22  C   UNL     1     -17.901 -26.637  23.745  1.00  0.00     0.278 C 
ENDBRANCH  18  21
BRANCH  20  23
ATOM     23  O   UNL     1     -19.895 -24.356  25.666  1.00  0.00    -0.504 OA
ATOM     24  H   UNL     1     -19.991 -25.260  26.115  1.00  0.00     0.293 HD
ENDBRANCH  20  23
ENDBRANCH  14  15
ENDBRANCH  12  14
ENDBRANCH   9  10
ENDBRANCH   1   9
TORSDOF 10
ENDMDL
