MODEL 1
REMARK VINA RESULT:    -3.504      0.000      0.000
REMARK INTER + INTRA:          -3.607
REMARK INTER:                  -3.607
REMARK INTRA:                   0.000
REMARK UNBOUND:                 0.000
REMARK SMILES CC1(C)[C@H]2CC[C@](C)(C2)[C@H]1O
REMARK SMILES IDX 1 1 2 2 4 3 5 4 6 5 7 6 9 7 10 8 8 9 3 10 11 11
REMARK H PARENT 11 12
REMARK Flexibility Score: inf
ROOT
ATOM      1  C   UNL     1     136.190 136.767 143.650  1.00  0.00     0.014 C 
ATOM      2  C   UNL     1     135.168 136.668 144.812  1.00  0.00    -0.006 C 
ATOM      3  C   UNL     1     134.569 138.056 145.231  1.00  0.00    -0.002 C 
ATOM      4  C   UNL     1     134.066 138.843 144.002  1.00  0.00     0.005 C 
ATOM      5  C   UNL     1     132.857 138.016 143.539  1.00  0.00     0.010 C 
ATOM      6  C   UNL     1     132.755 136.924 144.629  1.00  0.00    -0.006 C 
ATOM      7  C   UNL     1     133.239 137.669 145.853  1.00  0.00     0.013 C 
ATOM      8  C   UNL     1     133.877 135.866 144.442  1.00  0.00     0.126 C 
ATOM      9  C   UNL     1     131.351 136.328 144.782  1.00  0.00     0.014 C 
ATOM     10  C   UNL     1     135.900 136.021 146.013  1.00  0.00     0.014 C 
ENDROOT
BRANCH   8  11
ATOM     11  O   UNL     1     133.907 135.355 143.132  1.00  0.00    -0.392 OA
ATOM     12  H   UNL     1     134.701 134.762 143.075  1.00  0.00     0.211 HD
ENDBRANCH   8  11
TORSDOF 1
ENDMDL
MODEL 2
REMARK VINA RESULT:    -3.494     14.308     15.836
REMARK INTER + INTRA:          -3.596
REMARK INTER:                  -3.596
REMARK INTRA:                   0.000
REMARK UNBOUND:                 0.000
REMARK SMILES CC1(C)[C@H]2CC[C@](C)(C2)[C@H]1O
REMARK SMILES IDX 1 1 2 2 4 3 5 4 6 5 7 6 9 7 10 8 8 9 3 10 11 11
REMARK H PARENT 11 12
REMARK Flexibility Score: inf
ROOT
ATOM      1  C   UNL     1     148.561 145.880 143.507  1.00  0.00     0.014 C 
ATOM      2  C   UNL     1     148.908 144.817 144.583  1.00  0.00    -0.006 C 
ATOM      3  C   UNL     1     147.932 144.836 145.810  1.00  0.00    -0.002 C 
ATOM      4  C   UNL     1     146.458 144.827 145.354  1.00  0.00     0.005 C 
ATOM      5  C   UNL     1     146.297 143.425 144.746  1.00  0.00     0.010 C 
ATOM      6  C   UNL     1     147.669 142.771 145.034  1.00  0.00    -0.006 C 
ATOM      7  C   UNL     1     148.046 143.420 146.347  1.00  0.00     0.013 C 
ATOM      8  C   UNL     1     148.753 143.344 144.079  1.00  0.00     0.126 C 
ATOM      9  C   UNL     1     147.628 141.240 145.089  1.00  0.00     0.014 C 
ATOM     10  C   UNL     1     150.357 145.094 145.052  1.00  0.00     0.014 C 
ENDROOT
BRANCH   8  11
ATOM     11  O   UNL     1     148.362 143.265 142.730  1.00  0.00    -0.392 OA
ATOM     12  H   UNL     1     147.785 142.462 142.646  1.00  0.00     0.211 HD
ENDBRANCH   8  11
TORSDOF 1
ENDMDL
MODEL 3
REMARK VINA RESULT:    -3.490      9.777     11.304
REMARK INTER + INTRA:          -3.592
REMARK INTER:                  -3.592
REMARK INTRA:                   0.000
REMARK UNBOUND:                 0.000
REMARK SMILES CC1(C)[C@H]2CC[C@](C)(C2)[C@H]1O
REMARK SMILES IDX 1 1 2 2 4 3 5 4 6 5 7 6 9 7 10 8 8 9 3 10 11 11
REMARK H PARENT 11 12
REMARK Flexibility Score: inf
ROOT
ATOM      1  C   UNL     1     136.757 145.431 143.622  1.00  0.00     0.014 C 
ATOM      2  C   UNL     1     136.595 146.428 144.798  1.00  0.00    -0.006 C 
ATOM      3  C   UNL     1     137.955 147.033 145.290  1.00  0.00    -0.002 C 
ATOM      4  C   UNL     1     138.789 147.570 144.108  1.00  0.00     0.005 C 
ATOM      5  C   UNL     1     137.970 148.780 143.633  1.00  0.00     0.010 C 
ATOM      6  C   UNL     1     136.829 148.848 144.675  1.00  0.00    -0.006 C 
ATOM      7  C   UNL     1     137.525 148.347 145.921  1.00  0.00     0.013 C 
ATOM      8  C   UNL     1     135.794 147.718 144.419  1.00  0.00     0.126 C 
ATOM      9  C   UNL     1     136.211 150.242 144.829  1.00  0.00     0.014 C 
ATOM     10  C   UNL     1     135.903 145.665 145.955  1.00  0.00     0.014 C 
ENDROOT
BRANCH   8  11
ATOM     11  O   UNL     1     135.342 147.709 143.087  1.00  0.00    -0.392 OA
ATOM     12  H   UNL     1     134.535 148.286 143.056  1.00  0.00     0.211 HD
ENDBRANCH   8  11
TORSDOF 1
ENDMDL
MODEL 4
REMARK VINA RESULT:    -3.483     10.446     12.142
REMARK INTER + INTRA:          -3.585
REMARK INTER:                  -3.585
REMARK INTRA:                   0.000
REMARK UNBOUND:                 0.000
REMARK SMILES CC1(C)[C@H]2CC[C@](C)(C2)[C@H]1O
REMARK SMILES IDX 1 1 2 2 4 3 5 4 6 5 7 6 9 7 10 8 8 9 3 10 11 11
REMARK H PARENT 11 12
REMARK Flexibility Score: inf
ROOT
ATOM      1  C   UNL     1     135.757 148.450 143.557  1.00  0.00     0.014 C 
ATOM      2  C   UNL     1     136.823 148.821 144.620  1.00  0.00    -0.006 C 
ATOM      3  C   UNL     1     136.825 147.858 145.858  1.00  0.00    -0.002 C 
ATOM      4  C   UNL     1     136.850 146.380 145.417  1.00  0.00     0.005 C 
ATOM      5  C   UNL     1     138.249 146.230 144.800  1.00  0.00     0.010 C 
ATOM      6  C   UNL     1     138.888 147.613 145.068  1.00  0.00    -0.006 C 
ATOM      7  C   UNL     1     138.244 147.995 146.383  1.00  0.00     0.013 C 
ATOM      8  C   UNL     1     138.295 148.679 144.107  1.00  0.00     0.126 C 
ATOM      9  C   UNL     1     140.420 147.591 145.112  1.00  0.00     0.014 C 
ATOM     10  C   UNL     1     136.532 150.272 145.076  1.00  0.00     0.014 C 
ENDROOT
BRANCH   8  11
ATOM     11  O   UNL     1     138.368 148.275 142.762  1.00  0.00    -0.392 OA
ATOM     12  H   UNL     1     137.953 148.999 142.223  1.00  0.00     0.211 HD
ENDBRANCH   8  11
TORSDOF 1
ENDMDL
MODEL 5
REMARK VINA RESULT:    -3.474      1.360      3.063
REMARK INTER + INTRA:          -3.575
REMARK INTER:                  -3.575
REMARK INTRA:                   0.000
REMARK UNBOUND:                 0.000
REMARK SMILES CC1(C)[C@H]2CC[C@](C)(C2)[C@H]1O
REMARK SMILES IDX 1 1 2 2 4 3 5 4 6 5 7 6 9 7 10 8 8 9 3 10 11 11
REMARK H PARENT 11 12
REMARK Flexibility Score: inf
ROOT
ATOM      1  C   UNL     1     133.103 135.770 143.570  1.00  0.00     0.014 C 
ATOM      2  C   UNL     1     132.753 136.843 144.634  1.00  0.00    -0.006 C 
ATOM      3  C   UNL     1     133.737 136.847 145.856  1.00  0.00    -0.002 C 
ATOM      4  C   UNL     1     135.208 136.863 145.391  1.00  0.00     0.005 C 
ATOM      5  C   UNL     1     135.353 138.259 144.765  1.00  0.00     0.010 C 
ATOM      6  C   UNL     1     133.977 138.905 145.053  1.00  0.00    -0.006 C 
ATOM      7  C   UNL     1     133.614 138.268 146.377  1.00  0.00     0.013 C 
ATOM      8  C   UNL     1     132.893 138.311 144.112  1.00  0.00     0.126 C 
ATOM      9  C   UNL     1     134.005 140.437 145.090  1.00  0.00     0.014 C 
ATOM     10  C   UNL     1     131.309 136.559 145.116  1.00  0.00     0.014 C 
ENDROOT
BRANCH   8  11
ATOM     11  O   UNL     1     133.275 138.377 142.760  1.00  0.00    -0.392 OA
ATOM     12  H   UNL     1     132.452 138.233 142.223  1.00  0.00     0.211 HD
ENDBRANCH   8  11
TORSDOF 1
ENDMDL
MODEL 6
REMARK VINA RESULT:    -3.473      9.863     11.412
REMARK INTER + INTRA:          -3.575
REMARK INTER:                  -3.575
REMARK INTRA:                   0.000
REMARK UNBOUND:                 0.000
REMARK SMILES CC1(C)[C@H]2CC[C@](C)(C2)[C@H]1O
REMARK SMILES IDX 1 1 2 2 4 3 5 4 6 5 7 6 9 7 10 8 8 9 3 10 11 11
REMARK H PARENT 11 12
REMARK Flexibility Score: inf
ROOT
ATOM      1  C   UNL     1     144.880 136.165 143.654  1.00  0.00     0.014 C 
ATOM      2  C   UNL     1     145.023 135.160 144.827  1.00  0.00    -0.006 C 
ATOM      3  C   UNL     1     143.653 134.559 145.298  1.00  0.00    -0.002 C 
ATOM      4  C   UNL     1     142.831 134.033 144.103  1.00  0.00     0.005 C 
ATOM      5  C   UNL     1     143.651 132.822 143.631  1.00  0.00     0.010 C 
ATOM      6  C   UNL     1     144.778 132.743 144.688  1.00  0.00    -0.006 C 
ATOM      7  C   UNL     1     144.068 133.240 145.927  1.00  0.00     0.013 C 
ATOM      8  C   UNL     1     145.822 133.869 144.451  1.00  0.00     0.126 C 
ATOM      9  C   UNL     1     145.387 131.345 144.842  1.00  0.00     0.014 C 
ATOM     10  C   UNL     1     145.703 135.914 145.996  1.00  0.00     0.014 C 
ENDROOT
BRANCH   8  11
ATOM     11  O   UNL     1     146.291 133.882 143.125  1.00  0.00    -0.392 OA
ATOM     12  H   UNL     1     145.531 133.604 142.550  1.00  0.00     0.211 HD
ENDBRANCH   8  11
TORSDOF 1
ENDMDL
MODEL 7
REMARK VINA RESULT:    -3.471     14.340     16.030
REMARK INTER + INTRA:          -3.572
REMARK INTER:                  -3.572
REMARK INTRA:                   0.000
REMARK UNBOUND:                 0.000
REMARK SMILES CC1(C)[C@H]2CC[C@](C)(C2)[C@H]1O
REMARK SMILES IDX 1 1 2 2 4 3 5 4 6 5 7 6 9 7 10 8 8 9 3 10 11 11
REMARK H PARENT 11 12
REMARK Flexibility Score: inf
ROOT
ATOM      1  C   UNL     1     145.409 144.855 143.629  1.00  0.00     0.014 C 
ATOM      2  C   UNL     1     146.403 145.000 144.811  1.00  0.00    -0.006 C 
ATOM      3  C   UNL     1     147.007 143.632 145.284  1.00  0.00    -0.002 C 
ATOM      4  C   UNL     1     147.547 142.816 144.091  1.00  0.00     0.005 C 
ATOM      5  C   UNL     1     148.758 143.643 143.632  1.00  0.00     0.010 C 
ATOM      6  C   UNL     1     148.822 144.768 144.692  1.00  0.00    -0.006 C 
ATOM      7  C   UNL     1     148.318 144.053 145.925  1.00  0.00     0.013 C 
ATOM      8  C   UNL     1     147.693 145.806 144.448  1.00  0.00     0.126 C 
ATOM      9  C   UNL     1     150.216 145.384 144.859  1.00  0.00     0.014 C 
ATOM     10  C   UNL     1     145.636 145.674 145.976  1.00  0.00     0.014 C 
ENDROOT
BRANCH   8  11
ATOM     11  O   UNL     1     147.688 146.279 143.123  1.00  0.00    -0.392 OA
ATOM     12  H   UNL     1     147.321 145.548 142.560  1.00  0.00     0.211 HD
ENDBRANCH   8  11
TORSDOF 1
ENDMDL
MODEL 8
REMARK VINA RESULT:    -3.447      8.684     10.518
REMARK INTER + INTRA:          -3.548
REMARK INTER:                  -3.548
REMARK INTRA:                   0.000
REMARK UNBOUND:                 0.000
REMARK SMILES CC1(C)[C@H]2CC[C@](C)(C2)[C@H]1O
REMARK SMILES IDX 1 1 2 2 4 3 5 4 6 5 7 6 9 7 10 8 8 9 3 10 11 11
REMARK H PARENT 11 12
REMARK Flexibility Score: inf
ROOT
ATOM      1  C   UNL     1     145.858 133.070 143.555  1.00  0.00     0.014 C 
ATOM      2  C   UNL     1     144.795 132.740 144.634  1.00  0.00    -0.006 C 
ATOM      3  C   UNL     1     144.807 133.739 145.843  1.00  0.00    -0.002 C 
ATOM      4  C   UNL     1     144.792 135.204 145.358  1.00  0.00     0.005 C 
ATOM      5  C   UNL     1     143.391 135.347 144.744  1.00  0.00     0.010 C 
ATOM      6  C   UNL     1     142.742 133.978 145.057  1.00  0.00    -0.006 C 
ATOM      7  C   UNL     1     143.390 133.629 146.379  1.00  0.00     0.013 C 
ATOM      8  C   UNL     1     143.322 132.879 144.125  1.00  0.00     0.126 C 
ATOM      9  C   UNL     1     141.211 134.013 145.108  1.00  0.00     0.014 C 
ATOM     10  C   UNL     1     145.077 131.301 145.132  1.00  0.00     0.014 C 
ENDROOT
BRANCH   8  11
ATOM     11  O   UNL     1     143.245 133.243 142.768  1.00  0.00    -0.392 OA
ATOM     12  H   UNL     1     143.298 132.402 142.243  1.00  0.00     0.211 HD
ENDBRANCH   8  11
TORSDOF 1
ENDMDL
MODEL 9
REMARK VINA RESULT:    -3.431     13.776     15.413
REMARK INTER + INTRA:          -3.532
REMARK INTER:                  -3.532
REMARK INTRA:                   0.000
REMARK UNBOUND:                 0.000
REMARK SMILES CC1(C)[C@H]2CC[C@](C)(C2)[C@H]1O
REMARK SMILES IDX 1 1 2 2 4 3 5 4 6 5 7 6 9 7 10 8 8 9 3 10 11 11
REMARK H PARENT 11 12
REMARK Flexibility Score: inf
ROOT
ATOM      1  C   UNL     1     147.403 141.348 145.058  1.00  0.00     0.014 C 
ATOM      2  C   UNL     1     146.773 142.765 145.075  1.00  0.00    -0.006 C 
ATOM      3  C   UNL     1     147.229 143.631 146.301  1.00  0.00    -0.002 C 
ATOM      4  C   UNL     1     148.763 143.612 146.461  1.00  0.00     0.005 C 
ATOM      5  C   UNL     1     149.245 144.391 145.228  1.00  0.00     0.010 C 
ATOM      6  C   UNL     1     147.920 144.854 144.579  1.00  0.00    -0.006 C 
ATOM      7  C   UNL     1     147.039 145.051 145.793  1.00  0.00     0.013 C 
ATOM      8  C   UNL     1     147.217 143.662 143.873  1.00  0.00     0.126 C 
ATOM      9  C   UNL     1     148.059 146.107 143.706  1.00  0.00     0.014 C 
ATOM     10  C   UNL     1     145.235 142.585 145.095  1.00  0.00     0.014 C 
ENDROOT
BRANCH   8  11
ATOM     11  O   UNL     1     148.078 142.995 142.982  1.00  0.00    -0.392 OA
ATOM     12  H   UNL     1     148.599 142.344 143.522  1.00  0.00     0.211 HD
ENDBRANCH   8  11
TORSDOF 1
ENDMDL
