MODEL 1
REMARK VINA RESULT:   110.904      0.000      0.000
REMARK INTER + INTRA:         124.233
REMARK INTER:                 123.871
REMARK INTRA:                   0.362
REMARK UNBOUND:                 0.362
REMARK SMILES CC1(C)CC[C@]2(CO)CC=C3[C@](C)(CC[C@H]4[C@@]5(C)CC[C@@H](O)C(C)(C)[C@H]5CC[C@]34C)[C@@H]2C1
REMARK SMILES IDX 1 1 2 2 4 3 5 4 6 5 9 6 10 7 11 8 29 9 28 10 27 11 26 12
REMARK SMILES IDX 23 13 21 14 20 15 19 16 17 17 16 18 15 19 14 20 12 21 31 22
REMARK SMILES IDX 32 23 13 24 18 25 24 26 25 27 30 28 3 29 7 30 8 31 22 33
REMARK H PARENT 8 32 22 34
REMARK Flexibility Score: inf
ROOT
ATOM      1  C   UNL     1      -8.291 -14.501  17.676  1.00  0.00     0.011 C 
ATOM      2  C   UNL     1      -8.383 -15.045  19.120  1.00  0.00    -0.035 C 
ATOM      3  C   UNL     1      -9.177 -16.356  19.092  1.00  0.00     0.007 C 
ATOM      4  C   UNL     1      -9.402 -16.908  20.495  1.00  0.00     0.010 C 
ATOM      5  C   UNL     1     -10.146 -15.931  21.467  1.00  0.00     0.001 C 
ATOM      6  C   UNL     1     -11.666 -15.890  21.091  1.00  0.00     0.037 C 
ATOM      7  C   UNL     1     -12.295 -14.530  20.965  1.00  0.00    -0.026 C 
ATOM      8  C   UNL     1     -11.859 -13.404  21.584  1.00  0.00    -0.062 C 
ATOM      9  C   UNL     1     -12.672 -12.079  21.451  1.00  0.00    -0.008 C 
ATOM     10  C   UNL     1     -14.234 -12.288  21.580  1.00  0.00     0.012 C 
ATOM     11  C   UNL     1     -14.769 -12.039  22.984  1.00  0.00     0.006 C 
ATOM     12  C   UNL     1     -14.615 -10.544  23.423  1.00  0.00     0.003 C 
ATOM     13  C   UNL     1     -15.893  -9.595  23.182  1.00  0.00    -0.006 C 
ATOM     14  C   UNL     1     -15.716  -8.613  21.981  1.00  0.00     0.120 C 
ATOM     15  C   UNL     1     -14.371  -7.893  22.014  1.00  0.00     0.033 C 
ATOM     16  C   UNL     1     -13.232  -8.891  21.880  1.00  0.00     0.010 C 
ATOM     17  C   UNL     1     -13.177  -9.942  23.028  1.00  0.00    -0.025 C 
ATOM     18  C   UNL     1     -12.197 -11.128  22.627  1.00  0.00     0.005 C 
ATOM     19  C   UNL     1     -10.688 -10.779  22.547  1.00  0.00     0.006 C 
ATOM     20  C   UNL     1      -9.831 -11.936  21.982  1.00  0.00     0.012 C 
ATOM     21  C   UNL     1     -10.428 -13.379  22.177  1.00  0.00    -0.008 C 
ATOM     22  C   UNL     1      -9.508 -14.470  21.445  1.00  0.00     0.008 C 
ATOM     23  C   UNL     1      -9.137 -14.015  19.991  1.00  0.00     0.011 C 
ATOM     24  C   UNL     1     -10.472 -13.658  23.710  1.00  0.00     0.016 C 
ATOM     25  C   UNL     1     -12.579  -9.234  24.282  1.00  0.00     0.012 C 
ATOM     26  C   UNL     1     -16.172  -8.754  24.465  1.00  0.00     0.014 C 
ATOM     27  C   UNL     1     -17.209 -10.389  22.947  1.00  0.00     0.014 C 
ATOM     28  C   UNL     1     -12.363 -11.516  20.020  1.00  0.00     0.016 C 
ATOM     29  C   UNL     1      -6.938 -15.260  19.638  1.00  0.00     0.011 C 
ENDROOT
BRANCH   5  30
ATOM     30  C   UNL     1     -10.014 -16.622  22.865  1.00  0.00     0.163 C 
BRANCH  30  31
ATOM     31  O   UNL     1     -11.155 -16.407  23.655  1.00  0.00    -0.396 OA
ATOM     32  H   UNL     1     -11.607 -15.606  23.279  1.00  0.00     0.210 HD
ENDBRANCH  30  31
ENDBRANCH   5  30
BRANCH  14  33
ATOM     33  O   UNL     1     -15.841  -9.288  20.749  1.00  0.00    -0.393 OA
ATOM     34  H   UNL     1     -14.993  -9.168  20.247  1.00  0.00     0.210 HD
ENDBRANCH  14  33
TORSDOF 3
ENDMDL
MODEL 2
REMARK VINA RESULT:   111.022     12.284     15.444
REMARK INTER + INTRA:         124.365
REMARK INTER:                 124.444
REMARK INTRA:                  -0.079
REMARK UNBOUND:                 0.362
REMARK SMILES CC1(C)CC[C@]2(CO)CC=C3[C@](C)(CC[C@H]4[C@@]5(C)CC[C@@H](O)C(C)(C)[C@H]5CC[C@]34C)[C@@H]2C1
REMARK SMILES IDX 1 1 2 2 4 3 5 4 6 5 9 6 10 7 11 8 29 9 28 10 27 11 26 12
REMARK SMILES IDX 23 13 21 14 20 15 19 16 17 17 16 18 15 19 14 20 12 21 31 22
REMARK SMILES IDX 32 23 13 24 18 25 24 26 25 27 30 28 3 29 7 30 8 31 22 33
REMARK H PARENT 8 32 22 34
REMARK Flexibility Score: inf
ROOT
ATOM      1  C   UNL     1      -3.221  -2.540  18.340  1.00  0.00     0.011 C 
ATOM      2  C   UNL     1      -2.282  -3.573  19.003  1.00  0.00    -0.035 C 
ATOM      3  C   UNL     1      -0.871  -2.975  19.059  1.00  0.00     0.007 C 
ATOM      4  C   UNL     1       0.141  -3.974  19.609  1.00  0.00     0.010 C 
ATOM      5  C   UNL     1       0.233  -5.316  18.806  1.00  0.00     0.001 C 
ATOM      6  C   UNL     1       1.005  -5.062  17.466  1.00  0.00     0.037 C 
ATOM      7  C   UNL     1       0.376  -5.602  16.211  1.00  0.00    -0.026 C 
ATOM      8  C   UNL     1      -0.481  -6.652  16.153  1.00  0.00    -0.062 C 
ATOM      9  C   UNL     1      -0.975  -7.176  14.768  1.00  0.00    -0.008 C 
ATOM     10  C   UNL     1       0.174  -7.257  13.684  1.00  0.00     0.012 C 
ATOM     11  C   UNL     1       0.805  -8.637  13.566  1.00  0.00     0.006 C 
ATOM     12  C   UNL     1      -0.205  -9.709  13.033  1.00  0.00     0.003 C 
ATOM     13  C   UNL     1      -0.183  -9.984  11.446  1.00  0.00    -0.006 C 
ATOM     14  C   UNL     1      -1.402  -9.364  10.695  1.00  0.00     0.120 C 
ATOM     15  C   UNL     1      -2.727  -9.672  11.387  1.00  0.00     0.033 C 
ATOM     16  C   UNL     1      -2.758  -9.048  12.774  1.00  0.00     0.010 C 
ATOM     17  C   UNL     1      -1.649  -9.579  13.729  1.00  0.00    -0.025 C 
ATOM     18  C   UNL     1      -1.539  -8.638  15.005  1.00  0.00     0.005 C 
ATOM     19  C   UNL     1      -2.739  -8.668  15.989  1.00  0.00     0.006 C 
ATOM     20  C   UNL     1      -2.632  -7.601  17.103  1.00  0.00     0.012 C 
ATOM     21  C   UNL     1      -1.171  -7.132  17.453  1.00  0.00    -0.008 C 
ATOM     22  C   UNL     1      -1.206  -5.944  18.530  1.00  0.00     0.008 C 
ATOM     23  C   UNL     1      -2.257  -4.850  18.133  1.00  0.00     0.011 C 
ATOM     24  C   UNL     1      -0.419  -8.365  18.042  1.00  0.00     0.016 C 
ATOM     25  C   UNL     1      -2.089 -10.994  14.216  1.00  0.00     0.012 C 
ATOM     26  C   UNL     1      -0.172 -11.520  11.180  1.00  0.00     0.014 C 
ATOM     27  C   UNL     1       1.107  -9.461  10.754  1.00  0.00     0.014 C 
ATOM     28  C   UNL     1      -2.056  -6.155  14.272  1.00  0.00     0.016 C 
ATOM     29  C   UNL     1      -2.835  -3.876  20.419  1.00  0.00     0.011 C 
ENDROOT
BRANCH   5  30
ATOM     30  C   UNL     1       1.125  -6.232  19.708  1.00  0.00     0.163 C 
BRANCH  30  31
ATOM     31  O   UNL     1       1.125  -5.797  21.043  1.00  0.00    -0.396 OA
ATOM     32  H   UNL     1       2.067  -5.572  21.262  1.00  0.00     0.210 HD
ENDBRANCH  30  31
ENDBRANCH   5  30
BRANCH  14  33
ATOM     33  O   UNL     1      -1.267  -7.966  10.571  1.00  0.00    -0.393 OA
ATOM     34  H   UNL     1      -0.937  -7.613  11.438  1.00  0.00     0.210 HD
ENDBRANCH  14  33
TORSDOF 3
ENDMDL
