MODEL 1
REMARK VINA RESULT:    -4.436      0.000      0.000
REMARK INTER + INTRA:          -5.110
REMARK INTER:                  -5.344
REMARK INTRA:                   0.234
REMARK UNBOUND:                 0.234
REMARK SMILES O=c1c(O)c(-c2ccc(O)c(O)c2)oc2cc(O)cc(O)c12
REMARK SMILES IDX 5 1 3 2 2 3 1 4 22 5 20 6 19 7 17 8 16 9 15 10 14 11 6 12
REMARK SMILES IDX 7 13 8 14 9 15 13 16 11 17 10 18 12 20 4 22 21 24 18 26
REMARK H PARENT 10 19 12 21 4 23 21 25 18 27
REMARK Flexibility Score: inf
ROOT
ATOM      1  C   UNL     1      22.911  21.510  31.135  1.00  0.00     0.180 A 
ATOM      2  C   UNL     1      24.094  22.007  31.707  1.00  0.00     0.208 A 
ATOM      3  C   UNL     1      24.352  23.387  31.647  1.00  0.00     0.238 A 
ATOM      4  O   UNL     1      25.386  23.833  32.207  1.00  0.00    -0.285 OA
ATOM      5  C   UNL     1      23.431  24.248  31.004  1.00  0.00     0.111 A 
ATOM      6  C   UNL     1      23.609  25.656  30.849  1.00  0.00     0.134 A 
ATOM      7  C   UNL     1      22.573  26.428  30.311  1.00  0.00     0.093 A 
ATOM      8  C   UNL     1      21.391  25.835  29.861  1.00  0.00     0.123 A 
ATOM      9  C   UNL     1      21.232  24.454  29.953  1.00  0.00     0.094 A 
ATOM     10  C   UNL     1      22.233  23.661  30.519  1.00  0.00     0.146 A 
ATOM     11  O   UNL     1      22.036  22.351  30.597  1.00  0.00    -0.452 OA
ENDROOT
BRANCH   1  12
ATOM     12  C   UNL     1      22.582  20.065  31.137  1.00  0.00     0.025 A 
ATOM     13  C   UNL     1      22.960  19.230  32.203  1.00  0.00     0.016 A 
ATOM     14  C   UNL     1      22.661  17.866  32.172  1.00  0.00     0.051 A 
ATOM     15  C   UNL     1      21.993  17.313  31.071  1.00  0.00     0.157 A 
ATOM     16  C   UNL     1      21.931  19.502  30.027  1.00  0.00     0.062 A 
ATOM     17  C   UNL     1      21.630  18.136  29.993  1.00  0.00     0.158 A 
BRANCH  15  18
ATOM     18  O   UNL     1      21.695  15.952  31.044  1.00  0.00    -0.504 OA
ATOM     19  H   UNL     1      20.937  15.564  31.595  1.00  0.00     0.293 HD
ENDBRANCH  15  18
BRANCH  17  20
ATOM     20  O   UNL     1      20.970  17.616  28.880  1.00  0.00    -0.504 OA
ATOM     21  H   UNL     1      20.560  18.211  28.171  1.00  0.00     0.293 HD
ENDBRANCH  17  20
ENDBRANCH   1  12
BRANCH   2  22
ATOM     22  O   UNL     1      24.979  21.143  32.356  1.00  0.00    -0.502 OA
ATOM     23  H   UNL     1      25.444  21.388  33.222  1.00  0.00     0.293 HD
ENDBRANCH   2  22
BRANCH   6  24
ATOM     24  O   UNL     1      24.787  26.333  31.180  1.00  0.00    -0.507 OA
ATOM     25  H   UNL     1      25.716  25.962  31.061  1.00  0.00     0.293 HD
ENDBRANCH   6  24
BRANCH   8  26
ATOM     26  O   UNL     1      20.371  26.609  29.312  1.00  0.00    -0.508 OA
ATOM     27  H   UNL     1      20.559  27.508  28.884  1.00  0.00     0.293 HD
ENDBRANCH   8  26
TORSDOF 6
ENDMDL
MODEL 2
REMARK VINA RESULT:    -4.317      1.632      3.499
REMARK INTER + INTRA:          -4.966
REMARK INTER:                  -5.085
REMARK INTRA:                   0.119
REMARK UNBOUND:                 0.234
REMARK SMILES O=c1c(O)c(-c2ccc(O)c(O)c2)oc2cc(O)cc(O)c12
REMARK SMILES IDX 5 1 3 2 2 3 1 4 22 5 20 6 19 7 17 8 16 9 15 10 14 11 6 12
REMARK SMILES IDX 7 13 8 14 9 15 13 16 11 17 10 18 12 20 4 22 21 24 18 26
REMARK H PARENT 10 19 12 21 4 23 21 25 18 27
REMARK Flexibility Score: inf
ROOT
ATOM      1  C   UNL     1      21.988  20.428  30.354  1.00  0.00     0.180 A 
ATOM      2  C   UNL     1      21.140  21.358  29.729  1.00  0.00     0.208 A 
ATOM      3  C   UNL     1      21.373  22.730  29.922  1.00  0.00     0.238 A 
ATOM      4  O   UNL     1      20.644  23.558  29.318  1.00  0.00    -0.285 OA
ATOM      5  C   UNL     1      22.441  23.153  30.750  1.00  0.00     0.111 A 
ATOM      6  C   UNL     1      22.745  24.515  31.049  1.00  0.00     0.134 A 
ATOM      7  C   UNL     1      23.902  24.821  31.774  1.00  0.00     0.093 A 
ATOM      8  C   UNL     1      24.732  23.811  32.266  1.00  0.00     0.123 A 
ATOM      9  C   UNL     1      24.412  22.476  32.031  1.00  0.00     0.094 A 
ATOM     10  C   UNL     1      23.283  22.140  31.280  1.00  0.00     0.146 A 
ATOM     11  O   UNL     1      23.020  20.856  31.070  1.00  0.00    -0.452 OA
ENDROOT
BRANCH   1  12
ATOM     12  C   UNL     1      21.791  18.966  30.216  1.00  0.00     0.025 A 
ATOM     13  C   UNL     1      21.474  18.384  28.976  1.00  0.00     0.016 A 
ATOM     14  C   UNL     1      21.267  17.006  28.875  1.00  0.00     0.051 A 
ATOM     15  C   UNL     1      21.361  16.192  30.011  1.00  0.00     0.157 A 
ATOM     16  C   UNL     1      21.862  18.148  31.355  1.00  0.00     0.062 A 
ATOM     17  C   UNL     1      21.656  16.767  31.258  1.00  0.00     0.158 A 
BRANCH  15  18
ATOM     18  O   UNL     1      21.156  14.817  29.906  1.00  0.00    -0.504 OA
ATOM     19  H   UNL     1      20.541  14.322  30.543  1.00  0.00     0.293 HD
ENDBRANCH  15  18
BRANCH  17  20
ATOM     20  O   UNL     1      21.750  15.986  32.408  1.00  0.00    -0.504 OA
ATOM     21  H   UNL     1      21.061  16.034  33.149  1.00  0.00     0.293 HD
ENDBRANCH  17  20
ENDBRANCH   1  12
BRANCH   2  22
ATOM     22  O   UNL     1      20.105  20.920  28.898  1.00  0.00    -0.502 OA
ATOM     23  H   UNL     1      19.481  20.166  29.157  1.00  0.00     0.293 HD
ENDBRANCH   2  22
BRANCH   6  24
ATOM     24  O   UNL     1      21.932  25.593  30.683  1.00  0.00    -0.507 OA
ATOM     25  H   UNL     1      20.926  25.599  30.739  1.00  0.00     0.293 HD
ENDBRANCH   6  24
BRANCH   8  26
ATOM     26  O   UNL     1      25.875  24.125  33.000  1.00  0.00    -0.508 OA
ATOM     27  H   UNL     1      26.314  25.035  32.933  1.00  0.00     0.293 HD
ENDBRANCH   8  26
TORSDOF 6
ENDMDL
MODEL 3
REMARK VINA RESULT:    -2.530      3.130      6.306
REMARK INTER + INTRA:          -2.814
REMARK INTER:                  -3.127
REMARK INTRA:                   0.313
REMARK UNBOUND:                 0.234
REMARK SMILES O=c1c(O)c(-c2ccc(O)c(O)c2)oc2cc(O)cc(O)c12
REMARK SMILES IDX 5 1 3 2 2 3 1 4 22 5 20 6 19 7 17 8 16 9 15 10 14 11 6 12
REMARK SMILES IDX 7 13 8 14 9 15 13 16 11 17 10 18 12 20 4 22 21 24 18 26
REMARK H PARENT 10 19 12 21 4 23 21 25 18 27
REMARK Flexibility Score: inf
ROOT
ATOM      1  C   UNL     1      22.203  24.536  30.884  1.00  0.00     0.180 A 
ATOM      2  C   UNL     1      22.144  23.174  30.544  1.00  0.00     0.208 A 
ATOM      3  C   UNL     1      20.973  22.669  29.954  1.00  0.00     0.238 A 
ATOM      4  O   UNL     1      20.945  21.462  29.603  1.00  0.00    -0.285 OA
ATOM      5  C   UNL     1      19.872  23.530  29.728  1.00  0.00     0.111 A 
ATOM      6  C   UNL     1      18.621  23.119  29.175  1.00  0.00     0.134 A 
ATOM      7  C   UNL     1      17.650  24.080  28.875  1.00  0.00     0.093 A 
ATOM      8  C   UNL     1      17.856  25.430  29.169  1.00  0.00     0.123 A 
ATOM      9  C   UNL     1      19.050  25.833  29.764  1.00  0.00     0.094 A 
ATOM     10  C   UNL     1      20.053  24.902  30.042  1.00  0.00     0.146 A 
ATOM     11  O   UNL     1      21.179  25.331  30.599  1.00  0.00    -0.452 OA
ENDROOT
BRANCH   1  12
ATOM     12  C   UNL     1      23.394  25.135  31.530  1.00  0.00     0.025 A 
ATOM     13  C   UNL     1      23.766  26.468  31.286  1.00  0.00     0.016 A 
ATOM     14  C   UNL     1      24.908  27.004  31.886  1.00  0.00     0.051 A 
ATOM     15  C   UNL     1      25.702  26.214  32.728  1.00  0.00     0.157 A 
ATOM     16  C   UNL     1      24.205  24.341  32.358  1.00  0.00     0.062 A 
ATOM     17  C   UNL     1      25.349  24.875  32.962  1.00  0.00     0.158 A 
BRANCH  15  18
ATOM     18  O   UNL     1      26.839  26.753  33.327  1.00  0.00    -0.504 OA
ATOM     19  H   UNL     1      27.674  26.197  33.477  1.00  0.00     0.293 HD
ENDBRANCH  15  18
BRANCH  17  20
ATOM     20  O   UNL     1      26.121  24.060  33.789  1.00  0.00    -0.504 OA
ATOM     21  H   UNL     1      26.436  23.143  33.498  1.00  0.00     0.293 HD
ENDBRANCH  17  20
ENDBRANCH   1  12
BRANCH   2  22
ATOM     22  O   UNL     1      23.250  22.347  30.755  1.00  0.00    -0.502 OA
ATOM     23  H   UNL     1      24.042  22.323  30.125  1.00  0.00     0.293 HD
ENDBRANCH   2  22
BRANCH   6  24
ATOM     24  O   UNL     1      18.279  21.786  28.930  1.00  0.00    -0.507 OA
ATOM     25  H   UNL     1      17.760  21.464  28.128  1.00  0.00     0.293 HD
ENDBRANCH   6  24
BRANCH   8  26
ATOM     26  O   UNL     1      16.877  26.379  28.881  1.00  0.00    -0.508 OA
ATOM     27  H   UNL     1      15.916  26.255  29.178  1.00  0.00     0.293 HD
ENDBRANCH   8  26
TORSDOF 6
ENDMDL
MODEL 4
REMARK VINA RESULT:    -2.397      1.363      2.075
REMARK INTER + INTRA:          -2.653
REMARK INTER:                  -3.149
REMARK INTRA:                   0.496
REMARK UNBOUND:                 0.234
REMARK SMILES O=c1c(O)c(-c2ccc(O)c(O)c2)oc2cc(O)cc(O)c12
REMARK SMILES IDX 5 1 3 2 2 3 1 4 22 5 20 6 19 7 17 8 16 9 15 10 14 11 6 12
REMARK SMILES IDX 7 13 8 14 9 15 13 16 11 17 10 18 12 20 4 22 21 24 18 26
REMARK H PARENT 10 19 12 21 4 23 21 25 18 27
REMARK Flexibility Score: inf
ROOT
ATOM      1  C   UNL     1      21.899  20.497  30.329  1.00  0.00     0.180 A 
ATOM      2  C   UNL     1      22.961  20.932  31.139  1.00  0.00     0.208 A 
ATOM      3  C   UNL     1      23.164  22.311  31.315  1.00  0.00     0.238 A 
ATOM      4  O   UNL     1      24.083  22.694  32.084  1.00  0.00    -0.285 OA
ATOM      5  C   UNL     1      22.311  23.236  30.666  1.00  0.00     0.111 A 
ATOM      6  C   UNL     1      22.448  24.655  30.740  1.00  0.00     0.134 A 
ATOM      7  C   UNL     1      21.470  25.474  30.164  1.00  0.00     0.093 A 
ATOM      8  C   UNL     1      20.395  24.926  29.460  1.00  0.00     0.123 A 
ATOM      9  C   UNL     1      20.285  23.544  29.331  1.00  0.00     0.094 A 
ATOM     10  C   UNL     1      21.225  22.699  29.926  1.00  0.00     0.146 A 
ATOM     11  O   UNL     1      21.077  21.388  29.787  1.00  0.00    -0.452 OA
ENDROOT
BRANCH   1  12
ATOM     12  C   UNL     1      21.637  19.061  30.077  1.00  0.00     0.025 A 
ATOM     13  C   UNL     1      20.739  18.645  29.079  1.00  0.00     0.016 A 
ATOM     14  C   UNL     1      20.489  17.285  28.876  1.00  0.00     0.051 A 
ATOM     15  C   UNL     1      21.120  16.323  29.675  1.00  0.00     0.157 A 
ATOM     16  C   UNL     1      22.250  18.093  30.889  1.00  0.00     0.062 A 
ATOM     17  C   UNL     1      22.003  16.730  30.689  1.00  0.00     0.158 A 
BRANCH  15  18
ATOM     18  O   UNL     1      20.870  14.967  29.469  1.00  0.00    -0.504 OA
ATOM     19  H   UNL     1      21.549  14.365  29.018  1.00  0.00     0.293 HD
ENDBRANCH  15  18
BRANCH  17  20
ATOM     20  O   UNL     1      22.642  15.799  31.505  1.00  0.00    -0.504 OA
ATOM     21  H   UNL     1      23.629  15.592  31.415  1.00  0.00     0.293 HD
ENDBRANCH  17  20
ENDBRANCH   1  12
BRANCH   2  22
ATOM     22  O   UNL     1      23.778  20.002  31.788  1.00  0.00    -0.502 OA
ATOM     23  H   UNL     1      23.744  19.852  32.789  1.00  0.00     0.293 HD
ENDBRANCH   2  22
BRANCH   6  24
ATOM     24  O   UNL     1      23.532  25.303  31.339  1.00  0.00    -0.507 OA
ATOM     25  H   UNL     1      24.455  25.370  30.939  1.00  0.00     0.293 HD
ENDBRANCH   6  24
BRANCH   8  26
ATOM     26  O   UNL     1      19.434  25.750  28.876  1.00  0.00    -0.508 OA
ATOM     27  H   UNL     1      19.676  26.653  28.485  1.00  0.00     0.293 HD
ENDBRANCH   8  26
TORSDOF 6
ENDMDL
