MODEL 1
REMARK VINA RESULT:    20.003      0.000      0.000
REMARK INTER + INTRA:          54.050
REMARK INTER:                  52.746
REMARK INTRA:                   1.304
REMARK UNBOUND:                 1.304
REMARK SMILES CCCCCCCCCCCCCCCCCCCCCCCCCCCCCC(=O)[O-]
REMARK SMILES IDX 16 1 17 2 18 3 19 4 20 5 21 6 22 7 23 8 24 9 25 10 26 11
REMARK SMILES IDX 27 12 28 13 29 14 30 15 31 16 32 17 15 18 14 19 13 20 12 21
REMARK SMILES IDX 11 22 10 23 9 24 8 25 7 26 6 27 5 28 4 29 3 30 2 31 1 32
REMARK H PARENT
REMARK Flexibility Score: inf
ROOT
ATOM      1  C   UNL     1     101.864 101.023   9.813  1.00  0.00     0.000 C 
ENDROOT
BRANCH   1   2
ATOM      2  C   UNL     1     102.540  99.663   9.571  1.00  0.00     0.000 C 
BRANCH   2   3
ATOM      3  C   UNL     1     101.711  98.486  10.113  1.00  0.00     0.000 C 
BRANCH   3   4
ATOM      4  C   UNL     1     102.440  97.137   9.971  1.00  0.00     0.000 C 
BRANCH   4   5
ATOM      5  C   UNL     1     101.772  96.018  10.793  1.00  0.00     0.000 C 
BRANCH   5   6
ATOM      6  C   UNL     1     100.435  95.519  10.212  1.00  0.00     0.000 C 
BRANCH   6   7
ATOM      7  C   UNL     1      99.232  96.351  10.695  1.00  0.00     0.000 C 
BRANCH   7   8
ATOM      8  C   UNL     1      98.340  95.569  11.674  1.00  0.00     0.000 C 
BRANCH   8   9
ATOM      9  C   UNL     1      98.785  94.106  11.842  1.00  0.00     0.000 C 
BRANCH   9  10
ATOM     10  C   UNL     1      98.547  93.584  13.272  1.00  0.00     0.000 C 
BRANCH  10  11
ATOM     11  C   UNL     1      98.506  94.699  14.333  1.00  0.00     0.000 C 
BRANCH  11  12
ATOM     12  C   UNL     1      99.128  94.255  15.669  1.00  0.00     0.000 C 
BRANCH  12  13
ATOM     13  C   UNL     1      99.889  95.388  16.380  1.00  0.00     0.006 C 
BRANCH  13  14
ATOM     14  C   UNL     1      99.080  96.108  17.473  1.00  0.00     0.053 C 
BRANCH  14  15
ATOM     15  C   UNL     1      99.614  97.479  17.753  1.00  0.00     0.041 C 
ATOM     16  O   UNL     1     100.792  97.783  17.423  1.00  0.00    -0.550 OA
ATOM     17  O   UNL     1      98.792  98.443  18.326  1.00  0.00    -0.550 OA
ENDBRANCH  14  15
ENDBRANCH  13  14
ENDBRANCH  12  13
ENDBRANCH  11  12
ENDBRANCH  10  11
ENDBRANCH   9  10
ENDBRANCH   8   9
ENDBRANCH   7   8
ENDBRANCH   6   7
ENDBRANCH   5   6
ENDBRANCH   4   5
ENDBRANCH   3   4
ENDBRANCH   2   3
ENDBRANCH   1   2
BRANCH   1  18
ATOM     18  C   UNL     1     100.571 100.907  10.638  1.00  0.00     0.000 C 
BRANCH  18  19
ATOM     19  C   UNL     1     100.099  99.450  10.806  1.00  0.00     0.000 C 
BRANCH  19  20
ATOM     20  C   UNL     1      98.596  99.345  11.117  1.00  0.00     0.000 C 
BRANCH  20  21
ATOM     21  C   UNL     1      98.230 100.001  12.461  1.00  0.00     0.000 C 
BRANCH  21  22
ATOM     22  C   UNL     1      97.140  99.227  13.222  1.00  0.00     0.000 C 
BRANCH  22  23
ATOM     23  C   UNL     1      95.762  99.908  13.135  1.00  0.00     0.000 C 
BRANCH  23  24
ATOM     24  C   UNL     1      95.634 100.852  11.924  1.00  0.00    -0.000 C 
BRANCH  24  25
ATOM     25  C   UNL     1      94.531 100.480  10.911  1.00  0.00    -0.000 C 
BRANCH  25  26
ATOM     26  C   UNL     1      94.920 100.645   9.432  1.00  0.00    -0.000 C 
BRANCH  26  27
ATOM     27  C   UNL     1      96.040  99.683   8.999  1.00  0.00    -0.000 C 
BRANCH  27  28
ATOM     28  C   UNL     1      95.562  98.683   7.923  1.00  0.00    -0.000 C 
BRANCH  28  29
ATOM     29  C   UNL     1      94.478  99.251   6.983  1.00  0.00    -0.000 C 
BRANCH  29  30
ATOM     30  C   UNL     1      93.052  99.237   7.558  1.00  0.00    -0.000 C 
BRANCH  30  31
ATOM     31  C   UNL     1      92.200 100.413   7.062  1.00  0.00    -0.003 C 
ATOM     32  C   UNL     1      91.327  99.999   5.879  1.00  0.00     0.004 C 
ENDBRANCH  30  31
ENDBRANCH  29  30
ENDBRANCH  28  29
ENDBRANCH  27  28
ENDBRANCH  26  27
ENDBRANCH  25  26
ENDBRANCH  24  25
ENDBRANCH  23  24
ENDBRANCH  22  23
ENDBRANCH  21  22
ENDBRANCH  20  21
ENDBRANCH  19  20
ENDBRANCH  18  19
ENDBRANCH   1  18
TORSDOF 28
ENDMDL
MODEL 2
REMARK VINA RESULT:    22.090      5.097      9.451
REMARK INTER + INTRA:          59.552
REMARK INTER:                  61.604
REMARK INTRA:                  -2.052
REMARK UNBOUND:                 1.304
REMARK SMILES CCCCCCCCCCCCCCCCCCCCCCCCCCCCCC(=O)[O-]
REMARK SMILES IDX 16 1 17 2 18 3 19 4 20 5 21 6 22 7 23 8 24 9 25 10 26 11
REMARK SMILES IDX 27 12 28 13 29 14 30 15 31 16 32 17 15 18 14 19 13 20 12 21
REMARK SMILES IDX 11 22 10 23 9 24 8 25 7 26 6 27 5 28 4 29 3 30 2 31 1 32
REMARK H PARENT
REMARK Flexibility Score: inf
ROOT
ATOM      1  C   UNL     1     101.911  96.241  10.885  1.00  0.00     0.000 C 
ENDROOT
BRANCH   1   2
ATOM      2  C   UNL     1     102.353  97.428  10.013  1.00  0.00     0.000 C 
BRANCH   2   3
ATOM      3  C   UNL     1     101.226  98.452   9.793  1.00  0.00     0.000 C 
BRANCH   3   4
ATOM      4  C   UNL     1     101.595  99.854  10.311  1.00  0.00     0.000 C 
BRANCH   4   5
ATOM      5  C   UNL     1     100.365 100.645  10.796  1.00  0.00     0.000 C 
BRANCH   5   6
ATOM      6  C   UNL     1      99.606  99.981  11.961  1.00  0.00     0.000 C 
BRANCH   6   7
ATOM      7  C   UNL     1      98.305  99.295  11.505  1.00  0.00     0.000 C 
BRANCH   7   8
ATOM      8  C   UNL     1      97.146  99.533  12.487  1.00  0.00     0.000 C 
BRANCH   8   9
ATOM      9  C   UNL     1      96.313 100.777  12.129  1.00  0.00     0.000 C 
BRANCH   9  10
ATOM     10  C   UNL     1      94.946 100.408  11.519  1.00  0.00     0.000 C 
BRANCH  10  11
ATOM     11  C   UNL     1      94.854 100.690  10.008  1.00  0.00     0.000 C 
BRANCH  11  12
ATOM     12  C   UNL     1      95.359  99.507   9.163  1.00  0.00     0.000 C 
BRANCH  12  13
ATOM     13  C   UNL     1      94.615  99.369   7.823  1.00  0.00     0.006 C 
BRANCH  13  14
ATOM     14  C   UNL     1      93.105  99.652   7.903  1.00  0.00     0.053 C 
BRANCH  14  15
ATOM     15  C   UNL     1      92.492  99.801   6.544  1.00  0.00     0.041 C 
ATOM     16  O   UNL     1      91.258 100.024   6.423  1.00  0.00    -0.550 OA
ATOM     17  O   UNL     1      93.295  99.752   5.410  1.00  0.00    -0.550 OA
ENDBRANCH  14  15
ENDBRANCH  13  14
ENDBRANCH  12  13
ENDBRANCH  11  12
ENDBRANCH  10  11
ENDBRANCH   9  10
ENDBRANCH   8   9
ENDBRANCH   7   8
ENDBRANCH   6   7
ENDBRANCH   5   6
ENDBRANCH   4   5
ENDBRANCH   3   4
ENDBRANCH   2   3
ENDBRANCH   1   2
BRANCH   1  18
ATOM     18  C   UNL     1     100.418  95.910  10.728  1.00  0.00     0.000 C 
BRANCH  18  19
ATOM     19  C   UNL     1     100.149  94.398  10.610  1.00  0.00     0.000 C 
BRANCH  19  20
ATOM     20  C   UNL     1      99.040  93.916  11.561  1.00  0.00     0.000 C 
BRANCH  20  21
ATOM     21  C   UNL     1      98.389  95.076  12.335  1.00  0.00     0.000 C 
BRANCH  21  22
ATOM     22  C   UNL     1      98.235  94.776  13.836  1.00  0.00     0.000 C 
BRANCH  22  23
ATOM     23  C   UNL     1      98.458  93.290  14.168  1.00  0.00     0.000 C 
BRANCH  23  24
ATOM     24  C   UNL     1      97.261  92.650  14.897  1.00  0.00    -0.000 C 
BRANCH  24  25
ATOM     25  C   UNL     1      97.242  91.108  14.908  1.00  0.00    -0.000 C 
BRANCH  25  26
ATOM     26  C   UNL     1      95.897  90.468  14.524  1.00  0.00    -0.000 C 
BRANCH  26  27
ATOM     27  C   UNL     1      94.694  91.178  15.166  1.00  0.00    -0.000 C 
BRANCH  27  28
ATOM     28  C   UNL     1      93.964  90.276  16.185  1.00  0.00    -0.000 C 
BRANCH  28  29
ATOM     29  C   UNL     1      93.180  89.115  15.539  1.00  0.00    -0.000 C 
BRANCH  29  30
ATOM     30  C   UNL     1      92.937  87.908  16.460  1.00  0.00    -0.000 C 
BRANCH  30  31
ATOM     31  C   UNL     1      91.567  87.255  16.235  1.00  0.00    -0.003 C 
ATOM     32  C   UNL     1      90.752  88.027  15.200  1.00  0.00     0.004 C 
ENDBRANCH  30  31
ENDBRANCH  29  30
ENDBRANCH  28  29
ENDBRANCH  27  28
ENDBRANCH  26  27
ENDBRANCH  25  26
ENDBRANCH  24  25
ENDBRANCH  23  24
ENDBRANCH  22  23
ENDBRANCH  21  22
ENDBRANCH  20  21
ENDBRANCH  19  20
ENDBRANCH  18  19
ENDBRANCH   1  18
TORSDOF 28
ENDMDL
MODEL 3
REMARK VINA RESULT:    22.454      3.930      9.045
REMARK INTER + INTRA:          60.511
REMARK INTER:                  61.930
REMARK INTRA:                  -1.419
REMARK UNBOUND:                 1.304
REMARK SMILES CCCCCCCCCCCCCCCCCCCCCCCCCCCCCC(=O)[O-]
REMARK SMILES IDX 16 1 17 2 18 3 19 4 20 5 21 6 22 7 23 8 24 9 25 10 26 11
REMARK SMILES IDX 27 12 28 13 29 14 30 15 31 16 32 17 15 18 14 19 13 20 12 21
REMARK SMILES IDX 11 22 10 23 9 24 8 25 7 26 6 27 5 28 4 29 3 30 2 31 1 32
REMARK H PARENT
REMARK Flexibility Score: inf
ROOT
ATOM      1  C   UNL     1     101.415  97.074  10.304  1.00  0.00     0.000 C 
ENDROOT
BRANCH   1   2
ATOM      2  C   UNL     1     102.530  98.090  10.002  1.00  0.00     0.000 C 
BRANCH   2   3
ATOM      3  C   UNL     1     102.007  99.343   9.279  1.00  0.00     0.000 C 
BRANCH   3   4
ATOM      4  C   UNL     1     102.028 100.593  10.178  1.00  0.00     0.000 C 
BRANCH   4   5
ATOM      5  C   UNL     1     100.645 100.912  10.776  1.00  0.00     0.000 C 
BRANCH   5   6
ATOM      6  C   UNL     1     100.026  99.757  11.588  1.00  0.00     0.000 C 
BRANCH   6   7
ATOM      7  C   UNL     1      98.504  99.639  11.385  1.00  0.00     0.000 C 
BRANCH   7   8
ATOM      8  C   UNL     1      98.144  99.060  10.007  1.00  0.00     0.000 C 
BRANCH   8   9
ATOM      9  C   UNL     1      97.163  99.953   9.227  1.00  0.00     0.000 C 
BRANCH   9  10
ATOM     10  C   UNL     1      96.821  99.373   7.840  1.00  0.00     0.000 C 
BRANCH  10  11
ATOM     11  C   UNL     1      95.628  98.400   7.861  1.00  0.00     0.000 C 
BRANCH  11  12
ATOM     12  C   UNL     1      94.386  98.987   7.165  1.00  0.00     0.000 C 
BRANCH  12  13
ATOM     13  C   UNL     1      93.091  98.764   7.966  1.00  0.00     0.006 C 
BRANCH  13  14
ATOM     14  C   UNL     1      91.931  99.694   7.568  1.00  0.00     0.053 C 
BRANCH  14  15
ATOM     15  C   UNL     1      91.878  99.918   6.088  1.00  0.00     0.041 C 
ATOM     16  O   UNL     1      92.211  98.999   5.292  1.00  0.00    -0.550 OA
ATOM     17  O   UNL     1      91.402 101.123   5.583  1.00  0.00    -0.550 OA
ENDBRANCH  14  15
ENDBRANCH  13  14
ENDBRANCH  12  13
ENDBRANCH  11  12
ENDBRANCH  10  11
ENDBRANCH   9  10
ENDBRANCH   8   9
ENDBRANCH   7   8
ENDBRANCH   6   7
ENDBRANCH   5   6
ENDBRANCH   4   5
ENDBRANCH   3   4
ENDBRANCH   2   3
ENDBRANCH   1   2
BRANCH   1  18
ATOM     18  C   UNL     1     101.960  95.692  10.698  1.00  0.00     0.000 C 
BRANCH  18  19
ATOM     19  C   UNL     1     101.078  94.534  10.192  1.00  0.00     0.000 C 
BRANCH  19  20
ATOM     20  C   UNL     1     100.048  94.072  11.237  1.00  0.00     0.000 C 
BRANCH  20  21
ATOM     21  C   UNL     1      98.620  94.538  10.897  1.00  0.00     0.000 C 
BRANCH  21  22
ATOM     22  C   UNL     1      98.282  95.910  11.505  1.00  0.00     0.000 C 
BRANCH  22  23
ATOM     23  C   UNL     1      98.333  95.904  13.043  1.00  0.00     0.000 C 
BRANCH  23  24
ATOM     24  C   UNL     1      98.230  94.488  13.643  1.00  0.00    -0.000 C 
BRANCH  24  25
ATOM     25  C   UNL     1      99.130  94.222  14.866  1.00  0.00    -0.000 C 
BRANCH  25  26
ATOM     26  C   UNL     1      98.921  95.180  16.052  1.00  0.00    -0.000 C 
BRANCH  26  27
ATOM     27  C   UNL     1     100.233  95.815  16.543  1.00  0.00    -0.000 C 
BRANCH  27  28
ATOM     28  C   UNL     1     100.079  96.456  17.940  1.00  0.00    -0.000 C 
BRANCH  28  29
ATOM     29  C   UNL     1      99.515  97.892  17.908  1.00  0.00    -0.000 C 
BRANCH  29  30
ATOM     30  C   UNL     1      98.008  98.000  18.191  1.00  0.00    -0.000 C 
BRANCH  30  31
ATOM     31  C   UNL     1      97.619  99.337  18.836  1.00  0.00    -0.003 C 
ATOM     32  C   UNL     1      98.808  99.966  19.559  1.00  0.00     0.004 C 
ENDBRANCH  30  31
ENDBRANCH  29  30
ENDBRANCH  28  29
ENDBRANCH  27  28
ENDBRANCH  26  27
ENDBRANCH  25  26
ENDBRANCH  24  25
ENDBRANCH  23  24
ENDBRANCH  22  23
ENDBRANCH  21  22
ENDBRANCH  20  21
ENDBRANCH  19  20
ENDBRANCH  18  19
ENDBRANCH   1  18
TORSDOF 28
ENDMDL
MODEL 4
REMARK VINA RESULT:    22.760      4.981      6.278
REMARK INTER + INTRA:          61.319
REMARK INTER:                  62.387
REMARK INTRA:                  -1.068
REMARK UNBOUND:                 1.304
REMARK SMILES CCCCCCCCCCCCCCCCCCCCCCCCCCCCCC(=O)[O-]
REMARK SMILES IDX 16 1 17 2 18 3 19 4 20 5 21 6 22 7 23 8 24 9 25 10 26 11
REMARK SMILES IDX 27 12 28 13 29 14 30 15 31 16 32 17 15 18 14 19 13 20 12 21
REMARK SMILES IDX 11 22 10 23 9 24 8 25 7 26 6 27 5 28 4 29 3 30 2 31 1 32
REMARK H PARENT
REMARK Flexibility Score: inf
ROOT
ATOM      1  C   UNL     1     101.055  95.676  10.366  1.00  0.00     0.000 C 
ENDROOT
BRANCH   1   2
ATOM      2  C   UNL     1      99.891  96.188  11.233  1.00  0.00     0.000 C 
BRANCH   2   3
ATOM      3  C   UNL     1      98.567  95.467  10.928  1.00  0.00     0.000 C 
BRANCH   3   4
ATOM      4  C   UNL     1      98.662  93.945  11.142  1.00  0.00     0.000 C 
BRANCH   4   5
ATOM      5  C   UNL     1      99.092  93.577  12.576  1.00  0.00     0.000 C 
BRANCH   5   6
ATOM      6  C   UNL     1      98.085  93.998  13.664  1.00  0.00     0.000 C 
BRANCH   6   7
ATOM      7  C   UNL     1      97.967  92.959  14.795  1.00  0.00     0.000 C 
BRANCH   7   8
ATOM      8  C   UNL     1      97.272  91.669  14.330  1.00  0.00     0.000 C 
BRANCH   8   9
ATOM      9  C   UNL     1      96.272  91.128  15.366  1.00  0.00     0.000 C 
BRANCH   9  10
ATOM     10  C   UNL     1      94.809  91.401  14.964  1.00  0.00     0.000 C 
BRANCH  10  11
ATOM     11  C   UNL     1      93.972  90.120  14.792  1.00  0.00     0.000 C 
BRANCH  11  12
ATOM     12  C   UNL     1      93.895  89.297  16.091  1.00  0.00     0.000 C 
BRANCH  12  13
ATOM     13  C   UNL     1      93.387  87.862  15.860  1.00  0.00     0.006 C 
BRANCH  13  14
ATOM     14  C   UNL     1      92.134  87.494  16.674  1.00  0.00     0.053 C 
BRANCH  14  15
ATOM     15  C   UNL     1      90.880  87.650  15.869  1.00  0.00     0.041 C 
ATOM     16  O   UNL     1      90.811  87.183  14.700  1.00  0.00    -0.550 OA
ATOM     17  O   UNL     1      89.763  88.258  16.432  1.00  0.00    -0.550 OA
ENDBRANCH  14  15
ENDBRANCH  13  14
ENDBRANCH  12  13
ENDBRANCH  11  12
ENDBRANCH  10  11
ENDBRANCH   9  10
ENDBRANCH   8   9
ENDBRANCH   7   8
ENDBRANCH   6   7
ENDBRANCH   5   6
ENDBRANCH   4   5
ENDBRANCH   3   4
ENDBRANCH   2   3
ENDBRANCH   1   2
BRANCH   1  18
ATOM     18  C   UNL     1     102.096  96.766  10.064  1.00  0.00     0.000 C 
BRANCH  18  19
ATOM     19  C   UNL     1     101.649  98.165  10.530  1.00  0.00     0.000 C 
BRANCH  19  20
ATOM     20  C   UNL     1     101.742  99.220   9.414  1.00  0.00     0.000 C 
BRANCH  20  21
ATOM     21  C   UNL     1     101.593 100.655   9.950  1.00  0.00     0.000 C 
BRANCH  21  22
ATOM     22  C   UNL     1     100.616 100.748  11.134  1.00  0.00     0.000 C 
BRANCH  22  23
ATOM     23  C   UNL     1      99.420  99.789  10.991  1.00  0.00     0.000 C 
BRANCH  23  24
ATOM     24  C   UNL     1      98.359  99.983  12.092  1.00  0.00    -0.000 C 
BRANCH  24  25
ATOM     25  C   UNL     1      96.951  99.456  11.750  1.00  0.00    -0.000 C 
BRANCH  25  26
ATOM     26  C   UNL     1      95.876 100.540  11.563  1.00  0.00    -0.000 C 
BRANCH  26  27
ATOM     27  C   UNL     1      95.404 100.667  10.105  1.00  0.00    -0.000 C 
BRANCH  27  28
ATOM     28  C   UNL     1      94.363  99.587   9.736  1.00  0.00    -0.000 C 
BRANCH  28  29
ATOM     29  C   UNL     1      94.197  99.376   8.216  1.00  0.00    -0.000 C 
BRANCH  29  30
ATOM     30  C   UNL     1      92.784  99.655   7.676  1.00  0.00    -0.000 C 
BRANCH  30  31
ATOM     31  C   UNL     1      92.766  99.912   6.163  1.00  0.00    -0.003 C 
ATOM     32  C   UNL     1      91.560 100.758   5.764  1.00  0.00     0.004 C 
ENDBRANCH  30  31
ENDBRANCH  29  30
ENDBRANCH  28  29
ENDBRANCH  27  28
ENDBRANCH  26  27
ENDBRANCH  25  26
ENDBRANCH  24  25
ENDBRANCH  23  24
ENDBRANCH  22  23
ENDBRANCH  21  22
ENDBRANCH  20  21
ENDBRANCH  19  20
ENDBRANCH  18  19
ENDBRANCH   1  18
TORSDOF 28
ENDMDL
MODEL 5
REMARK VINA RESULT:    22.788      1.470      2.667
REMARK INTER + INTRA:          61.392
REMARK INTER:                  60.368
REMARK INTRA:                   1.025
REMARK UNBOUND:                 1.304
REMARK SMILES CCCCCCCCCCCCCCCCCCCCCCCCCCCCCC(=O)[O-]
REMARK SMILES IDX 16 1 17 2 18 3 19 4 20 5 21 6 22 7 23 8 24 9 25 10 26 11
REMARK SMILES IDX 27 12 28 13 29 14 30 15 31 16 32 17 15 18 14 19 13 20 12 21
REMARK SMILES IDX 11 22 10 23 9 24 8 25 7 26 6 27 5 28 4 29 3 30 2 31 1 32
REMARK H PARENT
REMARK Flexibility Score: inf
ROOT
ATOM      1  C   UNL     1     101.375  98.021  10.558  1.00  0.00     0.000 C 
ENDROOT
BRANCH   1   2
ATOM      2  C   UNL     1     101.967  96.605  10.461  1.00  0.00     0.000 C 
BRANCH   2   3
ATOM      3  C   UNL     1     101.015  95.612   9.773  1.00  0.00     0.000 C 
BRANCH   3   4
ATOM      4  C   UNL     1     101.187  94.173  10.295  1.00  0.00     0.000 C 
BRANCH   4   5
ATOM      5  C   UNL     1      99.986  93.705  11.138  1.00  0.00     0.000 C 
BRANCH   5   6
ATOM      6  C   UNL     1      98.688  94.495  10.881  1.00  0.00     0.000 C 
BRANCH   6   7
ATOM      7  C   UNL     1      98.676  95.861  11.592  1.00  0.00     0.000 C 
BRANCH   7   8
ATOM      8  C   UNL     1      98.180  95.758  13.044  1.00  0.00     0.000 C 
BRANCH   8   9
ATOM      9  C   UNL     1      97.906  94.307  13.475  1.00  0.00     0.000 C 
BRANCH   9  10
ATOM     10  C   UNL     1      98.939  93.797  14.498  1.00  0.00     0.000 C 
BRANCH  10  11
ATOM     11  C   UNL     1      98.843  94.497  15.866  1.00  0.00     0.000 C 
BRANCH  11  12
ATOM     12  C   UNL     1      99.991  95.497  16.090  1.00  0.00     0.000 C 
BRANCH  12  13
ATOM     13  C   UNL     1     100.163  95.888  17.569  1.00  0.00     0.006 C 
BRANCH  13  14
ATOM     14  C   UNL     1      98.938  96.583  18.189  1.00  0.00     0.053 C 
BRANCH  14  15
ATOM     15  C   UNL     1      98.958  98.063  17.954  1.00  0.00     0.041 C 
ATOM     16  O   UNL     1      98.011  98.786  18.363  1.00  0.00    -0.550 OA
ATOM     17  O   UNL     1     100.054  98.654  17.334  1.00  0.00    -0.550 OA
ENDBRANCH  14  15
ENDBRANCH  13  14
ENDBRANCH  12  13
ENDBRANCH  11  12
ENDBRANCH  10  11
ENDBRANCH   9  10
ENDBRANCH   8   9
ENDBRANCH   7   8
ENDBRANCH   6   7
ENDBRANCH   5   6
ENDBRANCH   4   5
ENDBRANCH   3   4
ENDBRANCH   2   3
ENDBRANCH   1   2
BRANCH   1  18
ATOM     18  C   UNL     1     102.236  99.076   9.845  1.00  0.00     0.000 C 
BRANCH  18  19
ATOM     19  C   UNL     1     101.748 100.516  10.097  1.00  0.00     0.000 C 
BRANCH  19  20
ATOM     20  C   UNL     1     100.216 100.614  10.196  1.00  0.00     0.000 C 
BRANCH  20  21
ATOM     21  C   UNL     1      99.608  99.471  11.028  1.00  0.00     0.000 C 
BRANCH  21  22
ATOM     22  C   UNL     1      98.359  98.858  10.373  1.00  0.00     0.000 C 
BRANCH  22  23
ATOM     23  C   UNL     1      97.295  99.915  10.025  1.00  0.00     0.000 C 
BRANCH  23  24
ATOM     24  C   UNL     1      96.518  99.583   8.737  1.00  0.00    -0.000 C 
BRANCH  24  25
ATOM     25  C   UNL     1      95.024  99.967   8.750  1.00  0.00    -0.000 C 
BRANCH  25  26
ATOM     26  C   UNL     1      94.095  99.006   7.990  1.00  0.00    -0.000 C 
BRANCH  26  27
ATOM     27  C   UNL     1      92.647  99.517   7.906  1.00  0.00    -0.000 C 
BRANCH  27  28
ATOM     28  C   UNL     1      92.267  99.951   6.473  1.00  0.00    -0.000 C 
BRANCH  28  29
ATOM     29  C   UNL     1      93.002  99.164   5.369  1.00  0.00    -0.000 C 
BRANCH  29  30
ATOM     30  C   UNL     1      92.701  97.656   5.341  1.00  0.00    -0.000 C 
BRANCH  30  31
ATOM     31  C   UNL     1      91.825  97.247   4.150  1.00  0.00    -0.003 C 
ATOM     32  C   UNL     1      91.840  95.733   3.951  1.00  0.00     0.004 C 
ENDBRANCH  30  31
ENDBRANCH  29  30
ENDBRANCH  28  29
ENDBRANCH  27  28
ENDBRANCH  26  27
ENDBRANCH  25  26
ENDBRANCH  24  25
ENDBRANCH  23  24
ENDBRANCH  22  23
ENDBRANCH  21  22
ENDBRANCH  20  21
ENDBRANCH  19  20
ENDBRANCH  18  19
ENDBRANCH   1  18
TORSDOF 28
ENDMDL
