MODEL 1
REMARK VINA RESULT:    -3.345      0.000      0.000
REMARK INTER + INTRA:          -5.122
REMARK INTER:                  -5.106
REMARK INTRA:                  -0.016
REMARK UNBOUND:                -0.016
REMARK SMILES CC1=CCC[C@@H](C)C(=O)C[C@H](C(C)C)C(=O)C1
REMARK SMILES IDX 8 1 9 2 6 3 7 4 5 5 4 6 3 7 2 8 1 9 10 11 11 12 15 13 16 14
REMARK SMILES IDX 17 15 12 17 13 18 14 19
REMARK H PARENT
REMARK Flexibility Score: 70.00
ROOT
ATOM      1  C   UNL     1      -6.565 -39.608 214.401  1.00  0.00     0.136 C 
ATOM      2  O   UNL     1      -7.659 -39.073 214.503  1.00  0.00    -0.299 OA
ENDROOT
BRANCH   1   3
ATOM      3  C   UNL     1      -6.519 -41.030 213.856  1.00  0.00     0.053 C 
ATOM      4  C   UNL     1      -6.250 -42.097 214.931  1.00  0.00     0.016 C 
BRANCH   3   5
ATOM      5  C   UNL     1      -5.591 -41.160 212.628  1.00  0.00     0.015 C 
BRANCH   5   6
ATOM      6  C   UNL     1      -4.387 -42.100 212.842  1.00  0.00     0.028 C 
BRANCH   6   7
ATOM      7  C   UNL     1      -3.110 -41.546 212.267  1.00  0.00    -0.028 C 
ATOM      8  C   UNL     1      -2.092 -41.032 213.000  1.00  0.00    -0.070 CG0
ATOM      9  C   UNL     1      -0.852 -40.588 212.264  1.00  0.00     0.039 C 
ATOM     10  G   UNL     1      -2.157 -40.859 214.511  1.00  0.00     0.000 G0
ENDBRANCH   6   7
ENDBRANCH   5   6
ENDBRANCH   3   5
ENDBRANCH   1   3
BRANCH   1  11
ATOM     11  C   UNL     1      -5.337 -38.853 214.877  1.00  0.00     0.087 C 
BRANCH  11  12
ATOM     12  C   UNL     1      -4.272 -39.701 215.630  1.00  0.00     0.066 C 
BRANCH  12  13
ATOM     13  C   UNL     1      -2.906 -39.613 214.957  1.00  0.00     0.140 C 
ATOM     14  O   UNL     1      -2.437 -38.510 214.719  1.00  0.00    -0.299 OA
BRANCH  13  15
ATOM     15  C   UNL     1      -2.151 -40.847 214.514  1.00  0.00     0.106 CG0
ATOM     16  G   UNL     1      -2.118 -41.024 213.002  1.00  0.00     0.000 G0
ENDBRANCH  13  15
ENDBRANCH  12  13
BRANCH  12  17
ATOM     17  C   UNL     1      -4.188 -39.466 217.174  1.00  0.00    -0.006 C 
ATOM     18  C   UNL     1      -5.123 -38.337 217.646  1.00  0.00     0.008 C 
ATOM     19  C   UNL     1      -4.543 -40.750 217.947  1.00  0.00     0.008 C 
ENDBRANCH  12  17
ENDBRANCH  11  12
ENDBRANCH   1  11
TORSDOF 1
ENDMDL
MODEL 2
REMARK VINA RESULT:    -3.249      2.788      4.633
REMARK INTER + INTRA:          -4.975
REMARK INTER:                  -5.260
REMARK INTRA:                   0.285
REMARK UNBOUND:                -0.016
REMARK SMILES CC1=CCC[C@@H](C)C(=O)C[C@H](C(C)C)C(=O)C1
REMARK SMILES IDX 8 1 9 2 6 3 7 4 5 5 4 6 3 7 2 8 1 9 10 11 11 12 15 13 16 14
REMARK SMILES IDX 17 15 12 17 13 18 14 19
REMARK H PARENT
REMARK Flexibility Score: 70.00
ROOT
ATOM      1  C   UNL     1      -3.204 -40.377 216.482  1.00  0.00     0.136 C 
ATOM      2  O   UNL     1      -2.966 -41.507 216.084  1.00  0.00    -0.299 OA
ENDROOT
BRANCH   1   3
ATOM      3  C   UNL     1      -3.159 -39.244 215.465  1.00  0.00     0.053 C 
ATOM      4  C   UNL     1      -1.743 -38.705 215.199  1.00  0.00     0.016 C 
BRANCH   3   5
ATOM      5  C   UNL     1      -4.181 -38.129 215.780  1.00  0.00     0.015 C 
BRANCH   5   6
ATOM      6  C   UNL     1      -5.585 -38.374 215.192  1.00  0.00     0.028 C 
BRANCH   6   7
ATOM      7  C   UNL     1      -5.759 -39.777 214.672  1.00  0.00    -0.028 C 
ATOM      8  C   UNL     1      -6.384 -40.777 215.340  1.00  0.00    -0.070 CG0
ATOM      9  C   UNL     1      -6.534 -42.104 214.638  1.00  0.00     0.039 C 
ATOM     10  G   UNL     1      -6.910 -40.630 216.761  1.00  0.00     0.000 G0
ENDBRANCH   6   7
ENDBRANCH   5   6
ENDBRANCH   3   5
ENDBRANCH   1   3
BRANCH   1  11
ATOM     11  C   UNL     1      -3.465 -40.163 217.963  1.00  0.00     0.087 C 
BRANCH  11  12
ATOM     12  C   UNL     1      -4.941 -39.859 218.352  1.00  0.00     0.066 C 
BRANCH  12  13
ATOM     13  C   UNL     1      -5.889 -40.939 217.843  1.00  0.00     0.140 C 
ATOM     14  O   UNL     1      -5.771 -42.077 218.274  1.00  0.00    -0.299 OA
BRANCH  13  15
ATOM     15  C   UNL     1      -6.921 -40.659 216.772  1.00  0.00     0.106 CG0
ATOM     16  G   UNL     1      -6.368 -40.766 215.358  1.00  0.00     0.000 G0
ENDBRANCH  13  15
ENDBRANCH  12  13
BRANCH  12  17
ATOM     17  C   UNL     1      -5.186 -39.516 219.858  1.00  0.00    -0.006 C 
ATOM     18  C   UNL     1      -3.873 -39.396 220.653  1.00  0.00     0.008 C 
ATOM     19  C   UNL     1      -5.968 -38.197 220.002  1.00  0.00     0.008 C 
ENDBRANCH  12  17
ENDBRANCH  11  12
ENDBRANCH   1  11
TORSDOF 1
ENDMDL
MODEL 3
REMARK VINA RESULT:    -3.180      2.167      4.394
REMARK INTER + INTRA:          -4.869
REMARK INTER:                  -4.742
REMARK INTRA:                  -0.127
REMARK UNBOUND:                -0.016
REMARK SMILES CC1=CCC[C@@H](C)C(=O)C[C@H](C(C)C)C(=O)C1
REMARK SMILES IDX 8 1 9 2 6 3 7 4 5 5 4 6 3 7 2 8 1 9 10 11 11 12 15 13 16 14
REMARK SMILES IDX 17 15 12 17 13 18 14 19
REMARK H PARENT
REMARK Flexibility Score: 70.00
ROOT
ATOM      1  C   UNL     1      -2.760 -38.743 214.876  1.00  0.00     0.136 C 
ATOM      2  O   UNL     1      -1.951 -37.951 215.334  1.00  0.00    -0.299 OA
ENDROOT
BRANCH   1   3
ATOM      3  C   UNL     1      -2.223 -39.920 214.071  1.00  0.00     0.053 C 
ATOM      4  C   UNL     1      -3.292 -40.636 213.230  1.00  0.00     0.016 C 
BRANCH   3   5
ATOM      5  C   UNL     1      -1.383 -40.888 214.933  1.00  0.00     0.015 C 
BRANCH   5   6
ATOM      6  C   UNL     1      -2.197 -41.664 215.989  1.00  0.00     0.028 C 
BRANCH   6   7
ATOM      7  C   UNL     1      -1.941 -41.177 217.391  1.00  0.00    -0.028 C 
ATOM      8  C   UNL     1      -2.906 -40.869 218.290  1.00  0.00    -0.070 CG0
ATOM      9  C   UNL     1      -2.471 -40.467 219.678  1.00  0.00     0.039 C 
ATOM     10  G   UNL     1      -4.392 -40.883 217.957  1.00  0.00     0.000 G0
ENDBRANCH   6   7
ENDBRANCH   5   6
ENDBRANCH   3   5
ENDBRANCH   1   3
BRANCH   1  11
ATOM     11  C   UNL     1      -4.241 -38.475 215.080  1.00  0.00     0.087 C 
BRANCH  11  12
ATOM     12  C   UNL     1      -5.055 -39.634 215.724  1.00  0.00     0.066 C 
BRANCH  12  13
ATOM     13  C   UNL     1      -4.896 -39.656 217.240  1.00  0.00     0.140 C 
ATOM     14  O   UNL     1      -5.119 -38.632 217.870  1.00  0.00    -0.299 OA
BRANCH  13  15
ATOM     15  C   UNL     1      -4.404 -40.883 217.977  1.00  0.00     0.106 CG0
ATOM     16  G   UNL     1      -2.917 -40.839 218.297  1.00  0.00     0.000 G0
ENDBRANCH  13  15
ENDBRANCH  12  13
BRANCH  12  17
ATOM     17  C   UNL     1      -6.553 -39.735 215.284  1.00  0.00    -0.006 C 
ATOM     18  C   UNL     1      -6.978 -38.562 214.382  1.00  0.00     0.008 C 
ATOM     19  C   UNL     1      -6.816 -41.052 214.529  1.00  0.00     0.008 C 
ENDBRANCH  12  17
ENDBRANCH  11  12
ENDBRANCH   1  11
TORSDOF 1
ENDMDL
MODEL 4
REMARK VINA RESULT:    -3.086      2.073      4.374
REMARK INTER + INTRA:          -4.725
REMARK INTER:                  -5.476
REMARK INTRA:                   0.751
REMARK UNBOUND:                -0.016
REMARK SMILES CC1=CCC[C@@H](C)C(=O)C[C@H](C(C)C)C(=O)C1
REMARK SMILES IDX 8 1 9 2 6 3 7 4 5 5 4 6 3 7 2 8 1 9 10 11 11 12 15 13 16 14
REMARK SMILES IDX 17 15 12 17 13 18 14 19
REMARK H PARENT
REMARK Flexibility Score: 70.00
ROOT
ATOM      1  C   UNL     1      -5.843 -40.825 213.855  1.00  0.00     0.136 C 
ATOM      2  O   UNL     1      -5.863 -41.461 212.812  1.00  0.00    -0.299 OA
ENDROOT
BRANCH   1   3
ATOM      3  C   UNL     1      -7.119 -40.102 214.268  1.00  0.00     0.053 C 
ATOM      4  C   UNL     1      -7.005 -38.569 214.225  1.00  0.00     0.016 C 
BRANCH   3   5
ATOM      5  C   UNL     1      -7.688 -40.629 215.604  1.00  0.00     0.015 C 
BRANCH   5   6
ATOM      6  C   UNL     1      -6.613 -41.041 216.631  1.00  0.00     0.028 C 
BRANCH   6   7
ATOM      7  C   UNL     1      -6.483 -40.053 217.761  1.00  0.00    -0.028 C 
ATOM      8  C   UNL     1      -5.365 -39.338 218.037  1.00  0.00    -0.070 CG0
ATOM      9  C   UNL     1      -5.432 -38.336 219.163  1.00  0.00     0.039 C 
ATOM     10  G   UNL     1      -4.053 -39.518 217.286  1.00  0.00     0.000 G0
ENDBRANCH   6   7
ENDBRANCH   5   6
ENDBRANCH   3   5
ENDBRANCH   1   3
BRANCH   1  11
ATOM     11  C   UNL     1      -4.544 -40.743 214.636  1.00  0.00     0.087 C 
BRANCH  11  12
ATOM     12  C   UNL     1      -3.852 -39.350 214.654  1.00  0.00     0.066 C 
BRANCH  12  13
ATOM     13  C   UNL     1      -3.931 -38.702 216.032  1.00  0.00     0.140 C 
ATOM     14  O   UNL     1      -3.845 -37.485 216.116  1.00  0.00    -0.299 OA
BRANCH  13  15
ATOM     15  C   UNL     1      -4.040 -39.522 217.299  1.00  0.00     0.106 CG0
ATOM     16  G   UNL     1      -5.367 -39.343 218.022  1.00  0.00     0.000 G0
ENDBRANCH  13  15
ENDBRANCH  12  13
BRANCH  12  17
ATOM     17  C   UNL     1      -2.406 -39.305 214.060  1.00  0.00    -0.006 C 
ATOM     18  C   UNL     1      -1.327 -39.572 215.126  1.00  0.00     0.008 C 
ATOM     19  C   UNL     1      -2.243 -40.337 212.929  1.00  0.00     0.008 C 
ENDBRANCH  12  17
ENDBRANCH  11  12
ENDBRANCH   1  11
TORSDOF 1
ENDMDL
MODEL 5
REMARK VINA RESULT:    -3.051     12.396     14.768
REMARK INTER + INTRA:          -4.673
REMARK INTER:                  -4.474
REMARK INTRA:                  -0.199
REMARK UNBOUND:                -0.016
REMARK SMILES CC1=CCC[C@@H](C)C(=O)C[C@H](C(C)C)C(=O)C1
REMARK SMILES IDX 8 1 9 2 6 3 7 4 5 5 4 6 3 7 2 8 1 9 10 11 11 12 15 13 16 14
REMARK SMILES IDX 17 15 12 17 13 18 14 19
REMARK H PARENT
REMARK Flexibility Score: 70.00
ROOT
ATOM      1  C   UNL     1     -15.897 -40.372 210.585  1.00  0.00     0.136 C 
ATOM      2  O   UNL     1     -15.560 -41.547 210.605  1.00  0.00    -0.299 OA
ENDROOT
BRANCH   1   3
ATOM      3  C   UNL     1     -16.918 -39.910 211.617  1.00  0.00     0.053 C 
ATOM      4  C   UNL     1     -16.431 -40.034 213.070  1.00  0.00     0.016 C 
BRANCH   3   5
ATOM      5  C   UNL     1     -18.311 -40.539 211.389  1.00  0.00     0.015 C 
BRANCH   5   6
ATOM      6  C   UNL     1     -19.343 -39.580 210.761  1.00  0.00     0.028 C 
BRANCH   6   7
ATOM      7  C   UNL     1     -19.720 -39.974 209.357  1.00  0.00    -0.028 C 
ATOM      8  C   UNL     1     -19.100 -39.529 208.237  1.00  0.00    -0.070 CG0
ATOM      9  C   UNL     1     -19.560 -40.085 206.912  1.00  0.00     0.039 C 
ATOM     10  G   UNL     1     -17.992 -38.486 208.255  1.00  0.00     0.000 G0
ENDBRANCH   6   7
ENDBRANCH   5   6
ENDBRANCH   3   5
ENDBRANCH   1   3
BRANCH   1  11
ATOM     11  C   UNL     1     -15.329 -39.468 209.506  1.00  0.00     0.087 C 
BRANCH  11  12
ATOM     12  C   UNL     1     -15.715 -39.835 208.044  1.00  0.00     0.066 C 
BRANCH  12  13
ATOM     13  C   UNL     1     -16.748 -38.867 207.476  1.00  0.00     0.140 C 
ATOM     14  O   UNL     1     -16.538 -38.354 206.387  1.00  0.00    -0.299 OA
BRANCH  13  15
ATOM     15  C   UNL     1     -17.986 -38.472 208.251  1.00  0.00     0.106 CG0
ATOM     16  G   UNL     1     -19.083 -39.526 208.217  1.00  0.00     0.000 G0
ENDBRANCH  13  15
ENDBRANCH  12  13
BRANCH  12  17
ATOM     17  C   UNL     1     -14.517 -40.064 207.064  1.00  0.00    -0.006 C 
ATOM     18  C   UNL     1     -13.172 -40.184 207.804  1.00  0.00     0.008 C 
ATOM     19  C   UNL     1     -14.729 -41.338 206.225  1.00  0.00     0.008 C 
ENDBRANCH  12  17
ENDBRANCH  11  12
ENDBRANCH   1  11
TORSDOF 1
ENDMDL
MODEL 6
REMARK VINA RESULT:    -3.005     12.980     15.415
REMARK INTER + INTRA:          -4.602
REMARK INTER:                  -4.916
REMARK INTRA:                   0.315
REMARK UNBOUND:                -0.016
REMARK SMILES CC1=CCC[C@@H](C)C(=O)C[C@H](C(C)C)C(=O)C1
REMARK SMILES IDX 8 1 9 2 6 3 7 4 5 5 4 6 3 7 2 8 1 9 10 11 11 12 15 13 16 14
REMARK SMILES IDX 17 15 12 17 13 18 14 19
REMARK H PARENT
REMARK Flexibility Score: 70.00
ROOT
ATOM      1  C   UNL     1     -16.498 -37.768 210.427  1.00  0.00     0.136 C 
ATOM      2  O   UNL     1     -16.356 -37.267 211.532  1.00  0.00    -0.299 OA
ENDROOT
BRANCH   1   3
ATOM      3  C   UNL     1     -15.518 -38.858 210.012  1.00  0.00     0.053 C 
ATOM      4  C   UNL     1     -15.524 -39.156 208.503  1.00  0.00     0.016 C 
BRANCH   3   5
ATOM      5  C   UNL     1     -15.648 -40.128 210.880  1.00  0.00     0.015 C 
BRANCH   5   6
ATOM      6  C   UNL     1     -16.437 -41.273 210.213  1.00  0.00     0.028 C 
BRANCH   6   7
ATOM      7  C   UNL     1     -17.597 -41.743 211.050  1.00  0.00    -0.028 C 
ATOM      8  C   UNL     1     -18.901 -41.517 210.759  1.00  0.00    -0.070 CG0
ATOM      9  C   UNL     1     -19.940 -42.125 211.670  1.00  0.00     0.039 C 
ATOM     10  G   UNL     1     -19.358 -40.665 209.584  1.00  0.00     0.000 G0
ENDBRANCH   6   7
ENDBRANCH   5   6
ENDBRANCH   3   5
ENDBRANCH   1   3
BRANCH   1  11
ATOM     11  C   UNL     1     -17.593 -37.236 209.519  1.00  0.00     0.087 C 
BRANCH  11  12
ATOM     12  C   UNL     1     -18.448 -38.312 208.790  1.00  0.00     0.066 C 
BRANCH  12  13
ATOM     13  C   UNL     1     -19.215 -39.183 209.778  1.00  0.00     0.140 C 
ATOM     14  O   UNL     1     -19.665 -38.668 210.792  1.00  0.00    -0.299 OA
BRANCH  13  15
ATOM     15  C   UNL     1     -19.374 -40.675 209.577  1.00  0.00     0.106 CG0
ATOM     16  G   UNL     1     -18.891 -41.499 210.762  1.00  0.00     0.000 G0
ENDBRANCH  13  15
ENDBRANCH  12  13
BRANCH  12  17
ATOM     17  C   UNL     1     -19.360 -37.783 207.634  1.00  0.00    -0.006 C 
ATOM     18  C   UNL     1     -18.959 -36.370 207.173  1.00  0.00     0.008 C 
ATOM     19  C   UNL     1     -19.312 -38.727 206.418  1.00  0.00     0.008 C 
ENDBRANCH  12  17
ENDBRANCH  11  12
ENDBRANCH   1  11
TORSDOF 1
ENDMDL
MODEL 7
REMARK VINA RESULT:    -2.956      2.139      4.254
REMARK INTER + INTRA:          -4.528
REMARK INTER:                  -4.836
REMARK INTRA:                   0.308
REMARK UNBOUND:                -0.016
REMARK SMILES CC1=CCC[C@@H](C)C(=O)C[C@H](C(C)C)C(=O)C1
REMARK SMILES IDX 8 1 9 2 6 3 7 4 5 5 4 6 3 7 2 8 1 9 10 11 11 12 15 13 16 14
REMARK SMILES IDX 17 15 12 17 13 18 14 19
REMARK H PARENT
REMARK Flexibility Score: 70.00
ROOT
ATOM      1  C   UNL     1      -4.757 -39.577 218.001  1.00  0.00     0.136 C 
ATOM      2  O   UNL     1      -5.032 -38.424 218.298  1.00  0.00    -0.299 OA
ENDROOT
BRANCH   1   3
ATOM      3  C   UNL     1      -5.602 -40.687 218.611  1.00  0.00     0.053 C 
ATOM      4  C   UNL     1      -4.962 -41.348 219.843  1.00  0.00     0.016 C 
BRANCH   3   5
ATOM      5  C   UNL     1      -6.082 -41.709 217.557  1.00  0.00     0.015 C 
BRANCH   5   6
ATOM      6  C   UNL     1      -7.268 -41.224 216.699  1.00  0.00     0.028 C 
BRANCH   6   7
ATOM      7  C   UNL     1      -7.028 -41.407 215.223  1.00  0.00    -0.028 C 
ATOM      8  C   UNL     1      -6.540 -40.452 214.394  1.00  0.00    -0.070 CG0
ATOM      9  C   UNL     1      -6.292 -40.831 212.955  1.00  0.00     0.039 C 
ATOM     10  G   UNL     1      -6.261 -39.024 214.841  1.00  0.00     0.000 G0
ENDBRANCH   6   7
ENDBRANCH   5   6
ENDBRANCH   3   5
ENDBRANCH   1   3
BRANCH   1  11
ATOM     11  C   UNL     1      -3.562 -39.833 217.099  1.00  0.00     0.087 C 
BRANCH  11  12
ATOM     12  C   UNL     1      -3.860 -39.857 215.572  1.00  0.00     0.066 C 
BRANCH  12  13
ATOM     13  C   UNL     1      -4.814 -38.738 215.169  1.00  0.00     0.140 C 
ATOM     14  O   UNL     1      -4.402 -37.587 215.164  1.00  0.00    -0.299 OA
BRANCH  13  15
ATOM     15  C   UNL     1      -6.268 -39.002 214.845  1.00  0.00     0.106 CG0
ATOM     16  G   UNL     1      -6.536 -40.431 214.393  1.00  0.00     0.000 G0
ENDBRANCH  13  15
ENDBRANCH  12  13
BRANCH  12  17
ATOM     17  C   UNL     1      -2.607 -39.933 214.639  1.00  0.00    -0.006 C 
ATOM     18  C   UNL     1      -1.322 -39.463 215.346  1.00  0.00     0.008 C 
ATOM     19  C   UNL     1      -2.387 -41.369 214.128  1.00  0.00     0.008 C 
ENDBRANCH  12  17
ENDBRANCH  11  12
ENDBRANCH   1  11
TORSDOF 1
ENDMDL
MODEL 8
REMARK VINA RESULT:    -2.884      1.776      4.164
REMARK INTER + INTRA:          -4.418
REMARK INTER:                  -4.462
REMARK INTRA:                   0.044
REMARK UNBOUND:                -0.016
REMARK SMILES CC1=CCC[C@@H](C)C(=O)C[C@H](C(C)C)C(=O)C1
REMARK SMILES IDX 8 1 9 2 6 3 7 4 5 5 4 6 3 7 2 8 1 9 10 11 11 12 15 13 16 14
REMARK SMILES IDX 17 15 12 17 13 18 14 19
REMARK H PARENT
REMARK Flexibility Score: 70.00
ROOT
ATOM      1  C   UNL     1      -6.025 -40.856 213.541  1.00  0.00     0.136 C 
ATOM      2  O   UNL     1      -6.544 -40.907 212.436  1.00  0.00    -0.299 OA
ENDROOT
BRANCH   1   3
ATOM      3  C   UNL     1      -6.742 -40.061 214.624  1.00  0.00     0.053 C 
ATOM      4  C   UNL     1      -6.636 -38.537 214.448  1.00  0.00     0.016 C 
BRANCH   3   5
ATOM      5  C   UNL     1      -6.367 -40.533 216.047  1.00  0.00     0.015 C 
BRANCH   5   6
ATOM      6  C   UNL     1      -5.514 -39.525 216.844  1.00  0.00     0.028 C 
BRANCH   6   7
ATOM      7  C   UNL     1      -4.561 -40.198 217.796  1.00  0.00    -0.028 C 
ATOM      8  C   UNL     1      -3.227 -40.326 217.593  1.00  0.00    -0.070 CG0
ATOM      9  C   UNL     1      -2.408 -40.964 218.688  1.00  0.00     0.039 C 
ATOM     10  G   UNL     1      -2.532 -39.883 216.313  1.00  0.00     0.000 G0
ENDBRANCH   6   7
ENDBRANCH   5   6
ENDBRANCH   3   5
ENDBRANCH   1   3
BRANCH   1  11
ATOM     11  C   UNL     1      -4.679 -41.529 213.748  1.00  0.00     0.087 C 
BRANCH  11  12
ATOM     12  C   UNL     1      -3.465 -40.572 213.925  1.00  0.00     0.066 C 
BRANCH  12  13
ATOM     13  C   UNL     1      -2.670 -40.901 215.183  1.00  0.00     0.140 C 
ATOM     14  O   UNL     1      -2.196 -42.022 215.304  1.00  0.00    -0.299 OA
BRANCH  13  15
ATOM     15  C   UNL     1      -2.512 -39.908 216.314  1.00  0.00     0.106 CG0
ATOM     16  G   UNL     1      -3.210 -40.337 217.597  1.00  0.00     0.000 G0
ENDBRANCH  13  15
ENDBRANCH  12  13
BRANCH  12  17
ATOM     17  C   UNL     1      -2.546 -40.406 212.670  1.00  0.00    -0.006 C 
ATOM     18  C   UNL     1      -1.100 -40.037 213.048  1.00  0.00     0.008 C 
ATOM     19  C   UNL     1      -2.517 -41.699 211.833  1.00  0.00     0.008 C 
ENDBRANCH  12  17
ENDBRANCH  11  12
ENDBRANCH   1  11
TORSDOF 1
ENDMDL
MODEL 9
REMARK VINA RESULT:    -2.692      1.465      2.086
REMARK INTER + INTRA:          -4.124
REMARK INTER:                  -4.118
REMARK INTRA:                  -0.006
REMARK UNBOUND:                -0.016
REMARK SMILES CC1=CCC[C@@H](C)C(=O)C[C@H](C(C)C)C(=O)C1
REMARK SMILES IDX 8 1 9 2 6 3 7 4 5 5 4 6 3 7 2 8 1 9 10 11 11 12 15 13 16 14
REMARK SMILES IDX 17 15 12 17 13 18 14 19
REMARK H PARENT
REMARK Flexibility Score: 70.00
ROOT
ATOM      1  C   UNL     1      -5.935 -39.901 216.055  1.00  0.00     0.136 C 
ATOM      2  O   UNL     1      -6.900 -40.334 216.667  1.00  0.00    -0.299 OA
ENDROOT
BRANCH   1   3
ATOM      3  C   UNL     1      -6.092 -39.668 214.558  1.00  0.00     0.053 C 
ATOM      4  C   UNL     1      -7.000 -38.478 214.206  1.00  0.00     0.016 C 
BRANCH   3   5
ATOM      5  C   UNL     1      -6.465 -40.960 213.797  1.00  0.00     0.015 C 
BRANCH   5   6
ATOM      6  C   UNL     1      -5.272 -41.895 213.513  1.00  0.00     0.028 C 
BRANCH   6   7
ATOM      7  C   UNL     1      -4.108 -41.174 212.883  1.00  0.00    -0.028 C 
ATOM      8  C   UNL     1      -2.849 -41.154 213.384  1.00  0.00    -0.070 CG0
ATOM      9  C   UNL     1      -1.786 -40.443 212.584  1.00  0.00     0.039 C 
ATOM     10  G   UNL     1      -2.471 -41.787 214.716  1.00  0.00     0.000 G0
ENDBRANCH   6   7
ENDBRANCH   5   6
ENDBRANCH   3   5
ENDBRANCH   1   3
BRANCH   1  11
ATOM     11  C   UNL     1      -4.633 -39.683 216.805  1.00  0.00     0.087 C 
BRANCH  11  12
ATOM     12  C   UNL     1      -3.698 -40.922 216.912  1.00  0.00     0.066 C 
BRANCH  12  13
ATOM     13  C   UNL     1      -2.558 -40.853 215.902  1.00  0.00     0.140 C 
ATOM     14  O   UNL     1      -1.719 -39.972 216.020  1.00  0.00    -0.299 OA
BRANCH  13  15
ATOM     15  C   UNL     1      -2.475 -41.796 214.721  1.00  0.00     0.106 CG0
ATOM     16  G   UNL     1      -2.847 -41.142 213.398  1.00  0.00     0.000 G0
ENDBRANCH  13  15
ENDBRANCH  12  13
BRANCH  12  17
ATOM     17  C   UNL     1      -3.195 -41.268 218.352  1.00  0.00    -0.006 C 
ATOM     18  C   UNL     1      -4.254 -42.023 219.176  1.00  0.00     0.008 C 
ATOM     19  C   UNL     1      -1.916 -42.125 218.296  1.00  0.00     0.008 C 
ENDBRANCH  12  17
ENDBRANCH  11  12
ENDBRANCH   1  11
TORSDOF 1
ENDMDL
