MODEL 1
REMARK VINA RESULT:    -5.290      0.000      0.000
REMARK INTER + INTRA:          -8.803
REMARK INTER:                  -8.074
REMARK INTRA:                  -0.729
REMARK UNBOUND:                -0.729
REMARK SMILES O=C([O-])CCCCCCCCC(=O)[O-]
REMARK SMILES IDX 7 1 6 2 5 3 4 4 2 5 1 6 3 7 8 8 9 9 10 10 11 11 12 12 13 13
REMARK SMILES IDX 14 14
REMARK H PARENT
REMARK Flexibility Score: inf
ROOT
ATOM      1  C   UNL     1       9.819  35.815  22.689  1.00  0.00     0.000 C 
ENDROOT
BRANCH   1   2
ATOM      2  C   UNL     1       9.776  34.355  23.174  1.00  0.00     0.000 C 
BRANCH   2   3
ATOM      3  C   UNL     1      11.158  33.825  23.590  1.00  0.00     0.006 C 
BRANCH   3   4
ATOM      4  C   UNL     1      11.215  33.465  25.080  1.00  0.00     0.053 C 
BRANCH   4   5
ATOM      5  C   UNL     1      11.825  34.565  25.893  1.00  0.00     0.041 C 
ATOM      6  O   UNL     1      13.014  34.927  25.683  1.00  0.00    -0.550 OA
ATOM      7  O   UNL     1      11.094  35.169  26.908  1.00  0.00    -0.550 OA
ENDBRANCH   4   5
ENDBRANCH   3   4
ENDBRANCH   2   3
ENDBRANCH   1   2
BRANCH   1   8
ATOM      8  C   UNL     1      10.336  36.830  23.728  1.00  0.00     0.000 C 
BRANCH   8   9
ATOM      9  C   UNL     1      11.497  37.726  23.248  1.00  0.00     0.000 C 
BRANCH   9  10
ATOM     10  C   UNL     1      12.783  36.972  22.867  1.00  0.00     0.006 C 
BRANCH  10  11
ATOM     11  C   UNL     1      13.094  37.046  21.367  1.00  0.00     0.053 C 
BRANCH  11  12
ATOM     12  C   UNL     1      12.474  35.890  20.648  1.00  0.00     0.041 C 
ATOM     13  O   UNL     1      12.875  34.717  20.870  1.00  0.00    -0.550 OA
ATOM     14  O   UNL     1      11.488  36.111  19.695  1.00  0.00    -0.550 OA
ENDBRANCH  11  12
ENDBRANCH  10  11
ENDBRANCH   9  10
ENDBRANCH   8   9
ENDBRANCH   1   8
TORSDOF 9
ENDMDL
MODEL 2
REMARK VINA RESULT:    -5.276      0.054      4.868
REMARK INTER + INTRA:          -8.782
REMARK INTER:                  -8.050
REMARK INTRA:                  -0.731
REMARK UNBOUND:                -0.729
REMARK SMILES O=C([O-])CCCCCCCCC(=O)[O-]
REMARK SMILES IDX 7 1 6 2 5 3 4 4 2 5 1 6 3 7 8 8 9 9 10 10 11 11 12 12 13 13
REMARK SMILES IDX 14 14
REMARK H PARENT
REMARK Flexibility Score: inf
ROOT
ATOM      1  C   UNL     1      10.300  36.856  23.732  1.00  0.00     0.000 C 
ENDROOT
BRANCH   1   2
ATOM      2  C   UNL     1      11.437  37.783  23.265  1.00  0.00     0.000 C 
BRANCH   2   3
ATOM      3  C   UNL     1      12.724  37.016  22.917  1.00  0.00     0.006 C 
BRANCH   3   4
ATOM      4  C   UNL     1      13.050  37.084  21.419  1.00  0.00     0.053 C 
BRANCH   4   5
ATOM      5  C   UNL     1      12.489  35.909  20.677  1.00  0.00     0.041 C 
ATOM      6  O   UNL     1      12.902  34.745  20.925  1.00  0.00    -0.550 OA
ATOM      7  O   UNL     1      11.536  36.104  19.686  1.00  0.00    -0.550 OA
ENDBRANCH   4   5
ENDBRANCH   3   4
ENDBRANCH   2   3
ENDBRANCH   1   2
BRANCH   1   8
ATOM      8  C   UNL     1       9.820  35.836  22.679  1.00  0.00     0.000 C 
BRANCH   8   9
ATOM      9  C   UNL     1       9.791  34.369  23.153  1.00  0.00     0.000 C 
BRANCH   9  10
ATOM     10  C   UNL     1      11.147  33.813  23.623  1.00  0.00     0.006 C 
BRANCH  10  11
ATOM     11  C   UNL     1      11.163  33.463  25.116  1.00  0.00     0.053 C 
BRANCH  11  12
ATOM     12  C   UNL     1      11.803  34.563  25.902  1.00  0.00     0.041 C 
ATOM     13  O   UNL     1      12.994  34.899  25.668  1.00  0.00    -0.550 OA
ATOM     14  O   UNL     1      11.102  35.184  26.928  1.00  0.00    -0.550 OA
ENDBRANCH  11  12
ENDBRANCH  10  11
ENDBRANCH   9  10
ENDBRANCH   8   9
ENDBRANCH   1   8
TORSDOF 9
ENDMDL
MODEL 3
REMARK VINA RESULT:    -5.275      2.477      4.221
REMARK INTER + INTRA:          -8.780
REMARK INTER:                  -8.137
REMARK INTRA:                  -0.643
REMARK UNBOUND:                -0.729
REMARK SMILES O=C([O-])CCCCCCCCC(=O)[O-]
REMARK SMILES IDX 7 1 6 2 5 3 4 4 2 5 1 6 3 7 8 8 9 9 10 10 11 11 12 12 13 13
REMARK SMILES IDX 14 14
REMARK H PARENT
REMARK Flexibility Score: inf
ROOT
ATOM      1  C   UNL     1      12.665  36.833  21.730  1.00  0.00     0.000 C 
ENDROOT
BRANCH   1   2
ATOM      2  C   UNL     1      13.005  35.346  21.935  1.00  0.00     0.000 C 
BRANCH   2   3
ATOM      3  C   UNL     1      11.949  34.603  22.771  1.00  0.00     0.006 C 
BRANCH   3   4
ATOM      4  C   UNL     1      12.428  34.337  24.204  1.00  0.00     0.053 C 
BRANCH   4   5
ATOM      5  C   UNL     1      11.338  33.763  25.055  1.00  0.00     0.041 C 
ATOM      6  O   UNL     1      11.045  34.296  26.158  1.00  0.00    -0.550 OA
ATOM      7  O   UNL     1      10.668  32.617  24.647  1.00  0.00    -0.550 OA
ENDBRANCH   4   5
ENDBRANCH   3   4
ENDBRANCH   2   3
ENDBRANCH   1   2
BRANCH   1   8
ATOM      8  C   UNL     1      12.919  37.733  22.956  1.00  0.00     0.000 C 
BRANCH   8   9
ATOM      9  C   UNL     1      11.679  38.477  23.493  1.00  0.00     0.000 C 
BRANCH   9  10
ATOM     10  C   UNL     1      10.638  37.582  24.190  1.00  0.00     0.006 C 
BRANCH  10  11
ATOM     11  C   UNL     1       9.225  38.177  24.156  1.00  0.00     0.053 C 
BRANCH  11  12
ATOM     12  C   UNL     1       8.971  38.987  25.388  1.00  0.00     0.041 C 
ATOM     13  O   UNL     1       8.377  38.474  26.373  1.00  0.00    -0.550 OA
ATOM     14  O   UNL     1       9.345  40.324  25.431  1.00  0.00    -0.550 OA
ENDBRANCH  11  12
ENDBRANCH  10  11
ENDBRANCH   9  10
ENDBRANCH   8   9
ENDBRANCH   1   8
TORSDOF 9
ENDMDL
MODEL 4
REMARK VINA RESULT:    -5.163      2.578      4.656
REMARK INTER + INTRA:          -8.609
REMARK INTER:                  -8.030
REMARK INTRA:                  -0.579
REMARK UNBOUND:                -0.729
REMARK SMILES O=C([O-])CCCCCCCCC(=O)[O-]
REMARK SMILES IDX 7 1 6 2 5 3 4 4 2 5 1 6 3 7 8 8 9 9 10 10 11 11 12 12 13 13
REMARK SMILES IDX 14 14
REMARK H PARENT
REMARK Flexibility Score: inf
ROOT
ATOM      1  C   UNL     1      12.747  37.840  22.915  1.00  0.00     0.000 C 
ENDROOT
BRANCH   1   2
ATOM      2  C   UNL     1      11.598  38.529  23.674  1.00  0.00     0.000 C 
BRANCH   2   3
ATOM      3  C   UNL     1      10.488  37.548  24.090  1.00  0.00     0.006 C 
BRANCH   3   4
ATOM      4  C   UNL     1       9.107  38.215  24.113  1.00  0.00     0.053 C 
BRANCH   4   5
ATOM      5  C   UNL     1       8.907  39.032  25.352  1.00  0.00     0.041 C 
ATOM      6  O   UNL     1       9.350  40.210  25.415  1.00  0.00    -0.550 OA
ATOM      7  O   UNL     1       8.261  38.482  26.452  1.00  0.00    -0.550 OA
ENDBRANCH   4   5
ENDBRANCH   3   4
ENDBRANCH   2   3
ENDBRANCH   1   2
BRANCH   1   8
ATOM      8  C   UNL     1      12.307  36.739  21.930  1.00  0.00     0.000 C 
BRANCH   8   9
ATOM      9  C   UNL     1      12.866  35.332  22.227  1.00  0.00     0.000 C 
BRANCH   9  10
ATOM     10  C   UNL     1      11.863  34.359  22.872  1.00  0.00     0.006 C 
BRANCH  10  11
ATOM     11  C   UNL     1      12.054  34.224  24.388  1.00  0.00     0.053 C 
BRANCH  11  12
ATOM     12  C   UNL     1      11.092  33.226  24.948  1.00  0.00     0.041 C 
ATOM     13  O   UNL     1      10.992  33.073  26.194  1.00  0.00    -0.550 OA
ATOM     14  O   UNL     1      10.341  32.427  24.095  1.00  0.00    -0.550 OA
ENDBRANCH  11  12
ENDBRANCH  10  11
ENDBRANCH   9  10
ENDBRANCH   8   9
ENDBRANCH   1   8
TORSDOF 9
ENDMDL
MODEL 5
REMARK VINA RESULT:    -4.974      1.511      4.818
REMARK INTER + INTRA:          -8.320
REMARK INTER:                  -7.471
REMARK INTRA:                  -0.849
REMARK UNBOUND:                -0.729
REMARK SMILES O=C([O-])CCCCCCCCC(=O)[O-]
REMARK SMILES IDX 7 1 6 2 5 3 4 4 2 5 1 6 3 7 8 8 9 9 10 10 11 11 12 12 13 13
REMARK SMILES IDX 14 14
REMARK H PARENT
REMARK Flexibility Score: inf
ROOT
ATOM      1  C   UNL     1       9.922  35.357  22.317  1.00  0.00     0.000 C 
ENDROOT
BRANCH   1   2
ATOM      2  C   UNL     1       9.817  36.509  23.333  1.00  0.00     0.000 C 
BRANCH   2   3
ATOM      3  C   UNL     1      11.133  37.289  23.487  1.00  0.00     0.006 C 
BRANCH   3   4
ATOM      4  C   UNL     1      12.284  36.641  22.706  1.00  0.00     0.053 C 
BRANCH   4   5
ATOM      5  C   UNL     1      13.131  37.667  22.016  1.00  0.00     0.041 C 
ATOM      6  O   UNL     1      13.530  38.685  22.641  1.00  0.00    -0.550 OA
ATOM      7  O   UNL     1      13.449  37.516  20.672  1.00  0.00    -0.550 OA
ENDBRANCH   4   5
ENDBRANCH   3   4
ENDBRANCH   2   3
ENDBRANCH   1   2
BRANCH   1   8
ATOM      8  C   UNL     1       9.034  34.135  22.625  1.00  0.00     0.000 C 
BRANCH   8   9
ATOM      9  C   UNL     1       9.743  32.976  23.355  1.00  0.00     0.000 C 
BRANCH   9  10
ATOM     10  C   UNL     1      11.143  33.313  23.899  1.00  0.00     0.006 C 
BRANCH  10  11
ATOM     11  C   UNL     1      11.204  33.307  25.432  1.00  0.00     0.053 C 
BRANCH  11  12
ATOM     12  C   UNL     1      11.820  34.574  25.935  1.00  0.00     0.041 C 
ATOM     13  O   UNL     1      12.981  34.902  25.570  1.00  0.00    -0.550 OA
ATOM     14  O   UNL     1      11.135  35.368  26.845  1.00  0.00    -0.550 OA
ENDBRANCH  11  12
ENDBRANCH  10  11
ENDBRANCH   9  10
ENDBRANCH   8   9
ENDBRANCH   1   8
TORSDOF 9
ENDMDL
MODEL 6
REMARK VINA RESULT:    -4.945      2.507      4.722
REMARK INTER + INTRA:          -8.277
REMARK INTER:                  -7.694
REMARK INTRA:                  -0.583
REMARK UNBOUND:                -0.729
REMARK SMILES O=C([O-])CCCCCCCCC(=O)[O-]
REMARK SMILES IDX 7 1 6 2 5 3 4 4 2 5 1 6 3 7 8 8 9 9 10 10 11 11 12 12 13 13
REMARK SMILES IDX 14 14
REMARK H PARENT
REMARK Flexibility Score: inf
ROOT
ATOM      1  C   UNL     1      12.582  37.229  21.829  1.00  0.00     0.000 C 
ENDROOT
BRANCH   1   2
ATOM      2  C   UNL     1      13.102  38.215  22.891  1.00  0.00     0.000 C 
BRANCH   2   3
ATOM      3  C   UNL     1      11.974  38.822  23.743  1.00  0.00     0.006 C 
BRANCH   3   4
ATOM      4  C   UNL     1      10.800  37.851  23.923  1.00  0.00     0.053 C 
BRANCH   4   5
ATOM      5  C   UNL     1       9.626  38.517  24.574  1.00  0.00     0.041 C 
ATOM      6  O   UNL     1       8.481  37.995  24.506  1.00  0.00    -0.550 OA
ATOM      7  O   UNL     1       9.789  39.732  25.227  1.00  0.00    -0.550 OA
ENDBRANCH   4   5
ENDBRANCH   3   4
ENDBRANCH   2   3
ENDBRANCH   1   2
BRANCH   1   8
ATOM      8  C   UNL     1      13.318  35.875  21.784  1.00  0.00     0.000 C 
BRANCH   8   9
ATOM      9  C   UNL     1      12.410  34.631  21.867  1.00  0.00     0.000 C 
BRANCH   9  10
ATOM     10  C   UNL     1      11.367  34.665  22.999  1.00  0.00     0.006 C 
BRANCH  10  11
ATOM     11  C   UNL     1      11.931  34.187  24.342  1.00  0.00     0.053 C 
BRANCH  11  12
ATOM     12  C   UNL     1      11.046  33.139  24.937  1.00  0.00     0.041 C 
ATOM     13  O   UNL     1      10.887  33.077  26.185  1.00  0.00    -0.550 OA
ATOM     14  O   UNL     1      10.434  32.198  24.118  1.00  0.00    -0.550 OA
ENDBRANCH  11  12
ENDBRANCH  10  11
ENDBRANCH   9  10
ENDBRANCH   8   9
ENDBRANCH   1   8
TORSDOF 9
ENDMDL
MODEL 7
REMARK VINA RESULT:    -4.693      3.027      4.689
REMARK INTER + INTRA:          -7.891
REMARK INTER:                  -7.477
REMARK INTRA:                  -0.414
REMARK UNBOUND:                -0.729
REMARK SMILES O=C([O-])CCCCCCCCC(=O)[O-]
REMARK SMILES IDX 7 1 6 2 5 3 4 4 2 5 1 6 3 7 8 8 9 9 10 10 11 11 12 12 13 13
REMARK SMILES IDX 14 14
REMARK H PARENT
REMARK Flexibility Score: inf
ROOT
ATOM      1  C   UNL     1      12.480  35.683  23.261  1.00  0.00     0.000 C 
ENDROOT
BRANCH   1   2
ATOM      2  C   UNL     1      12.301  35.250  24.727  1.00  0.00     0.000 C 
BRANCH   2   3
ATOM      3  C   UNL     1      11.584  33.896  24.865  1.00  0.00     0.006 C 
BRANCH   3   4
ATOM      4  C   UNL     1      11.383  33.208  23.508  1.00  0.00     0.053 C 
BRANCH   4   5
ATOM      5  C   UNL     1      10.093  32.446  23.460  1.00  0.00     0.041 C 
ATOM      6  O   UNL     1      10.054  31.240  23.822  1.00  0.00    -0.550 OA
ATOM      7  O   UNL     1       8.942  33.058  22.981  1.00  0.00    -0.550 OA
ENDBRANCH   4   5
ENDBRANCH   3   4
ENDBRANCH   2   3
ENDBRANCH   1   2
BRANCH   1   8
ATOM      8  C   UNL     1      11.416  36.671  22.742  1.00  0.00     0.000 C 
BRANCH   8   9
ATOM      9  C   UNL     1       9.972  36.380  23.197  1.00  0.00     0.000 C 
BRANCH   9  10
ATOM     10  C   UNL     1       9.197  37.603  23.719  1.00  0.00     0.006 C 
BRANCH  10  11
ATOM     11  C   UNL     1      10.004  38.435  24.724  1.00  0.00     0.053 C 
BRANCH  11  12
ATOM     12  C   UNL     1       9.086  39.217  25.609  1.00  0.00     0.041 C 
ATOM     13  O   UNL     1       9.093  40.476  25.573  1.00  0.00    -0.550 OA
ATOM     14  O   UNL     1       8.258  38.559  26.509  1.00  0.00    -0.550 OA
ENDBRANCH  11  12
ENDBRANCH  10  11
ENDBRANCH   9  10
ENDBRANCH   8   9
ENDBRANCH   1   8
TORSDOF 9
ENDMDL
MODEL 8
REMARK VINA RESULT:    -4.673      2.721      3.930
REMARK INTER + INTRA:          -7.861
REMARK INTER:                  -7.240
REMARK INTRA:                  -0.622
REMARK UNBOUND:                -0.729
REMARK SMILES O=C([O-])CCCCCCCCC(=O)[O-]
REMARK SMILES IDX 7 1 6 2 5 3 4 4 2 5 1 6 3 7 8 8 9 9 10 10 11 11 12 12 13 13
REMARK SMILES IDX 14 14
REMARK H PARENT
REMARK Flexibility Score: inf
ROOT
ATOM      1  C   UNL     1      11.294  35.717  24.681  1.00  0.00     0.000 C 
ENDROOT
BRANCH   1   2
ATOM      2  C   UNL     1      10.363  36.500  23.738  1.00  0.00     0.000 C 
BRANCH   2   3
ATOM      3  C   UNL     1      10.243  37.986  24.119  1.00  0.00     0.006 C 
BRANCH   3   4
ATOM      4  C   UNL     1       8.791  38.394  24.402  1.00  0.00     0.053 C 
BRANCH   4   5
ATOM      5  C   UNL     1       8.680  39.212  25.652  1.00  0.00     0.041 C 
ATOM      6  O   UNL     1       8.194  38.708  26.700  1.00  0.00    -0.550 OA
ATOM      7  O   UNL     1       9.079  40.542  25.652  1.00  0.00    -0.550 OA
ENDBRANCH   4   5
ENDBRANCH   3   4
ENDBRANCH   2   3
ENDBRANCH   1   2
BRANCH   1   8
ATOM      8  C   UNL     1      12.229  34.710  23.982  1.00  0.00     0.000 C 
BRANCH   8   9
ATOM      9  C   UNL     1      11.777  34.261  22.577  1.00  0.00     0.000 C 
BRANCH   9  10
ATOM     10  C   UNL     1      12.508  34.947  21.410  1.00  0.00     0.006 C 
BRANCH  10  11
ATOM     11  C   UNL     1      13.601  35.916  21.879  1.00  0.00     0.053 C 
BRANCH  11  12
ATOM     12  C   UNL     1      13.266  37.316  21.473  1.00  0.00     0.041 C 
ATOM     13  O   UNL     1      13.296  38.246  22.322  1.00  0.00    -0.550 OA
ATOM     14  O   UNL     1      12.873  37.587  20.169  1.00  0.00    -0.550 OA
ENDBRANCH  11  12
ENDBRANCH  10  11
ENDBRANCH   9  10
ENDBRANCH   8   9
ENDBRANCH   1   8
TORSDOF 9
ENDMDL
MODEL 9
REMARK VINA RESULT:    -4.514     16.504     17.656
REMARK INTER + INTRA:          -7.618
REMARK INTER:                  -7.133
REMARK INTRA:                  -0.485
REMARK UNBOUND:                -0.729
REMARK SMILES O=C([O-])CCCCCCCCC(=O)[O-]
REMARK SMILES IDX 7 1 6 2 5 3 4 4 2 5 1 6 3 7 8 8 9 9 10 10 11 11 12 12 13 13
REMARK SMILES IDX 14 14
REMARK H PARENT
REMARK Flexibility Score: inf
ROOT
ATOM      1  C   UNL     1      23.511  26.059  21.529  1.00  0.00     0.000 C 
ENDROOT
BRANCH   1   2
ATOM      2  C   UNL     1      23.909  24.575  21.624  1.00  0.00     0.000 C 
BRANCH   2   3
ATOM      3  C   UNL     1      24.641  24.073  20.368  1.00  0.00     0.006 C 
BRANCH   3   4
ATOM      4  C   UNL     1      25.856  23.203  20.716  1.00  0.00     0.053 C 
BRANCH   4   5
ATOM      5  C   UNL     1      27.039  23.538  19.860  1.00  0.00     0.041 C 
ATOM      6  O   UNL     1      27.889  22.652  19.577  1.00  0.00    -0.550 OA
ATOM      7  O   UNL     1      27.223  24.836  19.403  1.00  0.00    -0.550 OA
ENDBRANCH   4   5
ENDBRANCH   3   4
ENDBRANCH   2   3
ENDBRANCH   1   2
BRANCH   1   8
ATOM      8  C   UNL     1      24.435  27.030  22.290  1.00  0.00     0.000 C 
BRANCH   8   9
ATOM      9  C   UNL     1      25.850  26.492  22.587  1.00  0.00     0.000 C 
BRANCH   9  10
ATOM     10  C   UNL     1      26.600  27.228  23.712  1.00  0.00     0.006 C 
BRANCH  10  11
ATOM     11  C   UNL     1      26.906  28.690  23.365  1.00  0.00     0.053 C 
BRANCH  11  12
ATOM     12  C   UNL     1      26.413  29.597  24.448  1.00  0.00     0.041 C 
ATOM     13  O   UNL     1      25.185  29.863  24.541  1.00  0.00    -0.550 OA
ATOM     14  O   UNL     1      27.313  30.189  25.325  1.00  0.00    -0.550 OA
ENDBRANCH  11  12
ENDBRANCH  10  11
ENDBRANCH   9  10
ENDBRANCH   8   9
ENDBRANCH   1   8
TORSDOF 9
ENDMDL
