MODEL 1
REMARK VINA RESULT:    -2.905      0.000      0.000
REMARK INTER + INTRA:          -3.474
REMARK INTER:                  -3.415
REMARK INTRA:                  -0.059
REMARK UNBOUND:                -0.059
REMARK SMILES CCCCC(=O)[O-]
REMARK SMILES IDX 4 1 5 2 6 3 7 4 3 5 2 6 1 7
REMARK H PARENT
REMARK Flexibility Score: inf
ROOT
ATOM      1  C   UNL     1     150.873 153.265 146.993  1.00  0.00     0.053 C 
ENDROOT
BRANCH   1   2
ATOM      2  C   UNL     1     151.144 154.601 146.372  1.00  0.00     0.041 C 
ATOM      3  O   UNL     1     152.326 155.019 146.255  1.00  0.00    -0.550 OA
ATOM      4  O   UNL     1     150.091 155.370 145.893  1.00  0.00    -0.550 OA
ENDBRANCH   1   2
BRANCH   1   5
ATOM      5  C   UNL     1     150.862 152.143 145.946  1.00  0.00     0.006 C 
BRANCH   5   6
ATOM      6  C   UNL     1     149.748 151.119 146.203  1.00  0.00    -0.003 C 
ATOM      7  C   UNL     1     148.698 151.679 147.160  1.00  0.00     0.004 C 
ENDBRANCH   5   6
ENDBRANCH   1   5
TORSDOF 3
ENDMDL
MODEL 2
REMARK VINA RESULT:    -2.902     12.074     12.676
REMARK INTER + INTRA:          -3.470
REMARK INTER:                  -3.351
REMARK INTRA:                  -0.119
REMARK UNBOUND:                -0.059
REMARK SMILES CCCCC(=O)[O-]
REMARK SMILES IDX 4 1 5 2 6 3 7 4 3 5 2 6 1 7
REMARK H PARENT
REMARK Flexibility Score: inf
ROOT
ATOM      1  C   UNL     1     153.499 151.169 157.643  1.00  0.00     0.053 C 
ENDROOT
BRANCH   1   2
ATOM      2  C   UNL     1     154.813 151.841 157.386  1.00  0.00     0.041 C 
ATOM      3  O   UNL     1     154.851 153.056 157.056  1.00  0.00    -0.550 OA
ATOM      4  O   UNL     1     155.997 151.133 157.544  1.00  0.00    -0.550 OA
ENDBRANCH   1   2
BRANCH   1   5
ATOM      5  C   UNL     1     153.292 150.875 159.135  1.00  0.00     0.006 C 
BRANCH   5   6
ATOM      6  C   UNL     1     152.988 152.146 159.939  1.00  0.00    -0.003 C 
ATOM      7  C   UNL     1     151.742 152.850 159.406  1.00  0.00     0.004 C 
ENDBRANCH   5   6
ENDBRANCH   1   5
TORSDOF 3
ENDMDL
MODEL 3
REMARK VINA RESULT:    -2.898     12.153     12.717
REMARK INTER + INTRA:          -3.465
REMARK INTER:                  -3.366
REMARK INTRA:                  -0.099
REMARK UNBOUND:                -0.059
REMARK SMILES CCCCC(=O)[O-]
REMARK SMILES IDX 4 1 5 2 6 3 7 4 3 5 2 6 1 7
REMARK H PARENT
REMARK Flexibility Score: inf
ROOT
ATOM      1  C   UNL     1     153.264 151.273 157.843  1.00  0.00     0.053 C 
ENDROOT
BRANCH   1   2
ATOM      2  C   UNL     1     154.626 151.751 157.439  1.00  0.00     0.041 C 
ATOM      3  O   UNL     1     155.602 150.955 157.432  1.00  0.00    -0.550 OA
ATOM      4  O   UNL     1     154.809 153.069 157.039  1.00  0.00    -0.550 OA
ENDBRANCH   1   2
BRANCH   1   5
ATOM      5  C   UNL     1     153.218 150.875 159.324  1.00  0.00     0.006 C 
BRANCH   5   6
ATOM      6  C   UNL     1     152.827 152.052 160.229  1.00  0.00    -0.003 C 
ATOM      7  C   UNL     1     151.778 152.936 159.559  1.00  0.00     0.004 C 
ENDBRANCH   5   6
ENDBRANCH   1   5
TORSDOF 3
ENDMDL
MODEL 4
REMARK VINA RESULT:    -2.892     12.683     13.209
REMARK INTER + INTRA:          -3.459
REMARK INTER:                  -3.386
REMARK INTRA:                  -0.073
REMARK UNBOUND:                -0.059
REMARK SMILES CCCCC(=O)[O-]
REMARK SMILES IDX 4 1 5 2 6 3 7 4 3 5 2 6 1 7
REMARK H PARENT
REMARK Flexibility Score: inf
ROOT
ATOM      1  C   UNL     1     154.126 152.999 158.985  1.00  0.00     0.053 C 
ENDROOT
BRANCH   1   2
ATOM      2  C   UNL     1     152.937 152.602 159.805  1.00  0.00     0.041 C 
ATOM      3  O   UNL     1     153.095 152.081 160.941  1.00  0.00    -0.550 OA
ATOM      4  O   UNL     1     151.654 152.837 159.328  1.00  0.00    -0.550 OA
ENDBRANCH   1   2
BRANCH   1   5
ATOM      5  C   UNL     1     154.103 152.344 157.597  1.00  0.00     0.006 C 
BRANCH   5   6
ATOM      6  C   UNL     1     154.632 150.904 157.627  1.00  0.00    -0.003 C 
ATOM      7  C   UNL     1     156.157 150.876 157.552  1.00  0.00     0.004 C 
ENDBRANCH   5   6
ENDBRANCH   1   5
TORSDOF 3
ENDMDL
MODEL 5
REMARK VINA RESULT:    -2.849      2.472      3.716
REMARK INTER + INTRA:          -3.408
REMARK INTER:                  -3.273
REMARK INTRA:                  -0.134
REMARK UNBOUND:                -0.059
REMARK SMILES CCCCC(=O)[O-]
REMARK SMILES IDX 4 1 5 2 6 3 7 4 3 5 2 6 1 7
REMARK H PARENT
REMARK Flexibility Score: inf
ROOT
ATOM      1  C   UNL     1     148.754 152.788 147.154  1.00  0.00     0.053 C 
ENDROOT
BRANCH   1   2
ATOM      2  C   UNL     1     149.777 151.715 146.937  1.00  0.00     0.041 C 
ATOM      3  O   UNL     1     149.660 150.910 145.976  1.00  0.00    -0.550 OA
ATOM      4  O   UNL     1     150.877 151.624 147.780  1.00  0.00    -0.550 OA
ENDBRANCH   1   2
BRANCH   1   5
ATOM      5  C   UNL     1     149.389 154.184 147.167  1.00  0.00     0.006 C 
BRANCH   5   6
ATOM      6  C   UNL     1     150.163 154.482 145.875  1.00  0.00    -0.003 C 
ATOM      7  C   UNL     1     151.604 154.885 146.179  1.00  0.00     0.004 C 
ENDBRANCH   5   6
ENDBRANCH   1   5
TORSDOF 3
ENDMDL
MODEL 6
REMARK VINA RESULT:    -2.828     12.650     13.187
REMARK INTER + INTRA:          -3.383
REMARK INTER:                  -3.273
REMARK INTRA:                  -0.110
REMARK UNBOUND:                -0.059
REMARK SMILES CCCCC(=O)[O-]
REMARK SMILES IDX 4 1 5 2 6 3 7 4 3 5 2 6 1 7
REMARK H PARENT
REMARK Flexibility Score: inf
ROOT
ATOM      1  C   UNL     1     153.118 151.106 159.436  1.00  0.00     0.053 C 
ENDROOT
BRANCH   1   2
ATOM      2  C   UNL     1     152.374 152.357 159.790  1.00  0.00     0.041 C 
ATOM      3  O   UNL     1     152.370 153.339 159.001  1.00  0.00    -0.550 OA
ATOM      4  O   UNL     1     151.657 152.425 160.977  1.00  0.00    -0.550 OA
ENDBRANCH   1   2
BRANCH   1   5
ATOM      5  C   UNL     1     153.337 150.984 157.922  1.00  0.00     0.006 C 
BRANCH   5   6
ATOM      6  C   UNL     1     154.824 150.875 157.557  1.00  0.00    -0.003 C 
ATOM      7  C   UNL     1     155.511 152.236 157.643  1.00  0.00     0.004 C 
ENDBRANCH   5   6
ENDBRANCH   1   5
TORSDOF 3
ENDMDL
MODEL 7
REMARK VINA RESULT:    -2.785      1.427      1.854
REMARK INTER + INTRA:          -3.332
REMARK INTER:                  -3.232
REMARK INTRA:                  -0.101
REMARK UNBOUND:                -0.059
REMARK SMILES CCCCC(=O)[O-]
REMARK SMILES IDX 4 1 5 2 6 3 7 4 3 5 2 6 1 7
REMARK H PARENT
REMARK Flexibility Score: inf
ROOT
ATOM      1  C   UNL     1     150.948 154.030 147.459  1.00  0.00     0.053 C 
ENDROOT
BRANCH   1   2
ATOM      2  C   UNL     1     149.759 154.932 147.329  1.00  0.00     0.041 C 
ATOM      3  O   UNL     1     148.718 154.712 148.002  1.00  0.00    -0.550 OA
ATOM      4  O   UNL     1     149.814 156.036 146.487  1.00  0.00    -0.550 OA
ENDBRANCH   1   2
BRANCH   1   5
ATOM      5  C   UNL     1     150.811 152.779 146.582  1.00  0.00     0.006 C 
BRANCH   5   6
ATOM      6  C   UNL     1     150.298 151.568 147.374  1.00  0.00    -0.003 C 
ATOM      7  C   UNL     1     148.976 151.059 146.805  1.00  0.00     0.004 C 
ENDBRANCH   5   6
ENDBRANCH   1   5
TORSDOF 3
ENDMDL
MODEL 8
REMARK VINA RESULT:    -2.774     12.944     13.595
REMARK INTER + INTRA:          -3.320
REMARK INTER:                  -3.232
REMARK INTRA:                  -0.087
REMARK UNBOUND:                -0.059
REMARK SMILES CCCCC(=O)[O-]
REMARK SMILES IDX 4 1 5 2 6 3 7 4 3 5 2 6 1 7
REMARK H PARENT
REMARK Flexibility Score: inf
ROOT
ATOM      1  C   UNL     1     152.854 153.255 159.037  1.00  0.00     0.053 C 
ENDROOT
BRANCH   1   2
ATOM      2  C   UNL     1     152.498 152.217 160.057  1.00  0.00     0.041 C 
ATOM      3  O   UNL     1     151.656 152.474 160.958  1.00  0.00    -0.550 OA
ATOM      4  O   UNL     1     153.073 150.954 159.993  1.00  0.00    -0.550 OA
ENDBRANCH   1   2
BRANCH   1   5
ATOM      5  C   UNL     1     154.359 153.549 159.027  1.00  0.00     0.006 C 
BRANCH   5   6
ATOM      6  C   UNL     1     154.998 153.260 157.661  1.00  0.00    -0.003 C 
ATOM      7  C   UNL     1     155.323 151.777 157.509  1.00  0.00     0.004 C 
ENDBRANCH   5   6
ENDBRANCH   1   5
TORSDOF 3
ENDMDL
MODEL 9
REMARK VINA RESULT:    -2.575     11.906     12.495
REMARK INTER + INTRA:          -3.086
REMARK INTER:                  -2.971
REMARK INTRA:                  -0.115
REMARK UNBOUND:                -0.059
REMARK SMILES CCCCC(=O)[O-]
REMARK SMILES IDX 4 1 5 2 6 3 7 4 3 5 2 6 1 7
REMARK H PARENT
REMARK Flexibility Score: inf
ROOT
ATOM      1  C   UNL     1     153.527 152.764 159.352  1.00  0.00     0.053 C 
ENDROOT
BRANCH   1   2
ATOM      2  C   UNL     1     153.894 152.019 158.106  1.00  0.00     0.041 C 
ATOM      3  O   UNL     1     153.267 150.976 157.782  1.00  0.00    -0.550 OA
ATOM      4  O   UNL     1     154.910 152.494 157.286  1.00  0.00    -0.550 OA
ENDBRANCH   1   2
BRANCH   1   5
ATOM      5  C   UNL     1     152.012 152.757 159.594  1.00  0.00     0.006 C 
BRANCH   5   6
ATOM      6  C   UNL     1     151.276 153.759 158.695  1.00  0.00    -0.003 C 
ATOM      7  C   UNL     1     150.342 153.043 157.723  1.00  0.00     0.004 C 
ENDBRANCH   5   6
ENDBRANCH   1   5
TORSDOF 3
ENDMDL
