MODEL 1
REMARK VINA RESULT:    -4.030      0.000      0.000
REMARK INTER + INTRA:          -3.932
REMARK INTER:                  -4.972
REMARK INTRA:                   1.041
REMARK UNBOUND:                 1.041
REMARK SMILES C=C1[C@H]2CC[C@@H]3[C@H]2C(C)(C)CCC[C@]13C
REMARK SMILES IDX 14 1 6 2 7 3 3 4 2 5 1 6 4 7 5 8 15 9 8 10 9 11 10 12 11 13
REMARK SMILES IDX 13 15 12 16
REMARK H PARENT
REMARK Flexibility Score: 80.00
ROOT
ATOM      1  C   UNL     1       3.260  -2.073  15.165  1.00  0.00    -0.008 C 
ATOM      2  C   UNL     1       2.184  -3.228  15.206  1.00  0.00     0.003 C 
ATOM      3  C   UNL     1       1.181  -2.787  16.296  1.00  0.00     0.006 C 
ATOM      4  C   UNL     1       0.962  -1.407  15.688  1.00  0.00     0.019 C 
ATOM      5  C   UNL     1       2.371  -0.909  15.541  1.00  0.00    -0.068 C 
ATOM      6  C   UNL     1       2.738   0.377  15.625  1.00  0.00     0.009 C 
ATOM      7  C   UNL     1       0.475  -1.790  14.270  1.00  0.00     0.008 C 
ATOM      8  C   UNL     1       1.244  -3.102  13.977  1.00  0.00     0.005 C 
ATOM      9  C   UNL     1       3.879  -1.834  13.761  1.00  0.00     0.016 C 
ENDROOT
BRANCH   3  10
ATOM     10  C   UNL     1       1.554  -2.893  17.823  1.00  0.00    -0.032 C 
ATOM     11  C   UNL     1       1.463  -4.384  18.246  1.00  0.00     0.011 C 
ATOM     12  C   UNL     1       0.490  -2.131  18.652  1.00  0.00     0.011 C 
BRANCH  10  13
ATOM     13  C   UNL     1       2.940  -2.315  18.220  1.00  0.00     0.007 CG0
ATOM     14  G   UNL     1       4.126  -2.956  17.497  1.00  0.00     0.000 G0
ENDBRANCH  10  13
ENDBRANCH   3  10
BRANCH   1  15
ATOM     15  C   UNL     1       4.442  -2.280  16.157  1.00  0.00     0.011 C 
BRANCH  15  16
ATOM     16  C   UNL     1       4.122  -2.951  17.491  1.00  0.00     0.001 CG0
ATOM     17  G   UNL     1       2.932  -2.312  18.210  1.00  0.00     0.000 G0
ENDBRANCH  15  16
ENDBRANCH   1  15
TORSDOF 0
ENDMDL
MODEL 2
REMARK VINA RESULT:    -3.837      2.935      5.087
REMARK INTER + INTRA:          -3.694
REMARK INTER:                  -4.734
REMARK INTRA:                   1.040
REMARK UNBOUND:                 1.041
REMARK SMILES C=C1[C@H]2CC[C@@H]3[C@H]2C(C)(C)CCC[C@]13C
REMARK SMILES IDX 14 1 6 2 7 3 3 4 2 5 1 6 4 7 5 8 15 9 8 10 9 11 10 12 11 13
REMARK SMILES IDX 13 15 12 16
REMARK H PARENT
REMARK Flexibility Score: 80.00
ROOT
ATOM      1  C   UNL     1       0.811  -3.211  20.167  1.00  0.00    -0.008 C 
ATOM      2  C   UNL     1       1.915  -2.477  19.311  1.00  0.00     0.003 C 
ATOM      3  C   UNL     1       2.935  -3.583  18.961  1.00  0.00     0.006 C 
ATOM      4  C   UNL     1       1.880  -4.529  18.403  1.00  0.00     0.019 C 
ATOM      5  C   UNL     1       0.886  -4.579  19.527  1.00  0.00    -0.068 C 
ATOM      6  C   UNL     1       0.123  -5.640  19.825  1.00  0.00     0.009 C 
ATOM      7  C   UNL     1       1.256  -3.647  17.296  1.00  0.00     0.008 C 
ATOM      8  C   UNL     1       1.371  -2.217  17.880  1.00  0.00     0.005 C 
ATOM      9  C   UNL     1      -0.618  -2.625  19.996  1.00  0.00     0.016 C 
ENDROOT
BRANCH   3  10
ATOM     10  C   UNL     1       3.941  -4.123  20.046  1.00  0.00    -0.032 C 
ATOM     11  C   UNL     1       5.057  -3.063  20.249  1.00  0.00     0.011 C 
ATOM     12  C   UNL     1       4.633  -5.396  19.499  1.00  0.00     0.011 C 
BRANCH  10  13
ATOM     13  C   UNL     1       3.315  -4.498  21.418  1.00  0.00     0.007 CG0
ATOM     14  G   UNL     1       2.579  -3.352  22.115  1.00  0.00     0.000 G0
ENDBRANCH  10  13
ENDBRANCH   3  10
BRANCH   1  15
ATOM     15  C   UNL     1       1.114  -3.237  21.694  1.00  0.00     0.011 C 
BRANCH  15  16
ATOM     16  C   UNL     1       2.577  -3.358  22.110  1.00  0.00     0.001 CG0
ATOM     17  G   UNL     1       3.303  -4.510  21.413  1.00  0.00     0.000 G0
ENDBRANCH  15  16
ENDBRANCH   1  15
TORSDOF 0
ENDMDL
MODEL 3
REMARK VINA RESULT:    -3.769      2.548      4.330
REMARK INTER + INTRA:          -3.610
REMARK INTER:                  -4.627
REMARK INTRA:                   1.016
REMARK UNBOUND:                 1.041
REMARK SMILES C=C1[C@H]2CC[C@@H]3[C@H]2C(C)(C)CCC[C@]13C
REMARK SMILES IDX 14 1 6 2 7 3 3 4 2 5 1 6 4 7 5 8 15 9 8 10 9 11 10 12 11 13
REMARK SMILES IDX 13 15 12 16
REMARK H PARENT
REMARK Flexibility Score: 80.00
ROOT
ATOM      1  C   UNL     1       2.282  -1.045  14.471  1.00  0.00    -0.008 C 
ATOM      2  C   UNL     1       0.731  -0.806  14.303  1.00  0.00     0.003 C 
ATOM      3  C   UNL     1       0.119  -2.225  14.270  1.00  0.00     0.006 C 
ATOM      4  C   UNL     1       0.803  -2.666  15.558  1.00  0.00     0.019 C 
ATOM      5  C   UNL     1       2.238  -2.323  15.277  1.00  0.00    -0.068 C 
ATOM      6  C   UNL     1       3.291  -2.994  15.764  1.00  0.00     0.009 C 
ATOM      7  C   UNL     1       0.276  -1.599  16.545  1.00  0.00     0.008 C 
ATOM      8  C   UNL     1       0.130  -0.338  15.657  1.00  0.00     0.005 C 
ATOM      9  C   UNL     1       3.010   0.064  15.278  1.00  0.00     0.016 C 
ENDROOT
BRANCH   3  10
ATOM     10  C   UNL     1       0.258  -3.131  12.989  1.00  0.00    -0.032 C 
ATOM     11  C   UNL     1      -0.744  -2.620  11.918  1.00  0.00     0.011 C 
ATOM     12  C   UNL     1      -0.175  -4.575  13.347  1.00  0.00     0.011 C 
BRANCH  10  13
ATOM     13  C   UNL     1       1.683  -3.220  12.377  1.00  0.00     0.007 CG0
ATOM     14  G   UNL     1       2.286  -1.874  11.971  1.00  0.00     0.000 G0
ENDBRANCH  10  13
ENDBRANCH   3  10
BRANCH   1  15
ATOM     15  C   UNL     1       3.043  -1.203  13.122  1.00  0.00     0.011 C 
BRANCH  15  16
ATOM     16  C   UNL     1       2.295  -1.881  11.977  1.00  0.00     0.001 CG0
ATOM     17  G   UNL     1       1.678  -3.222  12.378  1.00  0.00     0.000 G0
ENDBRANCH  15  16
ENDBRANCH   1  15
TORSDOF 0
ENDMDL
MODEL 4
REMARK VINA RESULT:    -3.723      2.456      4.680
REMARK INTER + INTRA:          -3.552
REMARK INTER:                  -4.563
REMARK INTRA:                   1.010
REMARK UNBOUND:                 1.041
REMARK SMILES C=C1[C@H]2CC[C@@H]3[C@H]2C(C)(C)CCC[C@]13C
REMARK SMILES IDX 14 1 6 2 7 3 3 4 2 5 1 6 4 7 5 8 15 9 8 10 9 11 10 12 11 13
REMARK SMILES IDX 13 15 12 16
REMARK H PARENT
REMARK Flexibility Score: 80.00
ROOT
ATOM      1  C   UNL     1       1.254  -2.593  15.369  1.00  0.00    -0.008 C 
ATOM      2  C   UNL     1       2.769  -2.664  14.933  1.00  0.00     0.003 C 
ATOM      3  C   UNL     1       2.926  -1.537  13.887  1.00  0.00     0.006 C 
ATOM      4  C   UNL     1       2.324  -0.468  14.789  1.00  0.00     0.019 C 
ATOM      5  C   UNL     1       1.028  -1.108  15.201  1.00  0.00    -0.068 C 
ATOM      6  C   UNL     1      -0.099  -0.438  15.475  1.00  0.00     0.009 C 
ATOM      7  C   UNL     1       3.270  -0.554  16.010  1.00  0.00     0.008 C 
ATOM      8  C   UNL     1       3.658  -2.053  16.050  1.00  0.00     0.005 C 
ATOM      9  C   UNL     1       1.001  -3.002  16.846  1.00  0.00     0.016 C 
ENDROOT
BRANCH   3  10
ATOM     10  C   UNL     1       2.355  -1.709  12.428  1.00  0.00    -0.032 C 
ATOM     11  C   UNL     1       3.315  -2.635  11.634  1.00  0.00     0.011 C 
ATOM     12  C   UNL     1       2.377  -0.333  11.716  1.00  0.00     0.011 C 
BRANCH  10  13
ATOM     13  C   UNL     1       0.901  -2.249  12.332  1.00  0.00     0.007 CG0
ATOM     14  G   UNL     1       0.678  -3.598  13.018  1.00  0.00     0.000 G0
ENDBRANCH  10  13
ENDBRANCH   3  10
BRANCH   1  15
ATOM     15  C   UNL     1       0.305  -3.456  14.487  1.00  0.00     0.011 C 
BRANCH  15  16
ATOM     16  C   UNL     1       0.663  -3.592  13.009  1.00  0.00     0.001 CG0
ATOM     17  G   UNL     1       0.906  -2.245  12.326  1.00  0.00     0.000 G0
ENDBRANCH  15  16
ENDBRANCH   1  15
TORSDOF 0
ENDMDL
MODEL 5
REMARK VINA RESULT:    -3.621      3.523      6.274
REMARK INTER + INTRA:          -3.428
REMARK INTER:                  -4.450
REMARK INTRA:                   1.023
REMARK UNBOUND:                 1.041
REMARK SMILES C=C1[C@H]2CC[C@@H]3[C@H]2C(C)(C)CCC[C@]13C
REMARK SMILES IDX 14 1 6 2 7 3 3 4 2 5 1 6 4 7 5 8 15 9 8 10 9 11 10 12 11 13
REMARK SMILES IDX 13 15 12 16
REMARK H PARENT
REMARK Flexibility Score: 80.00
ROOT
ATOM      1  C   UNL     1       3.090  -5.013  20.915  1.00  0.00    -0.008 C 
ATOM      2  C   UNL     1       4.618  -5.327  20.674  1.00  0.00     0.003 C 
ATOM      3  C   UNL     1       5.320  -3.955  20.791  1.00  0.00     0.006 C 
ATOM      4  C   UNL     1       4.696  -3.630  22.141  1.00  0.00     0.019 C 
ATOM      5  C   UNL     1       3.235  -3.845  21.865  1.00  0.00    -0.068 C 
ATOM      6  C   UNL     1       2.240  -3.173  22.458  1.00  0.00     0.009 C 
ATOM      7  C   UNL     1       5.173  -4.839  22.980  1.00  0.00     0.008 C 
ATOM      8  C   UNL     1       5.216  -5.990  21.944  1.00  0.00     0.005 C 
ATOM      9  C   UNL     1       2.308  -6.162  21.606  1.00  0.00     0.016 C 
ENDROOT
BRANCH   3  10
ATOM     10  C   UNL     1       5.214  -2.895  19.630  1.00  0.00    -0.032 C 
ATOM     11  C   UNL     1       6.157  -3.336  18.478  1.00  0.00     0.011 C 
ATOM     12  C   UNL     1       5.749  -1.535  20.143  1.00  0.00     0.011 C 
BRANCH  10  13
ATOM     13  C   UNL     1       3.785  -2.644  19.076  1.00  0.00     0.007 CG0
ATOM     14  G   UNL     1       3.086  -3.891  18.531  1.00  0.00     0.000 G0
ENDBRANCH  10  13
ENDBRANCH   3  10
BRANCH   1  15
ATOM     15  C   UNL     1       2.311  -4.647  19.617  1.00  0.00     0.011 C 
BRANCH  15  16
ATOM     16  C   UNL     1       3.080  -3.893  18.534  1.00  0.00     0.001 CG0
ATOM     17  G   UNL     1       3.796  -2.650  19.065  1.00  0.00     0.000 G0
ENDBRANCH  15  16
ENDBRANCH   1  15
TORSDOF 0
ENDMDL
MODEL 6
REMARK VINA RESULT:    -3.575      2.881      5.707
REMARK INTER + INTRA:          -3.370
REMARK INTER:                  -4.380
REMARK INTRA:                   1.010
REMARK UNBOUND:                 1.041
REMARK SMILES C=C1[C@H]2CC[C@@H]3[C@H]2C(C)(C)CCC[C@]13C
REMARK SMILES IDX 14 1 6 2 7 3 3 4 2 5 1 6 4 7 5 8 15 9 8 10 9 11 10 12 11 13
REMARK SMILES IDX 13 15 12 16
REMARK H PARENT
REMARK Flexibility Score: 80.00
ROOT
ATOM      1  C   UNL     1       1.493  -4.652  21.608  1.00  0.00    -0.008 C 
ATOM      2  C   UNL     1       1.774  -3.118  21.367  1.00  0.00     0.003 C 
ATOM      3  C   UNL     1       1.800  -2.964  19.829  1.00  0.00     0.006 C 
ATOM      4  C   UNL     1       0.454  -3.649  19.631  1.00  0.00     0.019 C 
ATOM      5  C   UNL     1       0.648  -4.933  20.386  1.00  0.00    -0.068 C 
ATOM      6  C   UNL     1       0.068  -6.098  20.070  1.00  0.00     0.009 C 
ATOM      7  C   UNL     1      -0.457  -2.753  20.502  1.00  0.00     0.008 C 
ATOM      8  C   UNL     1       0.482  -2.304  21.648  1.00  0.00     0.005 C 
ATOM      9  C   UNL     1       0.676  -4.951  22.895  1.00  0.00     0.016 C 
ENDROOT
BRANCH   3  10
ATOM     10  C   UNL     1       3.037  -3.463  18.992  1.00  0.00    -0.032 C 
ATOM     11  C   UNL     1       4.189  -2.436  19.160  1.00  0.00     0.011 C 
ATOM     12  C   UNL     1       2.659  -3.462  17.490  1.00  0.00     0.011 C 
BRANCH  10  13
ATOM     13  C   UNL     1       3.550  -4.891  19.332  1.00  0.00     0.007 CG0
ATOM     14  G   UNL     1       3.960  -5.087  20.792  1.00  0.00     0.000 G0
ENDBRANCH  10  13
ENDBRANCH   3  10
BRANCH   1  15
ATOM     15  C   UNL     1       2.780  -5.525  21.671  1.00  0.00     0.011 C 
BRANCH  15  16
ATOM     16  C   UNL     1       3.951  -5.101  20.788  1.00  0.00     0.001 CG0
ATOM     17  G   UNL     1       3.553  -4.893  19.326  1.00  0.00     0.000 G0
ENDBRANCH  15  16
ENDBRANCH   1  15
TORSDOF 0
ENDMDL
MODEL 7
REMARK VINA RESULT:    -3.565      4.952      6.686
REMARK INTER + INTRA:          -3.357
REMARK INTER:                  -4.380
REMARK INTRA:                   1.023
REMARK UNBOUND:                 1.041
REMARK SMILES C=C1[C@H]2CC[C@@H]3[C@H]2C(C)(C)CCC[C@]13C
REMARK SMILES IDX 14 1 6 2 7 3 3 4 2 5 1 6 4 7 5 8 15 9 8 10 9 11 10 12 11 13
REMARK SMILES IDX 13 15 12 16
REMARK H PARENT
REMARK Flexibility Score: 80.00
ROOT
ATOM      1  C   UNL     1       3.848  -5.722  22.055  1.00  0.00    -0.008 C 
ATOM      2  C   UNL     1       3.695  -5.250  20.557  1.00  0.00     0.003 C 
ATOM      3  C   UNL     1       2.722  -4.052  20.623  1.00  0.00     0.006 C 
ATOM      4  C   UNL     1       3.523  -3.322  21.694  1.00  0.00     0.019 C 
ATOM      5  C   UNL     1       3.675  -4.386  22.743  1.00  0.00    -0.068 C 
ATOM      6  C   UNL     1       3.753  -4.153  24.060  1.00  0.00     0.009 C 
ATOM      7  C   UNL     1       4.894  -3.192  20.990  1.00  0.00     0.008 C 
ATOM      8  C   UNL     1       4.970  -4.475  20.127  1.00  0.00     0.005 C 
ATOM      9  C   UNL     1       5.243  -6.315  22.394  1.00  0.00     0.016 C 
ENDROOT
BRANCH   3  10
ATOM     10  C   UNL     1       1.180  -4.280  20.852  1.00  0.00    -0.032 C 
ATOM     11  C   UNL     1       0.557  -4.782  19.522  1.00  0.00     0.011 C 
ATOM     12  C   UNL     1       0.513  -2.917  21.167  1.00  0.00     0.011 C 
BRANCH  10  13
ATOM     13  C   UNL     1       0.806  -5.248  22.009  1.00  0.00     0.007 CG0
ATOM     14  G   UNL     1       1.393  -6.654  21.874  1.00  0.00     0.000 G0
ENDBRANCH  10  13
ENDBRANCH   3  10
BRANCH   1  15
ATOM     15  C   UNL     1       2.787  -6.773  22.495  1.00  0.00     0.011 C 
BRANCH  15  16
ATOM     16  C   UNL     1       1.394  -6.653  21.881  1.00  0.00     0.001 CG0
ATOM     17  G   UNL     1       0.804  -5.247  22.009  1.00  0.00     0.000 G0
ENDBRANCH  15  16
ENDBRANCH   1  15
TORSDOF 0
ENDMDL
MODEL 8
REMARK VINA RESULT:    -3.524     13.070     14.792
REMARK INTER + INTRA:          -3.308
REMARK INTER:                  -4.330
REMARK INTRA:                   1.022
REMARK UNBOUND:                 1.041
REMARK SMILES C=C1[C@H]2CC[C@@H]3[C@H]2C(C)(C)CCC[C@]13C
REMARK SMILES IDX 14 1 6 2 7 3 3 4 2 5 1 6 4 7 5 8 15 9 8 10 9 11 10 12 11 13
REMARK SMILES IDX 13 15 12 16
REMARK H PARENT
REMARK Flexibility Score: 80.00
ROOT
ATOM      1  C   UNL     1      13.624  -0.292  26.360  1.00  0.00    -0.008 C 
ATOM      2  C   UNL     1      12.490  -1.361  26.108  1.00  0.00     0.003 C 
ATOM      3  C   UNL     1      11.192  -0.671  26.585  1.00  0.00     0.006 C 
ATOM      4  C   UNL     1      11.419   0.579  25.744  1.00  0.00     0.019 C 
ATOM      5  C   UNL     1      12.815   0.967  26.141  1.00  0.00    -0.068 C 
ATOM      6  C   UNL     1      13.274   2.225  26.182  1.00  0.00     0.009 C 
ATOM      7  C   UNL     1      11.515  -0.038  24.329  1.00  0.00     0.008 C 
ATOM      8  C   UNL     1      12.163  -1.421  24.591  1.00  0.00     0.005 C 
ATOM      9  C   UNL     1      14.791  -0.354  25.337  1.00  0.00     0.016 C 
ENDROOT
BRANCH   3  10
ATOM     10  C   UNL     1      10.886  -0.506  28.121  1.00  0.00    -0.032 C 
ATOM     11  C   UNL     1      10.426  -1.880  28.679  1.00  0.00     0.011 C 
ATOM     12  C   UNL     1       9.690   0.464  28.293  1.00  0.00     0.011 C 
BRANCH  10  13
ATOM     13  C   UNL     1      12.052   0.050  28.985  1.00  0.00     0.007 CG0
ATOM     14  G   UNL     1      13.337  -0.778  28.926  1.00  0.00     0.000 G0
ENDBRANCH  10  13
ENDBRANCH   3  10
BRANCH   1  15
ATOM     15  C   UNL     1      14.256  -0.369  27.780  1.00  0.00     0.011 C 
BRANCH  15  16
ATOM     16  C   UNL     1      13.336  -0.771  28.930  1.00  0.00     0.001 CG0
ATOM     17  G   UNL     1      12.039   0.040  28.969  1.00  0.00     0.000 G0
ENDBRANCH  15  16
ENDBRANCH   1  15
TORSDOF 0
ENDMDL
MODEL 9
REMARK VINA RESULT:    -3.398      4.764      6.785
REMARK INTER + INTRA:          -3.152
REMARK INTER:                  -4.205
REMARK INTRA:                   1.054
REMARK UNBOUND:                 1.041
REMARK SMILES C=C1[C@H]2CC[C@@H]3[C@H]2C(C)(C)CCC[C@]13C
REMARK SMILES IDX 14 1 6 2 7 3 3 4 2 5 1 6 4 7 5 8 15 9 8 10 9 11 10 12 11 13
REMARK SMILES IDX 13 15 12 16
REMARK H PARENT
REMARK Flexibility Score: 80.00
ROOT
ATOM      1  C   UNL     1       1.702  -4.771  22.805  1.00  0.00    -0.008 C 
ATOM      2  C   UNL     1       1.889  -3.411  22.026  1.00  0.00     0.003 C 
ATOM      3  C   UNL     1       2.480  -3.823  20.659  1.00  0.00     0.006 C 
ATOM      4  C   UNL     1       1.391  -4.851  20.378  1.00  0.00     0.019 C 
ATOM      5  C   UNL     1       1.419  -5.679  21.630  1.00  0.00    -0.068 C 
ATOM      6  C   UNL     1       1.130  -6.986  21.686  1.00  0.00     0.009 C 
ATOM      7  C   UNL     1       0.127  -3.963  20.460  1.00  0.00     0.008 C 
ATOM      8  C   UNL     1       0.507  -2.907  21.527  1.00  0.00     0.005 C 
ATOM      9  C   UNL     1       0.495  -4.780  23.783  1.00  0.00     0.016 C 
ENDROOT
BRANCH   3  10
ATOM     10  C   UNL     1       3.988  -4.261  20.534  1.00  0.00    -0.032 C 
ATOM     11  C   UNL     1       4.875  -2.989  20.616  1.00  0.00     0.011 C 
ATOM     12  C   UNL     1       4.218  -4.870  19.128  1.00  0.00     0.011 C 
BRANCH  10  13
ATOM     13  C   UNL     1       4.474  -5.311  21.571  1.00  0.00     0.007 CG0
ATOM     14  G   UNL     1       4.333  -4.874  23.030  1.00  0.00     0.000 G0
ENDBRANCH  10  13
ENDBRANCH   3  10
BRANCH   1  15
ATOM     15  C   UNL     1       2.954  -5.205  23.621  1.00  0.00     0.011 C 
BRANCH  15  16
ATOM     16  C   UNL     1       4.321  -4.864  23.032  1.00  0.00     0.001 CG0
ATOM     17  G   UNL     1       4.475  -5.318  21.579  1.00  0.00     0.000 G0
ENDBRANCH  15  16
ENDBRANCH   1  15
TORSDOF 0
ENDMDL
