MODEL 1
REMARK VINA RESULT:    -5.536      0.000      0.000
REMARK INTER + INTRA:          -6.070
REMARK INTER:                  -6.021
REMARK INTRA:                  -0.048
REMARK UNBOUND:                -0.048
REMARK SMILES COc1cc2ccc(=O)oc2cc1O
REMARK SMILES IDX 3 1 13 2 12 3 11 4 5 5 4 6 6 7 7 8 8 9 9 10 10 11 2 12 1 13
REMARK SMILES IDX 14 14
REMARK H PARENT 14 15
REMARK Flexibility Score: inf
ROOT
ATOM      1  C   UNL     1      19.111  19.896  -7.056  1.00  0.00     0.161 A 
ATOM      2  C   UNL     1      19.085  19.170  -8.257  1.00  0.00     0.161 A 
ATOM      3  C   UNL     1      18.867  19.827  -9.477  1.00  0.00     0.098 A 
ATOM      4  C   UNL     1      18.675  21.210  -9.509  1.00  0.00     0.142 A 
ATOM      5  C   UNL     1      18.699  21.947  -8.306  1.00  0.00     0.022 A 
ATOM      6  C   UNL     1      18.917  21.292  -7.087  1.00  0.00     0.062 A 
ATOM      7  C   UNL     1      18.503  23.331  -8.369  1.00  0.00     0.019 A 
ATOM      8  C   UNL     1      18.290  23.936  -9.607  1.00  0.00     0.094 A 
ATOM      9  C   UNL     1      18.279  23.141 -10.758  1.00  0.00     0.336 A 
ATOM     10  O   UNL     1      18.089  23.668 -11.884  1.00  0.00    -0.246 OA
ATOM     11  O   UNL     1      18.469  21.827 -10.669  1.00  0.00    -0.423 OA
ENDROOT
BRANCH   1  12
ATOM     12  O   UNL     1      19.332  19.198  -5.860  1.00  0.00    -0.493 OA
ATOM     13  C   UNL     1      18.780  19.564  -4.599  1.00  0.00     0.278 C 
ENDBRANCH   1  12
BRANCH   2  14
ATOM     14  O   UNL     1      19.278  17.789  -8.229  1.00  0.00    -0.504 OA
ATOM     15  H   UNL     1      18.643  17.175  -7.733  1.00  0.00     0.293 HD
ENDBRANCH   2  14
TORSDOF 2
ENDMDL
MODEL 2
REMARK VINA RESULT:    -5.403      1.337      5.391
REMARK INTER + INTRA:          -5.925
REMARK INTER:                  -5.936
REMARK INTRA:                   0.010
REMARK UNBOUND:                -0.048
REMARK SMILES COc1cc2ccc(=O)oc2cc1O
REMARK SMILES IDX 3 1 13 2 12 3 11 4 5 5 4 6 6 7 7 8 8 9 9 10 10 11 2 12 1 13
REMARK SMILES IDX 14 14
REMARK H PARENT 14 15
REMARK Flexibility Score: inf
ROOT
ATOM      1  C   UNL     1      18.289  22.347 -10.063  1.00  0.00     0.161 A 
ATOM      2  C   UNL     1      18.411  23.199  -8.954  1.00  0.00     0.161 A 
ATOM      3  C   UNL     1      18.653  22.669  -7.678  1.00  0.00     0.098 A 
ATOM      4  C   UNL     1      18.776  21.290  -7.499  1.00  0.00     0.142 A 
ATOM      5  C   UNL     1      18.655  20.427  -8.608  1.00  0.00     0.022 A 
ATOM      6  C   UNL     1      18.413  20.955  -9.884  1.00  0.00     0.062 A 
ATOM      7  C   UNL     1      18.783  19.049  -8.399  1.00  0.00     0.019 A 
ATOM      8  C   UNL     1      19.024  18.573  -7.110  1.00  0.00     0.094 A 
ATOM      9  C   UNL     1      19.132  19.489  -6.058  1.00  0.00     0.336 A 
ATOM     10  O   UNL     1      19.350  19.079  -4.889  1.00  0.00    -0.246 OA
ATOM     11  O   UNL     1      19.006  20.794  -6.286  1.00  0.00    -0.423 OA
ENDROOT
BRANCH   1  12
ATOM     12  O   UNL     1      18.046  22.921 -11.321  1.00  0.00    -0.493 OA
ATOM     13  C   UNL     1      19.053  23.472 -12.163  1.00  0.00     0.278 C 
ENDBRANCH   1  12
BRANCH   2  14
ATOM     14  O   UNL     1      18.289  24.576  -9.129  1.00  0.00    -0.504 OA
ATOM     15  H   UNL     1      17.555  25.107  -8.674  1.00  0.00     0.293 HD
ENDBRANCH   2  14
TORSDOF 2
ENDMDL
MODEL 3
REMARK VINA RESULT:    -5.286      2.368      4.954
REMARK INTER + INTRA:          -5.798
REMARK INTER:                  -5.733
REMARK INTRA:                  -0.065
REMARK UNBOUND:                -0.048
REMARK SMILES COc1cc2ccc(=O)oc2cc1O
REMARK SMILES IDX 3 1 13 2 12 3 11 4 5 5 4 6 6 7 7 8 8 9 9 10 10 11 2 12 1 13
REMARK SMILES IDX 14 14
REMARK H PARENT 14 15
REMARK Flexibility Score: inf
ROOT
ATOM      1  C   UNL     1      16.506  21.476 -10.746  1.00  0.00     0.161 A 
ATOM      2  C   UNL     1      16.814  22.845 -10.795  1.00  0.00     0.161 A 
ATOM      3  C   UNL     1      17.674  23.412  -9.844  1.00  0.00     0.098 A 
ATOM      4  C   UNL     1      18.233  22.619  -8.839  1.00  0.00     0.142 A 
ATOM      5  C   UNL     1      17.928  21.243  -8.781  1.00  0.00     0.022 A 
ATOM      6  C   UNL     1      17.068  20.676  -9.732  1.00  0.00     0.062 A 
ATOM      7  C   UNL     1      18.503  20.475  -7.763  1.00  0.00     0.019 A 
ATOM      8  C   UNL     1      19.352  21.087  -6.841  1.00  0.00     0.094 A 
ATOM      9  C   UNL     1      19.608  22.456  -6.960  1.00  0.00     0.336 A 
ATOM     10  O   UNL     1      20.372  23.026  -6.139  1.00  0.00    -0.246 OA
ATOM     11  O   UNL     1      19.049  23.163  -7.939  1.00  0.00    -0.423 OA
ENDROOT
BRANCH   1  12
ATOM     12  O   UNL     1      15.640  20.953 -11.718  1.00  0.00    -0.493 OA
ATOM     13  C   UNL     1      14.268  20.643 -11.493  1.00  0.00     0.278 C 
ENDBRANCH   1  12
BRANCH   2  14
ATOM     14  O   UNL     1      16.258  23.638 -11.798  1.00  0.00    -0.504 OA
ATOM     15  H   UNL     1      16.724  23.771 -12.689  1.00  0.00     0.293 HD
ENDBRANCH   2  14
TORSDOF 2
ENDMDL
MODEL 4
REMARK VINA RESULT:    -5.094      1.764      5.131
REMARK INTER + INTRA:          -5.590
REMARK INTER:                  -5.541
REMARK INTRA:                  -0.048
REMARK UNBOUND:                -0.048
REMARK SMILES COc1cc2ccc(=O)oc2cc1O
REMARK SMILES IDX 3 1 13 2 12 3 11 4 5 5 4 6 6 7 7 8 8 9 9 10 10 11 2 12 1 13
REMARK SMILES IDX 14 14
REMARK H PARENT 14 15
REMARK Flexibility Score: inf
ROOT
ATOM      1  C   UNL     1      17.605  22.122 -10.652  1.00  0.00     0.161 A 
ATOM      2  C   UNL     1      16.552  21.201 -10.757  1.00  0.00     0.161 A 
ATOM      3  C   UNL     1      16.416  20.170  -9.816  1.00  0.00     0.098 A 
ATOM      4  C   UNL     1      17.328  20.051  -8.764  1.00  0.00     0.142 A 
ATOM      5  C   UNL     1      18.390  20.973  -8.651  1.00  0.00     0.022 A 
ATOM      6  C   UNL     1      18.527  22.003  -9.592  1.00  0.00     0.062 A 
ATOM      7  C   UNL     1      19.287  20.828  -7.588  1.00  0.00     0.019 A 
ATOM      8  C   UNL     1      19.108  19.786  -6.679  1.00  0.00     0.094 A 
ATOM      9  C   UNL     1      18.032  18.911  -6.854  1.00  0.00     0.336 A 
ATOM     10  O   UNL     1      17.853  17.965  -6.044  1.00  0.00    -0.246 OA
ATOM     11  O   UNL     1      17.193  19.071  -7.874  1.00  0.00    -0.423 OA
ENDROOT
BRANCH   1  12
ATOM     12  O   UNL     1      17.703  23.136 -11.617  1.00  0.00    -0.493 OA
ATOM     13  C   UNL     1      18.928  23.712 -12.060  1.00  0.00     0.278 C 
ENDBRANCH   1  12
BRANCH   2  14
ATOM     14  O   UNL     1      15.640  21.317 -11.805  1.00  0.00    -0.504 OA
ATOM     15  H   UNL     1      15.118  22.172 -11.962  1.00  0.00     0.293 HD
ENDBRANCH   2  14
TORSDOF 2
ENDMDL
MODEL 5
REMARK VINA RESULT:    -4.990      2.130      4.677
REMARK INTER + INTRA:          -5.476
REMARK INTER:                  -5.428
REMARK INTRA:                  -0.048
REMARK UNBOUND:                -0.048
REMARK SMILES COc1cc2ccc(=O)oc2cc1O
REMARK SMILES IDX 3 1 13 2 12 3 11 4 5 5 4 6 6 7 7 8 8 9 9 10 10 11 2 12 1 13
REMARK SMILES IDX 14 14
REMARK H PARENT 14 15
REMARK Flexibility Score: inf
ROOT
ATOM      1  C   UNL     1      18.339  21.749  -9.994  1.00  0.00     0.161 A 
ATOM      2  C   UNL     1      18.910  20.591  -9.444  1.00  0.00     0.161 A 
ATOM      3  C   UNL     1      18.602  20.205  -8.131  1.00  0.00     0.098 A 
ATOM      4  C   UNL     1      17.724  20.969  -7.359  1.00  0.00     0.142 A 
ATOM      5  C   UNL     1      17.146  22.135  -7.903  1.00  0.00     0.022 A 
ATOM      6  C   UNL     1      17.453  22.522  -9.215  1.00  0.00     0.062 A 
ATOM      7  C   UNL     1      16.271  22.880  -7.106  1.00  0.00     0.019 A 
ATOM      8  C   UNL     1      15.999  22.453  -5.807  1.00  0.00     0.094 A 
ATOM      9  C   UNL     1      16.608  21.287  -5.334  1.00  0.00     0.336 A 
ATOM     10  O   UNL     1      16.374  20.885  -4.165  1.00  0.00    -0.246 OA
ATOM     11  O   UNL     1      17.437  20.597  -6.114  1.00  0.00    -0.423 OA
ENDROOT
BRANCH   1  12
ATOM     12  O   UNL     1      18.675  22.098 -11.311  1.00  0.00    -0.493 OA
ATOM     13  C   UNL     1      18.717  23.433 -11.805  1.00  0.00     0.278 C 
ENDBRANCH   1  12
BRANCH   2  14
ATOM     14  O   UNL     1      19.785  19.826 -10.213  1.00  0.00    -0.504 OA
ATOM     15  H   UNL     1      19.715  18.815 -10.250  1.00  0.00     0.293 HD
ENDBRANCH   2  14
TORSDOF 2
ENDMDL
MODEL 6
REMARK VINA RESULT:    -4.838      1.422      2.518
REMARK INTER + INTRA:          -5.310
REMARK INTER:                  -5.250
REMARK INTRA:                  -0.061
REMARK UNBOUND:                -0.048
REMARK SMILES COc1cc2ccc(=O)oc2cc1O
REMARK SMILES IDX 3 1 13 2 12 3 11 4 5 5 4 6 6 7 7 8 8 9 9 10 10 11 2 12 1 13
REMARK SMILES IDX 14 14
REMARK H PARENT 14 15
REMARK Flexibility Score: inf
ROOT
ATOM      1  C   UNL     1      19.089  20.151  -6.289  1.00  0.00     0.161 A 
ATOM      2  C   UNL     1      18.872  21.427  -5.745  1.00  0.00     0.161 A 
ATOM      3  C   UNL     1      18.580  22.514  -6.582  1.00  0.00     0.098 A 
ATOM      4  C   UNL     1      18.503  22.337  -7.965  1.00  0.00     0.142 A 
ATOM      5  C   UNL     1      18.720  21.058  -8.521  1.00  0.00     0.022 A 
ATOM      6  C   UNL     1      19.011  19.971  -7.685  1.00  0.00     0.062 A 
ATOM      7  C   UNL     1      18.636  20.912  -9.909  1.00  0.00     0.019 A 
ATOM      8  C   UNL     1      18.344  22.025 -10.698  1.00  0.00     0.094 A 
ATOM      9  C   UNL     1      18.141  23.261 -10.077  1.00  0.00     0.336 A 
ATOM     10  O   UNL     1      17.875  24.277 -10.771  1.00  0.00    -0.246 OA
ATOM     11  O   UNL     1      18.226  23.372  -8.754  1.00  0.00    -0.423 OA
ENDROOT
BRANCH   1  12
ATOM     12  O   UNL     1      19.378  19.093  -5.414  1.00  0.00    -0.493 OA
ATOM     13  C   UNL     1      18.571  17.930  -5.261  1.00  0.00     0.278 C 
ENDBRANCH   1  12
BRANCH   2  14
ATOM     14  O   UNL     1      18.947  21.606  -4.364  1.00  0.00    -0.504 OA
ATOM     15  H   UNL     1      19.768  22.007  -3.925  1.00  0.00     0.293 HD
ENDBRANCH   2  14
TORSDOF 2
ENDMDL
MODEL 7
REMARK VINA RESULT:    -4.800      2.485      3.059
REMARK INTER + INTRA:          -5.270
REMARK INTER:                  -5.209
REMARK INTRA:                  -0.061
REMARK UNBOUND:                -0.048
REMARK SMILES COc1cc2ccc(=O)oc2cc1O
REMARK SMILES IDX 3 1 13 2 12 3 11 4 5 5 4 6 6 7 7 8 8 9 9 10 10 11 2 12 1 13
REMARK SMILES IDX 14 14
REMARK H PARENT 14 15
REMARK Flexibility Score: inf
ROOT
ATOM      1  C   UNL     1      16.728  21.806  -6.631  1.00  0.00     0.161 A 
ATOM      2  C   UNL     1      18.088  22.151  -6.587  1.00  0.00     0.161 A 
ATOM      3  C   UNL     1      18.724  22.671  -7.724  1.00  0.00     0.098 A 
ATOM      4  C   UNL     1      18.010  22.851  -8.910  1.00  0.00     0.142 A 
ATOM      5  C   UNL     1      16.643  22.507  -8.964  1.00  0.00     0.022 A 
ATOM      6  C   UNL     1      16.006  21.987  -7.828  1.00  0.00     0.062 A 
ATOM      7  C   UNL     1      15.954  22.698 -10.166  1.00  0.00     0.019 A 
ATOM      8  C   UNL     1      16.632  23.218 -11.268  1.00  0.00     0.094 A 
ATOM      9  C   UNL     1      17.988  23.537 -11.141  1.00  0.00     0.336 A 
ATOM     10  O   UNL     1      18.617  24.008 -12.123  1.00  0.00    -0.246 OA
ATOM     11  O   UNL     1      18.619  23.345  -9.985  1.00  0.00    -0.423 OA
ENDROOT
BRANCH   1  12
ATOM     12  O   UNL     1      16.133  21.289  -5.470  1.00  0.00    -0.493 OA
ATOM     13  C   UNL     1      15.050  21.902  -4.778  1.00  0.00     0.278 C 
ENDBRANCH   1  12
BRANCH   2  14
ATOM     14  O   UNL     1      18.803  21.974  -5.403  1.00  0.00    -0.504 OA
ATOM     15  H   UNL     1      19.232  21.085  -5.171  1.00  0.00     0.293 HD
ENDBRANCH   2  14
TORSDOF 2
ENDMDL
MODEL 8
REMARK VINA RESULT:    -4.763      2.714      5.685
REMARK INTER + INTRA:          -5.229
REMARK INTER:                  -5.176
REMARK INTRA:                  -0.053
REMARK UNBOUND:                -0.048
REMARK SMILES COc1cc2ccc(=O)oc2cc1O
REMARK SMILES IDX 3 1 13 2 12 3 11 4 5 5 4 6 6 7 7 8 8 9 9 10 10 11 2 12 1 13
REMARK SMILES IDX 14 14
REMARK H PARENT 14 15
REMARK Flexibility Score: inf
ROOT
ATOM      1  C   UNL     1      17.137  22.478 -10.998  1.00  0.00     0.161 A 
ATOM      2  C   UNL     1      15.793  22.230 -11.317  1.00  0.00     0.161 A 
ATOM      3  C   UNL     1      15.142  21.096 -10.810  1.00  0.00     0.098 A 
ATOM      4  C   UNL     1      15.826  20.203  -9.982  1.00  0.00     0.142 A 
ATOM      5  C   UNL     1      17.177  20.444  -9.655  1.00  0.00     0.022 A 
ATOM      6  C   UNL     1      17.828  21.577 -10.162  1.00  0.00     0.062 A 
ATOM      7  C   UNL     1      17.835  19.532  -8.824  1.00  0.00     0.019 A 
ATOM      8  C   UNL     1      17.143  18.419  -8.346  1.00  0.00     0.094 A 
ATOM      9  C   UNL     1      15.804  18.245  -8.711  1.00  0.00     0.336 A 
ATOM     10  O   UNL     1      15.162  17.248  -8.290  1.00  0.00    -0.246 OA
ATOM     11  O   UNL     1      15.202  19.128  -9.504  1.00  0.00    -0.423 OA
ENDROOT
BRANCH   1  12
ATOM     12  O   UNL     1      17.748  23.624 -11.528  1.00  0.00    -0.493 OA
ATOM     13  C   UNL     1      19.053  23.652 -12.099  1.00  0.00     0.278 C 
ENDBRANCH   1  12
BRANCH   2  14
ATOM     14  O   UNL     1      15.108  23.120 -12.143  1.00  0.00    -0.504 OA
ATOM     15  H   UNL     1      15.591  23.855 -12.648  1.00  0.00     0.293 HD
ENDBRANCH   2  14
TORSDOF 2
ENDMDL
MODEL 9
REMARK VINA RESULT:    -4.751      2.299      5.584
REMARK INTER + INTRA:          -5.217
REMARK INTER:                  -5.169
REMARK INTRA:                  -0.047
REMARK UNBOUND:                -0.048
REMARK SMILES COc1cc2ccc(=O)oc2cc1O
REMARK SMILES IDX 3 1 13 2 12 3 11 4 5 5 4 6 6 7 7 8 8 9 9 10 10 11 2 12 1 13
REMARK SMILES IDX 14 14
REMARK H PARENT 14 15
REMARK Flexibility Score: inf
ROOT
ATOM      1  C   UNL     1      15.940  22.617 -11.073  1.00  0.00     0.161 A 
ATOM      2  C   UNL     1      17.305  22.892 -11.246  1.00  0.00     0.161 A 
ATOM      3  C   UNL     1      18.275  22.060 -10.666  1.00  0.00     0.098 A 
ATOM      4  C   UNL     1      17.890  20.950  -9.911  1.00  0.00     0.142 A 
ATOM      5  C   UNL     1      16.520  20.667  -9.731  1.00  0.00     0.022 A 
ATOM      6  C   UNL     1      15.551  21.497 -10.310  1.00  0.00     0.062 A 
ATOM      7  C   UNL     1      16.165  19.548  -8.969  1.00  0.00     0.019 A 
ATOM      8  C   UNL     1      17.168  18.754  -8.413  1.00  0.00     0.094 A 
ATOM      9  C   UNL     1      18.505  19.096  -8.634  1.00  0.00     0.336 A 
ATOM     10  O   UNL     1      19.424  18.391  -8.142  1.00  0.00    -0.246 OA
ATOM     11  O   UNL     1      18.815  20.165  -9.363  1.00  0.00    -0.423 OA
ENDROOT
BRANCH   1  12
ATOM     12  O   UNL     1      15.005  23.476 -11.671  1.00  0.00    -0.493 OA
ATOM     13  C   UNL     1      13.704  23.082 -12.094  1.00  0.00     0.278 C 
ENDBRANCH   1  12
BRANCH   2  14
ATOM     14  O   UNL     1      17.692  23.999 -12.001  1.00  0.00    -0.504 OA
ATOM     15  H   UNL     1      17.758  23.956 -13.011  1.00  0.00     0.293 HD
ENDBRANCH   2  14
TORSDOF 2
ENDMDL
