MODEL 1
REMARK VINA RESULT:    -4.377      0.000      0.000
REMARK INTER + INTRA:          -4.505
REMARK INTER:                  -4.505
REMARK INTRA:                   0.000
REMARK UNBOUND:                 0.000
REMARK SMILES Cc1ccccc1O
REMARK SMILES IDX 1 1 2 2 3 3 4 4 5 5 6 6 7 7 8 8
REMARK H PARENT 8 9
REMARK Flexibility Score: inf
ROOT
ATOM      1  C   UNL     1     110.373   6.890 -25.970  1.00  0.00     0.048 C 
ATOM      2  C   UNL     1     111.510   7.719 -25.443  1.00  0.00    -0.009 A 
ATOM      3  C   UNL     1     112.495   8.207 -26.319  1.00  0.00     0.007 A 
ATOM      4  C   UNL     1     113.554   8.978 -25.830  1.00  0.00     0.001 A 
ATOM      5  C   UNL     1     113.636   9.269 -24.466  1.00  0.00     0.004 A 
ATOM      6  C   UNL     1     112.662   8.789 -23.588  1.00  0.00     0.046 A 
ATOM      7  C   UNL     1     111.596   8.014 -24.069  1.00  0.00     0.118 A 
ENDROOT
BRANCH   7   8
ATOM      8  O   UNL     1     110.626   7.537 -23.189  1.00  0.00    -0.508 OA
ATOM      9  H   UNL     1     110.828   7.386 -22.207  1.00  0.00     0.293 HD
ENDBRANCH   7   8
TORSDOF 1
ENDMDL
MODEL 2
REMARK VINA RESULT:    -4.155     15.834     16.899
REMARK INTER + INTRA:          -4.277
REMARK INTER:                  -4.277
REMARK INTRA:                   0.000
REMARK UNBOUND:                 0.000
REMARK SMILES Cc1ccccc1O
REMARK SMILES IDX 1 1 2 2 3 3 4 4 5 5 6 6 7 7 8 8
REMARK H PARENT 8 9
REMARK Flexibility Score: inf
ROOT
ATOM      1  C   UNL     1     111.891  10.237 -40.373  1.00  0.00     0.048 C 
ATOM      2  C   UNL     1     111.246   8.963 -40.842  1.00  0.00    -0.009 A 
ATOM      3  C   UNL     1     110.268   8.333 -40.053  1.00  0.00     0.007 A 
ATOM      4  C   UNL     1     109.668   7.148 -40.489  1.00  0.00     0.001 A 
ATOM      5  C   UNL     1     110.038   6.584 -41.711  1.00  0.00     0.004 A 
ATOM      6  C   UNL     1     111.010   7.202 -42.502  1.00  0.00     0.046 A 
ATOM      7  C   UNL     1     111.617   8.392 -42.074  1.00  0.00     0.118 A 
ENDROOT
BRANCH   7   8
ATOM      8  O   UNL     1     112.587   9.006 -42.866  1.00  0.00    -0.508 OA
ATOM      9  H   UNL     1     112.594   8.898 -43.874  1.00  0.00     0.293 HD
ENDBRANCH   7   8
TORSDOF 1
ENDMDL
MODEL 3
REMARK VINA RESULT:    -4.143      0.781      2.606
REMARK INTER + INTRA:          -4.264
REMARK INTER:                  -4.264
REMARK INTRA:                   0.000
REMARK UNBOUND:                 0.000
REMARK SMILES Cc1ccccc1O
REMARK SMILES IDX 1 1 2 2 3 3 4 4 5 5 6 6 7 7 8 8
REMARK H PARENT 8 9
REMARK Flexibility Score: inf
ROOT
ATOM      1  C   UNL     1     112.933   9.172 -23.585  1.00  0.00     0.048 C 
ATOM      2  C   UNL     1     112.189   8.514 -24.713  1.00  0.00    -0.009 A 
ATOM      3  C   UNL     1     112.574   8.746 -26.045  1.00  0.00     0.007 A 
ATOM      4  C   UNL     1     111.883   8.134 -27.095  1.00  0.00     0.001 A 
ATOM      5  C   UNL     1     110.806   7.287 -26.825  1.00  0.00     0.004 A 
ATOM      6  C   UNL     1     110.416   7.051 -25.504  1.00  0.00     0.046 A 
ATOM      7  C   UNL     1     111.103   7.660 -24.444  1.00  0.00     0.118 A 
ENDROOT
BRANCH   7   8
ATOM      8  O   UNL     1     110.710   7.421 -23.127  1.00  0.00    -0.508 OA
ATOM      9  H   UNL     1     111.375   7.127 -22.420  1.00  0.00     0.293 HD
ENDBRANCH   7   8
TORSDOF 1
ENDMDL
MODEL 4
REMARK VINA RESULT:    -4.092      1.422      2.213
REMARK INTER + INTRA:          -4.212
REMARK INTER:                  -4.212
REMARK INTRA:                   0.000
REMARK UNBOUND:                 0.000
REMARK SMILES Cc1ccccc1O
REMARK SMILES IDX 1 1 2 2 3 3 4 4 5 5 6 6 7 7 8 8
REMARK H PARENT 8 9
REMARK Flexibility Score: inf
ROOT
ATOM      1  C   UNL     1     112.662   8.270 -26.174  1.00  0.00     0.048 C 
ATOM      2  C   UNL     1     113.282   9.175 -25.147  1.00  0.00    -0.009 A 
ATOM      3  C   UNL     1     114.350  10.018 -25.499  1.00  0.00     0.007 A 
ATOM      4  C   UNL     1     114.927  10.860 -24.544  1.00  0.00     0.001 A 
ATOM      5  C   UNL     1     114.443  10.869 -23.234  1.00  0.00     0.004 A 
ATOM      6  C   UNL     1     113.382  10.035 -22.875  1.00  0.00     0.046 A 
ATOM      7  C   UNL     1     112.796   9.186 -23.826  1.00  0.00     0.118 A 
ENDROOT
BRANCH   7   8
ATOM      8  O   UNL     1     111.737   8.355 -23.463  1.00  0.00    -0.508 OA
ATOM      9  H   UNL     1     111.680   7.396 -23.787  1.00  0.00     0.293 HD
ENDBRANCH   7   8
TORSDOF 1
ENDMDL
MODEL 5
REMARK VINA RESULT:    -3.940     15.074     16.114
REMARK INTER + INTRA:          -4.055
REMARK INTER:                  -4.055
REMARK INTRA:                   0.000
REMARK UNBOUND:                 0.000
REMARK SMILES Cc1ccccc1O
REMARK SMILES IDX 1 1 2 2 3 3 4 4 5 5 6 6 7 7 8 8
REMARK H PARENT 8 9
REMARK Flexibility Score: inf
ROOT
ATOM      1  C   UNL     1     111.540   6.920 -41.370  1.00  0.00     0.048 C 
ATOM      2  C   UNL     1     111.810   8.283 -40.799  1.00  0.00    -0.009 A 
ATOM      3  C   UNL     1     111.684   8.509 -39.417  1.00  0.00     0.007 A 
ATOM      4  C   UNL     1     111.935   9.778 -38.885  1.00  0.00     0.001 A 
ATOM      5  C   UNL     1     112.313  10.827 -39.725  1.00  0.00     0.004 A 
ATOM      6  C   UNL     1     112.441  10.612 -41.099  1.00  0.00     0.046 A 
ATOM      7  C   UNL     1     112.191   9.344 -41.643  1.00  0.00     0.118 A 
ENDROOT
BRANCH   7   8
ATOM      8  O   UNL     1     112.319   9.134 -43.016  1.00  0.00    -0.508 OA
ATOM      9  H   UNL     1     113.012   8.496 -43.392  1.00  0.00     0.293 HD
ENDBRANCH   7   8
TORSDOF 1
ENDMDL
MODEL 6
REMARK VINA RESULT:    -3.869      1.858      2.764
REMARK INTER + INTRA:          -3.982
REMARK INTER:                  -3.982
REMARK INTRA:                   0.000
REMARK UNBOUND:                 0.000
REMARK SMILES Cc1ccccc1O
REMARK SMILES IDX 1 1 2 2 3 3 4 4 5 5 6 6 7 7 8 8
REMARK H PARENT 8 9
REMARK Flexibility Score: inf
ROOT
ATOM      1  C   UNL     1     111.433   7.798 -23.996  1.00  0.00     0.048 C 
ATOM      2  C   UNL     1     112.576   8.741 -24.250  1.00  0.00    -0.009 A 
ATOM      3  C   UNL     1     113.004   9.622 -23.242  1.00  0.00     0.007 A 
ATOM      4  C   UNL     1     114.067  10.499 -23.477  1.00  0.00     0.001 A 
ATOM      5  C   UNL     1     114.709  10.504 -24.717  1.00  0.00     0.004 A 
ATOM      6  C   UNL     1     114.291   9.632 -25.725  1.00  0.00     0.046 A 
ATOM      7  C   UNL     1     113.226   8.748 -25.499  1.00  0.00     0.118 A 
ENDROOT
BRANCH   7   8
ATOM      8  O   UNL     1     112.811   7.879 -26.508  1.00  0.00    -0.508 OA
ATOM      9  H   UNL     1     113.051   8.041 -27.480  1.00  0.00     0.293 HD
ENDBRANCH   7   8
TORSDOF 1
ENDMDL
MODEL 7
REMARK VINA RESULT:    -3.808     15.752     16.918
REMARK INTER + INTRA:          -3.920
REMARK INTER:                  -3.920
REMARK INTRA:                   0.000
REMARK UNBOUND:                 0.000
REMARK SMILES Cc1ccccc1O
REMARK SMILES IDX 1 1 2 2 3 3 4 4 5 5 6 6 7 7 8 8
REMARK H PARENT 8 9
REMARK Flexibility Score: inf
ROOT
ATOM      1  C   UNL     1     112.239   8.364 -42.039  1.00  0.00     0.048 C 
ATOM      2  C   UNL     1     111.239   7.262 -41.834  1.00  0.00    -0.009 A 
ATOM      3  C   UNL     1     110.440   6.823 -42.904  1.00  0.00     0.007 A 
ATOM      4  C   UNL     1     109.508   5.798 -42.714  1.00  0.00     0.001 A 
ATOM      5  C   UNL     1     109.368   5.203 -41.458  1.00  0.00     0.004 A 
ATOM      6  C   UNL     1     110.158   5.633 -40.388  1.00  0.00     0.046 A 
ATOM      7  C   UNL     1     111.095   6.660 -40.569  1.00  0.00     0.118 A 
ENDROOT
BRANCH   7   8
ATOM      8  O   UNL     1     111.881   7.086 -39.499  1.00  0.00    -0.508 OA
ATOM      9  H   UNL     1     111.550   7.784 -38.842  1.00  0.00     0.293 HD
ENDBRANCH   7   8
TORSDOF 1
ENDMDL
MODEL 8
REMARK VINA RESULT:    -3.722      2.105      3.552
REMARK INTER + INTRA:          -3.831
REMARK INTER:                  -3.831
REMARK INTRA:                   0.000
REMARK UNBOUND:                 0.000
REMARK SMILES Cc1ccccc1O
REMARK SMILES IDX 1 1 2 2 3 3 4 4 5 5 6 6 7 7 8 8
REMARK H PARENT 8 9
REMARK Flexibility Score: inf
ROOT
ATOM      1  C   UNL     1     113.508  10.396 -23.369  1.00  0.00     0.048 C 
ATOM      2  C   UNL     1     112.588   9.536 -24.188  1.00  0.00    -0.009 A 
ATOM      3  C   UNL     1     112.227   8.254 -23.736  1.00  0.00     0.007 A 
ATOM      4  C   UNL     1     111.372   7.453 -24.498  1.00  0.00     0.001 A 
ATOM      5  C   UNL     1     110.870   7.923 -25.714  1.00  0.00     0.004 A 
ATOM      6  C   UNL     1     111.223   9.195 -26.171  1.00  0.00     0.046 A 
ATOM      7  C   UNL     1     112.081  10.006 -25.414  1.00  0.00     0.118 A 
ENDROOT
BRANCH   7   8
ATOM      8  O   UNL     1     112.431  11.275 -25.875  1.00  0.00    -0.508 OA
ATOM      9  H   UNL     1     111.729  11.976 -26.086  1.00  0.00     0.293 HD
ENDBRANCH   7   8
TORSDOF 1
ENDMDL
MODEL 9
REMARK VINA RESULT:    -3.717     15.649     16.672
REMARK INTER + INTRA:          -3.826
REMARK INTER:                  -3.826
REMARK INTRA:                   0.000
REMARK UNBOUND:                 0.000
REMARK SMILES Cc1ccccc1O
REMARK SMILES IDX 1 1 2 2 3 3 4 4 5 5 6 6 7 7 8 8
REMARK H PARENT 8 9
REMARK Flexibility Score: inf
ROOT
ATOM      1  C   UNL     1     109.977   6.559 -43.058  1.00  0.00     0.048 C 
ATOM      2  C   UNL     1     110.166   7.427 -41.847  1.00  0.00    -0.009 A 
ATOM      3  C   UNL     1     109.234   7.388 -40.795  1.00  0.00     0.007 A 
ATOM      4  C   UNL     1     109.410   8.196 -39.667  1.00  0.00     0.001 A 
ATOM      5  C   UNL     1     110.514   9.047 -39.581  1.00  0.00     0.004 A 
ATOM      6  C   UNL     1     111.445   9.093 -40.621  1.00  0.00     0.046 A 
ATOM      7  C   UNL     1     111.278   8.286 -41.756  1.00  0.00     0.118 A 
ENDROOT
BRANCH   7   8
ATOM      8  O   UNL     1     112.210   8.335 -42.792  1.00  0.00    -0.508 OA
ATOM      9  H   UNL     1     111.947   8.619 -43.729  1.00  0.00     0.293 HD
ENDBRANCH   7   8
TORSDOF 1
ENDMDL
