MODEL 1
REMARK VINA RESULT:    -3.957      0.000      0.000
REMARK INTER + INTRA:          -7.512
REMARK INTER:                  -6.733
REMARK INTRA:                  -0.780
REMARK UNBOUND:                -0.780
REMARK SMILES CCCCCCCCCCCCCC(=O)[O-]
REMARK SMILES IDX 8 1 9 2 10 3 11 4 12 5 13 6 14 7 15 8 16 9 7 10 6 11 5 12
REMARK SMILES IDX 4 13 3 14 2 15 1 16
REMARK H PARENT
REMARK Flexibility Score: inf
ROOT
ATOM      1  C   UNL     1       2.962 -37.160  20.143  1.00  0.00     0.000 C 
ENDROOT
BRANCH   1   2
ATOM      2  C   UNL     1       4.369 -37.496  19.632  1.00  0.00     0.000 C 
BRANCH   2   3
ATOM      3  C   UNL     1       5.413 -37.326  20.741  1.00  0.00     0.000 C 
BRANCH   3   4
ATOM      4  C   UNL     1       5.664 -35.840  21.039  1.00  0.00     0.000 C 
BRANCH   4   5
ATOM      5  C   UNL     1       5.697 -35.530  22.547  1.00  0.00     0.006 C 
BRANCH   5   6
ATOM      6  C   UNL     1       5.987 -36.749  23.437  1.00  0.00     0.053 C 
BRANCH   6   7
ATOM      7  C   UNL     1       5.760 -36.452  24.888  1.00  0.00     0.041 C 
ATOM      8  O   UNL     1       5.211 -37.309  25.631  1.00  0.00    -0.550 OA
ATOM      9  O   UNL     1       6.125 -35.219  25.412  1.00  0.00    -0.550 OA
ENDBRANCH   6   7
ENDBRANCH   5   6
ENDBRANCH   4   5
ENDBRANCH   3   4
ENDBRANCH   2   3
ENDBRANCH   1   2
BRANCH   1  10
ATOM     10  C   UNL     1       1.893 -37.589  19.133  1.00  0.00     0.000 C 
BRANCH  10  11
ATOM     11  C   UNL     1       2.504 -37.812  17.744  1.00  0.00    -0.000 C 
BRANCH  11  12
ATOM     12  C   UNL     1       1.625 -37.185  16.651  1.00  0.00    -0.000 C 
BRANCH  12  13
ATOM     13  C   UNL     1       2.395 -36.192  15.763  1.00  0.00    -0.000 C 
BRANCH  13  14
ATOM     14  C   UNL     1       2.688 -36.692  14.336  1.00  0.00    -0.000 C 
BRANCH  14  15
ATOM     15  C   UNL     1       4.119 -37.236  14.148  1.00  0.00    -0.003 C 
ATOM     16  C   UNL     1       4.188 -38.759  14.274  1.00  0.00     0.004 C 
ENDBRANCH  14  15
ENDBRANCH  13  14
ENDBRANCH  12  13
ENDBRANCH  11  12
ENDBRANCH  10  11
ENDBRANCH   1  10
TORSDOF 12
ENDMDL
MODEL 2
REMARK VINA RESULT:    -3.581      4.272      7.977
REMARK INTER + INTRA:          -6.872
REMARK INTER:                  -6.149
REMARK INTRA:                  -0.724
REMARK UNBOUND:                -0.780
REMARK SMILES CCCCCCCCCCCCCC(=O)[O-]
REMARK SMILES IDX 8 1 9 2 10 3 11 4 12 5 13 6 14 7 15 8 16 9 7 10 6 11 5 12
REMARK SMILES IDX 4 13 3 14 2 15 1 16
REMARK H PARENT
REMARK Flexibility Score: inf
ROOT
ATOM      1  C   UNL     1       3.418 -37.318  19.523  1.00  0.00     0.000 C 
ENDROOT
BRANCH   1   2
ATOM      2  C   UNL     1       1.943 -37.704  19.690  1.00  0.00     0.000 C 
BRANCH   2   3
ATOM      3  C   UNL     1       1.295 -38.003  18.333  1.00  0.00     0.000 C 
BRANCH   3   4
ATOM      4  C   UNL     1       1.308 -36.759  17.430  1.00  0.00     0.000 C 
BRANCH   4   5
ATOM      5  C   UNL     1       1.852 -37.051  16.020  1.00  0.00     0.006 C 
BRANCH   5   6
ATOM      6  C   UNL     1       3.145 -37.881  15.999  1.00  0.00     0.053 C 
BRANCH   6   7
ATOM      7  C   UNL     1       3.783 -37.895  14.644  1.00  0.00     0.041 C 
ATOM      8  O   UNL     1       4.319 -38.948  14.208  1.00  0.00    -0.550 OA
ATOM      9  O   UNL     1       3.815 -36.738  13.877  1.00  0.00    -0.550 OA
ENDBRANCH   6   7
ENDBRANCH   5   6
ENDBRANCH   4   5
ENDBRANCH   3   4
ENDBRANCH   2   3
ENDBRANCH   1   2
BRANCH   1  10
ATOM     10  C   UNL     1       3.764 -36.090  20.373  1.00  0.00     0.000 C 
BRANCH  10  11
ATOM     11  C   UNL     1       4.979 -35.350  19.801  1.00  0.00    -0.000 C 
BRANCH  11  12
ATOM     12  C   UNL     1       6.125 -35.304  20.823  1.00  0.00    -0.000 C 
BRANCH  12  13
ATOM     13  C   UNL     1       5.741 -35.929  22.176  1.00  0.00    -0.000 C 
BRANCH  13  14
ATOM     14  C   UNL     1       5.408 -34.916  23.287  1.00  0.00    -0.000 C 
BRANCH  14  15
ATOM     15  C   UNL     1       5.869 -35.357  24.691  1.00  0.00    -0.003 C 
ATOM     16  C   UNL     1       5.613 -36.842  24.952  1.00  0.00     0.004 C 
ENDBRANCH  14  15
ENDBRANCH  13  14
ENDBRANCH  12  13
ENDBRANCH  11  12
ENDBRANCH  10  11
ENDBRANCH   1  10
TORSDOF 12
ENDMDL
MODEL 3
REMARK VINA RESULT:    -3.546      1.117      1.601
REMARK INTER + INTRA:          -6.813
REMARK INTER:                  -6.074
REMARK INTRA:                  -0.739
REMARK UNBOUND:                -0.780
REMARK SMILES CCCCCCCCCCCCCC(=O)[O-]
REMARK SMILES IDX 8 1 9 2 10 3 11 4 12 5 13 6 14 7 15 8 16 9 7 10 6 11 5 12
REMARK SMILES IDX 4 13 3 14 2 15 1 16
REMARK H PARENT
REMARK Flexibility Score: inf
ROOT
ATOM      1  C   UNL     1       3.848 -36.000  20.267  1.00  0.00     0.000 C 
ENDROOT
BRANCH   1   2
ATOM      2  C   UNL     1       5.337 -36.358  20.338  1.00  0.00     0.000 C 
BRANCH   2   3
ATOM      3  C   UNL     1       5.828 -36.391  21.790  1.00  0.00     0.000 C 
BRANCH   3   4
ATOM      4  C   UNL     1       5.203 -35.252  22.609  1.00  0.00     0.000 C 
BRANCH   4   5
ATOM      5  C   UNL     1       5.579 -35.312  24.101  1.00  0.00     0.006 C 
BRANCH   5   6
ATOM      6  C   UNL     1       6.124 -36.673  24.561  1.00  0.00     0.053 C 
BRANCH   6   7
ATOM      7  C   UNL     1       5.126 -37.429  25.383  1.00  0.00     0.041 C 
ATOM      8  O   UNL     1       4.401 -36.822  26.215  1.00  0.00    -0.550 OA
ATOM      9  O   UNL     1       5.020 -38.808  25.255  1.00  0.00    -0.550 OA
ENDBRANCH   6   7
ENDBRANCH   5   6
ENDBRANCH   4   5
ENDBRANCH   3   4
ENDBRANCH   2   3
ENDBRANCH   1   2
BRANCH   1  10
ATOM     10  C   UNL     1       3.032 -37.151  19.669  1.00  0.00     0.000 C 
BRANCH  10  11
ATOM     11  C   UNL     1       3.564 -37.541  18.284  1.00  0.00    -0.000 C 
BRANCH  11  12
ATOM     12  C   UNL     1       3.358 -36.400  17.277  1.00  0.00    -0.000 C 
BRANCH  12  13
ATOM     13  C   UNL     1       1.987 -36.461  16.580  1.00  0.00    -0.000 C 
BRANCH  13  14
ATOM     14  C   UNL     1       2.037 -36.804  15.079  1.00  0.00    -0.000 C 
BRANCH  14  15
ATOM     15  C   UNL     1       3.462 -36.810  14.489  1.00  0.00    -0.003 C 
ATOM     16  C   UNL     1       3.996 -38.224  14.261  1.00  0.00     0.004 C 
ENDBRANCH  14  15
ENDBRANCH  13  14
ENDBRANCH  12  13
ENDBRANCH  11  12
ENDBRANCH  10  11
ENDBRANCH   1  10
TORSDOF 12
ENDMDL
MODEL 4
REMARK VINA RESULT:    -2.676      4.304      8.350
REMARK INTER + INTRA:          -5.334
REMARK INTER:                  -4.599
REMARK INTRA:                  -0.735
REMARK UNBOUND:                -0.780
REMARK SMILES CCCCCCCCCCCCCC(=O)[O-]
REMARK SMILES IDX 8 1 9 2 10 3 11 4 12 5 13 6 14 7 15 8 16 9 7 10 6 11 5 12
REMARK SMILES IDX 4 13 3 14 2 15 1 16
REMARK H PARENT
REMARK Flexibility Score: inf
ROOT
ATOM      1  C   UNL     1       4.028 -35.499  21.072  1.00  0.00     0.000 C 
ENDROOT
BRANCH   1   2
ATOM      2  C   UNL     1       3.406 -36.758  20.456  1.00  0.00     0.000 C 
BRANCH   2   3
ATOM      3  C   UNL     1       4.165 -37.189  19.196  1.00  0.00     0.000 C 
BRANCH   3   4
ATOM      4  C   UNL     1       4.419 -35.991  18.270  1.00  0.00     0.000 C 
BRANCH   4   5
ATOM      5  C   UNL     1       3.501 -35.986  17.034  1.00  0.00     0.006 C 
BRANCH   5   6
ATOM      6  C   UNL     1       3.106 -37.384  16.534  1.00  0.00     0.053 C 
BRANCH   6   7
ATOM      7  C   UNL     1       3.217 -37.501  15.044  1.00  0.00     0.041 C 
ATOM      8  O   UNL     1       2.539 -36.746  14.298  1.00  0.00    -0.550 OA
ATOM      9  O   UNL     1       4.043 -38.465  14.482  1.00  0.00    -0.550 OA
ENDBRANCH   6   7
ENDBRANCH   5   6
ENDBRANCH   4   5
ENDBRANCH   3   4
ENDBRANCH   2   3
ENDBRANCH   1   2
BRANCH   1  10
ATOM     10  C   UNL     1       5.176 -35.861  22.022  1.00  0.00     0.000 C 
BRANCH  10  11
ATOM     11  C   UNL     1       5.633 -34.637  22.824  1.00  0.00    -0.000 C 
BRANCH  11  12
ATOM     12  C   UNL     1       6.125 -35.049  24.220  1.00  0.00    -0.000 C 
BRANCH  12  13
ATOM     13  C   UNL     1       5.858 -36.531  24.532  1.00  0.00    -0.000 C 
BRANCH  13  14
ATOM     14  C   UNL     1       4.959 -36.784  25.758  1.00  0.00    -0.000 C 
BRANCH  14  15
ATOM     15  C   UNL     1       4.680 -38.277  26.027  1.00  0.00    -0.003 C 
ATOM     16  C   UNL     1       4.984 -39.158  24.815  1.00  0.00     0.004 C 
ENDBRANCH  14  15
ENDBRANCH  13  14
ENDBRANCH  12  13
ENDBRANCH  11  12
ENDBRANCH  10  11
ENDBRANCH   1  10
TORSDOF 12
ENDMDL
MODEL 5
REMARK VINA RESULT:    -2.593      3.042      4.152
REMARK INTER + INTRA:          -5.192
REMARK INTER:                  -4.282
REMARK INTRA:                  -0.910
REMARK UNBOUND:                -0.780
REMARK SMILES CCCCCCCCCCCCCC(=O)[O-]
REMARK SMILES IDX 8 1 9 2 10 3 11 4 12 5 13 6 14 7 15 8 16 9 7 10 6 11 5 12
REMARK SMILES IDX 4 13 3 14 2 15 1 16
REMARK H PARENT
REMARK Flexibility Score: inf
ROOT
ATOM      1  C   UNL     1       5.075 -34.791  19.900  1.00  0.00     0.000 C 
ENDROOT
BRANCH   1   2
ATOM      2  C   UNL     1       6.053 -35.617  20.743  1.00  0.00     0.000 C 
BRANCH   2   3
ATOM      3  C   UNL     1       5.338 -36.787  21.429  1.00  0.00     0.000 C 
BRANCH   3   4
ATOM      4  C   UNL     1       5.293 -38.019  20.513  1.00  0.00     0.000 C 
BRANCH   4   5
ATOM      5  C   UNL     1       4.013 -38.081  19.658  1.00  0.00     0.006 C 
BRANCH   5   6
ATOM      6  C   UNL     1       2.810 -37.342  20.266  1.00  0.00     0.053 C 
BRANCH   6   7
ATOM      7  C   UNL     1       1.524 -37.713  19.593  1.00  0.00     0.041 C 
ATOM      8  O   UNL     1       1.539 -38.350  18.507  1.00  0.00    -0.550 OA
ATOM      9  O   UNL     1       0.311 -37.328  20.148  1.00  0.00    -0.550 OA
ENDBRANCH   6   7
ENDBRANCH   5   6
ENDBRANCH   4   5
ENDBRANCH   3   4
ENDBRANCH   2   3
ENDBRANCH   1   2
BRANCH   1  10
ATOM     10  C   UNL     1       5.306 -35.023  18.403  1.00  0.00     0.000 C 
BRANCH  10  11
ATOM     11  C   UNL     1       3.988 -34.945  17.623  1.00  0.00    -0.000 C 
BRANCH  11  12
ATOM     12  C   UNL     1       3.763 -36.220  16.797  1.00  0.00    -0.000 C 
BRANCH  12  13
ATOM     13  C   UNL     1       2.395 -36.240  16.092  1.00  0.00    -0.000 C 
BRANCH  13  14
ATOM     14  C   UNL     1       2.413 -36.803  14.658  1.00  0.00    -0.000 C 
BRANCH  14  15
ATOM     15  C   UNL     1       3.825 -37.145  14.141  1.00  0.00    -0.003 C 
ATOM     16  C   UNL     1       4.143 -38.636  14.249  1.00  0.00     0.004 C 
ENDBRANCH  14  15
ENDBRANCH  13  14
ENDBRANCH  12  13
ENDBRANCH  11  12
ENDBRANCH  10  11
ENDBRANCH   1  10
TORSDOF 12
ENDMDL
MODEL 6
REMARK VINA RESULT:    -2.219      3.636      7.327
REMARK INTER + INTRA:          -4.556
REMARK INTER:                  -3.460
REMARK INTRA:                  -1.096
REMARK UNBOUND:                -0.780
REMARK SMILES CCCCCCCCCCCCCC(=O)[O-]
REMARK SMILES IDX 8 1 9 2 10 3 11 4 12 5 13 6 14 7 15 8 16 9 7 10 6 11 5 12
REMARK SMILES IDX 4 13 3 14 2 15 1 16
REMARK H PARENT
REMARK Flexibility Score: inf
ROOT
ATOM      1  C   UNL     1       5.681 -35.216  23.180  1.00  0.00     0.000 C 
ENDROOT
BRANCH   1   2
ATOM      2  C   UNL     1       4.671 -35.422  22.045  1.00  0.00     0.000 C 
BRANCH   2   3
ATOM      3  C   UNL     1       5.193 -36.438  21.021  1.00  0.00     0.000 C 
BRANCH   3   4
ATOM      4  C   UNL     1       5.374 -35.787  19.642  1.00  0.00     0.000 C 
BRANCH   4   5
ATOM      5  C   UNL     1       4.216 -36.100  18.677  1.00  0.00     0.006 C 
BRANCH   5   6
ATOM      6  C   UNL     1       3.597 -37.495  18.862  1.00  0.00     0.053 C 
BRANCH   6   7
ATOM      7  C   UNL     1       2.188 -37.557  18.357  1.00  0.00     0.041 C 
ATOM      8  O   UNL     1       1.888 -37.028  17.254  1.00  0.00    -0.550 OA
ATOM      9  O   UNL     1       1.202 -38.169  19.118  1.00  0.00    -0.550 OA
ENDBRANCH   6   7
ENDBRANCH   5   6
ENDBRANCH   4   5
ENDBRANCH   3   4
ENDBRANCH   2   3
ENDBRANCH   1   2
BRANCH   1  10
ATOM     10  C   UNL     1       6.125 -36.558  23.773  1.00  0.00     0.000 C 
BRANCH  10  11
ATOM     11  C   UNL     1       5.752 -36.655  25.257  1.00  0.00    -0.000 C 
BRANCH  11  12
ATOM     12  C   UNL     1       5.075 -37.998  25.566  1.00  0.00    -0.000 C 
BRANCH  12  13
ATOM     13  C   UNL     1       4.880 -38.869  24.313  1.00  0.00    -0.000 C 
BRANCH  13  14
ATOM     14  C   UNL     1       5.305 -40.342  24.474  1.00  0.00    -0.000 C 
BRANCH  14  15
ATOM     15  C   UNL     1       5.564 -41.065  23.136  1.00  0.00    -0.003 C 
ATOM     16  C   UNL     1       5.536 -40.112  21.941  1.00  0.00     0.004 C 
ENDBRANCH  14  15
ENDBRANCH  13  14
ENDBRANCH  12  13
ENDBRANCH  11  12
ENDBRANCH  10  11
ENDBRANCH   1  10
TORSDOF 12
ENDMDL
MODEL 7
REMARK VINA RESULT:    -2.219      1.477      3.406
REMARK INTER + INTRA:          -4.555
REMARK INTER:                  -3.574
REMARK INTRA:                  -0.981
REMARK UNBOUND:                -0.780
REMARK SMILES CCCCCCCCCCCCCC(=O)[O-]
REMARK SMILES IDX 8 1 9 2 10 3 11 4 12 5 13 6 14 7 15 8 16 9 7 10 6 11 5 12
REMARK SMILES IDX 4 13 3 14 2 15 1 16
REMARK H PARENT
REMARK Flexibility Score: inf
ROOT
ATOM      1  C   UNL     1       4.241 -35.730  17.852  1.00  0.00     0.000 C 
ENDROOT
BRANCH   1   2
ATOM      2  C   UNL     1       5.058 -34.552  18.396  1.00  0.00     0.000 C 
BRANCH   2   3
ATOM      3  C   UNL     1       6.033 -35.013  19.485  1.00  0.00     0.000 C 
BRANCH   3   4
ATOM      4  C   UNL     1       5.559 -36.325  20.129  1.00  0.00     0.000 C 
BRANCH   4   5
ATOM      5  C   UNL     1       5.799 -36.366  21.649  1.00  0.00     0.006 C 
BRANCH   5   6
ATOM      6  C   UNL     1       5.095 -35.245  22.430  1.00  0.00     0.053 C 
BRANCH   6   7
ATOM      7  C   UNL     1       5.651 -35.089  23.813  1.00  0.00     0.041 C 
ATOM      8  O   UNL     1       6.121 -33.981  24.184  1.00  0.00    -0.550 OA
ATOM      9  O   UNL     1       5.680 -36.174  24.678  1.00  0.00    -0.550 OA
ENDBRANCH   6   7
ENDBRANCH   5   6
ENDBRANCH   4   5
ENDBRANCH   3   4
ENDBRANCH   2   3
ENDBRANCH   1   2
BRANCH   1  10
ATOM     10  C   UNL     1       3.382 -35.299  16.658  1.00  0.00     0.000 C 
BRANCH  10  11
ATOM     11  C   UNL     1       3.092 -36.487  15.732  1.00  0.00    -0.000 C 
BRANCH  11  12
ATOM     12  C   UNL     1       2.512 -37.669  16.522  1.00  0.00    -0.000 C 
BRANCH  12  13
ATOM     13  C   UNL     1       1.227 -37.303  17.285  1.00  0.00    -0.000 C 
BRANCH  13  14
ATOM     14  C   UNL     1       1.119 -37.904  18.699  1.00  0.00    -0.000 C 
BRANCH  14  15
ATOM     15  C   UNL     1       2.331 -37.594  19.601  1.00  0.00    -0.003 C 
ATOM     16  C   UNL     1       1.962 -36.715  20.797  1.00  0.00     0.004 C 
ENDBRANCH  14  15
ENDBRANCH  13  14
ENDBRANCH  12  13
ENDBRANCH  11  12
ENDBRANCH  10  11
ENDBRANCH   1  10
TORSDOF 12
ENDMDL
