MODEL 1
REMARK VINA RESULT:    -6.946      0.000      0.000
REMARK INTER + INTRA:          -8.927
REMARK INTER:                  -8.571
REMARK INTRA:                  -0.357
REMARK UNBOUND:                -0.357
REMARK SMILES O=c1c(O)c(-c2cc(O)c(O)c(O)c2)oc2cc(O)cc(O)c12
REMARK SMILES IDX 5 1 3 2 2 3 1 4 23 5 21 6 20 7 18 8 17 9 16 10 15 11 6 12
REMARK SMILES IDX 7 13 8 14 14 15 10 16 12 17 9 18 11 20 13 22 4 24 22 26
REMARK SMILES IDX 19 28
REMARK H PARENT 9 19 11 21 13 23 4 25 22 27 19 29
REMARK Flexibility Score: inf
ROOT
ATOM      1  C   UNL     1       3.120  -0.318 -24.388  1.00  0.00     0.180 A 
ATOM      2  C   UNL     1       3.459  -0.047 -25.725  1.00  0.00     0.208 A 
ATOM      3  C   UNL     1       4.080   1.174 -26.035  1.00  0.00     0.238 A 
ATOM      4  O   UNL     1       4.431   1.388 -27.224  1.00  0.00    -0.285 OA
ATOM      5  C   UNL     1       4.337   2.114 -25.009  1.00  0.00     0.111 A 
ATOM      6  C   UNL     1       4.924   3.399 -25.216  1.00  0.00     0.134 A 
ATOM      7  C   UNL     1       5.252   4.195 -24.111  1.00  0.00     0.093 A 
ATOM      8  C   UNL     1       4.954   3.778 -22.810  1.00  0.00     0.123 A 
ATOM      9  C   UNL     1       4.327   2.553 -22.603  1.00  0.00     0.094 A 
ATOM     10  C   UNL     1       4.021   1.721 -23.683  1.00  0.00     0.146 A 
ATOM     11  O   UNL     1       3.433   0.556 -23.439  1.00  0.00    -0.452 OA
ENDROOT
BRANCH   1  12
ATOM     12  C   UNL     1       2.441  -1.572 -23.986  1.00  0.00     0.029 A 
ATOM     13  C   UNL     1       1.042  -1.648 -24.040  1.00  0.00     0.062 A 
ATOM     14  C   UNL     1       0.376  -2.826 -23.685  1.00  0.00     0.162 A 
ATOM     15  C   UNL     1       3.173  -2.710 -23.606  1.00  0.00     0.062 A 
ATOM     16  C   UNL     1       1.111  -3.954 -23.286  1.00  0.00     0.200 A 
ATOM     17  C   UNL     1       2.514  -3.894 -23.251  1.00  0.00     0.162 A 
BRANCH  14  18
ATOM     18  O   UNL     1      -1.017  -2.855 -23.739  1.00  0.00    -0.504 OA
ATOM     19  H   UNL     1      -1.591  -2.239 -23.176  1.00  0.00     0.293 HD
ENDBRANCH  14  18
BRANCH  16  20
ATOM     20  O   UNL     1       0.438  -5.125 -22.931  1.00  0.00    -0.502 OA
ATOM     21  H   UNL     1      -0.370  -5.458 -23.443  1.00  0.00     0.293 HD
ENDBRANCH  16  20
BRANCH  17  22
ATOM     22  O   UNL     1       3.251  -5.016 -22.869  1.00  0.00    -0.504 OA
ATOM     23  H   UNL     1       2.989  -5.950 -23.162  1.00  0.00     0.293 HD
ENDBRANCH  17  22
ENDBRANCH   1  12
BRANCH   2  24
ATOM     24  O   UNL     1       3.216  -0.999 -26.719  1.00  0.00    -0.502 OA
ATOM     25  H   UNL     1       2.379  -1.570 -26.732  1.00  0.00     0.293 HD
ENDBRANCH   2  24
BRANCH   6  26
ATOM     26  O   UNL     1       5.177   3.948 -26.477  1.00  0.00    -0.507 OA
ATOM     27  H   UNL     1       5.618   4.842 -26.636  1.00  0.00     0.293 HD
ENDBRANCH   6  26
BRANCH   8  28
ATOM     28  O   UNL     1       5.269   4.584 -21.718  1.00  0.00    -0.508 OA
ATOM     29  H   UNL     1       5.641   5.519 -21.837  1.00  0.00     0.293 HD
ENDBRANCH   8  28
TORSDOF 7
ENDMDL
MODEL 2
REMARK VINA RESULT:    -6.921      1.272      7.145
REMARK INTER + INTRA:          -8.896
REMARK INTER:                  -8.532
REMARK INTRA:                  -0.364
REMARK UNBOUND:                -0.357
REMARK SMILES O=c1c(O)c(-c2cc(O)c(O)c(O)c2)oc2cc(O)cc(O)c12
REMARK SMILES IDX 5 1 3 2 2 3 1 4 23 5 21 6 20 7 18 8 17 9 16 10 15 11 6 12
REMARK SMILES IDX 7 13 8 14 14 15 10 16 12 17 9 18 11 20 13 22 4 24 22 26
REMARK SMILES IDX 19 28
REMARK H PARENT 9 19 11 21 13 23 4 25 22 27 19 29
REMARK Flexibility Score: inf
ROOT
ATOM      1  C   UNL     1       3.777   0.004 -23.533  1.00  0.00     0.180 A 
ATOM      2  C   UNL     1       4.683  -1.063 -23.396  1.00  0.00     0.208 A 
ATOM      3  C   UNL     1       4.184  -2.373 -23.314  1.00  0.00     0.238 A 
ATOM      4  O   UNL     1       5.002  -3.327 -23.248  1.00  0.00    -0.285 OA
ATOM      5  C   UNL     1       2.788  -2.599 -23.352  1.00  0.00     0.111 A 
ATOM      6  C   UNL     1       2.171  -3.881 -23.237  1.00  0.00     0.134 A 
ATOM      7  C   UNL     1       0.787  -4.001 -23.417  1.00  0.00     0.093 A 
ATOM      8  C   UNL     1      -0.009  -2.875 -23.646  1.00  0.00     0.123 A 
ATOM      9  C   UNL     1       0.576  -1.614 -23.701  1.00  0.00     0.094 A 
ATOM     10  C   UNL     1       1.959  -1.466 -23.560  1.00  0.00     0.146 A 
ATOM     11  O   UNL     1       2.476  -0.246 -23.631  1.00  0.00    -0.452 OA
ENDROOT
BRANCH   1  12
ATOM     12  C   UNL     1       4.224   1.414 -23.600  1.00  0.00     0.029 A 
ATOM     13  C   UNL     1       4.477   1.999 -24.849  1.00  0.00     0.062 A 
ATOM     14  C   UNL     1       4.882   3.335 -24.945  1.00  0.00     0.162 A 
ATOM     15  C   UNL     1       4.347   2.198 -22.441  1.00  0.00     0.062 A 
ATOM     16  C   UNL     1       5.023   4.110 -23.781  1.00  0.00     0.200 A 
ATOM     17  C   UNL     1       4.750   3.538 -22.527  1.00  0.00     0.162 A 
BRANCH  14  18
ATOM     18  O   UNL     1       5.136   3.874 -26.205  1.00  0.00    -0.504 OA
ATOM     19  H   UNL     1       4.422   3.933 -26.920  1.00  0.00     0.293 HD
ENDBRANCH  14  18
BRANCH  16  20
ATOM     20  O   UNL     1       5.429   5.441 -23.884  1.00  0.00    -0.502 OA
ATOM     21  H   UNL     1       5.411   6.073 -23.093  1.00  0.00     0.293 HD
ENDBRANCH  16  20
BRANCH  17  22
ATOM     22  O   UNL     1       4.875   4.305 -21.369  1.00  0.00    -0.504 OA
ATOM     23  H   UNL     1       5.535   5.072 -21.307  1.00  0.00     0.293 HD
ENDBRANCH  17  22
ENDBRANCH   1  12
BRANCH   2  24
ATOM     24  O   UNL     1       6.059  -0.818 -23.384  1.00  0.00    -0.502 OA
ATOM     25  H   UNL     1       6.453   0.085 -23.620  1.00  0.00     0.293 HD
ENDBRANCH   2  24
BRANCH   6  26
ATOM     26  O   UNL     1       2.862  -5.054 -22.919  1.00  0.00    -0.507 OA
ATOM     27  H   UNL     1       2.430  -5.955 -22.774  1.00  0.00     0.293 HD
ENDBRANCH   6  26
BRANCH   8  28
ATOM     28  O   UNL     1      -1.387  -3.002 -23.810  1.00  0.00    -0.508 OA
ATOM     29  H   UNL     1      -1.914  -3.726 -23.335  1.00  0.00     0.293 HD
ENDBRANCH   8  28
TORSDOF 7
ENDMDL
MODEL 3
REMARK VINA RESULT:    -6.887      0.108      1.757
REMARK INTER + INTRA:          -8.854
REMARK INTER:                  -8.486
REMARK INTRA:                  -0.368
REMARK UNBOUND:                -0.357
REMARK SMILES O=c1c(O)c(-c2cc(O)c(O)c(O)c2)oc2cc(O)cc(O)c12
REMARK SMILES IDX 5 1 3 2 2 3 1 4 23 5 21 6 20 7 18 8 17 9 16 10 15 11 6 12
REMARK SMILES IDX 7 13 8 14 14 15 10 16 12 17 9 18 11 20 13 22 4 24 22 26
REMARK SMILES IDX 19 28
REMARK H PARENT 9 19 11 21 13 23 4 25 22 27 19 29
REMARK Flexibility Score: inf
ROOT
ATOM      1  C   UNL     1       3.038  -0.290 -24.488  1.00  0.00     0.180 A 
ATOM      2  C   UNL     1       3.353   0.016 -25.823  1.00  0.00     0.208 A 
ATOM      3  C   UNL     1       3.987   1.236 -26.111  1.00  0.00     0.238 A 
ATOM      4  O   UNL     1       4.316   1.480 -27.301  1.00  0.00    -0.285 OA
ATOM      5  C   UNL     1       4.281   2.141 -25.063  1.00  0.00     0.111 A 
ATOM      6  C   UNL     1       4.884   3.422 -25.245  1.00  0.00     0.134 A 
ATOM      7  C   UNL     1       5.247   4.180 -24.125  1.00  0.00     0.093 A 
ATOM      8  C   UNL     1       4.971   3.730 -22.831  1.00  0.00     0.123 A 
ATOM      9  C   UNL     1       4.329   2.509 -22.646  1.00  0.00     0.094 A 
ATOM     10  C   UNL     1       3.987   1.714 -23.743  1.00  0.00     0.146 A 
ATOM     11  O   UNL     1       3.386   0.551 -23.520  1.00  0.00    -0.452 OA
ENDROOT
BRANCH   1  12
ATOM     12  C   UNL     1       2.349  -1.544 -24.108  1.00  0.00     0.029 A 
ATOM     13  C   UNL     1       3.105  -2.647 -23.686  1.00  0.00     0.062 A 
ATOM     14  C   UNL     1       2.479  -3.838 -23.303  1.00  0.00     0.162 A 
ATOM     15  C   UNL     1       0.946  -1.636 -24.107  1.00  0.00     0.062 A 
ATOM     16  C   UNL     1       1.077  -3.932 -23.323  1.00  0.00     0.200 A 
ATOM     17  C   UNL     1       0.311  -2.824 -23.723  1.00  0.00     0.162 A 
BRANCH  14  18
ATOM     18  O   UNL     1       3.268  -4.917 -22.903  1.00  0.00    -0.504 OA
ATOM     19  H   UNL     1       2.971  -5.563 -22.183  1.00  0.00     0.293 HD
ENDBRANCH  14  18
BRANCH  16  20
ATOM     20  O   UNL     1       0.461  -5.125 -22.941  1.00  0.00    -0.502 OA
ATOM     21  H   UNL     1       0.704  -5.607 -22.084  1.00  0.00     0.293 HD
ENDBRANCH  16  20
BRANCH  17  22
ATOM     22  O   UNL     1      -1.082  -2.906 -23.731  1.00  0.00    -0.504 OA
ATOM     23  H   UNL     1      -1.565  -3.771 -23.514  1.00  0.00     0.293 HD
ENDBRANCH  17  22
ENDBRANCH   1  12
BRANCH   2  24
ATOM     24  O   UNL     1       3.074  -0.903 -26.839  1.00  0.00    -0.502 OA
ATOM     25  H   UNL     1       2.557  -0.650 -27.673  1.00  0.00     0.293 HD
ENDBRANCH   2  24
BRANCH   6  26
ATOM     26  O   UNL     1       5.119   4.005 -26.494  1.00  0.00    -0.507 OA
ATOM     27  H   UNL     1       5.535   3.529 -27.281  1.00  0.00     0.293 HD
ENDBRANCH   6  26
BRANCH   8  28
ATOM     28  O   UNL     1       5.322   4.497 -21.722  1.00  0.00    -0.508 OA
ATOM     29  H   UNL     1       6.159   5.069 -21.716  1.00  0.00     0.293 HD
ENDBRANCH   8  28
TORSDOF 7
ENDMDL
MODEL 4
REMARK VINA RESULT:    -6.870      1.889      2.593
REMARK INTER + INTRA:          -8.833
REMARK INTER:                  -8.565
REMARK INTRA:                  -0.268
REMARK UNBOUND:                -0.357
REMARK SMILES O=c1c(O)c(-c2cc(O)c(O)c(O)c2)oc2cc(O)cc(O)c12
REMARK SMILES IDX 5 1 3 2 2 3 1 4 23 5 21 6 20 7 18 8 17 9 16 10 15 11 6 12
REMARK SMILES IDX 7 13 8 14 14 15 10 16 12 17 9 18 11 20 13 22 4 24 22 26
REMARK SMILES IDX 19 28
REMARK H PARENT 9 19 11 21 13 23 4 25 22 27 19 29
REMARK Flexibility Score: inf
ROOT
ATOM      1  C   UNL     1       3.758   0.983 -24.296  1.00  0.00     0.180 A 
ATOM      2  C   UNL     1       3.155   1.492 -25.460  1.00  0.00     0.208 A 
ATOM      3  C   UNL     1       3.240   2.869 -25.723  1.00  0.00     0.238 A 
ATOM      4  O   UNL     1       2.746   3.310 -26.793  1.00  0.00    -0.285 OA
ATOM      5  C   UNL     1       3.910   3.720 -24.813  1.00  0.00     0.111 A 
ATOM      6  C   UNL     1       4.022   5.136 -24.959  1.00  0.00     0.134 A 
ATOM      7  C   UNL     1       4.818   5.862 -24.065  1.00  0.00     0.093 A 
ATOM      8  C   UNL     1       5.456   5.232 -22.993  1.00  0.00     0.123 A 
ATOM      9  C   UNL     1       5.304   3.861 -22.807  1.00  0.00     0.094 A 
ATOM     10  C   UNL     1       4.545   3.103 -23.703  1.00  0.00     0.146 A 
ATOM     11  O   UNL     1       4.436   1.796 -23.495  1.00  0.00    -0.452 OA
ENDROOT
BRANCH   1  12
ATOM     12  C   UNL     1       3.691  -0.453 -23.938  1.00  0.00     0.029 A 
ATOM     13  C   UNL     1       4.470  -1.379 -24.645  1.00  0.00     0.062 A 
ATOM     14  C   UNL     1       4.441  -2.738 -24.315  1.00  0.00     0.162 A 
ATOM     15  C   UNL     1       2.904  -0.901 -22.863  1.00  0.00     0.062 A 
ATOM     16  C   UNL     1       3.637  -3.185 -23.253  1.00  0.00     0.200 A 
ATOM     17  C   UNL     1       2.870  -2.261 -22.524  1.00  0.00     0.162 A 
BRANCH  14  18
ATOM     18  O   UNL     1       5.220  -3.629 -25.054  1.00  0.00    -0.504 OA
ATOM     19  H   UNL     1       4.833  -4.190 -25.803  1.00  0.00     0.293 HD
ENDBRANCH  14  18
BRANCH  16  20
ATOM     20  O   UNL     1       3.612  -4.543 -22.932  1.00  0.00    -0.502 OA
ATOM     21  H   UNL     1       3.582  -5.265 -23.642  1.00  0.00     0.293 HD
ENDBRANCH  16  20
BRANCH  17  22
ATOM     22  O   UNL     1       2.081  -2.696 -21.459  1.00  0.00    -0.504 OA
ATOM     23  H   UNL     1       1.266  -3.281 -21.606  1.00  0.00     0.293 HD
ENDBRANCH  17  22
ENDBRANCH   1  12
BRANCH   2  24
ATOM     24  O   UNL     1       2.518   0.629 -26.356  1.00  0.00    -0.502 OA
ATOM     25  H   UNL     1       2.833  -0.321 -26.513  1.00  0.00     0.293 HD
ENDBRANCH   2  24
BRANCH   6  26
ATOM     26  O   UNL     1       3.353   5.874 -25.940  1.00  0.00    -0.507 OA
ATOM     27  H   UNL     1       3.253   5.592 -26.904  1.00  0.00     0.293 HD
ENDBRANCH   6  26
BRANCH   8  28
ATOM     28  O   UNL     1       6.234   5.965 -22.099  1.00  0.00    -0.508 OA
ATOM     29  H   UNL     1       5.827   6.424 -21.293  1.00  0.00     0.293 HD
ENDBRANCH   8  28
TORSDOF 7
ENDMDL
MODEL 5
REMARK VINA RESULT:    -6.865      1.941      7.058
REMARK INTER + INTRA:          -8.827
REMARK INTER:                  -8.470
REMARK INTRA:                  -0.357
REMARK UNBOUND:                -0.357
REMARK SMILES O=c1c(O)c(-c2cc(O)c(O)c(O)c2)oc2cc(O)cc(O)c12
REMARK SMILES IDX 5 1 3 2 2 3 1 4 23 5 21 6 20 7 18 8 17 9 16 10 15 11 6 12
REMARK SMILES IDX 7 13 8 14 14 15 10 16 12 17 9 18 11 20 13 22 4 24 22 26
REMARK SMILES IDX 19 28
REMARK H PARENT 9 19 11 21 13 23 4 25 22 27 19 29
REMARK Flexibility Score: inf
ROOT
ATOM      1  C   UNL     1       4.302   1.187 -24.254  1.00  0.00     0.180 A 
ATOM      2  C   UNL     1       4.875   0.459 -25.312  1.00  0.00     0.208 A 
ATOM      3  C   UNL     1       4.778  -0.942 -25.304  1.00  0.00     0.238 A 
ATOM      4  O   UNL     1       5.245  -1.584 -26.280  1.00  0.00    -0.285 OA
ATOM      5  C   UNL     1       4.126  -1.597 -24.233  1.00  0.00     0.111 A 
ATOM      6  C   UNL     1       4.005  -3.013 -24.102  1.00  0.00     0.134 A 
ATOM      7  C   UNL     1       3.227  -3.548 -23.069  1.00  0.00     0.093 A 
ATOM      8  C   UNL     1       2.618  -2.719 -22.123  1.00  0.00     0.123 A 
ATOM      9  C   UNL     1       2.779  -1.339 -22.207  1.00  0.00     0.094 A 
ATOM     10  C   UNL     1       3.521  -0.774 -23.248  1.00  0.00     0.146 A 
ATOM     11  O   UNL     1       3.640   0.548 -23.297  1.00  0.00    -0.452 OA
ENDROOT
BRANCH   1  12
ATOM     12  C   UNL     1       4.383   2.664 -24.179  1.00  0.00     0.029 A 
ATOM     13  C   UNL     1       5.496   3.264 -23.572  1.00  0.00     0.062 A 
ATOM     14  C   UNL     1       5.609   4.657 -23.504  1.00  0.00     0.162 A 
ATOM     15  C   UNL     1       3.396   3.481 -24.755  1.00  0.00     0.062 A 
ATOM     16  C   UNL     1       4.609   5.470 -24.063  1.00  0.00     0.200 A 
ATOM     17  C   UNL     1       3.502   4.877 -24.694  1.00  0.00     0.162 A 
BRANCH  14  18
ATOM     18  O   UNL     1       6.725   5.213 -22.879  1.00  0.00    -0.504 OA
ATOM     19  H   UNL     1       6.856   5.173 -21.876  1.00  0.00     0.293 HD
ENDBRANCH  14  18
BRANCH  16  20
ATOM     20  O   UNL     1       4.729   6.858 -23.989  1.00  0.00    -0.502 OA
ATOM     21  H   UNL     1       4.075   7.481 -24.449  1.00  0.00     0.293 HD
ENDBRANCH  16  20
BRANCH  17  22
ATOM     22  O   UNL     1       2.512   5.679 -25.263  1.00  0.00    -0.504 OA
ATOM     23  H   UNL     1       1.621   5.830 -24.805  1.00  0.00     0.293 HD
ENDBRANCH  17  22
ENDBRANCH   1  12
BRANCH   2  24
ATOM     24  O   UNL     1       5.494   1.129 -26.371  1.00  0.00    -0.502 OA
ATOM     25  H   UNL     1       5.667   0.687 -27.266  1.00  0.00     0.293 HD
ENDBRANCH   2  24
BRANCH   6  26
ATOM     26  O   UNL     1       4.648  -3.932 -24.938  1.00  0.00    -0.507 OA
ATOM     27  H   UNL     1       4.213  -4.402 -25.718  1.00  0.00     0.293 HD
ENDBRANCH   6  26
BRANCH   8  28
ATOM     28  O   UNL     1       1.858  -3.261 -21.088  1.00  0.00    -0.508 OA
ATOM     29  H   UNL     1       2.286  -3.775 -20.327  1.00  0.00     0.293 HD
ENDBRANCH   8  28
TORSDOF 7
ENDMDL
MODEL 6
REMARK VINA RESULT:    -6.843      1.918      2.327
REMARK INTER + INTRA:          -8.800
REMARK INTER:                  -8.529
REMARK INTRA:                  -0.270
REMARK UNBOUND:                -0.357
REMARK SMILES O=c1c(O)c(-c2cc(O)c(O)c(O)c2)oc2cc(O)cc(O)c12
REMARK SMILES IDX 5 1 3 2 2 3 1 4 23 5 21 6 20 7 18 8 17 9 16 10 15 11 6 12
REMARK SMILES IDX 7 13 8 14 14 15 10 16 12 17 9 18 11 20 13 22 4 24 22 26
REMARK SMILES IDX 19 28
REMARK H PARENT 9 19 11 21 13 23 4 25 22 27 19 29
REMARK Flexibility Score: inf
ROOT
ATOM      1  C   UNL     1       3.835   1.045 -24.294  1.00  0.00     0.180 A 
ATOM      2  C   UNL     1       3.189   1.548 -25.437  1.00  0.00     0.208 A 
ATOM      3  C   UNL     1       3.236   2.928 -25.693  1.00  0.00     0.238 A 
ATOM      4  O   UNL     1       2.703   3.365 -26.745  1.00  0.00    -0.285 OA
ATOM      5  C   UNL     1       3.913   3.789 -24.796  1.00  0.00     0.111 A 
ATOM      6  C   UNL     1       3.989   5.207 -24.936  1.00  0.00     0.134 A 
ATOM      7  C   UNL     1       4.794   5.945 -24.060  1.00  0.00     0.093 A 
ATOM      8  C   UNL     1       5.475   5.323 -23.010  1.00  0.00     0.123 A 
ATOM      9  C   UNL     1       5.359   3.948 -22.829  1.00  0.00     0.094 A 
ATOM     10  C   UNL     1       4.591   3.179 -23.709  1.00  0.00     0.146 A 
ATOM     11  O   UNL     1       4.517   1.869 -23.507  1.00  0.00    -0.452 OA
ENDROOT
BRANCH   1  12
ATOM     12  C   UNL     1       3.809  -0.393 -23.944  1.00  0.00     0.029 A 
ATOM     13  C   UNL     1       2.987  -0.834 -22.896  1.00  0.00     0.062 A 
ATOM     14  C   UNL     1       2.928  -2.190 -22.556  1.00  0.00     0.162 A 
ATOM     15  C   UNL     1       4.548  -1.338 -24.677  1.00  0.00     0.062 A 
ATOM     16  C   UNL     1       3.684  -3.128 -23.278  1.00  0.00     0.200 A 
ATOM     17  C   UNL     1       4.493  -2.698 -24.344  1.00  0.00     0.162 A 
BRANCH  14  18
ATOM     18  O   UNL     1       2.109  -2.585 -21.498  1.00  0.00    -0.504 OA
ATOM     19  H   UNL     1       2.357  -3.349 -20.881  1.00  0.00     0.293 HD
ENDBRANCH  14  18
BRANCH  16  20
ATOM     20  O   UNL     1       3.621  -4.479 -22.931  1.00  0.00    -0.502 OA
ATOM     21  H   UNL     1       4.326  -5.145 -23.225  1.00  0.00     0.293 HD
ENDBRANCH  16  20
BRANCH  17  22
ATOM     22  O   UNL     1       5.235  -3.626 -25.074  1.00  0.00    -0.504 OA
ATOM     23  H   UNL     1       6.154  -3.929 -24.771  1.00  0.00     0.293 HD
ENDBRANCH  17  22
ENDBRANCH   1  12
BRANCH   2  24
ATOM     24  O   UNL     1       2.545   0.677 -26.321  1.00  0.00    -0.502 OA
ATOM     25  H   UNL     1       2.391   0.909 -27.295  1.00  0.00     0.293 HD
ENDBRANCH   2  24
BRANCH   6  26
ATOM     26  O   UNL     1       3.276   5.937 -25.892  1.00  0.00    -0.507 OA
ATOM     27  H   UNL     1       3.157   5.659 -26.855  1.00  0.00     0.293 HD
ENDBRANCH   6  26
BRANCH   8  28
ATOM     28  O   UNL     1       6.262   6.067 -22.134  1.00  0.00    -0.508 OA
ATOM     29  H   UNL     1       6.269   5.881 -21.138  1.00  0.00     0.293 HD
ENDBRANCH   8  28
TORSDOF 7
ENDMDL
MODEL 7
REMARK VINA RESULT:    -6.819      1.719      3.739
REMARK INTER + INTRA:          -8.771
REMARK INTER:                  -8.522
REMARK INTRA:                  -0.249
REMARK UNBOUND:                -0.357
REMARK SMILES O=c1c(O)c(-c2cc(O)c(O)c(O)c2)oc2cc(O)cc(O)c12
REMARK SMILES IDX 5 1 3 2 2 3 1 4 23 5 21 6 20 7 18 8 17 9 16 10 15 11 6 12
REMARK SMILES IDX 7 13 8 14 14 15 10 16 12 17 9 18 11 20 13 22 4 24 22 26
REMARK SMILES IDX 19 28
REMARK H PARENT 9 19 11 21 13 23 4 25 22 27 19 29
REMARK Flexibility Score: inf
ROOT
ATOM      1  C   UNL     1       4.037   0.945 -23.654  1.00  0.00     0.180 A 
ATOM      2  C   UNL     1       4.186   1.784 -22.535  1.00  0.00     0.208 A 
ATOM      3  C   UNL     1       4.397   3.157 -22.739  1.00  0.00     0.238 A 
ATOM      4  O   UNL     1       4.475   3.911 -21.734  1.00  0.00    -0.285 OA
ATOM      5  C   UNL     1       4.474   3.671 -24.055  1.00  0.00     0.111 A 
ATOM      6  C   UNL     1       4.725   5.039 -24.378  1.00  0.00     0.134 A 
ATOM      7  C   UNL     1       4.651   5.459 -25.712  1.00  0.00     0.093 A 
ATOM      8  C   UNL     1       4.398   4.547 -26.741  1.00  0.00     0.123 A 
ATOM      9  C   UNL     1       4.211   3.201 -26.441  1.00  0.00     0.094 A 
ATOM     10  C   UNL     1       4.244   2.758 -25.116  1.00  0.00     0.146 A 
ATOM     11  O   UNL     1       4.049   1.466 -24.875  1.00  0.00    -0.452 OA
ENDROOT
BRANCH   1  12
ATOM     12  C   UNL     1       3.836  -0.516 -23.521  1.00  0.00     0.029 A 
ATOM     13  C   UNL     1       4.883  -1.390 -23.848  1.00  0.00     0.062 A 
ATOM     14  C   UNL     1       4.728  -2.774 -23.713  1.00  0.00     0.162 A 
ATOM     15  C   UNL     1       2.635  -1.047 -23.019  1.00  0.00     0.062 A 
ATOM     16  C   UNL     1       3.519  -3.301 -23.231  1.00  0.00     0.200 A 
ATOM     17  C   UNL     1       2.472  -2.432 -22.879  1.00  0.00     0.162 A 
BRANCH  14  18
ATOM     18  O   UNL     1       5.789  -3.609 -24.063  1.00  0.00    -0.504 OA
ATOM     19  H   UNL     1       6.626  -3.258 -24.513  1.00  0.00     0.293 HD
ENDBRANCH  14  18
BRANCH  16  20
ATOM     20  O   UNL     1       3.371  -4.683 -23.102  1.00  0.00    -0.502 OA
ATOM     21  H   UNL     1       3.610  -5.173 -22.248  1.00  0.00     0.293 HD
ENDBRANCH  16  20
BRANCH  17  22
ATOM     22  O   UNL     1       1.273  -2.947 -22.386  1.00  0.00    -0.504 OA
ATOM     23  H   UNL     1       1.163  -3.934 -22.182  1.00  0.00     0.293 HD
ENDBRANCH  17  22
ENDBRANCH   1  12
BRANCH   2  24
ATOM     24  O   UNL     1       4.084   1.258 -21.244  1.00  0.00    -0.502 OA
ATOM     25  H   UNL     1       4.529   0.389 -20.974  1.00  0.00     0.293 HD
ENDBRANCH   2  24
BRANCH   6  26
ATOM     26  O   UNL     1       5.077   6.011 -23.437  1.00  0.00    -0.507 OA
ATOM     27  H   UNL     1       4.422   6.507 -22.850  1.00  0.00     0.293 HD
ENDBRANCH   6  26
BRANCH   8  28
ATOM     28  O   UNL     1       4.341   4.972 -28.066  1.00  0.00    -0.508 OA
ATOM     29  H   UNL     1       5.098   4.789 -28.715  1.00  0.00     0.293 HD
ENDBRANCH   8  28
TORSDOF 7
ENDMDL
MODEL 8
REMARK VINA RESULT:    -6.816      1.917      6.856
REMARK INTER + INTRA:          -8.766
REMARK INTER:                  -8.440
REMARK INTRA:                  -0.326
REMARK UNBOUND:                -0.357
REMARK SMILES O=c1c(O)c(-c2cc(O)c(O)c(O)c2)oc2cc(O)cc(O)c12
REMARK SMILES IDX 5 1 3 2 2 3 1 4 23 5 21 6 20 7 18 8 17 9 16 10 15 11 6 12
REMARK SMILES IDX 7 13 8 14 14 15 10 16 12 17 9 18 11 20 13 22 4 24 22 26
REMARK SMILES IDX 19 28
REMARK H PARENT 9 19 11 21 13 23 4 25 22 27 19 29
REMARK Flexibility Score: inf
ROOT
ATOM      1  C   UNL     1       4.300   1.219 -24.133  1.00  0.00     0.180 A 
ATOM      2  C   UNL     1       4.892   0.517 -25.198  1.00  0.00     0.208 A 
ATOM      3  C   UNL     1       4.801  -0.884 -25.223  1.00  0.00     0.238 A 
ATOM      4  O   UNL     1       5.285  -1.502 -26.206  1.00  0.00    -0.285 OA
ATOM      5  C   UNL     1       4.136  -1.566 -24.177  1.00  0.00     0.111 A 
ATOM      6  C   UNL     1       4.019  -2.985 -24.080  1.00  0.00     0.134 A 
ATOM      7  C   UNL     1       3.228  -3.546 -23.070  1.00  0.00     0.093 A 
ATOM      8  C   UNL     1       2.602  -2.740 -22.115  1.00  0.00     0.123 A 
ATOM      9  C   UNL     1       2.759  -1.358 -22.166  1.00  0.00     0.094 A 
ATOM     10  C   UNL     1       3.513  -0.767 -23.183  1.00  0.00     0.146 A 
ATOM     11  O   UNL     1       3.627   0.556 -23.201  1.00  0.00    -0.452 OA
ENDROOT
BRANCH   1  12
ATOM     12  C   UNL     1       4.375   2.694 -24.024  1.00  0.00     0.029 A 
ATOM     13  C   UNL     1       3.486   3.487 -24.764  1.00  0.00     0.062 A 
ATOM     14  C   UNL     1       3.521   4.883 -24.665  1.00  0.00     0.162 A 
ATOM     15  C   UNL     1       5.281   3.318 -23.149  1.00  0.00     0.062 A 
ATOM     16  C   UNL     1       4.443   5.502 -23.805  1.00  0.00     0.200 A 
ATOM     17  C   UNL     1       5.322   4.714 -23.043  1.00  0.00     0.162 A 
BRANCH  14  18
ATOM     18  O   UNL     1       2.629   5.635 -25.428  1.00  0.00    -0.504 OA
ATOM     19  H   UNL     1       1.889   5.207 -25.971  1.00  0.00     0.293 HD
ENDBRANCH  14  18
BRANCH  16  20
ATOM     20  O   UNL     1       4.472   6.895 -23.714  1.00  0.00    -0.502 OA
ATOM     21  H   UNL     1       4.320   7.381 -22.838  1.00  0.00     0.293 HD
ENDBRANCH  16  20
BRANCH  17  22
ATOM     22  O   UNL     1       6.230   5.323 -22.176  1.00  0.00    -0.504 OA
ATOM     23  H   UNL     1       6.700   4.800 -21.446  1.00  0.00     0.293 HD
ENDBRANCH  17  22
ENDBRANCH   1  12
BRANCH   2  24
ATOM     24  O   UNL     1       5.524   1.213 -26.233  1.00  0.00    -0.502 OA
ATOM     25  H   UNL     1       6.267   1.881 -26.064  1.00  0.00     0.293 HD
ENDBRANCH   2  24
BRANCH   6  26
ATOM     26  O   UNL     1       4.679  -3.882 -24.926  1.00  0.00    -0.507 OA
ATOM     27  H   UNL     1       5.524  -4.380 -24.689  1.00  0.00     0.293 HD
ENDBRANCH   6  26
BRANCH   8  28
ATOM     28  O   UNL     1       1.829  -3.308 -21.104  1.00  0.00    -0.508 OA
ATOM     29  H   UNL     1       1.687  -2.839 -20.217  1.00  0.00     0.293 HD
ENDBRANCH   8  28
TORSDOF 7
ENDMDL
MODEL 9
REMARK VINA RESULT:    -6.802      1.800      3.453
REMARK INTER + INTRA:          -8.749
REMARK INTER:                  -8.519
REMARK INTRA:                  -0.231
REMARK UNBOUND:                -0.357
REMARK SMILES O=c1c(O)c(-c2cc(O)c(O)c(O)c2)oc2cc(O)cc(O)c12
REMARK SMILES IDX 5 1 3 2 2 3 1 4 23 5 21 6 20 7 18 8 17 9 16 10 15 11 6 12
REMARK SMILES IDX 7 13 8 14 14 15 10 16 12 17 9 18 11 20 13 22 4 24 22 26
REMARK SMILES IDX 19 28
REMARK H PARENT 9 19 11 21 13 23 4 25 22 27 19 29
REMARK Flexibility Score: inf
ROOT
ATOM      1  C   UNL     1       4.137   1.009 -23.507  1.00  0.00     0.180 A 
ATOM      2  C   UNL     1       4.235   1.842 -22.379  1.00  0.00     0.208 A 
ATOM      3  C   UNL     1       4.405   3.224 -22.566  1.00  0.00     0.238 A 
ATOM      4  O   UNL     1       4.438   3.970 -21.554  1.00  0.00    -0.285 OA
ATOM      5  C   UNL     1       4.491   3.752 -23.876  1.00  0.00     0.111 A 
ATOM      6  C   UNL     1       4.703   5.130 -24.182  1.00  0.00     0.134 A 
ATOM      7  C   UNL     1       4.642   5.560 -25.513  1.00  0.00     0.093 A 
ATOM      8  C   UNL     1       4.440   4.650 -26.555  1.00  0.00     0.123 A 
ATOM      9  C   UNL     1       4.292   3.296 -26.271  1.00  0.00     0.094 A 
ATOM     10  C   UNL     1       4.312   2.842 -24.949  1.00  0.00     0.146 A 
ATOM     11  O   UNL     1       4.156   1.542 -24.723  1.00  0.00    -0.452 OA
ENDROOT
BRANCH   1  12
ATOM     12  C   UNL     1       3.981  -0.459 -23.391  1.00  0.00     0.029 A 
ATOM     13  C   UNL     1       2.771  -0.991 -22.924  1.00  0.00     0.062 A 
ATOM     14  C   UNL     1       2.590  -2.374 -22.823  1.00  0.00     0.162 A 
ATOM     15  C   UNL     1       5.003  -1.336 -23.795  1.00  0.00     0.062 A 
ATOM     16  C   UNL     1       3.621  -3.247 -23.208  1.00  0.00     0.200 A 
ATOM     17  C   UNL     1       4.829  -2.723 -23.699  1.00  0.00     0.162 A 
BRANCH  14  18
ATOM     18  O   UNL     1       1.376  -2.862 -22.339  1.00  0.00    -0.504 OA
ATOM     19  H   UNL     1       1.312  -3.730 -21.821  1.00  0.00     0.293 HD
ENDBRANCH  14  18
BRANCH  16  20
ATOM     20  O   UNL     1       3.433  -4.626 -23.102  1.00  0.00    -0.502 OA
ATOM     21  H   UNL     1       3.703  -5.265 -23.840  1.00  0.00     0.293 HD
ENDBRANCH  16  20
BRANCH  17  22
ATOM     22  O   UNL     1       5.852  -3.585 -24.096  1.00  0.00    -0.504 OA
ATOM     23  H   UNL     1       6.687  -3.242 -24.558  1.00  0.00     0.293 HD
ENDBRANCH  17  22
ENDBRANCH   1  12
BRANCH   2  24
ATOM     24  O   UNL     1       4.125   1.302 -21.094  1.00  0.00    -0.502 OA
ATOM     25  H   UNL     1       4.661   1.652 -20.309  1.00  0.00     0.293 HD
ENDBRANCH   2  24
BRANCH   6  26
ATOM     26  O   UNL     1       5.005   6.104 -23.225  1.00  0.00    -0.507 OA
ATOM     27  H   UNL     1       5.866   6.149 -22.701  1.00  0.00     0.293 HD
ENDBRANCH   6  26
BRANCH   8  28
ATOM     28  O   UNL     1       4.396   5.085 -27.878  1.00  0.00    -0.508 OA
ATOM     29  H   UNL     1       3.557   4.994 -28.438  1.00  0.00     0.293 HD
ENDBRANCH   8  28
TORSDOF 7
ENDMDL
