MODEL 1
REMARK VINA RESULT:    -1.964      0.000      0.000
REMARK INTER + INTRA:          -5.540
REMARK INTER:                  -5.178
REMARK INTRA:                  -0.362
REMARK UNBOUND:                -0.362
REMARK SMILES CCCCCCCCCCCCCCCCCCCCCCCCCCCCCC(=O)[O-]
REMARK SMILES IDX 16 1 17 2 18 3 19 4 20 5 21 6 22 7 23 8 24 9 25 10 26 11
REMARK SMILES IDX 27 12 28 13 29 14 30 15 31 16 32 17 15 18 14 19 13 20 12 21
REMARK SMILES IDX 11 22 10 23 9 24 8 25 7 26 6 27 5 28 4 29 3 30 2 31 1 32
REMARK H PARENT
REMARK Flexibility Score: inf
ROOT
ATOM      1  C   UNL     1      32.368  45.207  24.397  1.00  0.00     0.000 C 
ENDROOT
BRANCH   1   2
ATOM      2  C   UNL     1      32.525  46.694  24.028  1.00  0.00     0.000 C 
BRANCH   2   3
ATOM      3  C   UNL     1      33.667  47.370  24.800  1.00  0.00     0.000 C 
BRANCH   3   4
ATOM      4  C   UNL     1      33.343  47.473  26.299  1.00  0.00     0.000 C 
BRANCH   4   5
ATOM      5  C   UNL     1      33.785  48.821  26.896  1.00  0.00     0.000 C 
BRANCH   5   6
ATOM      6  C   UNL     1      33.876  49.932  25.831  1.00  0.00     0.000 C 
BRANCH   6   7
ATOM      7  C   UNL     1      32.697  50.915  25.898  1.00  0.00     0.000 C 
BRANCH   7   8
ATOM      8  C   UNL     1      31.612  50.616  24.853  1.00  0.00     0.000 C 
BRANCH   8   9
ATOM      9  C   UNL     1      30.224  50.569  25.510  1.00  0.00     0.000 C 
BRANCH   9  10
ATOM     10  C   UNL     1      30.211  51.174  26.922  1.00  0.00     0.000 C 
BRANCH  10  11
ATOM     11  C   UNL     1      30.361  52.706  26.907  1.00  0.00     0.000 C 
BRANCH  11  12
ATOM     12  C   UNL     1      29.755  53.354  25.651  1.00  0.00     0.000 C 
BRANCH  12  13
ATOM     13  C   UNL     1      30.119  54.836  25.428  1.00  0.00     0.006 C 
BRANCH  13  14
ATOM     14  C   UNL     1      31.571  55.067  24.973  1.00  0.00     0.053 C 
BRANCH  14  15
ATOM     15  C   UNL     1      31.819  54.593  23.571  1.00  0.00     0.041 C 
ATOM     16  O   UNL     1      31.040  53.761  23.037  1.00  0.00    -0.550 OA
ATOM     17  O   UNL     1      32.885  55.101  22.838  1.00  0.00    -0.550 OA
ENDBRANCH  14  15
ENDBRANCH  13  14
ENDBRANCH  12  13
ENDBRANCH  11  12
ENDBRANCH  10  11
ENDBRANCH   9  10
ENDBRANCH   8   9
ENDBRANCH   7   8
ENDBRANCH   6   7
ENDBRANCH   5   6
ENDBRANCH   4   5
ENDBRANCH   3   4
ENDBRANCH   2   3
ENDBRANCH   1   2
BRANCH   1  18
ATOM     18  C   UNL     1      31.581  44.949  25.698  1.00  0.00     0.000 C 
BRANCH  18  19
ATOM     19  C   UNL     1      32.429  44.443  26.883  1.00  0.00     0.000 C 
BRANCH  19  20
ATOM     20  C   UNL     1      33.905  44.890  26.878  1.00  0.00     0.000 C 
BRANCH  20  21
ATOM     21  C   UNL     1      34.929  43.748  26.759  1.00  0.00     0.000 C 
BRANCH  21  22
ATOM     22  C   UNL     1      36.323  44.238  26.327  1.00  0.00     0.000 C 
BRANCH  22  23
ATOM     23  C   UNL     1      37.154  43.115  25.668  1.00  0.00     0.000 C 
BRANCH  23  24
ATOM     24  C   UNL     1      36.310  41.946  25.133  1.00  0.00    -0.000 C 
BRANCH  24  25
ATOM     25  C   UNL     1      37.151  40.697  24.825  1.00  0.00    -0.000 C 
BRANCH  25  26
ATOM     26  C   UNL     1      38.345  40.519  25.782  1.00  0.00    -0.000 C 
BRANCH  26  27
ATOM     27  C   UNL     1      38.254  39.308  26.730  1.00  0.00    -0.000 C 
BRANCH  27  28
ATOM     28  C   UNL     1      36.918  38.558  26.625  1.00  0.00    -0.000 C 
BRANCH  28  29
ATOM     29  C   UNL     1      37.054  37.110  27.113  1.00  0.00    -0.000 C 
BRANCH  29  30
ATOM     30  C   UNL     1      37.976  36.302  26.186  1.00  0.00    -0.000 C 
BRANCH  30  31
ATOM     31  C   UNL     1      39.058  35.529  26.956  1.00  0.00    -0.003 C 
ATOM     32  C   UNL     1      40.364  36.313  27.084  1.00  0.00     0.004 C 
ENDBRANCH  30  31
ENDBRANCH  29  30
ENDBRANCH  28  29
ENDBRANCH  27  28
ENDBRANCH  26  27
ENDBRANCH  25  26
ENDBRANCH  24  25
ENDBRANCH  23  24
ENDBRANCH  22  23
ENDBRANCH  21  22
ENDBRANCH  20  21
ENDBRANCH  19  20
ENDBRANCH  18  19
ENDBRANCH   1  18
TORSDOF 28
ENDMDL
MODEL 2
REMARK VINA RESULT:    -1.608      2.035      4.976
REMARK INTER + INTRA:          -4.601
REMARK INTER:                  -2.850
REMARK INTRA:                  -1.751
REMARK UNBOUND:                -0.362
REMARK SMILES CCCCCCCCCCCCCCCCCCCCCCCCCCCCCC(=O)[O-]
REMARK SMILES IDX 16 1 17 2 18 3 19 4 20 5 21 6 22 7 23 8 24 9 25 10 26 11
REMARK SMILES IDX 27 12 28 13 29 14 30 15 31 16 32 17 15 18 14 19 13 20 12 21
REMARK SMILES IDX 11 22 10 23 9 24 8 25 7 26 6 27 5 28 4 29 3 30 2 31 1 32
REMARK H PARENT
REMARK Flexibility Score: inf
ROOT
ATOM      1  C   UNL     1      37.398  42.660  25.115  1.00  0.00     0.000 C 
ENDROOT
BRANCH   1   2
ATOM      2  C   UNL     1      36.111  42.378  25.912  1.00  0.00     0.000 C 
BRANCH   2   3
ATOM      3  C   UNL     1      35.731  43.541  26.840  1.00  0.00     0.000 C 
BRANCH   3   4
ATOM      4  C   UNL     1      36.403  44.851  26.397  1.00  0.00     0.000 C 
BRANCH   4   5
ATOM      5  C   UNL     1      35.621  46.090  26.867  1.00  0.00     0.000 C 
BRANCH   5   6
ATOM      6  C   UNL     1      34.125  45.790  27.088  1.00  0.00     0.000 C 
BRANCH   6   7
ATOM      7  C   UNL     1      33.207  46.754  26.321  1.00  0.00     0.000 C 
BRANCH   7   8
ATOM      8  C   UNL     1      32.864  48.016  27.125  1.00  0.00     0.000 C 
BRANCH   8   9
ATOM      9  C   UNL     1      32.241  49.087  26.216  1.00  0.00     0.000 C 
BRANCH   9  10
ATOM     10  C   UNL     1      33.283  50.063  25.645  1.00  0.00     0.000 C 
BRANCH  10  11
ATOM     11  C   UNL     1      33.550  51.253  26.584  1.00  0.00     0.000 C 
BRANCH  11  12
ATOM     12  C   UNL     1      32.715  52.494  26.228  1.00  0.00     0.000 C 
BRANCH  12  13
ATOM     13  C   UNL     1      32.047  52.468  24.838  1.00  0.00     0.006 C 
BRANCH  13  14
ATOM     14  C   UNL     1      30.517  52.633  24.872  1.00  0.00     0.053 C 
BRANCH  14  15
ATOM     15  C   UNL     1      30.066  53.637  25.892  1.00  0.00     0.041 C 
ATOM     16  O   UNL     1      29.556  53.251  26.976  1.00  0.00    -0.550 OA
ATOM     17  O   UNL     1      30.247  54.996  25.666  1.00  0.00    -0.550 OA
ENDBRANCH  14  15
ENDBRANCH  13  14
ENDBRANCH  12  13
ENDBRANCH  11  12
ENDBRANCH  10  11
ENDBRANCH   9  10
ENDBRANCH   8   9
ENDBRANCH   7   8
ENDBRANCH   6   7
ENDBRANCH   5   6
ENDBRANCH   4   5
ENDBRANCH   3   4
ENDBRANCH   2   3
ENDBRANCH   1   2
BRANCH   1  18
ATOM     18  C   UNL     1      38.669  42.011  25.701  1.00  0.00     0.000 C 
BRANCH  18  19
ATOM     19  C   UNL     1      38.672  40.469  25.702  1.00  0.00     0.000 C 
BRANCH  19  20
ATOM     20  C   UNL     1      38.186  39.808  27.008  1.00  0.00     0.000 C 
BRANCH  20  21
ATOM     21  C   UNL     1      36.844  39.062  26.898  1.00  0.00     0.000 C 
BRANCH  21  22
ATOM     22  C   UNL     1      36.702  38.277  25.581  1.00  0.00     0.000 C 
BRANCH  22  23
ATOM     23  C   UNL     1      37.817  37.222  25.412  1.00  0.00     0.000 C 
BRANCH  23  24
ATOM     24  C   UNL     1      37.431  35.822  25.919  1.00  0.00    -0.000 C 
BRANCH  24  25
ATOM     25  C   UNL     1      38.530  35.179  26.781  1.00  0.00    -0.000 C 
BRANCH  25  26
ATOM     26  C   UNL     1      39.947  35.659  26.414  1.00  0.00    -0.000 C 
BRANCH  26  27
ATOM     27  C   UNL     1      40.409  36.948  27.121  1.00  0.00    -0.000 C 
BRANCH  27  28
ATOM     28  C   UNL     1      41.935  37.126  27.116  1.00  0.00    -0.000 C 
BRANCH  28  29
ATOM     29  C   UNL     1      42.323  38.572  26.782  1.00  0.00    -0.000 C 
BRANCH  29  30
ATOM     30  C   UNL     1      43.574  38.613  25.889  1.00  0.00    -0.000 C 
BRANCH  30  31
ATOM     31  C   UNL     1      44.689  37.682  26.390  1.00  0.00    -0.003 C 
ATOM     32  C   UNL     1      45.038  36.588  25.381  1.00  0.00     0.004 C 
ENDBRANCH  30  31
ENDBRANCH  29  30
ENDBRANCH  28  29
ENDBRANCH  27  28
ENDBRANCH  26  27
ENDBRANCH  25  26
ENDBRANCH  24  25
ENDBRANCH  23  24
ENDBRANCH  22  23
ENDBRANCH  21  22
ENDBRANCH  20  21
ENDBRANCH  19  20
ENDBRANCH  18  19
ENDBRANCH   1  18
TORSDOF 28
ENDMDL
MODEL 3
REMARK VINA RESULT:    -1.212      1.627      2.531
REMARK INTER + INTRA:          -3.559
REMARK INTER:                  -1.136
REMARK INTRA:                  -2.423
REMARK UNBOUND:                -0.362
REMARK SMILES CCCCCCCCCCCCCCCCCCCCCCCCCCCCCC(=O)[O-]
REMARK SMILES IDX 16 1 17 2 18 3 19 4 20 5 21 6 22 7 23 8 24 9 25 10 26 11
REMARK SMILES IDX 27 12 28 13 29 14 30 15 31 16 32 17 15 18 14 19 13 20 12 21
REMARK SMILES IDX 11 22 10 23 9 24 8 25 7 26 6 27 5 28 4 29 3 30 2 31 1 32
REMARK H PARENT
REMARK Flexibility Score: inf
ROOT
ATOM      1  C   UNL     1      32.171  44.356  23.715  1.00  0.00     0.000 C 
ENDROOT
BRANCH   1   2
ATOM      2  C   UNL     1      31.526  45.688  24.142  1.00  0.00     0.000 C 
BRANCH   2   3
ATOM      3  C   UNL     1      32.445  46.891  23.884  1.00  0.00     0.000 C 
BRANCH   3   4
ATOM      4  C   UNL     1      32.709  47.679  25.177  1.00  0.00     0.000 C 
BRANCH   4   5
ATOM      5  C   UNL     1      33.976  48.547  25.078  1.00  0.00     0.000 C 
BRANCH   5   6
ATOM      6  C   UNL     1      33.691  50.035  25.364  1.00  0.00     0.000 C 
BRANCH   6   7
ATOM      7  C   UNL     1      34.562  50.598  26.498  1.00  0.00     0.000 C 
BRANCH   7   8
ATOM      8  C   UNL     1      33.976  51.871  27.123  1.00  0.00     0.000 C 
BRANCH   8   9
ATOM      9  C   UNL     1      32.442  51.868  27.027  1.00  0.00     0.000 C 
BRANCH   9  10
ATOM     10  C   UNL     1      31.841  53.282  27.038  1.00  0.00     0.000 C 
BRANCH  10  11
ATOM     11  C   UNL     1      31.786  53.910  25.634  1.00  0.00     0.000 C 
BRANCH  11  12
ATOM     12  C   UNL     1      30.440  53.678  24.927  1.00  0.00     0.000 C 
BRANCH  12  13
ATOM     13  C   UNL     1      29.413  52.839  25.715  1.00  0.00     0.006 C 
BRANCH  13  14
ATOM     14  C   UNL     1      28.889  51.609  24.953  1.00  0.00     0.053 C 
BRANCH  14  15
ATOM     15  C   UNL     1      29.995  50.737  24.433  1.00  0.00     0.041 C 
ATOM     16  O   UNL     1      30.534  49.883  25.185  1.00  0.00    -0.550 OA
ATOM     17  O   UNL     1      30.402  50.836  23.108  1.00  0.00    -0.550 OA
ENDBRANCH  14  15
ENDBRANCH  13  14
ENDBRANCH  12  13
ENDBRANCH  11  12
ENDBRANCH  10  11
ENDBRANCH   9  10
ENDBRANCH   8   9
ENDBRANCH   7   8
ENDBRANCH   6   7
ENDBRANCH   5   6
ENDBRANCH   4   5
ENDBRANCH   3   4
ENDBRANCH   2   3
ENDBRANCH   1   2
BRANCH   1  18
ATOM     18  C   UNL     1      32.952  43.635  24.833  1.00  0.00     0.000 C 
BRANCH  18  19
ATOM     19  C   UNL     1      32.960  44.360  26.195  1.00  0.00     0.000 C 
BRANCH  19  20
ATOM     20  C   UNL     1      34.351  44.773  26.716  1.00  0.00     0.000 C 
BRANCH  20  21
ATOM     21  C   UNL     1      35.322  45.289  25.639  1.00  0.00     0.000 C 
BRANCH  21  22
ATOM     22  C   UNL     1      36.749  45.504  26.174  1.00  0.00     0.000 C 
BRANCH  22  23
ATOM     23  C   UNL     1      37.632  44.251  25.994  1.00  0.00     0.000 C 
BRANCH  23  24
ATOM     24  C   UNL     1      37.436  43.188  27.088  1.00  0.00    -0.000 C 
BRANCH  24  25
ATOM     25  C   UNL     1      36.609  41.984  26.607  1.00  0.00    -0.000 C 
BRANCH  25  26
ATOM     26  C   UNL     1      36.941  41.560  25.164  1.00  0.00    -0.000 C 
BRANCH  26  27
ATOM     27  C   UNL     1      37.773  40.269  25.032  1.00  0.00    -0.000 C 
BRANCH  27  28
ATOM     28  C   UNL     1      37.712  39.381  26.283  1.00  0.00    -0.000 C 
BRANCH  28  29
ATOM     29  C   UNL     1      38.682  38.198  26.171  1.00  0.00    -0.000 C 
BRANCH  29  30
ATOM     30  C   UNL     1      38.136  36.967  26.912  1.00  0.00    -0.000 C 
BRANCH  30  31
ATOM     31  C   UNL     1      36.616  37.030  27.124  1.00  0.00    -0.003 C 
ATOM     32  C   UNL     1      35.855  36.056  26.225  1.00  0.00     0.004 C 
ENDBRANCH  30  31
ENDBRANCH  29  30
ENDBRANCH  28  29
ENDBRANCH  27  28
ENDBRANCH  26  27
ENDBRANCH  25  26
ENDBRANCH  24  25
ENDBRANCH  23  24
ENDBRANCH  22  23
ENDBRANCH  21  22
ENDBRANCH  20  21
ENDBRANCH  19  20
ENDBRANCH  18  19
ENDBRANCH   1  18
TORSDOF 28
ENDMDL
MODEL 4
REMARK VINA RESULT:    -1.085     18.805     22.219
REMARK INTER + INTRA:          -3.223
REMARK INTER:                  -3.900
REMARK INTRA:                   0.677
REMARK UNBOUND:                -0.362
REMARK SMILES CCCCCCCCCCCCCCCCCCCCCCCCCCCCCC(=O)[O-]
REMARK SMILES IDX 16 1 17 2 18 3 19 4 20 5 21 6 22 7 23 8 24 9 25 10 26 11
REMARK SMILES IDX 27 12 28 13 29 14 30 15 31 16 32 17 15 18 14 19 13 20 12 21
REMARK SMILES IDX 11 22 10 23 9 24 8 25 7 26 6 27 5 28 4 29 3 30 2 31 1 32
REMARK H PARENT
REMARK Flexibility Score: inf
ROOT
ATOM      1  C   UNL     1      25.082  47.840   9.270  1.00  0.00     0.000 C 
ENDROOT
BRANCH   1   2
ATOM      2  C   UNL     1      25.760  46.470   9.458  1.00  0.00     0.000 C 
BRANCH   2   3
ATOM      3  C   UNL     1      24.888  45.312   8.949  1.00  0.00     0.000 C 
BRANCH   3   4
ATOM      4  C   UNL     1      25.167  45.012   7.467  1.00  0.00     0.000 C 
BRANCH   4   5
ATOM      5  C   UNL     1      26.589  45.427   7.051  1.00  0.00     0.000 C 
BRANCH   5   6
ATOM      6  C   UNL     1      27.660  44.443   7.563  1.00  0.00     0.000 C 
BRANCH   6   7
ATOM      7  C   UNL     1      27.582  43.071   6.875  1.00  0.00     0.000 C 
BRANCH   7   8
ATOM      8  C   UNL     1      26.483  42.174   7.460  1.00  0.00     0.000 C 
BRANCH   8   9
ATOM      9  C   UNL     1      27.024  40.763   7.738  1.00  0.00     0.000 C 
BRANCH   9  10
ATOM     10  C   UNL     1      25.920  39.766   8.125  1.00  0.00     0.000 C 
BRANCH  10  11
ATOM     11  C   UNL     1      25.672  38.710   7.033  1.00  0.00     0.000 C 
BRANCH  11  12
ATOM     12  C   UNL     1      25.100  37.396   7.591  1.00  0.00     0.000 C 
BRANCH  12  13
ATOM     13  C   UNL     1      25.766  36.877   8.882  1.00  0.00     0.006 C 
BRANCH  13  14
ATOM     14  C   UNL     1      27.264  36.556   8.731  1.00  0.00     0.053 C 
BRANCH  14  15
ATOM     15  C   UNL     1      27.562  35.755   7.498  1.00  0.00     0.041 C 
ATOM     16  O   UNL     1      28.725  35.745   7.017  1.00  0.00    -0.550 OA
ATOM     17  O   UNL     1      26.568  34.987   6.903  1.00  0.00    -0.550 OA
ENDBRANCH  14  15
ENDBRANCH  13  14
ENDBRANCH  12  13
ENDBRANCH  11  12
ENDBRANCH  10  11
ENDBRANCH   9  10
ENDBRANCH   8   9
ENDBRANCH   7   8
ENDBRANCH   6   7
ENDBRANCH   5   6
ENDBRANCH   4   5
ENDBRANCH   3   4
ENDBRANCH   2   3
ENDBRANCH   1   2
BRANCH   1  18
ATOM     18  C   UNL     1      25.701  48.714   8.161  1.00  0.00     0.000 C 
BRANCH  18  19
ATOM     19  C   UNL     1      26.186  50.105   8.622  1.00  0.00     0.000 C 
BRANCH  19  20
ATOM     20  C   UNL     1      25.906  51.261   7.640  1.00  0.00     0.000 C 
BRANCH  20  21
ATOM     21  C   UNL     1      26.993  52.349   7.592  1.00  0.00     0.000 C 
BRANCH  21  22
ATOM     22  C   UNL     1      26.767  53.465   8.629  1.00  0.00     0.000 C 
BRANCH  22  23
ATOM     23  C   UNL     1      27.741  54.647   8.431  1.00  0.00     0.000 C 
BRANCH  23  24
ATOM     24  C   UNL     1      29.005  54.286   7.632  1.00  0.00    -0.000 C 
BRANCH  24  25
ATOM     25  C   UNL     1      29.177  52.769   7.446  1.00  0.00    -0.000 C 
BRANCH  25  26
ATOM     26  C   UNL     1      30.323  52.181   8.291  1.00  0.00    -0.000 C 
BRANCH  26  27
ATOM     27  C   UNL     1      29.927  51.015   9.216  1.00  0.00    -0.000 C 
BRANCH  27  28
ATOM     28  C   UNL     1      29.354  49.809   8.456  1.00  0.00    -0.000 C 
BRANCH  28  29
ATOM     29  C   UNL     1      30.409  49.179   7.538  1.00  0.00    -0.000 C 
BRANCH  29  30
ATOM     30  C   UNL     1      31.172  48.060   8.263  1.00  0.00    -0.000 C 
BRANCH  30  31
ATOM     31  C   UNL     1      30.341  46.775   8.407  1.00  0.00    -0.003 C 
ATOM     32  C   UNL     1      30.918  45.608   7.605  1.00  0.00     0.004 C 
ENDBRANCH  30  31
ENDBRANCH  29  30
ENDBRANCH  28  29
ENDBRANCH  27  28
ENDBRANCH  26  27
ENDBRANCH  25  26
ENDBRANCH  24  25
ENDBRANCH  23  24
ENDBRANCH  22  23
ENDBRANCH  21  22
ENDBRANCH  20  21
ENDBRANCH  19  20
ENDBRANCH  18  19
ENDBRANCH   1  18
TORSDOF 28
ENDMDL
MODEL 5
REMARK VINA RESULT:    -0.898      1.725      2.855
REMARK INTER + INTRA:          -2.729
REMARK INTER:                  -2.248
REMARK INTRA:                  -0.481
REMARK UNBOUND:                -0.362
REMARK SMILES CCCCCCCCCCCCCCCCCCCCCCCCCCCCCC(=O)[O-]
REMARK SMILES IDX 16 1 17 2 18 3 19 4 20 5 21 6 22 7 23 8 24 9 25 10 26 11
REMARK SMILES IDX 27 12 28 13 29 14 30 15 31 16 32 17 15 18 14 19 13 20 12 21
REMARK SMILES IDX 11 22 10 23 9 24 8 25 7 26 6 27 5 28 4 29 3 30 2 31 1 32
REMARK H PARENT
REMARK Flexibility Score: inf
ROOT
ATOM      1  C   UNL     1      32.601  46.865  25.180  1.00  0.00     0.000 C 
ENDROOT
BRANCH   1   2
ATOM      2  C   UNL     1      32.484  47.293  26.655  1.00  0.00     0.000 C 
BRANCH   2   3
ATOM      3  C   UNL     1      33.426  48.455  27.003  1.00  0.00     0.000 C 
BRANCH   3   4
ATOM      4  C   UNL     1      34.800  48.279  26.337  1.00  0.00     0.000 C 
BRANCH   4   5
ATOM      5  C   UNL     1      35.522  49.623  26.137  1.00  0.00     0.000 C 
BRANCH   5   6
ATOM      6  C   UNL     1      34.841  50.774  26.902  1.00  0.00     0.000 C 
BRANCH   6   7
ATOM      7  C   UNL     1      33.628  51.349  26.153  1.00  0.00     0.000 C 
BRANCH   7   8
ATOM      8  C   UNL     1      32.680  52.135  27.068  1.00  0.00     0.000 C 
BRANCH   8   9
ATOM      9  C   UNL     1      32.407  53.534  26.494  1.00  0.00     0.000 C 
BRANCH   9  10
ATOM     10  C   UNL     1      31.187  53.568  25.560  1.00  0.00     0.000 C 
BRANCH  10  11
ATOM     11  C   UNL     1      31.581  53.464  24.075  1.00  0.00     0.000 C 
BRANCH  11  12
ATOM     12  C   UNL     1      30.729  52.444  23.301  1.00  0.00     0.000 C 
BRANCH  12  13
ATOM     13  C   UNL     1      30.946  50.968  23.689  1.00  0.00     0.006 C 
BRANCH  13  14
ATOM     14  C   UNL     1      29.791  50.354  24.500  1.00  0.00     0.053 C 
BRANCH  14  15
ATOM     15  C   UNL     1      29.140  51.345  25.420  1.00  0.00     0.041 C 
ATOM     16  O   UNL     1      29.565  51.490  26.596  1.00  0.00    -0.550 OA
ATOM     17  O   UNL     1      28.093  52.139  24.968  1.00  0.00    -0.550 OA
ENDBRANCH  14  15
ENDBRANCH  13  14
ENDBRANCH  12  13
ENDBRANCH  11  12
ENDBRANCH  10  11
ENDBRANCH   9  10
ENDBRANCH   8   9
ENDBRANCH   7   8
ENDBRANCH   6   7
ENDBRANCH   5   6
ENDBRANCH   4   5
ENDBRANCH   3   4
ENDBRANCH   2   3
ENDBRANCH   1   2
BRANCH   1  18
ATOM     18  C   UNL     1      31.822  45.584  24.821  1.00  0.00     0.000 C 
BRANCH  18  19
ATOM     19  C   UNL     1      32.672  44.297  24.773  1.00  0.00     0.000 C 
BRANCH  19  20
ATOM     20  C   UNL     1      33.305  43.874  26.114  1.00  0.00     0.000 C 
BRANCH  20  21
ATOM     21  C   UNL     1      34.773  44.300  26.302  1.00  0.00     0.000 C 
BRANCH  21  22
ATOM     22  C   UNL     1      35.722  43.104  26.497  1.00  0.00     0.000 C 
BRANCH  22  23
ATOM     23  C   UNL     1      36.538  42.797  25.223  1.00  0.00     0.000 C 
BRANCH  23  24
ATOM     24  C   UNL     1      36.983  41.329  25.107  1.00  0.00    -0.000 C 
BRANCH  24  25
ATOM     25  C   UNL     1      38.107  40.969  26.092  1.00  0.00    -0.000 C 
BRANCH  25  26
ATOM     26  C   UNL     1      38.109  39.481  26.491  1.00  0.00    -0.000 C 
BRANCH  26  27
ATOM     27  C   UNL     1      39.463  38.761  26.340  1.00  0.00    -0.000 C 
BRANCH  27  28
ATOM     28  C   UNL     1      39.535  37.440  27.121  1.00  0.00    -0.000 C 
BRANCH  28  29
ATOM     29  C   UNL     1      39.130  36.251  26.241  1.00  0.00    -0.000 C 
BRANCH  29  30
ATOM     30  C   UNL     1      37.631  36.301  25.905  1.00  0.00    -0.000 C 
BRANCH  30  31
ATOM     31  C   UNL     1      36.835  35.177  26.585  1.00  0.00    -0.003 C 
ATOM     32  C   UNL     1      35.375  35.556  26.832  1.00  0.00     0.004 C 
ENDBRANCH  30  31
ENDBRANCH  29  30
ENDBRANCH  28  29
ENDBRANCH  27  28
ENDBRANCH  26  27
ENDBRANCH  25  26
ENDBRANCH  24  25
ENDBRANCH  23  24
ENDBRANCH  22  23
ENDBRANCH  21  22
ENDBRANCH  20  21
ENDBRANCH  19  20
ENDBRANCH  18  19
ENDBRANCH   1  18
TORSDOF 28
ENDMDL
MODEL 6
REMARK VINA RESULT:    -0.840      2.453      3.992
REMARK INTER + INTRA:          -2.576
REMARK INTER:                  -2.189
REMARK INTRA:                  -0.387
REMARK UNBOUND:                -0.362
REMARK SMILES CCCCCCCCCCCCCCCCCCCCCCCCCCCCCC(=O)[O-]
REMARK SMILES IDX 16 1 17 2 18 3 19 4 20 5 21 6 22 7 23 8 24 9 25 10 26 11
REMARK SMILES IDX 27 12 28 13 29 14 30 15 31 16 32 17 15 18 14 19 13 20 12 21
REMARK SMILES IDX 11 22 10 23 9 24 8 25 7 26 6 27 5 28 4 29 3 30 2 31 1 32
REMARK H PARENT
REMARK Flexibility Score: inf
ROOT
ATOM      1  C   UNL     1      34.132  44.276  26.210  1.00  0.00     0.000 C 
ENDROOT
BRANCH   1   2
ATOM      2  C   UNL     1      32.990  45.107  25.597  1.00  0.00     0.000 C 
BRANCH   2   3
ATOM      3  C   UNL     1      33.243  46.618  25.708  1.00  0.00     0.000 C 
BRANCH   3   4
ATOM      4  C   UNL     1      32.734  47.173  27.048  1.00  0.00     0.000 C 
BRANCH   4   5
ATOM      5  C   UNL     1      32.830  48.708  27.113  1.00  0.00     0.000 C 
BRANCH   5   6
ATOM      6  C   UNL     1      32.255  49.385  25.853  1.00  0.00     0.000 C 
BRANCH   6   7
ATOM      7  C   UNL     1      32.537  50.895  25.811  1.00  0.00     0.000 C 
BRANCH   7   8
ATOM      8  C   UNL     1      33.795  51.288  26.597  1.00  0.00     0.000 C 
BRANCH   8   9
ATOM      9  C   UNL     1      33.750  52.773  26.988  1.00  0.00     0.000 C 
BRANCH   9  10
ATOM     10  C   UNL     1      32.319  53.332  27.043  1.00  0.00     0.000 C 
BRANCH  10  11
ATOM     11  C   UNL     1      31.974  54.190  25.812  1.00  0.00     0.000 C 
BRANCH  11  12
ATOM     12  C   UNL     1      30.459  54.352  25.601  1.00  0.00     0.000 C 
BRANCH  12  13
ATOM     13  C   UNL     1      29.581  53.252  26.229  1.00  0.00     0.006 C 
BRANCH  13  14
ATOM     14  C   UNL     1      28.685  52.510  25.222  1.00  0.00     0.053 C 
BRANCH  14  15
ATOM     15  C   UNL     1      29.270  51.198  24.785  1.00  0.00     0.041 C 
ATOM     16  O   UNL     1      30.179  51.170  23.914  1.00  0.00    -0.550 OA
ATOM     17  O   UNL     1      28.844  50.011  25.368  1.00  0.00    -0.550 OA
ENDBRANCH  14  15
ENDBRANCH  13  14
ENDBRANCH  12  13
ENDBRANCH  11  12
ENDBRANCH  10  11
ENDBRANCH   9  10
ENDBRANCH   8   9
ENDBRANCH   7   8
ENDBRANCH   6   7
ENDBRANCH   5   6
ENDBRANCH   4   5
ENDBRANCH   3   4
ENDBRANCH   2   3
ENDBRANCH   1   2
BRANCH   1  18
ATOM     18  C   UNL     1      35.426  45.068  26.484  1.00  0.00     0.000 C 
BRANCH  18  19
ATOM     19  C   UNL     1      36.728  44.352  26.071  1.00  0.00     0.000 C 
BRANCH  19  20
ATOM     20  C   UNL     1      37.866  44.398  27.110  1.00  0.00     0.000 C 
BRANCH  20  21
ATOM     21  C   UNL     1      39.134  43.616  26.721  1.00  0.00     0.000 C 
BRANCH  21  22
ATOM     22  C   UNL     1      38.837  42.159  26.320  1.00  0.00     0.000 C 
BRANCH  22  23
ATOM     23  C   UNL     1      39.709  41.153  27.101  1.00  0.00     0.000 C 
BRANCH  23  24
ATOM     24  C   UNL     1      39.175  39.711  27.070  1.00  0.00    -0.000 C 
BRANCH  24  25
ATOM     25  C   UNL     1      40.037  38.776  26.205  1.00  0.00    -0.000 C 
BRANCH  25  26
ATOM     26  C   UNL     1      41.520  39.192  26.156  1.00  0.00    -0.000 C 
BRANCH  26  27
ATOM     27  C   UNL     1      42.509  38.173  26.756  1.00  0.00    -0.000 C 
BRANCH  27  28
ATOM     28  C   UNL     1      43.911  38.756  26.986  1.00  0.00    -0.000 C 
BRANCH  28  29
ATOM     29  C   UNL     1      44.998  37.817  26.448  1.00  0.00    -0.000 C 
BRANCH  29  30
ATOM     30  C   UNL     1      44.583  36.346  26.610  1.00  0.00    -0.000 C 
BRANCH  30  31
ATOM     31  C   UNL     1      43.445  35.944  25.659  1.00  0.00    -0.003 C 
ATOM     32  C   UNL     1      43.874  34.890  24.639  1.00  0.00     0.004 C 
ENDBRANCH  30  31
ENDBRANCH  29  30
ENDBRANCH  28  29
ENDBRANCH  27  28
ENDBRANCH  26  27
ENDBRANCH  25  26
ENDBRANCH  24  25
ENDBRANCH  23  24
ENDBRANCH  22  23
ENDBRANCH  21  22
ENDBRANCH  20  21
ENDBRANCH  19  20
ENDBRANCH  18  19
ENDBRANCH   1  18
TORSDOF 28
ENDMDL
MODEL 7
REMARK VINA RESULT:    -0.361      2.177      5.459
REMARK INTER + INTRA:          -1.313
REMARK INTER:                  -1.484
REMARK INTRA:                   0.171
REMARK UNBOUND:                -0.362
REMARK SMILES CCCCCCCCCCCCCCCCCCCCCCCCCCCCCC(=O)[O-]
REMARK SMILES IDX 16 1 17 2 18 3 19 4 20 5 21 6 22 7 23 8 24 9 25 10 26 11
REMARK SMILES IDX 27 12 28 13 29 14 30 15 31 16 32 17 15 18 14 19 13 20 12 21
REMARK SMILES IDX 11 22 10 23 9 24 8 25 7 26 6 27 5 28 4 29 3 30 2 31 1 32
REMARK H PARENT
REMARK Flexibility Score: inf
ROOT
ATOM      1  C   UNL     1      36.777  41.399  24.334  1.00  0.00     0.000 C 
ENDROOT
BRANCH   1   2
ATOM      2  C   UNL     1      36.388  42.241  25.563  1.00  0.00     0.000 C 
BRANCH   2   3
ATOM      3  C   UNL     1      35.064  42.993  25.361  1.00  0.00     0.000 C 
BRANCH   3   4
ATOM      4  C   UNL     1      35.024  44.286  26.192  1.00  0.00     0.000 C 
BRANCH   4   5
ATOM      5  C   UNL     1      35.778  45.439  25.506  1.00  0.00     0.000 C 
BRANCH   5   6
ATOM      6  C   UNL     1      36.519  46.337  26.516  1.00  0.00     0.000 C 
BRANCH   6   7
ATOM      7  C   UNL     1      35.613  47.424  27.118  1.00  0.00     0.000 C 
BRANCH   7   8
ATOM      8  C   UNL     1      34.122  47.069  27.037  1.00  0.00     0.000 C 
BRANCH   8   9
ATOM      9  C   UNL     1      33.259  48.339  27.069  1.00  0.00     0.000 C 
BRANCH   9  10
ATOM     10  C   UNL     1      32.562  48.620  25.728  1.00  0.00     0.000 C 
BRANCH  10  11
ATOM     11  C   UNL     1      32.100  50.083  25.600  1.00  0.00     0.000 C 
BRANCH  11  12
ATOM     12  C   UNL     1      33.150  51.088  26.104  1.00  0.00     0.000 C 
BRANCH  12  13
ATOM     13  C   UNL     1      32.639  52.525  26.327  1.00  0.00     0.006 C 
BRANCH  13  14
ATOM     14  C   UNL     1      31.121  52.691  26.131  1.00  0.00     0.053 C 
BRANCH  14  15
ATOM     15  C   UNL     1      30.779  53.808  25.189  1.00  0.00     0.041 C 
ATOM     16  O   UNL     1      29.670  54.397  25.283  1.00  0.00    -0.550 OA
ATOM     17  O   UNL     1      31.699  54.228  24.236  1.00  0.00    -0.550 OA
ENDBRANCH  14  15
ENDBRANCH  13  14
ENDBRANCH  12  13
ENDBRANCH  11  12
ENDBRANCH  10  11
ENDBRANCH   9  10
ENDBRANCH   8   9
ENDBRANCH   7   8
ENDBRANCH   6   7
ENDBRANCH   5   6
ENDBRANCH   4   5
ENDBRANCH   3   4
ENDBRANCH   2   3
ENDBRANCH   1   2
BRANCH   1  18
ATOM     18  C   UNL     1      37.765  40.252  24.630  1.00  0.00     0.000 C 
BRANCH  18  19
ATOM     19  C   UNL     1      37.675  39.666  26.054  1.00  0.00     0.000 C 
BRANCH  19  20
ATOM     20  C   UNL     1      38.924  39.876  26.934  1.00  0.00     0.000 C 
BRANCH  20  21
ATOM     21  C   UNL     1      40.165  39.075  26.502  1.00  0.00     0.000 C 
BRANCH  21  22
ATOM     22  C   UNL     1      40.166  37.634  27.043  1.00  0.00     0.000 C 
BRANCH  22  23
ATOM     23  C   UNL     1      38.741  37.045  27.125  1.00  0.00     0.000 C 
BRANCH  23  24
ATOM     24  C   UNL     1      38.376  36.131  25.943  1.00  0.00    -0.000 C 
BRANCH  24  25
ATOM     25  C   UNL     1      39.422  35.031  25.696  1.00  0.00    -0.000 C 
BRANCH  25  26
ATOM     26  C   UNL     1      40.445  34.901  26.841  1.00  0.00    -0.000 C 
BRANCH  26  27
ATOM     27  C   UNL     1      41.922  34.875  26.403  1.00  0.00    -0.000 C 
BRANCH  27  28
ATOM     28  C   UNL     1      42.783  35.926  27.120  1.00  0.00    -0.000 C 
BRANCH  28  29
ATOM     29  C   UNL     1      44.270  35.745  26.790  1.00  0.00    -0.000 C 
BRANCH  29  30
ATOM     30  C   UNL     1      44.732  36.774  25.746  1.00  0.00    -0.000 C 
BRANCH  30  31
ATOM     31  C   UNL     1      44.653  38.218  26.265  1.00  0.00    -0.003 C 
ATOM     32  C   UNL     1      44.578  39.245  25.136  1.00  0.00     0.004 C 
ENDBRANCH  30  31
ENDBRANCH  29  30
ENDBRANCH  28  29
ENDBRANCH  27  28
ENDBRANCH  26  27
ENDBRANCH  25  26
ENDBRANCH  24  25
ENDBRANCH  23  24
ENDBRANCH  22  23
ENDBRANCH  21  22
ENDBRANCH  20  21
ENDBRANCH  19  20
ENDBRANCH  18  19
ENDBRANCH   1  18
TORSDOF 28
ENDMDL
