MODEL 1
REMARK VINA RESULT:    -5.502      0.000      0.000
REMARK INTER + INTRA:          -5.916
REMARK INTER:                  -5.823
REMARK INTRA:                  -0.093
REMARK UNBOUND:                -0.093
REMARK SMILES C=C(C)[C@H]1CC=C(C)C(=O)C1
REMARK SMILES IDX 8 1 7 2 6 3 5 4 4 5 11 6 9 7 10 8 2 9 1 10 3 11
REMARK H PARENT
REMARK Flexibility Score: inf
ROOT
ATOM      1  C   UNL     1       0.968 147.509  -5.758  1.00  0.00     0.048 C 
ATOM      2  C   UNL     1       2.016 146.659  -6.422  1.00  0.00    -0.012 C 
ATOM      3  C   UNL     1       1.690 145.907  -7.488  1.00  0.00    -0.019 C 
ATOM      4  C   UNL     1       2.695 145.025  -8.180  1.00  0.00     0.036 C 
ATOM      5  C   UNL     1       4.106 145.639  -8.119  1.00  0.00     0.025 C 
ATOM      6  C   UNL     1       4.498 145.935  -6.660  1.00  0.00     0.089 C 
ATOM      7  C   UNL     1       3.430 146.748  -5.980  1.00  0.00     0.158 C 
ATOM      8  O   UNL     1       3.743 147.480  -5.004  1.00  0.00    -0.295 OA
ENDROOT
BRANCH   5   9
ATOM      9  C   UNL     1       5.132 144.744  -8.800  1.00  0.00    -0.077 C 
ATOM     10  C   UNL     1       6.341 145.231  -9.125  1.00  0.00     0.008 C 
ATOM     11  C   UNL     1       4.828 143.301  -9.122  1.00  0.00     0.039 C 
ENDBRANCH   5   9
TORSDOF 1
ENDMDL
MODEL 2
REMARK VINA RESULT:    -5.435      0.145      1.050
REMARK INTER + INTRA:          -5.846
REMARK INTER:                  -5.747
REMARK INTRA:                  -0.098
REMARK UNBOUND:                -0.093
REMARK SMILES C=C(C)[C@H]1CC=C(C)C(=O)C1
REMARK SMILES IDX 8 1 7 2 6 3 5 4 4 5 11 6 9 7 10 8 2 9 1 10 3 11
REMARK H PARENT
REMARK Flexibility Score: inf
ROOT
ATOM      1  C   UNL     1       0.934 147.592  -5.760  1.00  0.00     0.048 C 
ATOM      2  C   UNL     1       1.941 146.694  -6.422  1.00  0.00    -0.012 C 
ATOM      3  C   UNL     1       1.581 145.954  -7.486  1.00  0.00    -0.019 C 
ATOM      4  C   UNL     1       2.545 145.026  -8.176  1.00  0.00     0.036 C 
ATOM      5  C   UNL     1       3.983 145.576  -8.118  1.00  0.00     0.025 C 
ATOM      6  C   UNL     1       4.389 145.859  -6.660  1.00  0.00     0.089 C 
ATOM      7  C   UNL     1       3.359 146.720  -5.982  1.00  0.00     0.158 C 
ATOM      8  O   UNL     1       3.706 147.441  -5.008  1.00  0.00    -0.295 OA
ENDROOT
BRANCH   5   9
ATOM      9  C   UNL     1       4.967 144.634  -8.797  1.00  0.00    -0.077 C 
ATOM     10  C   UNL     1       4.588 143.387  -9.125  1.00  0.00     0.008 C 
ATOM     11  C   UNL     1       6.376 145.066  -9.120  1.00  0.00     0.039 C 
ENDBRANCH   5   9
TORSDOF 1
ENDMDL
MODEL 3
REMARK VINA RESULT:    -4.822      1.497      4.344
REMARK INTER + INTRA:          -5.196
REMARK INTER:                  -5.105
REMARK INTRA:                  -0.091
REMARK UNBOUND:                -0.093
REMARK SMILES C=C(C)[C@H]1CC=C(C)C(=O)C1
REMARK SMILES IDX 8 1 7 2 6 3 5 4 4 5 11 6 9 7 10 8 2 9 1 10 3 11
REMARK H PARENT
REMARK Flexibility Score: inf
ROOT
ATOM      1  C   UNL     1       5.614 143.377  -8.595  1.00  0.00     0.048 C 
ATOM      2  C   UNL     1       4.591 144.362  -8.100  1.00  0.00    -0.012 C 
ATOM      3  C   UNL     1       3.453 144.549  -8.792  1.00  0.00    -0.019 C 
ATOM      4  C   UNL     1       2.404 145.534  -8.352  1.00  0.00     0.036 C 
ATOM      5  C   UNL     1       2.355 145.643  -6.816  1.00  0.00     0.025 C 
ATOM      6  C   UNL     1       3.748 145.988  -6.259  1.00  0.00     0.089 C 
ATOM      7  C   UNL     1       4.781 145.030  -6.788  1.00  0.00     0.158 C 
ATOM      8  O   UNL     1       5.831 144.828  -6.121  1.00  0.00    -0.295 OA
ENDROOT
BRANCH   5   9
ATOM      9  C   UNL     1       1.309 146.652  -6.362  1.00  0.00    -0.077 C 
ATOM     10  C   UNL     1       0.002 146.375  -6.500  1.00  0.00     0.008 C 
ATOM     11  C   UNL     1       1.704 147.973  -5.750  1.00  0.00     0.039 C 
ENDBRANCH   5   9
TORSDOF 1
ENDMDL
MODEL 4
REMARK VINA RESULT:    -4.732      2.034      4.606
REMARK INTER + INTRA:          -5.101
REMARK INTER:                  -5.003
REMARK INTRA:                  -0.098
REMARK UNBOUND:                -0.093
REMARK SMILES C=C(C)[C@H]1CC=C(C)C(=O)C1
REMARK SMILES IDX 8 1 7 2 6 3 5 4 4 5 11 6 9 7 10 8 2 9 1 10 3 11
REMARK H PARENT
REMARK Flexibility Score: inf
ROOT
ATOM      1  C   UNL     1       5.982 143.834  -8.677  1.00  0.00     0.048 C 
ATOM      2  C   UNL     1       4.887 144.551  -7.937  1.00  0.00    -0.012 C 
ATOM      3  C   UNL     1       4.994 145.869  -7.695  1.00  0.00    -0.019 C 
ATOM      4  C   UNL     1       3.936 146.631  -6.944  1.00  0.00     0.036 C 
ATOM      5  C   UNL     1       2.536 146.045  -7.211  1.00  0.00     0.025 C 
ATOM      6  C   UNL     1       2.514 144.541  -6.882  1.00  0.00     0.089 C 
ATOM      7  C   UNL     1       3.637 143.830  -7.587  1.00  0.00     0.158 C 
ATOM      8  O   UNL     1       3.520 142.602  -7.845  1.00  0.00    -0.295 OA
ENDROOT
BRANCH   5   9
ATOM      9  C   UNL     1       1.461 146.799  -6.439  1.00  0.00    -0.077 C 
ATOM     10  C   UNL     1       1.785 147.891  -5.727  1.00  0.00     0.008 C 
ATOM     11  C   UNL     1       0.021 146.350  -6.454  1.00  0.00     0.039 C 
ENDBRANCH   5   9
TORSDOF 1
ENDMDL
MODEL 5
REMARK VINA RESULT:    -4.497      1.415      2.285
REMARK INTER + INTRA:          -4.853
REMARK INTER:                  -4.762
REMARK INTRA:                  -0.091
REMARK UNBOUND:                -0.093
REMARK SMILES C=C(C)[C@H]1CC=C(C)C(=O)C1
REMARK SMILES IDX 8 1 7 2 6 3 5 4 4 5 11 6 9 7 10 8 2 9 1 10 3 11
REMARK H PARENT
REMARK Flexibility Score: inf
ROOT
ATOM      1  C   UNL     1       1.429 147.859  -5.403  1.00  0.00     0.048 C 
ATOM      2  C   UNL     1       2.430 147.123  -6.249  1.00  0.00    -0.012 C 
ATOM      3  C   UNL     1       3.746 147.298  -6.035  1.00  0.00    -0.019 C 
ATOM      4  C   UNL     1       4.790 146.600  -6.864  1.00  0.00     0.036 C 
ATOM      5  C   UNL     1       4.299 145.212  -7.320  1.00  0.00     0.025 C 
ATOM      6  C   UNL     1       2.954 145.337  -8.060  1.00  0.00     0.089 C 
ATOM      7  C   UNL     1       1.966 146.112  -7.233  1.00  0.00     0.158 C 
ATOM      8  O   UNL     1       0.733 145.921  -7.410  1.00  0.00    -0.295 OA
ENDROOT
BRANCH   5   9
ATOM      9  C   UNL     1       5.342 144.506  -8.176  1.00  0.00    -0.077 C 
ATOM     10  C   UNL     1       5.386 143.164  -8.212  1.00  0.00     0.008 C 
ATOM     11  C   UNL     1       6.339 145.282  -9.000  1.00  0.00     0.039 C 
ENDBRANCH   5   9
TORSDOF 1
ENDMDL
MODEL 6
REMARK VINA RESULT:    -4.463      1.511      2.484
REMARK INTER + INTRA:          -4.817
REMARK INTER:                  -4.719
REMARK INTRA:                  -0.098
REMARK UNBOUND:                -0.093
REMARK SMILES C=C(C)[C@H]1CC=C(C)C(=O)C1
REMARK SMILES IDX 8 1 7 2 6 3 5 4 4 5 11 6 9 7 10 8 2 9 1 10 3 11
REMARK H PARENT
REMARK Flexibility Score: inf
ROOT
ATOM      1  C   UNL     1       4.129 148.320  -5.375  1.00  0.00     0.048 C 
ATOM      2  C   UNL     1       4.005 147.100  -6.244  1.00  0.00    -0.012 C 
ATOM      3  C   UNL     1       5.112 146.464  -6.667  1.00  0.00    -0.019 C 
ATOM      4  C   UNL     1       5.045 145.249  -7.553  1.00  0.00     0.036 C 
ATOM      5  C   UNL     1       3.787 144.412  -7.252  1.00  0.00     0.025 C 
ATOM      6  C   UNL     1       2.524 145.285  -7.364  1.00  0.00     0.089 C 
ATOM      7  C   UNL     1       2.665 146.528  -6.530  1.00  0.00     0.158 C 
ATOM      8  O   UNL     1       1.627 147.103  -6.104  1.00  0.00    -0.295 OA
ENDROOT
BRANCH   5   9
ATOM      9  C   UNL     1       3.702 143.191  -8.157  1.00  0.00    -0.077 C 
ATOM     10  C   UNL     1       4.616 143.004  -9.124  1.00  0.00     0.008 C 
ATOM     11  C   UNL     1       2.606 142.166  -7.996  1.00  0.00     0.039 C 
ENDBRANCH   5   9
TORSDOF 1
ENDMDL
MODEL 7
REMARK VINA RESULT:    -4.335      1.754      4.342
REMARK INTER + INTRA:          -4.681
REMARK INTER:                  -4.586
REMARK INTRA:                  -0.095
REMARK UNBOUND:                -0.093
REMARK SMILES C=C(C)[C@H]1CC=C(C)C(=O)C1
REMARK SMILES IDX 8 1 7 2 6 3 5 4 4 5 11 6 9 7 10 8 2 9 1 10 3 11
REMARK H PARENT
REMARK Flexibility Score: inf
ROOT
ATOM      1  C   UNL     1       5.651 143.348  -8.686  1.00  0.00     0.048 C 
ATOM      2  C   UNL     1       4.530 144.247  -8.245  1.00  0.00    -0.012 C 
ATOM      3  C   UNL     1       3.414 143.716  -7.715  1.00  0.00    -0.019 C 
ATOM      4  C   UNL     1       2.255 144.568  -7.274  1.00  0.00     0.036 C 
ATOM      5  C   UNL     1       2.739 145.933  -6.748  1.00  0.00     0.025 C 
ATOM      6  C   UNL     1       3.610 146.635  -7.806  1.00  0.00     0.089 C 
ATOM      7  C   UNL     1       4.706 145.721  -8.280  1.00  0.00     0.158 C 
ATOM      8  O   UNL     1       5.766 146.221  -8.744  1.00  0.00    -0.295 OA
ENDROOT
BRANCH   5   9
ATOM      9  C   UNL     1       1.571 146.810  -6.318  1.00  0.00    -0.077 C 
ATOM     10  C   UNL     1       1.799 148.014  -5.769  1.00  0.00     0.008 C 
ATOM     11  C   UNL     1       0.141 146.360  -6.497  1.00  0.00     0.039 C 
ENDBRANCH   5   9
TORSDOF 1
ENDMDL
MODEL 8
REMARK VINA RESULT:    -3.667      1.443      1.895
REMARK INTER + INTRA:          -3.974
REMARK INTER:                  -3.876
REMARK INTRA:                  -0.098
REMARK UNBOUND:                -0.093
REMARK SMILES C=C(C)[C@H]1CC=C(C)C(=O)C1
REMARK SMILES IDX 8 1 7 2 6 3 5 4 4 5 11 6 9 7 10 8 2 9 1 10 3 11
REMARK H PARENT
REMARK Flexibility Score: inf
ROOT
ATOM      1  C   UNL     1       3.173 148.058  -5.470  1.00  0.00     0.048 C 
ATOM      2  C   UNL     1       3.304 146.724  -6.152  1.00  0.00    -0.012 C 
ATOM      3  C   UNL     1       2.201 146.064  -6.547  1.00  0.00    -0.019 C 
ATOM      4  C   UNL     1       2.274 144.718  -7.218  1.00  0.00     0.036 C 
ATOM      5  C   UNL     1       3.549 144.594  -8.074  1.00  0.00     0.025 C 
ATOM      6  C   UNL     1       4.797 144.887  -7.220  1.00  0.00     0.089 C 
ATOM      7  C   UNL     1       4.648 146.200  -6.501  1.00  0.00     0.158 C 
ATOM      8  O   UNL     1       5.683 146.836  -6.164  1.00  0.00    -0.295 OA
ENDROOT
BRANCH   5   9
ATOM      9  C   UNL     1       3.640 143.228  -8.741  1.00  0.00    -0.077 C 
ATOM     10  C   UNL     1       4.834 142.745  -9.125  1.00  0.00     0.008 C 
ATOM     11  C   UNL     1       2.411 142.387  -8.983  1.00  0.00     0.039 C 
ENDBRANCH   5   9
TORSDOF 1
ENDMDL
MODEL 9
REMARK VINA RESULT:    -3.347      0.983      1.569
REMARK INTER + INTRA:          -3.636
REMARK INTER:                  -3.538
REMARK INTRA:                  -0.098
REMARK UNBOUND:                -0.093
REMARK SMILES C=C(C)[C@H]1CC=C(C)C(=O)C1
REMARK SMILES IDX 8 1 7 2 6 3 5 4 4 5 11 6 9 7 10 8 2 9 1 10 3 11
REMARK H PARENT
REMARK Flexibility Score: inf
ROOT
ATOM      1  C   UNL     1       1.592 148.303  -5.135  1.00  0.00     0.048 C 
ATOM      2  C   UNL     1       2.079 147.117  -5.920  1.00  0.00    -0.012 C 
ATOM      3  C   UNL     1       1.226 146.439  -6.708  1.00  0.00    -0.019 C 
ATOM      4  C   UNL     1       1.657 145.235  -7.501  1.00  0.00     0.036 C 
ATOM      5  C   UNL     1       3.125 145.363  -7.949  1.00  0.00     0.025 C 
ATOM      6  C   UNL     1       4.035 145.616  -6.733  1.00  0.00     0.089 C 
ATOM      7  C   UNL     1       3.524 146.774  -5.922  1.00  0.00     0.158 C 
ATOM      8  O   UNL     1       4.331 147.432  -5.212  1.00  0.00    -0.295 OA
ENDROOT
BRANCH   5   9
ATOM      9  C   UNL     1       3.576 144.140  -8.736  1.00  0.00    -0.077 C 
ATOM     10  C   UNL     1       2.679 143.209  -9.104  1.00  0.00     0.008 C 
ATOM     11  C   UNL     1       5.020 143.941  -9.124  1.00  0.00     0.039 C 
ENDBRANCH   5   9
TORSDOF 1
ENDMDL
