MODEL 1
REMARK VINA RESULT:    -5.329      0.000      0.000
REMARK INTER + INTRA:          -5.677
REMARK INTER:                  -5.640
REMARK INTRA:                  -0.037
REMARK UNBOUND:                -0.037
REMARK SMILES COc1ccc2ccc(=O)oc2c1
REMARK SMILES IDX 3 1 13 2 12 3 6 4 5 5 4 6 7 7 8 8 9 9 10 10 11 11 2 12 1 13
REMARK H PARENT
REMARK Flexibility Score: inf
ROOT
ATOM      1  C   UNL     1      22.051   0.627 -22.162  1.00  0.00     0.122 A 
ATOM      2  C   UNL     1      21.947   0.987 -20.804  1.00  0.00     0.094 A 
ATOM      3  C   UNL     1      21.267   0.158 -19.905  1.00  0.00     0.142 A 
ATOM      4  C   UNL     1      20.684  -1.044 -20.361  1.00  0.00     0.018 A 
ATOM      5  C   UNL     1      20.787  -1.402 -21.711  1.00  0.00     0.016 A 
ATOM      6  C   UNL     1      21.469  -0.569 -22.602  1.00  0.00     0.047 A 
ATOM      7  C   UNL     1      20.010  -1.851 -19.438  1.00  0.00     0.019 A 
ATOM      8  C   UNL     1      19.935  -1.448 -18.105  1.00  0.00     0.094 A 
ATOM      9  C   UNL     1      20.537  -0.244 -17.725  1.00  0.00     0.336 A 
ATOM     10  O   UNL     1      20.479   0.136 -16.526  1.00  0.00    -0.246 OA
ATOM     11  O   UNL     1      21.172   0.504 -18.623  1.00  0.00    -0.423 OA
ENDROOT
BRANCH   1  12
ATOM     12  O   UNL     1      22.723   1.424 -23.102  1.00  0.00    -0.497 OA
ATOM     13  C   UNL     1      22.686   2.847 -23.121  1.00  0.00     0.278 C 
ENDBRANCH   1  12
TORSDOF 1
ENDMDL
MODEL 2
REMARK VINA RESULT:    -5.309      0.889      1.030
REMARK INTER + INTRA:          -5.656
REMARK INTER:                  -5.617
REMARK INTRA:                  -0.039
REMARK UNBOUND:                -0.037
REMARK SMILES COc1ccc2ccc(=O)oc2c1
REMARK SMILES IDX 3 1 13 2 12 3 6 4 5 5 4 6 7 7 8 8 9 9 10 10 11 11 2 12 1 13
REMARK H PARENT
REMARK Flexibility Score: inf
ROOT
ATOM      1  C   UNL     1      22.248   1.598 -22.402  1.00  0.00     0.122 A 
ATOM      2  C   UNL     1      21.876   1.682 -21.046  1.00  0.00     0.094 A 
ATOM      3  C   UNL     1      21.424   0.544 -20.367  1.00  0.00     0.142 A 
ATOM      4  C   UNL     1      21.342  -0.691 -21.045  1.00  0.00     0.018 A 
ATOM      5  C   UNL     1      21.711  -0.774 -22.393  1.00  0.00     0.016 A 
ATOM      6  C   UNL     1      22.162   0.366 -23.063  1.00  0.00     0.047 A 
ATOM      7  C   UNL     1      20.886  -1.810 -20.340  1.00  0.00     0.019 A 
ATOM      8  C   UNL     1      20.530  -1.674 -18.999  1.00  0.00     0.094 A 
ATOM      9  C   UNL     1      20.637  -0.419 -18.392  1.00  0.00     0.336 A 
ATOM     10  O   UNL     1      20.320  -0.276 -17.182  1.00  0.00    -0.246 OA
ATOM     11  O   UNL     1      21.074   0.629 -19.086  1.00  0.00    -0.423 OA
ENDROOT
BRANCH   1  12
ATOM     12  O   UNL     1      22.707   2.710 -23.125  1.00  0.00    -0.497 OA
ATOM     13  C   UNL     1      23.001   3.978 -22.548  1.00  0.00     0.278 C 
ENDBRANCH   1  12
TORSDOF 1
ENDMDL
MODEL 3
REMARK VINA RESULT:    -5.170      1.158      4.730
REMARK INTER + INTRA:          -5.509
REMARK INTER:                  -5.475
REMARK INTRA:                  -0.033
REMARK UNBOUND:                -0.037
REMARK SMILES COc1ccc2ccc(=O)oc2c1
REMARK SMILES IDX 3 1 13 2 12 3 6 4 5 5 4 6 7 7 8 8 9 9 10 10 11 11 2 12 1 13
REMARK H PARENT
REMARK Flexibility Score: inf
ROOT
ATOM      1  C   UNL     1      20.357  -0.764 -18.588  1.00  0.00     0.122 A 
ATOM      2  C   UNL     1      20.835   0.406 -19.211  1.00  0.00     0.094 A 
ATOM      3  C   UNL     1      21.302   0.362 -20.530  1.00  0.00     0.142 A 
ATOM      4  C   UNL     1      21.294  -0.859 -21.238  1.00  0.00     0.018 A 
ATOM      5  C   UNL     1      20.820  -2.023 -20.618  1.00  0.00     0.016 A 
ATOM      6  C   UNL     1      20.355  -1.970 -19.301  1.00  0.00     0.047 A 
ATOM      7  C   UNL     1      21.768  -0.871 -22.554  1.00  0.00     0.019 A 
ATOM      8  C   UNL     1      22.230   0.315 -23.124  1.00  0.00     0.094 A 
ATOM      9  C   UNL     1      22.208   1.487 -22.362  1.00  0.00     0.336 A 
ATOM     10  O   UNL     1      22.621   2.567 -22.860  1.00  0.00    -0.246 OA
ATOM     11  O   UNL     1      21.752   1.471 -21.113  1.00  0.00    -0.423 OA
ENDROOT
BRANCH   1  12
ATOM     12  O   UNL     1      19.878  -0.772 -17.269  1.00  0.00    -0.497 OA
ATOM     13  C   UNL     1      18.582  -1.220 -16.888  1.00  0.00     0.278 C 
ENDBRANCH   1  12
TORSDOF 1
ENDMDL
MODEL 4
REMARK VINA RESULT:    -4.930      1.910      5.475
REMARK INTER + INTRA:          -5.255
REMARK INTER:                  -5.215
REMARK INTRA:                  -0.040
REMARK UNBOUND:                -0.037
REMARK SMILES COc1ccc2ccc(=O)oc2c1
REMARK SMILES IDX 3 1 13 2 12 3 6 4 5 5 4 6 7 7 8 8 9 9 10 10 11 11 2 12 1 13
REMARK H PARENT
REMARK Flexibility Score: inf
ROOT
ATOM      1  C   UNL     1      19.262  -2.104 -17.816  1.00  0.00     0.122 A 
ATOM      2  C   UNL     1      19.645  -2.299 -19.157  1.00  0.00     0.094 A 
ATOM      3  C   UNL     1      20.394  -1.323 -19.825  1.00  0.00     0.142 A 
ATOM      4  C   UNL     1      20.766  -0.140 -19.151  1.00  0.00     0.018 A 
ATOM      5  C   UNL     1      20.385   0.054 -17.818  1.00  0.00     0.016 A 
ATOM      6  C   UNL     1      19.637  -0.925 -17.158  1.00  0.00     0.047 A 
ATOM      7  C   UNL     1      21.514   0.817 -19.846  1.00  0.00     0.019 A 
ATOM      8  C   UNL     1      21.868   0.576 -21.173  1.00  0.00     0.094 A 
ATOM      9  C   UNL     1      21.464  -0.619 -21.776  1.00  0.00     0.336 A 
ATOM     10  O   UNL     1      21.774  -0.855 -22.973  1.00  0.00    -0.246 OA
ATOM     11  O   UNL     1      20.753  -1.512 -21.093  1.00  0.00    -0.423 OA
ENDROOT
BRANCH   1  12
ATOM     12  O   UNL     1      18.512  -3.052 -17.103  1.00  0.00    -0.497 OA
ATOM     13  C   UNL     1      18.131  -2.914 -15.738  1.00  0.00     0.278 C 
ENDBRANCH   1  12
TORSDOF 1
ENDMDL
MODEL 5
REMARK VINA RESULT:    -4.852     14.693     17.373
REMARK INTER + INTRA:          -5.172
REMARK INTER:                  -5.140
REMARK INTRA:                  -0.032
REMARK UNBOUND:                -0.037
REMARK SMILES COc1ccc2ccc(=O)oc2c1
REMARK SMILES IDX 3 1 13 2 12 3 6 4 5 5 4 6 7 7 8 8 9 9 10 10 11 11 2 12 1 13
REMARK H PARENT
REMARK Flexibility Score: inf
ROOT
ATOM      1  C   UNL     1      11.423  -5.683  -9.855  1.00  0.00     0.122 A 
ATOM      2  C   UNL     1      11.076  -5.920  -8.511  1.00  0.00     0.094 A 
ATOM      3  C   UNL     1       9.769  -5.683  -8.068  1.00  0.00     0.142 A 
ATOM      4  C   UNL     1       8.797  -5.206  -8.972  1.00  0.00     0.018 A 
ATOM      5  C   UNL     1       9.142  -4.969 -10.309  1.00  0.00     0.016 A 
ATOM      6  C   UNL     1      10.448  -5.209 -10.743  1.00  0.00     0.047 A 
ATOM      7  C   UNL     1       7.500  -4.978  -8.499  1.00  0.00     0.019 A 
ATOM      8  C   UNL     1       7.208  -5.229  -7.159  1.00  0.00     0.094 A 
ATOM      9  C   UNL     1       8.222  -5.701  -6.320  1.00  0.00     0.336 A 
ATOM     10  O   UNL     1       7.978  -5.933  -5.107  1.00  0.00    -0.246 OA
ATOM     11  O   UNL     1       9.447  -5.909  -6.796  1.00  0.00    -0.423 OA
ENDROOT
BRANCH   1  12
ATOM     12  O   UNL     1      12.718  -5.905 -10.348  1.00  0.00    -0.497 OA
ATOM     13  C   UNL     1      13.579  -4.880 -10.833  1.00  0.00     0.278 C 
ENDBRANCH   1  12
TORSDOF 1
ENDMDL
MODEL 6
REMARK VINA RESULT:    -4.815     14.933     17.584
REMARK INTER + INTRA:          -5.133
REMARK INTER:                  -5.095
REMARK INTRA:                  -0.039
REMARK UNBOUND:                -0.037
REMARK SMILES COc1ccc2ccc(=O)oc2c1
REMARK SMILES IDX 3 1 13 2 12 3 6 4 5 5 4 6 7 7 8 8 9 9 10 10 11 11 2 12 1 13
REMARK H PARENT
REMARK Flexibility Score: inf
ROOT
ATOM      1  C   UNL     1      13.915   3.403  -7.298  1.00  0.00     0.122 A 
ATOM      2  C   UNL     1      12.746   2.912  -6.684  1.00  0.00     0.094 A 
ATOM      3  C   UNL     1      12.390   3.342  -5.401  1.00  0.00     0.142 A 
ATOM      4  C   UNL     1      13.206   4.272  -4.720  1.00  0.00     0.018 A 
ATOM      5  C   UNL     1      14.368   4.759  -5.330  1.00  0.00     0.016 A 
ATOM      6  C   UNL     1      14.716   4.325  -6.613  1.00  0.00     0.047 A 
ATOM      7  C   UNL     1      12.823   4.682  -3.439  1.00  0.00     0.019 A 
ATOM      8  C   UNL     1      11.657   4.166  -2.875  1.00  0.00     0.094 A 
ATOM      9  C   UNL     1      10.898   3.248  -3.609  1.00  0.00     0.336 A 
ATOM     10  O   UNL     1       9.842   2.771  -3.117  1.00  0.00    -0.246 OA
ATOM     11  O   UNL     1      11.285   2.875  -4.826  1.00  0.00    -0.423 OA
ENDROOT
BRANCH   1  12
ATOM     12  O   UNL     1      14.314   3.002  -8.583  1.00  0.00    -0.497 OA
ATOM     13  C   UNL     1      13.733   1.921  -9.304  1.00  0.00     0.278 C 
ENDBRANCH   1  12
TORSDOF 1
ENDMDL
MODEL 7
REMARK VINA RESULT:    -4.799     16.452     19.013
REMARK INTER + INTRA:          -5.116
REMARK INTER:                  -5.080
REMARK INTRA:                  -0.036
REMARK UNBOUND:                -0.037
REMARK SMILES COc1ccc2ccc(=O)oc2c1
REMARK SMILES IDX 3 1 13 2 12 3 6 4 5 5 4 6 7 7 8 8 9 9 10 10 11 11 2 12 1 13
REMARK H PARENT
REMARK Flexibility Score: inf
ROOT
ATOM      1  C   UNL     1       7.819  -6.382  -7.101  1.00  0.00     0.122 A 
ATOM      2  C   UNL     1       8.181  -7.109  -8.252  1.00  0.00     0.094 A 
ATOM      3  C   UNL     1       8.224  -6.478  -9.501  1.00  0.00     0.142 A 
ATOM      4  C   UNL     1       7.905  -5.107  -9.606  1.00  0.00     0.018 A 
ATOM      5  C   UNL     1       7.545  -4.384  -8.462  1.00  0.00     0.016 A 
ATOM      6  C   UNL     1       7.505  -5.021  -7.219  1.00  0.00     0.047 A 
ATOM      7  C   UNL     1       7.957  -4.505 -10.867  1.00  0.00     0.019 A 
ATOM      8  C   UNL     1       8.321  -5.269 -11.975  1.00  0.00     0.094 A 
ATOM      9  C   UNL     1       8.624  -6.622 -11.796  1.00  0.00     0.336 A 
ATOM     10  O   UNL     1       8.954  -7.329 -12.784  1.00  0.00    -0.246 OA
ATOM     11  O   UNL     1       8.566  -7.170 -10.585  1.00  0.00    -0.423 OA
ENDROOT
BRANCH   1  12
ATOM     12  O   UNL     1       7.761  -6.969  -5.828  1.00  0.00    -0.497 OA
ATOM     13  C   UNL     1       7.209  -8.254  -5.561  1.00  0.00     0.278 C 
ENDBRANCH   1  12
TORSDOF 1
ENDMDL
MODEL 8
REMARK VINA RESULT:    -4.753     16.486     18.761
REMARK INTER + INTRA:          -5.067
REMARK INTER:                  -5.032
REMARK INTRA:                  -0.035
REMARK UNBOUND:                -0.037
REMARK SMILES COc1ccc2ccc(=O)oc2c1
REMARK SMILES IDX 3 1 13 2 12 3 6 4 5 5 4 6 7 7 8 8 9 9 10 10 11 11 2 12 1 13
REMARK H PARENT
REMARK Flexibility Score: inf
ROOT
ATOM      1  C   UNL     1       7.899  -5.997  -7.000  1.00  0.00     0.122 A 
ATOM      2  C   UNL     1       7.694  -4.960  -7.932  1.00  0.00     0.094 A 
ATOM      3  C   UNL     1       7.903  -5.189  -9.297  1.00  0.00     0.142 A 
ATOM      4  C   UNL     1       8.319  -6.463  -9.740  1.00  0.00     0.018 A 
ATOM      5  C   UNL     1       8.523  -7.493  -8.814  1.00  0.00     0.016 A 
ATOM      6  C   UNL     1       8.312  -7.257  -7.452  1.00  0.00     0.047 A 
ATOM      7  C   UNL     1       8.520  -6.659 -11.111  1.00  0.00     0.019 A 
ATOM      8  C   UNL     1       8.304  -5.601 -11.992  1.00  0.00     0.094 A 
ATOM      9  C   UNL     1       7.892  -4.366 -11.481  1.00  0.00     0.336 A 
ATOM     10  O   UNL     1       7.692  -3.399 -12.261  1.00  0.00    -0.246 OA
ATOM     11  O   UNL     1       7.709  -4.206 -10.173  1.00  0.00    -0.423 OA
ENDROOT
BRANCH   1  12
ATOM     12  O   UNL     1       7.703  -5.817  -5.622  1.00  0.00    -0.497 OA
ATOM     13  C   UNL     1       8.322  -4.795  -4.849  1.00  0.00     0.278 C 
ENDBRANCH   1  12
TORSDOF 1
ENDMDL
MODEL 9
REMARK VINA RESULT:    -4.732      1.664      5.185
REMARK INTER + INTRA:          -5.045
REMARK INTER:                  -5.005
REMARK INTRA:                  -0.040
REMARK UNBOUND:                -0.037
REMARK SMILES COc1ccc2ccc(=O)oc2c1
REMARK SMILES IDX 3 1 13 2 12 3 6 4 5 5 4 6 7 7 8 8 9 9 10 10 11 11 2 12 1 13
REMARK H PARENT
REMARK Flexibility Score: inf
ROOT
ATOM      1  C   UNL     1      19.062  -1.292 -16.998  1.00  0.00     0.122 A 
ATOM      2  C   UNL     1      19.773  -0.203 -17.541  1.00  0.00     0.094 A 
ATOM      3  C   UNL     1      20.319  -0.290 -18.827  1.00  0.00     0.142 A 
ATOM      4  C   UNL     1      20.156  -1.471 -19.581  1.00  0.00     0.018 A 
ATOM      5  C   UNL     1      19.450  -2.553 -19.041  1.00  0.00     0.016 A 
ATOM      6  C   UNL     1      18.907  -2.459 -17.757  1.00  0.00     0.047 A 
ATOM      7  C   UNL     1      20.714  -1.527 -20.863  1.00  0.00     0.019 A 
ATOM      8  C   UNL     1      21.409  -0.422 -21.354  1.00  0.00     0.094 A 
ATOM      9  C   UNL     1      21.531   0.715 -20.550  1.00  0.00     0.336 A 
ATOM     10  O   UNL     1      22.155   1.722 -20.976  1.00  0.00    -0.246 OA
ATOM     11  O   UNL     1      20.990   0.742 -19.334  1.00  0.00    -0.423 OA
ENDROOT
BRANCH   1  12
ATOM     12  O   UNL     1      18.495  -1.254 -15.714  1.00  0.00    -0.497 OA
ATOM     13  C   UNL     1      17.668  -2.277 -15.171  1.00  0.00     0.278 C 
ENDBRANCH   1  12
TORSDOF 1
ENDMDL
