MODEL 1
REMARK VINA RESULT:    -4.323      0.000      0.000
REMARK INTER + INTRA:          -6.059
REMARK INTER:                  -5.587
REMARK INTRA:                  -0.472
REMARK UNBOUND:                -0.472
REMARK SMILES CCO[C@@H]1O[C@H](CO)[C@@H](O)[C@H](O)[C@H]1O
REMARK SMILES IDX 4 1 13 2 11 3 9 4 6 5 5 6 3 7 2 8 1 9 14 10 12 12 7 14 8 15
REMARK SMILES IDX 10 17
REMARK H PARENT 14 11 12 13 8 16 10 18
REMARK Flexibility Score: inf
ROOT
ATOM      1  C   UNL     1      36.734 -49.547   3.162  1.00  0.00     0.281 C 
ATOM      2  C   UNL     1      37.574 -49.141   4.396  1.00  0.00     0.202 C 
ATOM      3  C   UNL     1      37.526 -50.218   5.494  1.00  0.00     0.179 C 
ATOM      4  C   UNL     1      37.801 -51.618   4.917  1.00  0.00     0.177 C 
ATOM      5  C   UNL     1      37.008 -51.882   3.612  1.00  0.00     0.178 C 
ATOM      6  O   UNL     1      37.101 -50.826   2.661  1.00  0.00    -0.341 OA
ENDROOT
BRANCH   1   7
ATOM      7  O   UNL     1      35.347 -49.513   3.460  1.00  0.00    -0.350 OA
BRANCH   7   8
ATOM      8  C   UNL     1      34.614 -48.882   2.432  1.00  0.00     0.160 C 
ATOM      9  C   UNL     1      33.793 -49.927   1.693  1.00  0.00     0.035 C 
ENDBRANCH   7   8
ENDBRANCH   1   7
BRANCH   2  10
ATOM     10  O   UNL     1      38.904 -48.845   4.041  1.00  0.00    -0.385 OA
ATOM     11  H   UNL     1      39.400 -48.593   4.863  1.00  0.00     0.211 HD
ENDBRANCH   2  10
BRANCH   3  12
ATOM     12  O   UNL     1      36.273 -50.210   6.130  1.00  0.00    -0.387 OA
ATOM     13  H   UNL     1      36.442 -50.137   7.105  1.00  0.00     0.211 HD
ENDBRANCH   3  12
BRANCH   5  14
ATOM     14  C   UNL     1      35.557 -52.357   3.856  1.00  0.00     0.191 C 
BRANCH  14  15
ATOM     15  O   UNL     1      35.450 -53.006   5.093  1.00  0.00    -0.394 OA
ATOM     16  H   UNL     1      35.283 -53.966   4.898  1.00  0.00     0.210 HD
ENDBRANCH  14  15
ENDBRANCH   5  14
BRANCH   4  17
ATOM     17  O   UNL     1      39.174 -51.768   4.653  1.00  0.00    -0.387 OA
ATOM     18  H   UNL     1      39.301 -51.625   3.679  1.00  0.00     0.211 HD
ENDBRANCH   4  17
TORSDOF 7
ENDMDL
MODEL 2
REMARK VINA RESULT:    -4.133     11.642     13.420
REMARK INTER + INTRA:          -5.813
REMARK INTER:                  -5.381
REMARK INTRA:                  -0.432
REMARK UNBOUND:                -0.472
REMARK SMILES CCO[C@@H]1O[C@H](CO)[C@@H](O)[C@H](O)[C@H]1O
REMARK SMILES IDX 4 1 13 2 11 3 9 4 6 5 5 6 3 7 2 8 1 9 14 10 12 12 7 14 8 15
REMARK SMILES IDX 10 17
REMARK H PARENT 14 11 12 13 8 16 10 18
REMARK Flexibility Score: inf
ROOT
ATOM      1  C   UNL     1      31.669 -42.018  -5.915  1.00  0.00     0.281 C 
ATOM      2  C   UNL     1      30.276 -41.938  -5.247  1.00  0.00     0.202 C 
ATOM      3  C   UNL     1      29.857 -43.291  -4.645  1.00  0.00     0.179 C 
ATOM      4  C   UNL     1      30.986 -43.897  -3.792  1.00  0.00     0.177 C 
ATOM      5  C   UNL     1      32.363 -43.817  -4.497  1.00  0.00     0.178 C 
ATOM      6  O   UNL     1      32.659 -42.530  -5.033  1.00  0.00    -0.341 OA
ENDROOT
BRANCH   1   7
ATOM      7  O   UNL     1      31.617 -42.794  -7.103  1.00  0.00    -0.350 OA
BRANCH   7   8
ATOM      8  C   UNL     1      31.015 -42.077  -8.160  1.00  0.00     0.160 C 
ATOM      9  C   UNL     1      31.696 -42.453  -9.466  1.00  0.00     0.035 C 
ENDBRANCH   7   8
ENDBRANCH   1   7
BRANCH   2  10
ATOM     10  O   UNL     1      30.226 -40.920  -4.276  1.00  0.00    -0.385 OA
ATOM     11  H   UNL     1      29.308 -40.543  -4.262  1.00  0.00     0.211 HD
ENDBRANCH   2  10
BRANCH   3  12
ATOM     12  O   UNL     1      29.505 -44.190  -5.666  1.00  0.00    -0.387 OA
ATOM     13  H   UNL     1      29.606 -43.706  -6.527  1.00  0.00     0.211 HD
ENDBRANCH   3  12
BRANCH   5  14
ATOM     14  C   UNL     1      32.614 -44.966  -5.498  1.00  0.00     0.191 C 
BRANCH  14  15
ATOM     15  O   UNL     1      31.722 -46.023  -5.273  1.00  0.00    -0.394 OA
ATOM     16  H   UNL     1      31.267 -45.833  -4.411  1.00  0.00     0.210 HD
ENDBRANCH  14  15
ENDBRANCH   5  14
BRANCH   4  17
ATOM     17  O   UNL     1      31.066 -43.230  -2.557  1.00  0.00    -0.387 OA
ATOM     18  H   UNL     1      30.484 -43.722  -1.922  1.00  0.00     0.211 HD
ENDBRANCH   4  17
TORSDOF 7
ENDMDL
MODEL 3
REMARK VINA RESULT:    -4.118      1.574      2.328
REMARK INTER + INTRA:          -5.795
REMARK INTER:                  -5.354
REMARK INTRA:                  -0.441
REMARK UNBOUND:                -0.472
REMARK SMILES CCO[C@@H]1O[C@H](CO)[C@@H](O)[C@H](O)[C@H]1O
REMARK SMILES IDX 4 1 13 2 11 3 9 4 6 5 5 6 3 7 2 8 1 9 14 10 12 12 7 14 8 15
REMARK SMILES IDX 10 17
REMARK H PARENT 14 11 12 13 8 16 10 18
REMARK Flexibility Score: inf
ROOT
ATOM      1  C   UNL     1      36.393 -50.049   2.287  1.00  0.00     0.281 C 
ATOM      2  C   UNL     1      36.623 -48.519   2.302  1.00  0.00     0.202 C 
ATOM      3  C   UNL     1      36.821 -47.990   3.734  1.00  0.00     0.179 C 
ATOM      4  C   UNL     1      37.848 -48.839   4.506  1.00  0.00     0.177 C 
ATOM      5  C   UNL     1      37.608 -50.358   4.326  1.00  0.00     0.178 C 
ATOM      6  O   UNL     1      37.422 -50.753   2.970  1.00  0.00    -0.341 OA
ENDROOT
BRANCH   1   7
ATOM      7  O   UNL     1      35.125 -50.376   2.834  1.00  0.00    -0.350 OA
BRANCH   7   8
ATOM      8  C   UNL     1      34.085 -50.113   1.916  1.00  0.00     0.160 C 
ATOM      9  C   UNL     1      32.962 -51.115   2.136  1.00  0.00     0.035 C 
ENDBRANCH   7   8
ENDBRANCH   1   7
BRANCH   2  10
ATOM     10  O   UNL     1      37.702 -48.150   1.476  1.00  0.00    -0.385 OA
ATOM     11  H   UNL     1      37.730 -47.160   1.421  1.00  0.00     0.211 HD
ENDBRANCH   2  10
BRANCH   3  12
ATOM     12  O   UNL     1      35.599 -47.986   4.426  1.00  0.00    -0.387 OA
ATOM     13  H   UNL     1      34.933 -47.541   3.839  1.00  0.00     0.211 HD
ENDBRANCH   3  12
BRANCH   5  14
ATOM     14  C   UNL     1      36.537 -50.933   5.280  1.00  0.00     0.191 C 
BRANCH  14  15
ATOM     15  O   UNL     1      36.332 -50.075   6.369  1.00  0.00    -0.394 OA
ATOM     16  H   UNL     1      35.432 -50.285   6.732  1.00  0.00     0.210 HD
ENDBRANCH  14  15
ENDBRANCH   5  14
BRANCH   4  17
ATOM     17  O   UNL     1      39.149 -48.528   4.076  1.00  0.00    -0.387 OA
ATOM     18  H   UNL     1      39.063 -47.875   3.334  1.00  0.00     0.211 HD
ENDBRANCH   4  17
TORSDOF 7
ENDMDL
MODEL 4
REMARK VINA RESULT:    -4.106      1.746      3.685
REMARK INTER + INTRA:          -5.779
REMARK INTER:                  -5.505
REMARK INTRA:                  -0.274
REMARK UNBOUND:                -0.472
REMARK SMILES CCO[C@@H]1O[C@H](CO)[C@@H](O)[C@H](O)[C@H]1O
REMARK SMILES IDX 4 1 13 2 11 3 9 4 6 5 5 6 3 7 2 8 1 9 14 10 12 12 7 14 8 15
REMARK SMILES IDX 10 17
REMARK H PARENT 14 11 12 13 8 16 10 18
REMARK Flexibility Score: inf
ROOT
ATOM      1  C   UNL     1      38.324 -50.835   5.035  1.00  0.00     0.281 C 
ATOM      2  C   UNL     1      36.848 -50.376   4.955  1.00  0.00     0.202 C 
ATOM      3  C   UNL     1      36.015 -51.301   4.050  1.00  0.00     0.179 C 
ATOM      4  C   UNL     1      36.249 -52.783   4.398  1.00  0.00     0.177 C 
ATOM      5  C   UNL     1      37.751 -53.114   4.580  1.00  0.00     0.178 C 
ATOM      6  O   UNL     1      38.443 -52.197   5.423  1.00  0.00    -0.341 OA
ENDROOT
BRANCH   1   7
ATOM      7  O   UNL     1      38.990 -50.614   3.801  1.00  0.00    -0.350 OA
BRANCH   7   8
ATOM      8  C   UNL     1      39.314 -49.250   3.628  1.00  0.00     0.160 C 
ATOM      9  C   UNL     1      40.150 -48.784   4.809  1.00  0.00     0.035 C 
ENDBRANCH   7   8
ENDBRANCH   1   7
BRANCH   2  10
ATOM     10  O   UNL     1      36.270 -50.272   6.234  1.00  0.00    -0.385 OA
ATOM     11  H   UNL     1      35.314 -50.029   6.128  1.00  0.00     0.211 HD
ENDBRANCH   2  10
BRANCH   3  12
ATOM     12  O   UNL     1      36.337 -51.080   2.700  1.00  0.00    -0.387 OA
ATOM     13  H   UNL     1      37.166 -50.534   2.684  1.00  0.00     0.211 HD
ENDBRANCH   3  12
BRANCH   5  14
ATOM     14  C   UNL     1      38.489 -53.395   3.252  1.00  0.00     0.191 C 
BRANCH  14  15
ATOM     15  O   UNL     1      37.872 -54.444   2.556  1.00  0.00    -0.394 OA
ATOM     16  H   UNL     1      36.930 -54.478   2.868  1.00  0.00     0.210 HD
ENDBRANCH  14  15
ENDBRANCH   5  14
BRANCH   4  17
ATOM     17  O   UNL     1      35.563 -53.112   5.580  1.00  0.00    -0.387 OA
ATOM     18  H   UNL     1      35.500 -54.102   5.615  1.00  0.00     0.211 HD
ENDBRANCH   4  17
TORSDOF 7
ENDMDL
MODEL 5
REMARK VINA RESULT:    -4.022      1.500      2.631
REMARK INTER + INTRA:          -5.670
REMARK INTER:                  -5.211
REMARK INTRA:                  -0.459
REMARK UNBOUND:                -0.472
REMARK SMILES CCO[C@@H]1O[C@H](CO)[C@@H](O)[C@H](O)[C@H]1O
REMARK SMILES IDX 4 1 13 2 11 3 9 4 6 5 5 6 3 7 2 8 1 9 14 10 12 12 7 14 8 15
REMARK SMILES IDX 10 17
REMARK H PARENT 14 11 12 13 8 16 10 18
REMARK Flexibility Score: inf
ROOT
ATOM      1  C   UNL     1      36.390 -49.668   3.913  1.00  0.00     0.281 C 
ATOM      2  C   UNL     1      36.310 -50.734   5.032  1.00  0.00     0.202 C 
ATOM      3  C   UNL     1      37.418 -51.793   4.886  1.00  0.00     0.179 C 
ATOM      4  C   UNL     1      38.794 -51.136   4.671  1.00  0.00     0.177 C 
ATOM      5  C   UNL     1      38.743 -49.997   3.623  1.00  0.00     0.178 C 
ATOM      6  O   UNL     1      37.678 -49.073   3.830  1.00  0.00    -0.341 OA
ENDROOT
BRANCH   1   7
ATOM      7  O   UNL     1      36.020 -50.221   2.660  1.00  0.00    -0.350 OA
BRANCH   7   8
ATOM      8  C   UNL     1      34.640 -50.053   2.409  1.00  0.00     0.160 C 
ATOM      9  C   UNL     1      34.353 -48.579   2.174  1.00  0.00     0.035 C 
ENDBRANCH   7   8
ENDBRANCH   1   7
BRANCH   2  10
ATOM     10  O   UNL     1      36.343 -50.146   6.310  1.00  0.00    -0.385 OA
ATOM     11  H   UNL     1      36.115 -49.184   6.219  1.00  0.00     0.211 HD
ENDBRANCH   2  10
BRANCH   3  12
ATOM     12  O   UNL     1      37.133 -52.651   3.811  1.00  0.00    -0.387 OA
ATOM     13  H   UNL     1      36.251 -53.069   3.998  1.00  0.00     0.211 HD
ENDBRANCH   3  12
BRANCH   5  14
ATOM     14  C   UNL     1      38.842 -50.494   2.163  1.00  0.00     0.191 C 
BRANCH  14  15
ATOM     15  O   UNL     1      39.336 -51.805   2.119  1.00  0.00    -0.394 OA
ATOM     16  H   UNL     1      38.555 -52.397   1.958  1.00  0.00     0.210 HD
ENDBRANCH  14  15
ENDBRANCH   5  14
BRANCH   4  17
ATOM     17  O   UNL     1      39.274 -50.617   5.885  1.00  0.00    -0.387 OA
ATOM     18  H   UNL     1      39.160 -51.326   6.571  1.00  0.00     0.211 HD
ENDBRANCH   4  17
TORSDOF 7
ENDMDL
MODEL 6
REMARK VINA RESULT:    -4.008      1.346      3.390
REMARK INTER + INTRA:          -5.652
REMARK INTER:                  -5.329
REMARK INTRA:                  -0.323
REMARK UNBOUND:                -0.472
REMARK SMILES CCO[C@@H]1O[C@H](CO)[C@@H](O)[C@H](O)[C@H]1O
REMARK SMILES IDX 4 1 13 2 11 3 9 4 6 5 5 6 3 7 2 8 1 9 14 10 12 12 7 14 8 15
REMARK SMILES IDX 10 17
REMARK H PARENT 14 11 12 13 8 16 10 18
REMARK Flexibility Score: inf
ROOT
ATOM      1  C   UNL     1      35.404 -50.087   2.639  1.00  0.00     0.281 C 
ATOM      2  C   UNL     1      36.056 -51.328   3.294  1.00  0.00     0.202 C 
ATOM      3  C   UNL     1      37.315 -50.951   4.096  1.00  0.00     0.179 C 
ATOM      4  C   UNL     1      37.046 -49.754   5.027  1.00  0.00     0.177 C 
ATOM      5  C   UNL     1      36.278 -48.614   4.312  1.00  0.00     0.178 C 
ATOM      6  O   UNL     1      35.137 -49.059   3.585  1.00  0.00    -0.341 OA
ENDROOT
BRANCH   1   7
ATOM      7  O   UNL     1      36.212 -49.587   1.584  1.00  0.00    -0.350 OA
BRANCH   7   8
ATOM      8  C   UNL     1      35.448 -48.844   0.658  1.00  0.00     0.160 C 
ATOM      9  C   UNL     1      34.099 -49.521   0.469  1.00  0.00     0.035 C 
ENDBRANCH   7   8
ENDBRANCH   1   7
BRANCH   2  10
ATOM     10  O   UNL     1      35.139 -52.029   4.099  1.00  0.00    -0.385 OA
ATOM     11  H   UNL     1      35.381 -51.885   5.050  1.00  0.00     0.211 HD
ENDBRANCH   2  10
BRANCH   3  12
ATOM     12  O   UNL     1      38.372 -50.641   3.225  1.00  0.00    -0.387 OA
ATOM     13  H   UNL     1      37.972 -50.457   2.335  1.00  0.00     0.211 HD
ENDBRANCH   3  12
BRANCH   5  14
ATOM     14  C   UNL     1      37.190 -47.670   3.497  1.00  0.00     0.191 C 
BRANCH  14  15
ATOM     15  O   UNL     1      38.480 -47.635   4.043  1.00  0.00    -0.394 OA
ATOM     16  H   UNL     1      38.428 -48.086   4.925  1.00  0.00     0.210 HD
ENDBRANCH  14  15
ENDBRANCH   5  14
BRANCH   4  17
ATOM     17  O   UNL     1      36.304 -50.173   6.145  1.00  0.00    -0.387 OA
ATOM     18  H   UNL     1      36.919 -50.162   6.924  1.00  0.00     0.211 HD
ENDBRANCH   4  17
TORSDOF 7
ENDMDL
MODEL 7
REMARK VINA RESULT:    -3.934     10.972     12.771
REMARK INTER + INTRA:          -5.556
REMARK INTER:                  -5.125
REMARK INTRA:                  -0.432
REMARK UNBOUND:                -0.472
REMARK SMILES CCO[C@@H]1O[C@H](CO)[C@@H](O)[C@H](O)[C@H]1O
REMARK SMILES IDX 4 1 13 2 11 3 9 4 6 5 5 6 3 7 2 8 1 9 14 10 12 12 7 14 8 15
REMARK SMILES IDX 10 17
REMARK H PARENT 14 11 12 13 8 16 10 18
REMARK Flexibility Score: inf
ROOT
ATOM      1  C   UNL     1      30.914 -43.523  -5.353  1.00  0.00     0.281 C 
ATOM      2  C   UNL     1      31.479 -44.678  -4.491  1.00  0.00     0.202 C 
ATOM      3  C   UNL     1      31.027 -44.565  -3.024  1.00  0.00     0.179 C 
ATOM      4  C   UNL     1      29.509 -44.322  -2.924  1.00  0.00     0.177 C 
ATOM      5  C   UNL     1      29.022 -43.236  -3.915  1.00  0.00     0.178 C 
ATOM      6  O   UNL     1      29.501 -43.415  -5.245  1.00  0.00    -0.341 OA
ENDROOT
BRANCH   1   7
ATOM      7  O   UNL     1      31.530 -42.291  -5.014  1.00  0.00    -0.350 OA
BRANCH   7   8
ATOM      8  C   UNL     1      32.871 -42.246  -5.455  1.00  0.00     0.160 C 
ATOM      9  C   UNL     1      33.154 -40.875  -6.049  1.00  0.00     0.035 C 
ENDBRANCH   7   8
ENDBRANCH   1   7
BRANCH   2  10
ATOM     10  O   UNL     1      31.140 -45.935  -5.026  1.00  0.00    -0.385 OA
ATOM     11  H   UNL     1      31.780 -46.151  -5.752  1.00  0.00     0.211 HD
ENDBRANCH   2  10
BRANCH   3  12
ATOM     12  O   UNL     1      31.713 -43.520  -2.382  1.00  0.00    -0.387 OA
ATOM     13  H   UNL     1      32.510 -43.312  -2.936  1.00  0.00     0.211 HD
ENDBRANCH   3  12
BRANCH   5  14
ATOM     14  C   UNL     1      29.204 -41.793  -3.392  1.00  0.00     0.191 C 
BRANCH  14  15
ATOM     15  O   UNL     1      29.410 -41.792  -2.006  1.00  0.00    -0.394 OA
ATOM     16  H   UNL     1      30.164 -42.414  -1.829  1.00  0.00     0.210 HD
ENDBRANCH  14  15
ENDBRANCH   5  14
BRANCH   4  17
ATOM     17  O   UNL     1      28.814 -45.517  -3.179  1.00  0.00    -0.387 OA
ATOM     18  H   UNL     1      28.144 -45.320  -3.884  1.00  0.00     0.211 HD
ENDBRANCH   4  17
TORSDOF 7
ENDMDL
MODEL 8
REMARK VINA RESULT:    -3.922     11.751     13.540
REMARK INTER + INTRA:          -5.540
REMARK INTER:                  -5.034
REMARK INTRA:                  -0.506
REMARK UNBOUND:                -0.472
REMARK SMILES CCO[C@@H]1O[C@H](CO)[C@@H](O)[C@H](O)[C@H]1O
REMARK SMILES IDX 4 1 13 2 11 3 9 4 6 5 5 6 3 7 2 8 1 9 14 10 12 12 7 14 8 15
REMARK SMILES IDX 10 17
REMARK H PARENT 14 11 12 13 8 16 10 18
REMARK Flexibility Score: inf
ROOT
ATOM      1  C   UNL     1      29.886 -42.513  -4.393  1.00  0.00     0.281 C 
ATOM      2  C   UNL     1      28.360 -42.612  -4.634  1.00  0.00     0.202 C 
ATOM      3  C   UNL     1      27.909 -44.071  -4.820  1.00  0.00     0.179 C 
ATOM      4  C   UNL     1      28.482 -44.979  -3.717  1.00  0.00     0.177 C 
ATOM      5  C   UNL     1      29.988 -44.717  -3.463  1.00  0.00     0.178 C 
ATOM      6  O   UNL     1      30.313 -43.337  -3.316  1.00  0.00    -0.341 OA
ENDROOT
BRANCH   1   7
ATOM      7  O   UNL     1      30.606 -42.830  -5.574  1.00  0.00    -0.350 OA
BRANCH   7   8
ATOM      8  C   UNL     1      30.712 -41.712  -6.429  1.00  0.00     0.160 C 
ATOM      9  C   UNL     1      30.293 -42.118  -7.833  1.00  0.00     0.035 C 
ENDBRANCH   7   8
ENDBRANCH   1   7
BRANCH   2  10
ATOM     10  O   UNL     1      27.633 -41.989  -3.602  1.00  0.00    -0.385 OA
ATOM     11  H   UNL     1      26.767 -41.675  -3.973  1.00  0.00     0.211 HD
ENDBRANCH   2  10
BRANCH   3  12
ATOM     12  O   UNL     1      28.312 -44.549  -6.079  1.00  0.00    -0.387 OA
ATOM     13  H   UNL     1      27.505 -44.566  -6.656  1.00  0.00     0.211 HD
ENDBRANCH   3  12
BRANCH   5  14
ATOM     14  C   UNL     1      30.920 -45.461  -4.446  1.00  0.00     0.191 C 
BRANCH  14  15
ATOM     15  O   UNL     1      30.263 -46.561  -5.014  1.00  0.00    -0.394 OA
ATOM     16  H   UNL     1      29.732 -46.212  -5.778  1.00  0.00     0.210 HD
ENDBRANCH  14  15
ENDBRANCH   5  14
BRANCH   4  17
ATOM     17  O   UNL     1      27.777 -44.781  -2.517  1.00  0.00    -0.387 OA
ATOM     18  H   UNL     1      27.408 -43.860  -2.544  1.00  0.00     0.211 HD
ENDBRANCH   4  17
TORSDOF 7
ENDMDL
MODEL 9
REMARK VINA RESULT:    -3.878      1.451      3.613
REMARK INTER + INTRA:          -5.484
REMARK INTER:                  -5.049
REMARK INTRA:                  -0.435
REMARK UNBOUND:                -0.472
REMARK SMILES CCO[C@@H]1O[C@H](CO)[C@@H](O)[C@H](O)[C@H]1O
REMARK SMILES IDX 4 1 13 2 11 3 9 4 6 5 5 6 3 7 2 8 1 9 14 10 12 12 7 14 8 15
REMARK SMILES IDX 10 17
REMARK H PARENT 14 11 12 13 8 16 10 18
REMARK Flexibility Score: inf
ROOT
ATOM      1  C   UNL     1      38.434 -50.165   3.849  1.00  0.00     0.281 C 
ATOM      2  C   UNL     1      38.219 -51.306   4.872  1.00  0.00     0.202 C 
ATOM      3  C   UNL     1      36.729 -51.491   5.210  1.00  0.00     0.179 C 
ATOM      4  C   UNL     1      35.870 -51.552   3.933  1.00  0.00     0.177 C 
ATOM      5  C   UNL     1      36.247 -50.445   2.918  1.00  0.00     0.178 C 
ATOM      6  O   UNL     1      37.647 -50.339   2.678  1.00  0.00    -0.341 OA
ENDROOT
BRANCH   1   7
ATOM      7  O   UNL     1      38.170 -48.901   4.438  1.00  0.00    -0.350 OA
BRANCH   7   8
ATOM      8  C   UNL     1      39.255 -48.014   4.264  1.00  0.00     0.160 C 
ATOM      9  C   UNL     1      40.177 -48.113   5.469  1.00  0.00     0.035 C 
ENDBRANCH   7   8
ENDBRANCH   1   7
BRANCH   2  10
ATOM     10  O   UNL     1      38.787 -52.514   4.425  1.00  0.00    -0.385 OA
ATOM     11  H   UNL     1      38.219 -53.264   4.741  1.00  0.00     0.211 HD
ENDBRANCH   2  10
BRANCH   3  12
ATOM     12  O   UNL     1      36.280 -50.441   6.028  1.00  0.00    -0.387 OA
ATOM     13  H   UNL     1      35.360 -50.214   5.732  1.00  0.00     0.211 HD
ENDBRANCH   3  12
BRANCH   5  14
ATOM     14  C   UNL     1      35.574 -49.084   3.207  1.00  0.00     0.191 C 
BRANCH  14  15
ATOM     15  O   UNL     1      36.094 -48.087   2.371  1.00  0.00    -0.394 OA
ATOM     16  H   UNL     1      36.889 -47.714   2.835  1.00  0.00     0.210 HD
ENDBRANCH  14  15
ENDBRANCH   5  14
BRANCH   4  17
ATOM     17  O   UNL     1      36.016 -52.806   3.315  1.00  0.00    -0.387 OA
ATOM     18  H   UNL     1      36.779 -52.733   2.684  1.00  0.00     0.211 HD
ENDBRANCH   4  17
TORSDOF 7
ENDMDL
