MODEL 1
REMARK VINA RESULT:    -4.118      0.000      0.000
REMARK INTER + INTRA:          -4.548
REMARK INTER:                  -4.960
REMARK INTRA:                   0.412
REMARK UNBOUND:                 0.412
REMARK SMILES O=c1c(O)c(-c2ccc(O)c(O)c2)oc2cc(O)cc(O)c12
REMARK SMILES IDX 5 1 3 2 2 3 1 4 22 5 20 6 19 7 17 8 16 9 15 10 14 11 6 12
REMARK SMILES IDX 7 13 8 14 9 15 13 16 11 17 10 18 12 20 4 22 21 24 18 26
REMARK H PARENT 10 19 12 21 4 23 21 25 18 27
REMARK Flexibility Score: inf
ROOT
ATOM      1  C   UNL     1      92.344 101.762  98.346  1.00  0.00     0.180 A 
ATOM      2  C   UNL     1      91.787 102.408  99.464  1.00  0.00     0.208 A 
ATOM      3  C   UNL     1      92.192 103.719  99.763  1.00  0.00     0.238 A 
ATOM      4  O   UNL     1      91.731 104.273 100.795  1.00  0.00    -0.285 OA
ATOM      5  C   UNL     1      93.134 104.373  98.933  1.00  0.00     0.111 A 
ATOM      6  C   UNL     1      93.585 105.715  99.119  1.00  0.00     0.134 A 
ATOM      7  C   UNL     1      94.616 106.215  98.315  1.00  0.00     0.093 A 
ATOM      8  C   UNL     1      95.168 105.446  97.291  1.00  0.00     0.123 A 
ATOM      9  C   UNL     1      94.694 104.154  97.062  1.00  0.00     0.094 A 
ATOM     10  C   UNL     1      93.691 103.615  97.871  1.00  0.00     0.146 A 
ATOM     11  O   UNL     1      93.275 102.378  97.625  1.00  0.00    -0.452 OA
ENDROOT
BRANCH   1  12
ATOM     12  C   UNL     1      91.951 100.390  97.953  1.00  0.00     0.025 A 
ATOM     13  C   UNL     1      91.427  99.518  98.920  1.00  0.00     0.016 A 
ATOM     14  C   UNL     1      91.069  98.211  98.576  1.00  0.00     0.051 A 
ATOM     15  C   UNL     1      91.243  97.752  97.267  1.00  0.00     0.157 A 
ATOM     16  C   UNL     1      92.145  99.919  96.642  1.00  0.00     0.062 A 
ATOM     17  C   UNL     1      91.788  98.608  96.295  1.00  0.00     0.158 A 
BRANCH  15  18
ATOM     18  O   UNL     1      90.875  96.445  96.954  1.00  0.00    -0.504 OA
ATOM     19  H   UNL     1      91.537  95.678  96.982  1.00  0.00     0.293 HD
ENDBRANCH  15  18
BRANCH  17  20
ATOM     20  O   UNL     1      91.978  98.151  94.991  1.00  0.00    -0.504 OA
ATOM     21  H   UNL     1      92.905  98.059  94.591  1.00  0.00     0.293 HD
ENDBRANCH  17  20
ENDBRANCH   1  12
BRANCH   2  22
ATOM     22  O   UNL     1      90.875 101.737 100.282  1.00  0.00    -0.502 OA
ATOM     23  H   UNL     1      90.595 100.778 100.113  1.00  0.00     0.293 HD
ENDBRANCH   2  22
BRANCH   6  24
ATOM     24  O   UNL     1      93.037 106.599 100.053  1.00  0.00    -0.507 OA
ATOM     25  H   UNL     1      93.232 106.583 101.043  1.00  0.00     0.293 HD
ENDBRANCH   6  24
BRANCH   8  26
ATOM     26  O   UNL     1      96.183 105.980  96.500  1.00  0.00    -0.508 OA
ATOM     27  H   UNL     1      95.984 106.429  95.614  1.00  0.00     0.293 HD
ENDBRANCH   8  26
TORSDOF 6
ENDMDL
MODEL 2
REMARK VINA RESULT:    -3.156      1.716      7.223
REMARK INTER + INTRA:          -3.390
REMARK INTER:                  -3.072
REMARK INTRA:                  -0.318
REMARK UNBOUND:                 0.412
REMARK SMILES O=c1c(O)c(-c2ccc(O)c(O)c2)oc2cc(O)cc(O)c12
REMARK SMILES IDX 5 1 3 2 2 3 1 4 22 5 20 6 19 7 17 8 16 9 15 10 14 11 6 12
REMARK SMILES IDX 7 13 8 14 9 15 13 16 11 17 10 18 12 20 4 22 21 24 18 26
REMARK H PARENT 10 19 12 21 4 23 21 25 18 27
REMARK Flexibility Score: inf
ROOT
ATOM      1  C   UNL     1      93.193 102.443  97.915  1.00  0.00     0.180 A 
ATOM      2  C   UNL     1      93.256 102.134  96.545  1.00  0.00     0.208 A 
ATOM      3  C   UNL     1      92.766 100.895  96.104  1.00  0.00     0.238 A 
ATOM      4  O   UNL     1      92.873 100.601  94.885  1.00  0.00    -0.285 OA
ATOM      5  C   UNL     1      92.204  99.987  97.034  1.00  0.00     0.111 A 
ATOM      6  C   UNL     1      91.639  98.721  96.693  1.00  0.00     0.134 A 
ATOM      7  C   UNL     1      91.231  97.850  97.709  1.00  0.00     0.093 A 
ATOM      8  C   UNL     1      91.305  98.224  99.050  1.00  0.00     0.123 A 
ATOM      9  C   UNL     1      91.799  99.483  99.393  1.00  0.00     0.094 A 
ATOM     10  C   UNL     1      92.248 100.360  98.402  1.00  0.00     0.146 A 
ATOM     11  O   UNL     1      92.721 101.544  98.772  1.00  0.00    -0.452 OA
ENDROOT
BRANCH   1  12
ATOM     12  C   UNL     1      93.668 103.738  98.453  1.00  0.00     0.025 A 
ATOM     13  C   UNL     1      92.811 104.850  98.434  1.00  0.00     0.016 A 
ATOM     14  C   UNL     1      93.246 106.088  98.917  1.00  0.00     0.051 A 
ATOM     15  C   UNL     1      94.547 106.237  99.408  1.00  0.00     0.157 A 
ATOM     16  C   UNL     1      94.983 103.896  98.927  1.00  0.00     0.062 A 
ATOM     17  C   UNL     1      95.422 105.138  99.409  1.00  0.00     0.158 A 
BRANCH  15  18
ATOM     18  O   UNL     1      94.952 107.483  99.883  1.00  0.00    -0.504 OA
ATOM     19  H   UNL     1      95.898 107.825  99.760  1.00  0.00     0.293 HD
ENDBRANCH  15  18
BRANCH  17  20
ATOM     20  O   UNL     1      96.725 105.284  99.884  1.00  0.00    -0.504 OA
ATOM     21  H   UNL     1      97.460 104.636  99.625  1.00  0.00     0.293 HD
ENDBRANCH  17  20
ENDBRANCH   1  12
BRANCH   2  22
ATOM     22  O   UNL     1      93.835 103.035  95.647  1.00  0.00    -0.502 OA
ATOM     23  H   UNL     1      94.377 103.835  95.951  1.00  0.00     0.293 HD
ENDBRANCH   2  22
BRANCH   6  24
ATOM     24  O   UNL     1      91.435  98.287  95.379  1.00  0.00    -0.507 OA
ATOM     25  H   UNL     1      92.030  98.519  94.598  1.00  0.00     0.293 HD
ENDBRANCH   6  24
BRANCH   8  26
ATOM     26  O   UNL     1      90.875  97.337 100.036  1.00  0.00    -0.508 OA
ATOM     27  H   UNL     1      89.989  96.852  99.964  1.00  0.00     0.293 HD
ENDBRANCH   8  26
TORSDOF 6
ENDMDL
MODEL 3
REMARK VINA RESULT:    -2.767      1.422      3.294
REMARK INTER + INTRA:          -2.922
REMARK INTER:                  -3.443
REMARK INTRA:                   0.521
REMARK UNBOUND:                 0.412
REMARK SMILES O=c1c(O)c(-c2ccc(O)c(O)c2)oc2cc(O)cc(O)c12
REMARK SMILES IDX 5 1 3 2 2 3 1 4 22 5 20 6 19 7 17 8 16 9 15 10 14 11 6 12
REMARK SMILES IDX 7 13 8 14 9 15 13 16 11 17 10 18 12 20 4 22 21 24 18 26
REMARK H PARENT 10 19 12 21 4 23 21 25 18 27
REMARK Flexibility Score: inf
ROOT
ATOM      1  C   UNL     1      93.072 101.658  97.231  1.00  0.00     0.180 A 
ATOM      2  C   UNL     1      93.774 102.051  96.078  1.00  0.00     0.208 A 
ATOM      3  C   UNL     1      94.296 103.353  96.011  1.00  0.00     0.238 A 
ATOM      4  O   UNL     1      94.877 103.717  94.956  1.00  0.00    -0.285 OA
ATOM      5  C   UNL     1      94.122 104.239  97.101  1.00  0.00     0.111 A 
ATOM      6  C   UNL     1      94.644 105.567  97.157  1.00  0.00     0.134 A 
ATOM      7  C   UNL     1      94.300 106.399  98.229  1.00  0.00     0.093 A 
ATOM      8  C   UNL     1      93.509 105.932  99.278  1.00  0.00     0.123 A 
ATOM      9  C   UNL     1      93.043 104.617  99.263  1.00  0.00     0.094 A 
ATOM     10  C   UNL     1      93.340 103.774  98.189  1.00  0.00     0.146 A 
ATOM     11  O   UNL     1      92.869 102.533  98.209  1.00  0.00    -0.452 OA
ENDROOT
BRANCH   1  12
ATOM     12  C   UNL     1      92.514 100.295  97.385  1.00  0.00     0.025 A 
ATOM     13  C   UNL     1      92.478  99.434  96.278  1.00  0.00     0.016 A 
ATOM     14  C   UNL     1      91.936  98.150  96.396  1.00  0.00     0.051 A 
ATOM     15  C   UNL     1      91.407  97.716  97.615  1.00  0.00     0.157 A 
ATOM     16  C   UNL     1      91.962  99.864  98.606  1.00  0.00     0.062 A 
ATOM     17  C   UNL     1      91.416  98.577  98.725  1.00  0.00     0.158 A 
BRANCH  15  18
ATOM     18  O   UNL     1      90.875  96.430  97.703  1.00  0.00    -0.504 OA
ATOM     19  H   UNL     1      89.879  96.264  97.782  1.00  0.00     0.293 HD
ENDBRANCH  15  18
BRANCH  17  20
ATOM     20  O   UNL     1      90.877  98.154  99.940  1.00  0.00    -0.504 OA
ATOM     21  H   UNL     1      90.558  97.202 100.077  1.00  0.00     0.293 HD
ENDBRANCH  17  20
ENDBRANCH   1  12
BRANCH   2  22
ATOM     22  O   UNL     1      93.915 101.167  95.005  1.00  0.00    -0.502 OA
ATOM     23  H   UNL     1      94.820 100.856  94.671  1.00  0.00     0.293 HD
ENDBRANCH   2  22
BRANCH   6  24
ATOM     24  O   UNL     1      95.518 106.103  96.207  1.00  0.00    -0.507 OA
ATOM     25  H   UNL     1      95.741 105.671  95.323  1.00  0.00     0.293 HD
ENDBRANCH   6  24
BRANCH   8  26
ATOM     26  O   UNL     1      93.198 106.783 100.337  1.00  0.00    -0.508 OA
ATOM     27  H   UNL     1      93.052 106.430 101.275  1.00  0.00     0.293 HD
ENDBRANCH   8  26
TORSDOF 6
ENDMDL
MODEL 4
REMARK VINA RESULT:    -2.253      1.626      1.792
REMARK INTER + INTRA:          -2.303
REMARK INTER:                  -2.337
REMARK INTRA:                   0.034
REMARK UNBOUND:                 0.412
REMARK SMILES O=c1c(O)c(-c2ccc(O)c(O)c2)oc2cc(O)cc(O)c12
REMARK SMILES IDX 5 1 3 2 2 3 1 4 22 5 20 6 19 7 17 8 16 9 15 10 14 11 6 12
REMARK SMILES IDX 7 13 8 14 9 15 13 16 11 17 10 18 12 20 4 22 21 24 18 26
REMARK H PARENT 10 19 12 21 4 23 21 25 18 27
REMARK Flexibility Score: inf
ROOT
ATOM      1  C   UNL     1      92.701 102.032  97.042  1.00  0.00     0.180 A 
ATOM      2  C   UNL     1      92.060 102.216  98.280  1.00  0.00     0.208 A 
ATOM      3  C   UNL     1      92.325 103.382  99.017  1.00  0.00     0.238 A 
ATOM      4  O   UNL     1      91.790 103.517 100.148  1.00  0.00    -0.285 OA
ATOM      5  C   UNL     1      93.215 104.355  98.501  1.00  0.00     0.111 A 
ATOM      6  C   UNL     1      93.525 105.592  99.142  1.00  0.00     0.134 A 
ATOM      7  C   UNL     1      94.518 106.419  98.604  1.00  0.00     0.093 A 
ATOM      8  C   UNL     1      95.164 106.087  97.415  1.00  0.00     0.123 A 
ATOM      9  C   UNL     1      94.826 104.910  96.746  1.00  0.00     0.094 A 
ATOM     10  C   UNL     1      93.865 104.046  97.278  1.00  0.00     0.146 A 
ATOM     11  O   UNL     1      93.580 102.932  96.616  1.00  0.00    -0.452 OA
ENDROOT
BRANCH   1  12
ATOM     12  C   UNL     1      92.454 100.841  96.198  1.00  0.00     0.025 A 
ATOM     13  C   UNL     1      91.134 100.444  95.933  1.00  0.00     0.016 A 
ATOM     14  C   UNL     1      90.878  99.311  95.156  1.00  0.00     0.051 A 
ATOM     15  C   UNL     1      91.934  98.549  94.648  1.00  0.00     0.157 A 
ATOM     16  C   UNL     1      93.515 100.061  95.704  1.00  0.00     0.062 A 
ATOM     17  C   UNL     1      93.260  98.922  94.926  1.00  0.00     0.158 A 
BRANCH  15  18
ATOM     18  O   UNL     1      91.648  97.424  93.875  1.00  0.00    -0.504 OA
ATOM     19  H   UNL     1      92.272  97.098  93.146  1.00  0.00     0.293 HD
ENDBRANCH  15  18
BRANCH  17  20
ATOM     20  O   UNL     1      94.317  98.158  94.435  1.00  0.00    -0.504 OA
ATOM     21  H   UNL     1      94.170  97.230  94.053  1.00  0.00     0.293 HD
ENDBRANCH  17  20
ENDBRANCH   1  12
BRANCH   2  22
ATOM     22  O   UNL     1      91.202 101.233  98.781  1.00  0.00    -0.502 OA
ATOM     23  H   UNL     1      90.210 101.391  98.911  1.00  0.00     0.293 HD
ENDBRANCH   2  22
BRANCH   6  24
ATOM     24  O   UNL     1      92.873 106.062 100.287  1.00  0.00    -0.507 OA
ATOM     25  H   UNL     1      92.047 106.640 100.281  1.00  0.00     0.293 HD
ENDBRANCH   6  24
BRANCH   8  26
ATOM     26  O   UNL     1      96.137 106.942  96.899  1.00  0.00    -0.508 OA
ATOM     27  H   UNL     1      97.111 106.856  97.161  1.00  0.00     0.293 HD
ENDBRANCH   8  26
TORSDOF 6
ENDMDL
MODEL 5
REMARK VINA RESULT:    -1.507      1.961      2.148
REMARK INTER + INTRA:          -1.403
REMARK INTER:                  -1.109
REMARK INTRA:                  -0.294
REMARK UNBOUND:                 0.412
REMARK SMILES O=c1c(O)c(-c2ccc(O)c(O)c2)oc2cc(O)cc(O)c12
REMARK SMILES IDX 5 1 3 2 2 3 1 4 22 5 20 6 19 7 17 8 16 9 15 10 14 11 6 12
REMARK SMILES IDX 7 13 8 14 9 15 13 16 11 17 10 18 12 20 4 22 21 24 18 26
REMARK H PARENT 10 19 12 21 4 23 21 25 18 27
REMARK Flexibility Score: inf
ROOT
ATOM      1  C   UNL     1      93.490 102.263  98.083  1.00  0.00     0.180 A 
ATOM      2  C   UNL     1      94.430 102.186  99.126  1.00  0.00     0.208 A 
ATOM      3  C   UNL     1      95.014 103.370  99.604  1.00  0.00     0.238 A 
ATOM      4  O   UNL     1      95.894 103.291 100.500  1.00  0.00    -0.285 OA
ATOM      5  C   UNL     1      94.641 104.616  99.044  1.00  0.00     0.111 A 
ATOM      6  C   UNL     1      95.139 105.881  99.478  1.00  0.00     0.134 A 
ATOM      7  C   UNL     1      94.800 107.038  98.766  1.00  0.00     0.093 A 
ATOM      8  C   UNL     1      93.931 106.984  97.678  1.00  0.00     0.123 A 
ATOM      9  C   UNL     1      93.391 105.761  97.281  1.00  0.00     0.094 A 
ATOM     10  C   UNL     1      93.739 104.584  97.950  1.00  0.00     0.146 A 
ATOM     11  O   UNL     1      93.210 103.439  97.535  1.00  0.00    -0.452 OA
ENDROOT
BRANCH   1  12
ATOM     12  C   UNL     1      92.814 101.061  97.543  1.00  0.00     0.025 A 
ATOM     13  C   UNL     1      91.736 100.501  98.246  1.00  0.00     0.016 A 
ATOM     14  C   UNL     1      91.097  99.354  97.766  1.00  0.00     0.051 A 
ATOM     15  C   UNL     1      91.535  98.742  96.588  1.00  0.00     0.157 A 
ATOM     16  C   UNL     1      93.266 100.432  96.370  1.00  0.00     0.062 A 
ATOM     17  C   UNL     1      92.627  99.280  95.888  1.00  0.00     0.158 A 
BRANCH  15  18
ATOM     18  O   UNL     1      90.876  97.600  96.133  1.00  0.00    -0.504 OA
ATOM     19  H   UNL     1      91.327  96.693  96.108  1.00  0.00     0.293 HD
ENDBRANCH  15  18
BRANCH  17  20
ATOM     20  O   UNL     1      93.078  98.665  94.720  1.00  0.00    -0.504 OA
ATOM     21  H   UNL     1      93.250  99.196  93.873  1.00  0.00     0.293 HD
ENDBRANCH  17  20
ENDBRANCH   1  12
BRANCH   2  22
ATOM     22  O   UNL     1      94.800 100.944  99.650  1.00  0.00    -0.502 OA
ATOM     23  H   UNL     1      95.612 100.823 100.243  1.00  0.00     0.293 HD
ENDBRANCH   2  22
BRANCH   6  24
ATOM     24  O   UNL     1      95.942 106.057 100.610  1.00  0.00    -0.507 OA
ATOM     25  H   UNL     1      95.640 105.899 101.559  1.00  0.00     0.293 HD
ENDBRANCH   6  24
BRANCH   8  26
ATOM     26  O   UNL     1      93.603 108.158  97.001  1.00  0.00    -0.508 OA
ATOM     27  H   UNL     1      93.962 109.058  97.295  1.00  0.00     0.293 HD
ENDBRANCH   8  26
TORSDOF 6
ENDMDL
MODEL 6
REMARK VINA RESULT:    -1.407      1.307      6.787
REMARK INTER + INTRA:          -1.283
REMARK INTER:                  -1.478
REMARK INTRA:                   0.196
REMARK UNBOUND:                 0.412
REMARK SMILES O=c1c(O)c(-c2ccc(O)c(O)c2)oc2cc(O)cc(O)c12
REMARK SMILES IDX 5 1 3 2 2 3 1 4 22 5 20 6 19 7 17 8 16 9 15 10 14 11 6 12
REMARK SMILES IDX 7 13 8 14 9 15 13 16 11 17 10 18 12 20 4 22 21 24 18 26
REMARK H PARENT 10 19 12 21 4 23 21 25 18 27
REMARK Flexibility Score: inf
ROOT
ATOM      1  C   UNL     1      92.357 102.296  98.472  1.00  0.00     0.180 A 
ATOM      2  C   UNL     1      91.829 101.520  99.519  1.00  0.00     0.208 A 
ATOM      3  C   UNL     1      91.431 100.200  99.253  1.00  0.00     0.238 A 
ATOM      4  O   UNL     1      90.910  99.527 100.179  1.00  0.00    -0.285 OA
ATOM      5  C   UNL     1      91.579  99.668  97.949  1.00  0.00     0.111 A 
ATOM      6  C   UNL     1      91.246  98.331  97.575  1.00  0.00     0.134 A 
ATOM      7  C   UNL     1      91.312  97.953  96.229  1.00  0.00     0.093 A 
ATOM      8  C   UNL     1      91.759  98.842  95.253  1.00  0.00     0.123 A 
ATOM      9  C   UNL     1      92.145 100.133  95.615  1.00  0.00     0.094 A 
ATOM     10  C   UNL     1      92.056 100.551  96.945  1.00  0.00     0.146 A 
ATOM     11  O   UNL     1      92.423 101.791  97.246  1.00  0.00    -0.452 OA
ENDROOT
BRANCH   1  12
ATOM     12  C   UNL     1      92.821 103.687  98.681  1.00  0.00     0.025 A 
ATOM     13  C   UNL     1      93.990 104.129  98.042  1.00  0.00     0.016 A 
ATOM     14  C   UNL     1      94.458 105.431  98.242  1.00  0.00     0.051 A 
ATOM     15  C   UNL     1      93.775 106.303  99.095  1.00  0.00     0.157 A 
ATOM     16  C   UNL     1      92.148 104.559  99.556  1.00  0.00     0.062 A 
ATOM     17  C   UNL     1      92.618 105.865  99.759  1.00  0.00     0.158 A 
BRANCH  15  18
ATOM     18  O   UNL     1      94.265 107.596  99.273  1.00  0.00    -0.504 OA
ATOM     19  H   UNL     1      95.196 107.775  99.632  1.00  0.00     0.293 HD
ENDBRANCH  15  18
BRANCH  17  20
ATOM     20  O   UNL     1      91.941 106.726 100.623  1.00  0.00    -0.504 OA
ATOM     21  H   UNL     1      91.180 107.312 100.300  1.00  0.00     0.293 HD
ENDBRANCH  17  20
ENDBRANCH   1  12
BRANCH   2  22
ATOM     22  O   UNL     1      91.671 102.071 100.793  1.00  0.00    -0.502 OA
ATOM     23  H   UNL     1      92.159 101.712 101.606  1.00  0.00     0.293 HD
ENDBRANCH   2  22
BRANCH   6  24
ATOM     24  O   UNL     1      90.875  97.337  98.486  1.00  0.00    -0.507 OA
ATOM     25  H   UNL     1      90.001  97.316  98.990  1.00  0.00     0.293 HD
ENDBRANCH   6  24
BRANCH   8  26
ATOM     26  O   UNL     1      91.827  98.428  93.924  1.00  0.00    -0.508 OA
ATOM     27  H   UNL     1      91.028  98.498  93.305  1.00  0.00     0.293 HD
ENDBRANCH   8  26
TORSDOF 6
ENDMDL
