MODEL 1
REMARK VINA RESULT:    -4.411      0.000      0.000
REMARK INTER + INTRA:          -5.379
REMARK INTER:                  -5.313
REMARK INTRA:                  -0.066
REMARK UNBOUND:                -0.066
REMARK SMILES CC[C@H](C)[C@H]([NH3+])C(=O)[O-]
REMARK SMILES IDX 3 1 4 2 5 3 6 4 7 8 8 9 9 10 2 11 1 12
REMARK H PARENT 6 5 6 6 6 7
REMARK Flexibility Score: inf
ROOT
ATOM      1  C   UNL     1       6.684   5.374  14.596  1.00  0.00     0.050 C 
ATOM      2  C   UNL     1       5.893   4.423  15.510  1.00  0.00     0.014 C 
ENDROOT
BRANCH   1   3
ATOM      3  C   UNL     1       7.006   6.713  15.340  1.00  0.00     0.230 C 
BRANCH   3   4
ATOM      4  N   UNL     1       6.789   7.902  14.498  1.00  0.00    -0.350 N 
ATOM      5  H   UNL     1       7.699   8.200  14.075  1.00  0.00     0.345 HD
ATOM      6  H   UNL     1       6.114   7.702  13.725  1.00  0.00     0.345 HD
ATOM      7  H   UNL     1       6.432   8.697  15.073  1.00  0.00     0.345 HD
ENDBRANCH   3   4
BRANCH   3   8
ATOM      8  C   UNL     1       8.395   6.702  15.939  1.00  0.00     0.099 C 
ATOM      9  O   UNL     1       9.420   6.662  15.207  1.00  0.00    -0.544 OA
ATOM     10  O   UNL     1       8.550   6.770  17.319  1.00  0.00    -0.544 OA
ENDBRANCH   3   8
ENDBRANCH   1   3
BRANCH   1  11
ATOM     11  C   UNL     1       5.934   5.529  13.247  1.00  0.00     0.006 C 
ATOM     12  C   UNL     1       5.164   4.279  12.825  1.00  0.00     0.004 C 
ENDBRANCH   1  11
TORSDOF 4
ENDMDL
MODEL 2
REMARK VINA RESULT:    -3.957      4.189      5.029
REMARK INTER + INTRA:          -4.832
REMARK INTER:                  -4.775
REMARK INTRA:                  -0.057
REMARK UNBOUND:                -0.066
REMARK SMILES CC[C@H](C)[C@H]([NH3+])C(=O)[O-]
REMARK SMILES IDX 3 1 4 2 5 3 6 4 7 8 8 9 9 10 2 11 1 12
REMARK H PARENT 6 5 6 6 6 7
REMARK Flexibility Score: inf
ROOT
ATOM      1  C   UNL     1       5.621   4.857  13.588  1.00  0.00     0.050 C 
ATOM      2  C   UNL     1       6.026   4.670  15.060  1.00  0.00     0.014 C 
ENDROOT
BRANCH   1   3
ATOM      3  C   UNL     1       5.466   3.470  12.878  1.00  0.00     0.230 C 
BRANCH   3   4
ATOM      4  N   UNL     1       6.754   2.898  12.452  1.00  0.00    -0.350 N 
ATOM      5  H   UNL     1       6.697   2.626  11.443  1.00  0.00     0.345 HD
ATOM      6  H   UNL     1       7.532   3.587  12.566  1.00  0.00     0.345 HD
ATOM      7  H   UNL     1       6.971   2.036  13.001  1.00  0.00     0.345 HD
ENDBRANCH   3   4
BRANCH   3   8
ATOM      8  C   UNL     1       4.479   3.533  11.734  1.00  0.00     0.099 C 
ATOM      9  O   UNL     1       4.840   3.893  10.581  1.00  0.00    -0.544 OA
ATOM     10  O   UNL     1       3.157   3.157  11.943  1.00  0.00    -0.544 OA
ENDBRANCH   3   8
ENDBRANCH   1   3
BRANCH   1  11
ATOM     11  C   UNL     1       6.607   5.842  12.907  1.00  0.00     0.006 C 
ATOM     12  C   UNL     1       7.133   6.930  13.843  1.00  0.00     0.004 C 
ENDBRANCH   1  11
TORSDOF 4
ENDMDL
MODEL 3
REMARK VINA RESULT:    -3.856      4.307      5.651
REMARK INTER + INTRA:          -4.710
REMARK INTER:                  -4.646
REMARK INTRA:                  -0.064
REMARK UNBOUND:                -0.066
REMARK SMILES CC[C@H](C)[C@H]([NH3+])C(=O)[O-]
REMARK SMILES IDX 3 1 4 2 5 3 6 4 7 8 8 9 9 10 2 11 1 12
REMARK H PARENT 6 5 6 6 6 7
REMARK Flexibility Score: inf
ROOT
ATOM      1  C   UNL     1       3.950   2.077  11.725  1.00  0.00     0.050 C 
ATOM      2  C   UNL     1       3.288   2.441  10.384  1.00  0.00     0.014 C 
ENDROOT
BRANCH   1   3
ATOM      3  C   UNL     1       5.465   2.470  11.716  1.00  0.00     0.230 C 
BRANCH   3   4
ATOM      4  N   UNL     1       6.324   1.447  12.337  1.00  0.00    -0.350 N 
ATOM      5  H   UNL     1       6.541   1.725  13.322  1.00  0.00     0.345 HD
ATOM      6  H   UNL     1       5.854   0.514  12.351  1.00  0.00     0.345 HD
ATOM      7  H   UNL     1       7.231   1.370  11.823  1.00  0.00     0.345 HD
ENDBRANCH   3   4
BRANCH   3   8
ATOM      8  C   UNL     1       5.695   3.834  12.326  1.00  0.00     0.099 C 
ATOM      9  O   UNL     1       5.587   4.883  11.636  1.00  0.00    -0.544 OA
ATOM     10  O   UNL     1       6.000   3.942  13.678  1.00  0.00    -0.544 OA
ENDBRANCH   3   8
ENDBRANCH   1   3
BRANCH   1  11
ATOM     11  C   UNL     1       3.652   0.592  12.056  1.00  0.00     0.006 C 
ATOM     12  C   UNL     1       2.162   0.252  12.067  1.00  0.00     0.004 C 
ENDBRANCH   1  11
TORSDOF 4
ENDMDL
MODEL 4
REMARK VINA RESULT:    -3.770      4.917      6.189
REMARK INTER + INTRA:          -4.608
REMARK INTER:                  -4.543
REMARK INTRA:                  -0.065
REMARK UNBOUND:                -0.066
REMARK SMILES CC[C@H](C)[C@H]([NH3+])C(=O)[O-]
REMARK SMILES IDX 3 1 4 2 5 3 6 4 7 8 8 9 9 10 2 11 1 12
REMARK H PARENT 6 5 6 6 6 7
REMARK Flexibility Score: inf
ROOT
ATOM      1  C   UNL     1       2.856   2.227  11.842  1.00  0.00     0.050 C 
ATOM      2  C   UNL     1       1.454   2.475  11.259  1.00  0.00     0.014 C 
ENDROOT
BRANCH   1   3
ATOM      3  C   UNL     1       3.917   3.134  11.133  1.00  0.00     0.230 C 
BRANCH   3   4
ATOM      4  N   UNL     1       4.519   2.493   9.952  1.00  0.00    -0.350 N 
ATOM      5  H   UNL     1       3.973   1.636   9.704  1.00  0.00     0.345 HD
ATOM      6  H   UNL     1       4.517   3.137   9.129  1.00  0.00     0.345 HD
ATOM      7  H   UNL     1       5.499   2.196  10.157  1.00  0.00     0.345 HD
ENDBRANCH   3   4
BRANCH   3   8
ATOM      8  C   UNL     1       4.972   3.623  12.100  1.00  0.00     0.099 C 
ATOM      9  O   UNL     1       4.875   4.750  12.655  1.00  0.00    -0.544 OA
ATOM     10  O   UNL     1       6.054   2.807  12.410  1.00  0.00    -0.544 OA
ENDBRANCH   3   8
ENDBRANCH   1   3
BRANCH   1  11
ATOM     11  C   UNL     1       3.160   0.706  11.814  1.00  0.00     0.006 C 
ATOM     12  C   UNL     1       1.994  -0.162  12.286  1.00  0.00     0.004 C 
ENDBRANCH   1  11
TORSDOF 4
ENDMDL
MODEL 5
REMARK VINA RESULT:    -3.678      3.336      4.490
REMARK INTER + INTRA:          -4.497
REMARK INTER:                  -4.405
REMARK INTRA:                  -0.091
REMARK UNBOUND:                -0.066
REMARK SMILES CC[C@H](C)[C@H]([NH3+])C(=O)[O-]
REMARK SMILES IDX 3 1 4 2 5 3 6 4 7 8 8 9 9 10 2 11 1 12
REMARK H PARENT 6 5 6 6 6 7
REMARK Flexibility Score: inf
ROOT
ATOM      1  C   UNL     1       4.764   3.877  11.424  1.00  0.00     0.050 C 
ATOM      2  C   UNL     1       4.967   3.389   9.979  1.00  0.00     0.014 C 
ENDROOT
BRANCH   1   3
ATOM      3  C   UNL     1       6.119   3.862  12.207  1.00  0.00     0.230 C 
BRANCH   3   4
ATOM      4  N   UNL     1       6.568   2.501  12.546  1.00  0.00    -0.350 N 
ATOM      5  H   UNL     1       7.008   2.506  13.496  1.00  0.00     0.345 HD
ATOM      6  H   UNL     1       5.769   1.828  12.555  1.00  0.00     0.345 HD
ATOM      7  H   UNL     1       7.290   2.173  11.866  1.00  0.00     0.345 HD
ENDBRANCH   3   4
BRANCH   3   8
ATOM      8  C   UNL     1       6.072   4.753  13.428  1.00  0.00     0.099 C 
ATOM      9  O   UNL     1       5.816   4.282  14.569  1.00  0.00    -0.544 OA
ATOM     10  O   UNL     1       6.347   6.109  13.302  1.00  0.00    -0.544 OA
ENDBRANCH   3   8
ENDBRANCH   1   3
BRANCH   1  11
ATOM     11  C   UNL     1       3.612   3.071  12.079  1.00  0.00     0.006 C 
ATOM     12  C   UNL     1       3.130   1.892  11.234  1.00  0.00     0.004 C 
ENDBRANCH   1  11
TORSDOF 4
ENDMDL
MODEL 6
REMARK VINA RESULT:    -3.668      5.277      6.152
REMARK INTER + INTRA:          -4.484
REMARK INTER:                  -4.418
REMARK INTRA:                  -0.066
REMARK UNBOUND:                -0.066
REMARK SMILES CC[C@H](C)[C@H]([NH3+])C(=O)[O-]
REMARK SMILES IDX 3 1 4 2 5 3 6 4 7 8 8 9 9 10 2 11 1 12
REMARK H PARENT 6 5 6 6 6 7
REMARK Flexibility Score: inf
ROOT
ATOM      1  C   UNL     1       3.017   2.218  11.315  1.00  0.00     0.050 C 
ATOM      2  C   UNL     1       2.920   0.745  11.748  1.00  0.00     0.014 C 
ENDROOT
BRANCH   1   3
ATOM      3  C   UNL     1       4.151   2.952  12.107  1.00  0.00     0.230 C 
BRANCH   3   4
ATOM      4  N   UNL     1       4.029   4.419  12.054  1.00  0.00    -0.350 N 
ATOM      5  H   UNL     1       3.497   4.693  11.195  1.00  0.00     0.345 HD
ATOM      6  H   UNL     1       3.521   4.788  12.890  1.00  0.00     0.345 HD
ATOM      7  H   UNL     1       4.972   4.862  11.998  1.00  0.00     0.345 HD
ENDBRANCH   3   4
BRANCH   3   8
ATOM      8  C   UNL     1       5.525   2.492  11.676  1.00  0.00     0.099 C 
ATOM      9  O   UNL     1       6.198   1.695  12.384  1.00  0.00    -0.544 OA
ATOM     10  O   UNL     1       6.048   2.927  10.464  1.00  0.00    -0.544 OA
ENDBRANCH   3   8
ENDBRANCH   1   3
BRANCH   1  11
ATOM     11  C   UNL     1       1.614   2.872  11.407  1.00  0.00     0.006 C 
ATOM     12  C   UNL     1       0.558   1.972  12.046  1.00  0.00     0.004 C 
ENDBRANCH   1  11
TORSDOF 4
ENDMDL
MODEL 7
REMARK VINA RESULT:    -3.657      5.628      6.807
REMARK INTER + INTRA:          -4.471
REMARK INTER:                  -4.410
REMARK INTRA:                  -0.061
REMARK UNBOUND:                -0.066
REMARK SMILES CC[C@H](C)[C@H]([NH3+])C(=O)[O-]
REMARK SMILES IDX 3 1 4 2 5 3 6 4 7 8 8 9 9 10 2 11 1 12
REMARK H PARENT 6 5 6 6 6 7
REMARK Flexibility Score: inf
ROOT
ATOM      1  C   UNL     1       4.657   2.962  12.130  1.00  0.00     0.050 C 
ATOM      2  C   UNL     1       6.019   2.245  12.158  1.00  0.00     0.014 C 
ENDROOT
BRANCH   1   3
ATOM      3  C   UNL     1       3.736   2.353  11.020  1.00  0.00     0.230 C 
BRANCH   3   4
ATOM      4  N   UNL     1       3.359   3.333   9.988  1.00  0.00    -0.350 N 
ATOM      5  H   UNL     1       3.614   4.295  10.312  1.00  0.00     0.345 HD
ATOM      6  H   UNL     1       3.853   3.145   9.087  1.00  0.00     0.345 HD
ATOM      7  H   UNL     1       2.327   3.317   9.828  1.00  0.00     0.345 HD
ENDBRANCH   3   4
BRANCH   3   8
ATOM      8  C   UNL     1       2.522   1.671  11.611  1.00  0.00     0.099 C 
ATOM      9  O   UNL     1       1.441   2.298  11.780  1.00  0.00    -0.544 OA
ATOM     10  O   UNL     1       2.582   0.324  11.944  1.00  0.00    -0.544 OA
ENDBRANCH   3   8
ENDBRANCH   1   3
BRANCH   1  11
ATOM     11  C   UNL     1       4.886   4.493  12.034  1.00  0.00     0.006 C 
ATOM     12  C   UNL     1       5.591   5.086  13.254  1.00  0.00     0.004 C 
ENDBRANCH   1  11
TORSDOF 4
ENDMDL
MODEL 8
REMARK VINA RESULT:    -3.656      4.867      6.130
REMARK INTER + INTRA:          -4.470
REMARK INTER:                  -4.486
REMARK INTRA:                   0.017
REMARK UNBOUND:                -0.066
REMARK SMILES CC[C@H](C)[C@H]([NH3+])C(=O)[O-]
REMARK SMILES IDX 3 1 4 2 5 3 6 4 7 8 8 9 9 10 2 11 1 12
REMARK H PARENT 6 5 6 6 6 7
REMARK Flexibility Score: inf
ROOT
ATOM      1  C   UNL     1       5.932   3.935  11.925  1.00  0.00     0.050 C 
ATOM      2  C   UNL     1       5.625   4.413  10.495  1.00  0.00     0.014 C 
ENDROOT
BRANCH   1   3
ATOM      3  C   UNL     1       5.204   2.581  12.222  1.00  0.00     0.230 C 
BRANCH   3   4
ATOM      4  N   UNL     1       6.029   1.405  11.899  1.00  0.00    -0.350 N 
ATOM      5  H   UNL     1       6.903   1.424  12.475  1.00  0.00     0.345 HD
ATOM      6  H   UNL     1       5.518   0.516  12.101  1.00  0.00     0.345 HD
ATOM      7  H   UNL     1       6.312   1.421  10.894  1.00  0.00     0.345 HD
ENDBRANCH   3   4
BRANCH   3   8
ATOM      8  C   UNL     1       3.851   2.513  11.549  1.00  0.00     0.099 C 
ATOM      9  O   UNL     1       2.842   3.074  12.055  1.00  0.00    -0.544 OA
ATOM     10  O   UNL     1       3.718   1.849  10.335  1.00  0.00    -0.544 OA
ENDBRANCH   3   8
ENDBRANCH   1   3
BRANCH   1  11
ATOM     11  C   UNL     1       5.630   5.082  12.924  1.00  0.00     0.006 C 
ATOM     12  C   UNL     1       6.016   4.756  14.367  1.00  0.00     0.004 C 
ENDBRANCH   1  11
TORSDOF 4
ENDMDL
MODEL 9
REMARK VINA RESULT:    -3.655     13.847     15.138
REMARK INTER + INTRA:          -4.468
REMARK INTER:                  -4.377
REMARK INTRA:                  -0.091
REMARK UNBOUND:                -0.066
REMARK SMILES CC[C@H](C)[C@H]([NH3+])C(=O)[O-]
REMARK SMILES IDX 3 1 4 2 5 3 6 4 7 8 8 9 9 10 2 11 1 12
REMARK H PARENT 6 5 6 6 6 7
REMARK Flexibility Score: inf
ROOT
ATOM      1  C   UNL     1      -2.615  -5.764  11.649  1.00  0.00     0.050 C 
ATOM      2  C   UNL     1      -2.044  -7.021  12.327  1.00  0.00     0.014 C 
ENDROOT
BRANCH   1   3
ATOM      3  C   UNL     1      -2.186  -4.475  12.427  1.00  0.00     0.230 C 
BRANCH   3   4
ATOM      4  N   UNL     1      -3.039  -4.201  13.595  1.00  0.00    -0.350 N 
ATOM      5  H   UNL     1      -3.949  -3.796  13.275  1.00  0.00     0.345 HD
ATOM      6  H   UNL     1      -3.236  -5.075  14.134  1.00  0.00     0.345 HD
ATOM      7  H   UNL     1      -2.584  -3.502  14.224  1.00  0.00     0.345 HD
ENDBRANCH   3   4
BRANCH   3   8
ATOM      8  C   UNL     1      -2.092  -3.273  11.513  1.00  0.00     0.099 C 
ATOM      9  O   UNL     1      -3.073  -2.498  11.353  1.00  0.00    -0.544 OA
ATOM     10  O   UNL     1      -0.897  -2.995  10.861  1.00  0.00    -0.544 OA
ENDBRANCH   3   8
ENDBRANCH   1   3
BRANCH   1  11
ATOM     11  C   UNL     1      -4.143  -5.939  11.450  1.00  0.00     0.006 C 
ATOM     12  C   UNL     1      -4.689  -7.251  12.012  1.00  0.00     0.004 C 
ENDBRANCH   1  11
TORSDOF 4
ENDMDL
