MODEL 1
REMARK VINA RESULT:    -8.960      0.000      0.000
REMARK INTER + INTRA:         -16.939
REMARK INTER:                 -14.722
REMARK INTRA:                  -2.216
REMARK UNBOUND:                -2.216
REMARK SMILES C[C@H]1O[C@H](OC[C@@H]2O[C@@H](Oc3c(-c4ccc(O)c(O)c4)oc4cc(O)cc(O)c4c3=O)[C@@H](O)[C@@H](O)[C@H]2O)[C@H](O)[C@H](O)[C@@H]1O
REMARK SMILES IDX 7 1 36 2 34 3 32 4 9 5 8 6 6 7 5 8 4 9 1 10 2 11 42 12 3 13
REMARK SMILES IDX 40 14 38 15 43 16 41 18 39 20 37 22 35 24 10 26 11 27 12 28
REMARK SMILES IDX 30 29 21 30 29 31 31 32 22 33 27 34 23 35 26 36 24 37 13 38
REMARK SMILES IDX 20 39 14 40 18 41 15 42 16 43 19 44 17 46 28 48 25 50 33 52
REMARK H PARENT 43 17 41 19 39 21 37 23 35 25 19 45 17 47 28 49 25 51 33 53
REMARK Flexibility Score: inf
ROOT
ATOM      1  C   UNL     1      23.641 -25.463  30.448  1.00  0.00     0.180 C 
ATOM      2  C   UNL     1      24.204 -26.800  29.911  1.00  0.00     0.177 C 
ATOM      3  C   UNL     1      24.331 -26.772  28.371  1.00  0.00     0.180 C 
ATOM      4  C   UNL     1      23.052 -26.189  27.727  1.00  0.00     0.214 C 
ATOM      5  C   UNL     1      22.530 -24.926  28.452  1.00  0.00     0.339 C 
ATOM      6  O   UNL     1      22.394 -25.161  29.844  1.00  0.00    -0.332 OA
ENDROOT
BRANCH   1   7
ATOM      7  C   UNL     1      23.436 -25.520  31.969  1.00  0.00     0.198 C 
BRANCH   7   8
ATOM      8  O   UNL     1      24.687 -25.607  32.631  1.00  0.00    -0.347 OA
BRANCH   8   9
ATOM      9  C   UNL     1      24.533 -26.030  33.977  1.00  0.00     0.281 C 
ATOM     10  C   UNL     1      23.388 -29.489  33.452  1.00  0.00     0.041 C 
ATOM     11  C   UNL     1      24.352 -28.303  33.399  1.00  0.00     0.150 C 
ATOM     12  C   UNL     1      25.701 -28.668  34.063  1.00  0.00     0.174 C 
ATOM     13  O   UNL     1      23.744 -27.209  34.067  1.00  0.00    -0.344 OA
ATOM     14  C   UNL     1      26.638 -27.449  34.044  1.00  0.00     0.179 C 
ATOM     15  C   UNL     1      25.912 -26.232  34.642  1.00  0.00     0.202 C 
BRANCH  12  16
ATOM     16  O   UNL     1      26.297 -29.743  33.382  1.00  0.00    -0.388 OA
ATOM     17  H   UNL     1      27.248 -29.494  33.236  1.00  0.00     0.211 HD
ENDBRANCH  12  16
BRANCH  14  18
ATOM     18  O   UNL     1      27.049 -27.187  32.724  1.00  0.00    -0.387 OA
ATOM     19  H   UNL     1      27.469 -26.287  32.727  1.00  0.00     0.211 HD
ENDBRANCH  14  18
BRANCH  15  20
ATOM     20  O   UNL     1      26.704 -25.080  34.495  1.00  0.00    -0.385 OA
ATOM     21  H   UNL     1      27.577 -25.376  34.129  1.00  0.00     0.211 HD
ENDBRANCH  15  20
ENDBRANCH   8   9
ENDBRANCH   7   8
ENDBRANCH   1   7
BRANCH   2  22
ATOM     22  O   UNL     1      25.456 -27.061  30.492  1.00  0.00    -0.387 OA
ATOM     23  H   UNL     1      25.304 -27.178  31.464  1.00  0.00     0.211 HD
ENDBRANCH   2  22
BRANCH   3  24
ATOM     24  O   UNL     1      25.494 -26.101  27.952  1.00  0.00    -0.387 OA
ATOM     25  H   UNL     1      25.225 -25.392  27.320  1.00  0.00     0.211 HD
ENDBRANCH   3  24
BRANCH   5  26
ATOM     26  O   UNL     1      23.355 -23.783  28.189  1.00  0.00    -0.454 OA
BRANCH  26  27
ATOM     27  C   UNL     1      22.934 -22.437  28.153  1.00  0.00     0.214 A 
ATOM     28  C   UNL     1      22.648 -21.861  26.898  1.00  0.00     0.180 A 
ATOM     29  C   UNL     1      22.750 -21.638  29.305  1.00  0.00     0.239 A 
ATOM     30  O   UNL     1      22.160 -20.629  26.816  1.00  0.00    -0.452 OA
ATOM     31  C   UNL     1      22.250 -20.325  29.173  1.00  0.00     0.111 A 
ATOM     32  O   UNL     1      23.037 -22.090  30.445  1.00  0.00    -0.285 OA
ATOM     33  C   UNL     1      21.949 -19.859  27.874  1.00  0.00     0.146 A 
ATOM     34  C   UNL     1      22.031 -19.464  30.278  1.00  0.00     0.134 A 
ATOM     35  C   UNL     1      21.429 -18.576  27.684  1.00  0.00     0.094 A 
ATOM     36  C   UNL     1      21.511 -18.178  30.068  1.00  0.00     0.093 A 
ATOM     37  C   UNL     1      21.207 -17.735  28.779  1.00  0.00     0.123 A 
BRANCH  28  38
ATOM     38  C   UNL     1      22.855 -22.604  25.640  1.00  0.00     0.025 A 
ATOM     39  C   UNL     1      24.149 -22.738  25.116  1.00  0.00     0.062 A 
ATOM     40  C   UNL     1      21.783 -23.237  24.996  1.00  0.00     0.016 A 
ATOM     41  C   UNL     1      24.367 -23.467  23.941  1.00  0.00     0.158 A 
ATOM     42  C   UNL     1      21.995 -23.962  23.821  1.00  0.00     0.051 A 
ATOM     43  C   UNL     1      23.285 -24.080  23.287  1.00  0.00     0.157 A 
BRANCH  41  44
ATOM     44  O   UNL     1      25.664 -23.571  23.441  1.00  0.00    -0.504 OA
ATOM     45  H   UNL     1      26.364 -24.160  23.875  1.00  0.00     0.293 HD
ENDBRANCH  41  44
BRANCH  43  46
ATOM     46  O   UNL     1      23.496 -24.807  22.117  1.00  0.00    -0.504 OA
ATOM     47  H   UNL     1      23.790 -24.357  21.259  1.00  0.00     0.293 HD
ENDBRANCH  43  46
ENDBRANCH  28  38
BRANCH  34  48
ATOM     48  O   UNL     1      22.327 -19.874  31.579  1.00  0.00    -0.507 OA
ATOM     49  H   UNL     1      21.597 -20.055  32.259  1.00  0.00     0.293 HD
ENDBRANCH  34  48
BRANCH  37  50
ATOM     50  O   UNL     1      20.682 -16.457  28.596  1.00  0.00    -0.508 OA
ATOM     51  H   UNL     1      19.744 -16.317  28.237  1.00  0.00     0.293 HD
ENDBRANCH  37  50
ENDBRANCH  26  27
ENDBRANCH   5  26
BRANCH   4  52
ATOM     52  O   UNL     1      23.219 -25.968  26.348  1.00  0.00    -0.384 OA
ATOM     53  H   UNL     1      23.946 -25.305  26.226  1.00  0.00     0.211 HD
ENDBRANCH   4  52
TORSDOF 16
ENDMDL
MODEL 2
REMARK VINA RESULT:    -8.788      1.447      2.039
REMARK INTER + INTRA:         -16.655
REMARK INTER:                 -14.150
REMARK INTRA:                  -2.506
REMARK UNBOUND:                -2.216
REMARK SMILES C[C@H]1O[C@H](OC[C@@H]2O[C@@H](Oc3c(-c4ccc(O)c(O)c4)oc4cc(O)cc(O)c4c3=O)[C@@H](O)[C@@H](O)[C@H]2O)[C@H](O)[C@H](O)[C@@H]1O
REMARK SMILES IDX 7 1 36 2 34 3 32 4 9 5 8 6 6 7 5 8 4 9 1 10 2 11 42 12 3 13
REMARK SMILES IDX 40 14 38 15 43 16 41 18 39 20 37 22 35 24 10 26 11 27 12 28
REMARK SMILES IDX 30 29 21 30 29 31 31 32 22 33 27 34 23 35 26 36 24 37 13 38
REMARK SMILES IDX 20 39 14 40 18 41 15 42 16 43 19 44 17 46 28 48 25 50 33 52
REMARK H PARENT 43 17 41 19 39 21 37 23 35 25 19 45 17 47 28 49 25 51 33 53
REMARK Flexibility Score: inf
ROOT
ATOM      1  C   UNL     1      23.738 -26.040  30.274  1.00  0.00     0.180 C 
ATOM      2  C   UNL     1      24.431 -27.292  29.687  1.00  0.00     0.177 C 
ATOM      3  C   UNL     1      24.851 -27.059  28.219  1.00  0.00     0.180 C 
ATOM      4  C   UNL     1      23.704 -26.398  27.419  1.00  0.00     0.214 C 
ATOM      5  C   UNL     1      23.018 -25.243  28.187  1.00  0.00     0.339 C 
ATOM      6  O   UNL     1      22.623 -25.662  29.483  1.00  0.00    -0.332 OA
ENDROOT
BRANCH   1   7
ATOM      7  C   UNL     1      23.245 -26.300  31.705  1.00  0.00     0.198 C 
BRANCH   7   8
ATOM      8  O   UNL     1      23.002 -27.683  31.897  1.00  0.00    -0.347 OA
BRANCH   8   9
ATOM      9  C   UNL     1      23.032 -28.030  33.273  1.00  0.00     0.281 C 
ATOM     10  C   UNL     1      19.825 -29.812  33.574  1.00  0.00     0.041 C 
ATOM     11  C   UNL     1      21.251 -29.554  33.084  1.00  0.00     0.150 C 
ATOM     12  C   UNL     1      22.154 -30.776  33.367  1.00  0.00     0.174 C 
ATOM     13  O   UNL     1      21.745 -28.401  33.748  1.00  0.00    -0.344 OA
ATOM     14  C   UNL     1      23.592 -30.480  32.912  1.00  0.00     0.179 C 
ATOM     15  C   UNL     1      24.063 -29.151  33.527  1.00  0.00     0.202 C 
BRANCH  12  16
ATOM     16  O   UNL     1      21.660 -31.906  32.692  1.00  0.00    -0.388 OA
ATOM     17  H   UNL     1      22.090 -31.912  31.796  1.00  0.00     0.211 HD
ENDBRANCH  12  16
BRANCH  14  18
ATOM     18  O   UNL     1      23.644 -30.425  31.507  1.00  0.00    -0.387 OA
ATOM     19  H   UNL     1      22.730 -30.633  31.177  1.00  0.00     0.211 HD
ENDBRANCH  14  18
BRANCH  15  20
ATOM     20  O   UNL     1      25.317 -28.796  33.003  1.00  0.00    -0.385 OA
ATOM     21  H   UNL     1      25.603 -29.540  32.412  1.00  0.00     0.211 HD
ENDBRANCH  15  20
ENDBRANCH   8   9
ENDBRANCH   7   8
ENDBRANCH   1   7
BRANCH   2  22
ATOM     22  O   UNL     1      25.554 -27.626  30.461  1.00  0.00    -0.387 OA
ATOM     23  H   UNL     1      26.324 -27.693  29.840  1.00  0.00     0.211 HD
ENDBRANCH   2  22
BRANCH   3  24
ATOM     24  O   UNL     1      26.054 -26.336  28.125  1.00  0.00    -0.387 OA
ATOM     25  H   UNL     1      25.858 -25.391  28.334  1.00  0.00     0.211 HD
ENDBRANCH   3  24
BRANCH   5  26
ATOM     26  O   UNL     1      23.845 -24.075  28.241  1.00  0.00    -0.454 OA
BRANCH  26  27
ATOM     27  C   UNL     1      23.405 -22.740  28.375  1.00  0.00     0.214 A 
ATOM     28  C   UNL     1      23.019 -22.045  27.211  1.00  0.00     0.180 A 
ATOM     29  C   UNL     1      23.294 -22.069  29.615  1.00  0.00     0.239 A 
ATOM     30  O   UNL     1      22.508 -20.823  27.292  1.00  0.00    -0.452 OA
ATOM     31  C   UNL     1      22.767 -20.760  29.656  1.00  0.00     0.111 A 
ATOM     32  O   UNL     1      23.670 -22.629  30.678  1.00  0.00    -0.285 OA
ATOM     33  C   UNL     1      22.365 -20.170  28.437  1.00  0.00     0.146 A 
ATOM     34  C   UNL     1      22.619 -20.022  30.857  1.00  0.00     0.134 A 
ATOM     35  C   UNL     1      21.815 -18.886  28.419  1.00  0.00     0.094 A 
ATOM     36  C   UNL     1      22.066 -18.733  30.819  1.00  0.00     0.093 A 
ATOM     37  C   UNL     1      21.662 -18.166  29.608  1.00  0.00     0.123 A 
BRANCH  28  38
ATOM     38  C   UNL     1      23.143 -22.651  25.871  1.00  0.00     0.025 A 
ATOM     39  C   UNL     1      24.393 -22.685  25.236  1.00  0.00     0.062 A 
ATOM     40  C   UNL     1      22.040 -23.255  25.251  1.00  0.00     0.016 A 
ATOM     41  C   UNL     1      24.535 -23.284  23.979  1.00  0.00     0.158 A 
ATOM     42  C   UNL     1      22.176 -23.851  23.995  1.00  0.00     0.051 A 
ATOM     43  C   UNL     1      23.420 -23.868  23.353  1.00  0.00     0.157 A 
BRANCH  41  44
ATOM     44  O   UNL     1      25.789 -23.290  23.370  1.00  0.00    -0.504 OA
ATOM     45  H   UNL     1      25.984 -22.759  22.530  1.00  0.00     0.293 HD
ENDBRANCH  41  44
BRANCH  43  46
ATOM     46  O   UNL     1      23.556 -24.466  22.101  1.00  0.00    -0.504 OA
ATOM     47  H   UNL     1      22.788 -24.962  21.665  1.00  0.00     0.293 HD
ENDBRANCH  43  46
ENDBRANCH  28  38
BRANCH  34  48
ATOM     48  O   UNL     1      23.014 -20.557  32.084  1.00  0.00    -0.507 OA
ATOM     49  H   UNL     1      23.065 -21.558  32.236  1.00  0.00     0.293 HD
ENDBRANCH  34  48
BRANCH  37  50
ATOM     50  O   UNL     1      21.107 -16.888  29.598  1.00  0.00    -0.508 OA
ATOM     51  H   UNL     1      20.896 -16.396  30.459  1.00  0.00     0.293 HD
ENDBRANCH  37  50
ENDBRANCH  26  27
ENDBRANCH   5  26
BRANCH   4  52
ATOM     52  O   UNL     1      24.127 -25.995  26.140  1.00  0.00    -0.384 OA
ATOM     53  H   UNL     1      24.136 -25.003  26.115  1.00  0.00     0.211 HD
ENDBRANCH   4  52
TORSDOF 16
ENDMDL
MODEL 3
REMARK VINA RESULT:    -8.616      1.739      2.412
REMARK INTER + INTRA:         -16.373
REMARK INTER:                 -13.762
REMARK INTRA:                  -2.612
REMARK UNBOUND:                -2.216
REMARK SMILES C[C@H]1O[C@H](OC[C@@H]2O[C@@H](Oc3c(-c4ccc(O)c(O)c4)oc4cc(O)cc(O)c4c3=O)[C@@H](O)[C@@H](O)[C@H]2O)[C@H](O)[C@H](O)[C@@H]1O
REMARK SMILES IDX 7 1 36 2 34 3 32 4 9 5 8 6 6 7 5 8 4 9 1 10 2 11 42 12 3 13
REMARK SMILES IDX 40 14 38 15 43 16 41 18 39 20 37 22 35 24 10 26 11 27 12 28
REMARK SMILES IDX 30 29 21 30 29 31 31 32 22 33 27 34 23 35 26 36 24 37 13 38
REMARK SMILES IDX 20 39 14 40 18 41 15 42 16 43 19 44 17 46 28 48 25 50 33 52
REMARK H PARENT 43 17 41 19 39 21 37 23 35 25 19 45 17 47 28 49 25 51 33 53
REMARK Flexibility Score: inf
ROOT
ATOM      1  C   UNL     1      24.221 -27.211  30.800  1.00  0.00     0.180 C 
ATOM      2  C   UNL     1      24.709 -28.383  29.915  1.00  0.00     0.177 C 
ATOM      3  C   UNL     1      24.927 -27.925  28.456  1.00  0.00     0.180 C 
ATOM      4  C   UNL     1      23.736 -27.068  27.967  1.00  0.00     0.214 C 
ATOM      5  C   UNL     1      23.272 -26.024  29.010  1.00  0.00     0.339 C 
ATOM      6  O   UNL     1      23.038 -26.636  30.268  1.00  0.00    -0.332 OA
ENDROOT
BRANCH   1   7
ATOM      7  C   UNL     1      23.923 -27.684  32.230  1.00  0.00     0.198 C 
BRANCH   7   8
ATOM      8  O   UNL     1      24.731 -26.979  33.159  1.00  0.00    -0.347 OA
BRANCH   8   9
ATOM      9  C   UNL     1      24.226 -27.098  34.480  1.00  0.00     0.281 C 
ATOM     10  C   UNL     1      26.948 -29.010  36.056  1.00  0.00     0.041 C 
ATOM     11  C   UNL     1      26.283 -27.820  35.362  1.00  0.00     0.150 C 
ATOM     12  C   UNL     1      26.479 -26.528  36.189  1.00  0.00     0.174 C 
ATOM     13  O   UNL     1      24.903 -28.113  35.209  1.00  0.00    -0.344 OA
ATOM     14  C   UNL     1      25.763 -25.354  35.502  1.00  0.00     0.179 C 
ATOM     15  C   UNL     1      24.303 -25.741  35.212  1.00  0.00     0.202 C 
BRANCH  12  16
ATOM     16  O   UNL     1      27.850 -26.244  36.319  1.00  0.00    -0.388 OA
ATOM     17  H   UNL     1      28.334 -26.938  35.799  1.00  0.00     0.211 HD
ENDBRANCH  12  16
BRANCH  14  18
ATOM     18  O   UNL     1      26.435 -25.018  34.313  1.00  0.00    -0.387 OA
ATOM     19  H   UNL     1      27.304 -24.617  34.577  1.00  0.00     0.211 HD
ENDBRANCH  14  18
BRANCH  15  20
ATOM     20  O   UNL     1      23.680 -24.735  34.455  1.00  0.00    -0.385 OA
ATOM     21  H   UNL     1      24.187 -23.897  34.616  1.00  0.00     0.211 HD
ENDBRANCH  15  20
ENDBRANCH   8   9
ENDBRANCH   7   8
ENDBRANCH   1   7
BRANCH   2  22
ATOM     22  O   UNL     1      25.901 -28.912  30.436  1.00  0.00    -0.387 OA
ATOM     23  H   UNL     1      25.770 -29.892  30.518  1.00  0.00     0.211 HD
ENDBRANCH   2  22
BRANCH   3  24
ATOM     24  O   UNL     1      26.161 -27.271  28.290  1.00  0.00    -0.387 OA
ATOM     25  H   UNL     1      26.873 -27.883  28.596  1.00  0.00     0.211 HD
ENDBRANCH   3  24
BRANCH   5  26
ATOM     26  O   UNL     1      24.197 -24.934  29.120  1.00  0.00    -0.454 OA
BRANCH  26  27
ATOM     27  C   UNL     1      23.883 -23.598  29.450  1.00  0.00     0.214 A 
ATOM     28  C   UNL     1      23.847 -22.645  28.412  1.00  0.00     0.180 A 
ATOM     29  C   UNL     1      23.569 -23.165  30.759  1.00  0.00     0.239 A 
ATOM     30  O   UNL     1      23.465 -21.397  28.654  1.00  0.00    -0.452 OA
ATOM     31  C   UNL     1      23.190 -21.823  30.978  1.00  0.00     0.111 A 
ATOM     32  O   UNL     1      23.633 -23.966  31.728  1.00  0.00    -0.285 OA
ATOM     33  C   UNL     1      23.139 -20.959  29.861  1.00  0.00     0.146 A 
ATOM     34  C   UNL     1      22.854 -21.311  32.257  1.00  0.00     0.134 A 
ATOM     35  C   UNL     1      22.748 -19.626  30.015  1.00  0.00     0.094 A 
ATOM     36  C   UNL     1      22.466 -19.970  32.391  1.00  0.00     0.093 A 
ATOM     37  C   UNL     1      22.409 -19.130  31.277  1.00  0.00     0.123 A 
BRANCH  28  38
ATOM     38  C   UNL     1      24.204 -22.999  27.025  1.00  0.00     0.025 A 
ATOM     39  C   UNL     1      25.547 -23.220  26.687  1.00  0.00     0.062 A 
ATOM     40  C   UNL     1      23.211 -23.182  26.052  1.00  0.00     0.016 A 
ATOM     41  C   UNL     1      25.901 -23.587  25.383  1.00  0.00     0.158 A 
ATOM     42  C   UNL     1      23.559 -23.545  24.748  1.00  0.00     0.051 A 
ATOM     43  C   UNL     1      24.902 -23.748  24.407  1.00  0.00     0.157 A 
BRANCH  41  44
ATOM     44  O   UNL     1      27.246 -23.788  25.078  1.00  0.00    -0.504 OA
ATOM     45  H   UNL     1      27.783 -23.120  24.539  1.00  0.00     0.293 HD
ENDBRANCH  41  44
BRANCH  43  46
ATOM     46  O   UNL     1      25.248 -24.113  23.107  1.00  0.00    -0.504 OA
ATOM     47  H   UNL     1      25.252 -25.082  22.812  1.00  0.00     0.293 HD
ENDBRANCH  43  46
ENDBRANCH  28  38
BRANCH  34  48
ATOM     48  O   UNL     1      22.904 -22.123  33.392  1.00  0.00    -0.507 OA
ATOM     49  H   UNL     1      22.734 -21.752  34.319  1.00  0.00     0.293 HD
ENDBRANCH  34  48
BRANCH  37  50
ATOM     50  O   UNL     1      22.011 -17.803  31.435  1.00  0.00    -0.508 OA
ATOM     51  H   UNL     1      21.064 -17.507  31.226  1.00  0.00     0.293 HD
ENDBRANCH  37  50
ENDBRANCH  26  27
ENDBRANCH   5  26
BRANCH   4  52
ATOM     52  O   UNL     1      24.000 -26.476  26.718  1.00  0.00    -0.384 OA
ATOM     53  H   UNL     1      23.381 -25.710  26.601  1.00  0.00     0.211 HD
ENDBRANCH   4  52
TORSDOF 16
ENDMDL
MODEL 4
REMARK VINA RESULT:    -8.586      2.206      9.269
REMARK INTER + INTRA:         -16.324
REMARK INTER:                 -13.039
REMARK INTRA:                  -3.285
REMARK UNBOUND:                -2.216
REMARK SMILES C[C@H]1O[C@H](OC[C@@H]2O[C@@H](Oc3c(-c4ccc(O)c(O)c4)oc4cc(O)cc(O)c4c3=O)[C@@H](O)[C@@H](O)[C@H]2O)[C@H](O)[C@H](O)[C@@H]1O
REMARK SMILES IDX 7 1 36 2 34 3 32 4 9 5 8 6 6 7 5 8 4 9 1 10 2 11 42 12 3 13
REMARK SMILES IDX 40 14 38 15 43 16 41 18 39 20 37 22 35 24 10 26 11 27 12 28
REMARK SMILES IDX 30 29 21 30 29 31 31 32 22 33 27 34 23 35 26 36 24 37 13 38
REMARK SMILES IDX 20 39 14 40 18 41 15 42 16 43 19 44 17 46 28 48 25 50 33 52
REMARK H PARENT 43 17 41 19 39 21 37 23 35 25 19 45 17 47 28 49 25 51 33 53
REMARK Flexibility Score: inf
ROOT
ATOM      1  C   UNL     1      22.631 -20.850  28.188  1.00  0.00     0.180 C 
ATOM      2  C   UNL     1      22.282 -20.567  26.707  1.00  0.00     0.177 C 
ATOM      3  C   UNL     1      22.278 -21.870  25.878  1.00  0.00     0.180 C 
ATOM      4  C   UNL     1      23.524 -22.728  26.199  1.00  0.00     0.214 C 
ATOM      5  C   UNL     1      23.826 -22.814  27.714  1.00  0.00     0.339 C 
ATOM      6  O   UNL     1      23.877 -21.520  28.293  1.00  0.00    -0.332 OA
ENDROOT
BRANCH   1   7
ATOM      7  C   UNL     1      22.718 -19.546  28.994  1.00  0.00     0.198 C 
BRANCH   7   8
ATOM      8  O   UNL     1      21.444 -18.929  29.071  1.00  0.00    -0.347 OA
BRANCH   8   9
ATOM      9  C   UNL     1      21.552 -17.554  29.406  1.00  0.00     0.281 C 
ATOM     10  C   UNL     1      19.861 -16.037  26.509  1.00  0.00     0.041 C 
ATOM     11  C   UNL     1      19.993 -16.881  27.778  1.00  0.00     0.150 C 
ATOM     12  C   UNL     1      18.951 -16.445  28.833  1.00  0.00     0.174 C 
ATOM     13  O   UNL     1      21.311 -16.722  28.279  1.00  0.00    -0.344 OA
ATOM     14  C   UNL     1      19.131 -17.270  30.118  1.00  0.00     0.179 C 
ATOM     15  C   UNL     1      20.600 -17.204  30.570  1.00  0.00     0.202 C 
BRANCH  12  16
ATOM     16  O   UNL     1      17.652 -16.622  28.327  1.00  0.00    -0.388 OA
ATOM     17  H   UNL     1      17.041 -16.123  28.932  1.00  0.00     0.211 HD
ENDBRANCH  12  16
BRANCH  14  18
ATOM     18  O   UNL     1      18.739 -18.601  29.886  1.00  0.00    -0.387 OA
ATOM     19  H   UNL     1      18.083 -18.836  30.593  1.00  0.00     0.211 HD
ENDBRANCH  14  18
BRANCH  15  20
ATOM     20  O   UNL     1      20.808 -18.071  31.656  1.00  0.00    -0.385 OA
ATOM     21  H   UNL     1      21.590 -17.721  32.157  1.00  0.00     0.211 HD
ENDBRANCH  15  20
ENDBRANCH   8   9
ENDBRANCH   7   8
ENDBRANCH   1   7
BRANCH   2  22
ATOM     22  O   UNL     1      21.028 -19.939  26.622  1.00  0.00    -0.387 OA
ATOM     23  H   UNL     1      20.387 -20.504  27.124  1.00  0.00     0.211 HD
ENDBRANCH   2  22
BRANCH   3  24
ATOM     24  O   UNL     1      21.079 -22.589  26.035  1.00  0.00    -0.387 OA
ATOM     25  H   UNL     1      20.360 -21.941  26.235  1.00  0.00     0.211 HD
ENDBRANCH   3  24
BRANCH   5  26
ATOM     26  O   UNL     1      22.891 -23.659  28.396  1.00  0.00    -0.454 OA
BRANCH  26  27
ATOM     27  C   UNL     1      23.205 -24.737  29.252  1.00  0.00     0.214 A 
ATOM     28  C   UNL     1      22.605 -24.773  30.527  1.00  0.00     0.180 A 
ATOM     29  C   UNL     1      24.062 -25.803  28.892  1.00  0.00     0.239 A 
ATOM     30  O   UNL     1      22.793 -25.812  31.332  1.00  0.00    -0.452 OA
ATOM     31  C   UNL     1      24.253 -26.878  29.787  1.00  0.00     0.111 A 
ATOM     32  O   UNL     1      24.660 -25.794  27.784  1.00  0.00    -0.285 OA
ATOM     33  C   UNL     1      23.567 -26.841  31.022  1.00  0.00     0.146 A 
ATOM     34  C   UNL     1      25.090 -27.986  29.500  1.00  0.00     0.134 A 
ATOM     35  C   UNL     1      23.700 -27.889  31.937  1.00  0.00     0.094 A 
ATOM     36  C   UNL     1      25.212 -29.027  30.432  1.00  0.00     0.093 A 
ATOM     37  C   UNL     1      24.519 -28.983  31.644  1.00  0.00     0.123 A 
BRANCH  28  38
ATOM     38  C   UNL     1      21.733 -23.682  31.003  1.00  0.00     0.025 A 
ATOM     39  C   UNL     1      22.306 -22.510  31.520  1.00  0.00     0.062 A 
ATOM     40  C   UNL     1      20.340 -23.772  30.883  1.00  0.00     0.016 A 
ATOM     41  C   UNL     1      21.495 -21.453  31.947  1.00  0.00     0.158 A 
ATOM     42  C   UNL     1      19.526 -22.720  31.311  1.00  0.00     0.051 A 
ATOM     43  C   UNL     1      20.097 -21.558  31.845  1.00  0.00     0.157 A 
BRANCH  41  44
ATOM     44  O   UNL     1      22.095 -20.307  32.467  1.00  0.00    -0.504 OA
ATOM     45  H   UNL     1      22.040 -20.068  33.450  1.00  0.00     0.293 HD
ENDBRANCH  41  44
BRANCH  43  46
ATOM     46  O   UNL     1      19.284 -20.508  32.269  1.00  0.00    -0.504 OA
ATOM     47  H   UNL     1      18.461 -20.231  31.747  1.00  0.00     0.293 HD
ENDBRANCH  43  46
ENDBRANCH  28  38
BRANCH  34  48
ATOM     48  O   UNL     1      25.799 -28.060  28.300  1.00  0.00    -0.507 OA
ATOM     49  H   UNL     1      25.944 -27.244  27.717  1.00  0.00     0.293 HD
ENDBRANCH  34  48
BRANCH  37  50
ATOM     50  O   UNL     1      24.649 -30.035  32.550  1.00  0.00    -0.508 OA
ATOM     51  H   UNL     1      24.023 -30.832  32.528  1.00  0.00     0.293 HD
ENDBRANCH  37  50
ENDBRANCH  26  27
ENDBRANCH   5  26
BRANCH   4  52
ATOM     52  O   UNL     1      23.443 -24.003  25.610  1.00  0.00    -0.384 OA
ATOM     53  H   UNL     1      24.345 -24.414  25.637  1.00  0.00     0.211 HD
ENDBRANCH   4  52
TORSDOF 16
ENDMDL
MODEL 5
REMARK VINA RESULT:    -8.528      3.042      6.704
REMARK INTER + INTRA:         -16.228
REMARK INTER:                 -13.033
REMARK INTRA:                  -3.195
REMARK UNBOUND:                -2.216
REMARK SMILES C[C@H]1O[C@H](OC[C@@H]2O[C@@H](Oc3c(-c4ccc(O)c(O)c4)oc4cc(O)cc(O)c4c3=O)[C@@H](O)[C@@H](O)[C@H]2O)[C@H](O)[C@H](O)[C@@H]1O
REMARK SMILES IDX 7 1 36 2 34 3 32 4 9 5 8 6 6 7 5 8 4 9 1 10 2 11 42 12 3 13
REMARK SMILES IDX 40 14 38 15 43 16 41 18 39 20 37 22 35 24 10 26 11 27 12 28
REMARK SMILES IDX 30 29 21 30 29 31 31 32 22 33 27 34 23 35 26 36 24 37 13 38
REMARK SMILES IDX 20 39 14 40 18 41 15 42 16 43 19 44 17 46 28 48 25 50 33 52
REMARK H PARENT 43 17 41 19 39 21 37 23 35 25 19 45 17 47 28 49 25 51 33 53
REMARK Flexibility Score: inf
ROOT
ATOM      1  C   UNL     1      24.109 -27.547  34.117  1.00  0.00     0.180 C 
ATOM      2  C   UNL     1      25.352 -28.425  34.393  1.00  0.00     0.177 C 
ATOM      3  C   UNL     1      26.175 -28.646  33.105  1.00  0.00     0.180 C 
ATOM      4  C   UNL     1      25.251 -29.014  31.920  1.00  0.00     0.214 C 
ATOM      5  C   UNL     1      23.980 -28.134  31.848  1.00  0.00     0.339 C 
ATOM      6  O   UNL     1      23.306 -28.116  33.095  1.00  0.00    -0.332 OA
ENDROOT
BRANCH   1   7
ATOM      7  C   UNL     1      23.245 -27.397  35.378  1.00  0.00     0.198 C 
BRANCH   7   8
ATOM      8  O   UNL     1      23.688 -28.292  36.385  1.00  0.00    -0.347 OA
BRANCH   8   9
ATOM      9  C   UNL     1      23.195 -27.919  37.663  1.00  0.00     0.281 C 
ATOM     10  C   UNL     1      21.846 -31.145  38.814  1.00  0.00     0.041 C 
ATOM     11  C   UNL     1      22.914 -30.145  38.370  1.00  0.00     0.150 C 
ATOM     12  C   UNL     1      24.035 -30.040  39.430  1.00  0.00     0.174 C 
ATOM     13  O   UNL     1      22.288 -28.886  38.176  1.00  0.00    -0.344 OA
ATOM     14  C   UNL     1      25.074 -28.995  38.990  1.00  0.00     0.179 C 
ATOM     15  C   UNL     1      24.362 -27.676  38.644  1.00  0.00     0.202 C 
BRANCH  12  16
ATOM     16  O   UNL     1      24.655 -31.290  39.600  1.00  0.00    -0.388 OA
ATOM     17  H   UNL     1      25.371 -31.162  40.277  1.00  0.00     0.211 HD
ENDBRANCH  12  16
BRANCH  14  18
ATOM     18  O   UNL     1      25.794 -29.479  37.882  1.00  0.00    -0.387 OA
ATOM     19  H   UNL     1      26.010 -28.693  37.314  1.00  0.00     0.211 HD
ENDBRANCH  14  18
BRANCH  15  20
ATOM     20  O   UNL     1      25.281 -26.762  38.101  1.00  0.00    -0.385 OA
ATOM     21  H   UNL     1      24.750 -26.048  37.661  1.00  0.00     0.211 HD
ENDBRANCH  15  20
ENDBRANCH   8   9
ENDBRANCH   7   8
ENDBRANCH   1   7
BRANCH   2  22
ATOM     22  O   UNL     1      26.153 -27.826  35.379  1.00  0.00    -0.387 OA
ATOM     23  H   UNL     1      25.953 -28.286  36.234  1.00  0.00     0.211 HD
ENDBRANCH   2  22
BRANCH   3  24
ATOM     24  O   UNL     1      27.003 -27.546  32.816  1.00  0.00    -0.387 OA
ATOM     25  H   UNL     1      27.702 -27.849  32.187  1.00  0.00     0.211 HD
ENDBRANCH   3  24
BRANCH   5  26
ATOM     26  O   UNL     1      24.277 -26.808  31.391  1.00  0.00    -0.454 OA
BRANCH  26  27
ATOM     27  C   UNL     1      23.606 -26.105  30.368  1.00  0.00     0.214 A 
ATOM     28  C   UNL     1      22.732 -25.062  30.737  1.00  0.00     0.180 A 
ATOM     29  C   UNL     1      23.785 -26.362  28.989  1.00  0.00     0.239 A 
ATOM     30  O   UNL     1      22.151 -24.309  29.812  1.00  0.00    -0.452 OA
ATOM     31  C   UNL     1      23.131 -25.551  28.036  1.00  0.00     0.111 A 
ATOM     32  O   UNL     1      24.518 -27.312  28.607  1.00  0.00    -0.285 OA
ATOM     33  C   UNL     1      22.313 -24.501  28.511  1.00  0.00     0.146 A 
ATOM     34  C   UNL     1      23.262 -25.739  26.637  1.00  0.00     0.134 A 
ATOM     35  C   UNL     1      21.659 -23.653  27.614  1.00  0.00     0.094 A 
ATOM     36  C   UNL     1      22.596 -24.878  25.752  1.00  0.00     0.093 A 
ATOM     37  C   UNL     1      21.800 -23.837  26.235  1.00  0.00     0.123 A 
BRANCH  28  38
ATOM     38  C   UNL     1      22.450 -24.754  32.152  1.00  0.00     0.025 A 
ATOM     39  C   UNL     1      23.354 -23.973  32.888  1.00  0.00     0.062 A 
ATOM     40  C   UNL     1      21.257 -25.176  32.755  1.00  0.00     0.016 A 
ATOM     41  C   UNL     1      23.087 -23.645  34.222  1.00  0.00     0.158 A 
ATOM     42  C   UNL     1      20.988 -24.855  34.088  1.00  0.00     0.051 A 
ATOM     43  C   UNL     1      21.899 -24.090  34.827  1.00  0.00     0.157 A 
BRANCH  41  44
ATOM     44  O   UNL     1      24.012 -22.876  34.928  1.00  0.00    -0.504 OA
ATOM     45  H   UNL     1      24.059 -22.884  35.939  1.00  0.00     0.293 HD
ENDBRANCH  41  44
BRANCH  43  46
ATOM     46  O   UNL     1      21.628 -23.766  36.156  1.00  0.00    -0.504 OA
ATOM     47  H   UNL     1      20.737 -23.987  36.584  1.00  0.00     0.293 HD
ENDBRANCH  43  46
ENDBRANCH  28  38
BRANCH  34  48
ATOM     48  O   UNL     1      24.047 -26.771  26.121  1.00  0.00    -0.507 OA
ATOM     49  H   UNL     1      24.045 -27.697  26.531  1.00  0.00     0.293 HD
ENDBRANCH  34  48
BRANCH  37  50
ATOM     50  O   UNL     1      21.156 -22.989  25.336  1.00  0.00    -0.508 OA
ATOM     51  H   UNL     1      20.857 -23.315  24.423  1.00  0.00     0.293 HD
ENDBRANCH  37  50
ENDBRANCH  26  27
ENDBRANCH   5  26
BRANCH   4  52
ATOM     52  O   UNL     1      25.949 -29.024  30.699  1.00  0.00    -0.384 OA
ATOM     53  H   UNL     1      26.289 -28.108  30.529  1.00  0.00     0.211 HD
ENDBRANCH   4  52
TORSDOF 16
ENDMDL
MODEL 6
REMARK VINA RESULT:    -8.468      2.062      3.762
REMARK INTER + INTRA:         -16.130
REMARK INTER:                 -13.273
REMARK INTRA:                  -2.856
REMARK UNBOUND:                -2.216
REMARK SMILES C[C@H]1O[C@H](OC[C@@H]2O[C@@H](Oc3c(-c4ccc(O)c(O)c4)oc4cc(O)cc(O)c4c3=O)[C@@H](O)[C@@H](O)[C@H]2O)[C@H](O)[C@H](O)[C@@H]1O
REMARK SMILES IDX 7 1 36 2 34 3 32 4 9 5 8 6 6 7 5 8 4 9 1 10 2 11 42 12 3 13
REMARK SMILES IDX 40 14 38 15 43 16 41 18 39 20 37 22 35 24 10 26 11 27 12 28
REMARK SMILES IDX 30 29 21 30 29 31 31 32 22 33 27 34 23 35 26 36 24 37 13 38
REMARK SMILES IDX 20 39 14 40 18 41 15 42 16 43 19 44 17 46 28 48 25 50 33 52
REMARK H PARENT 43 17 41 19 39 21 37 23 35 25 19 45 17 47 28 49 25 51 33 53
REMARK Flexibility Score: inf
ROOT
ATOM      1  C   UNL     1      22.655 -24.976  31.121  1.00  0.00     0.180 C 
ATOM      2  C   UNL     1      22.223 -25.261  32.579  1.00  0.00     0.177 C 
ATOM      3  C   UNL     1      21.557 -24.020  33.214  1.00  0.00     0.180 C 
ATOM      4  C   UNL     1      22.378 -22.744  32.916  1.00  0.00     0.214 C 
ATOM      5  C   UNL     1      22.854 -22.660  31.447  1.00  0.00     0.339 C 
ATOM      6  O   UNL     1      23.518 -23.852  31.061  1.00  0.00    -0.332 OA
ENDROOT
BRANCH   1   7
ATOM      7  C   UNL     1      23.393 -26.180  30.517  1.00  0.00     0.198 C 
BRANCH   7   8
ATOM      8  O   UNL     1      23.778 -27.083  31.540  1.00  0.00    -0.347 OA
BRANCH   8   9
ATOM      9  C   UNL     1      25.135 -27.477  31.400  1.00  0.00     0.281 C 
ATOM     10  C   UNL     1      26.556 -26.050  34.481  1.00  0.00     0.041 C 
ATOM     11  C   UNL     1      25.671 -26.964  33.631  1.00  0.00     0.150 C 
ATOM     12  C   UNL     1      25.899 -28.446  34.008  1.00  0.00     0.174 C 
ATOM     13  O   UNL     1      25.986 -26.739  32.266  1.00  0.00    -0.344 OA
ATOM     14  C   UNL     1      25.038 -29.351  33.111  1.00  0.00     0.179 C 
ATOM     15  C   UNL     1      25.284 -28.996  31.635  1.00  0.00     0.202 C 
BRANCH  12  16
ATOM     16  O   UNL     1      25.570 -28.655  35.358  1.00  0.00    -0.388 OA
ATOM     17  H   UNL     1      25.606 -27.767  35.801  1.00  0.00     0.211 HD
ENDBRANCH  12  16
BRANCH  14  18
ATOM     18  O   UNL     1      23.680 -29.194  33.443  1.00  0.00    -0.387 OA
ATOM     19  H   UNL     1      23.176 -29.163  32.587  1.00  0.00     0.211 HD
ENDBRANCH  14  18
BRANCH  15  20
ATOM     20  O   UNL     1      24.397 -29.713  30.814  1.00  0.00    -0.385 OA
ATOM     21  H   UNL     1      24.803 -29.741  29.909  1.00  0.00     0.211 HD
ENDBRANCH  15  20
ENDBRANCH   8   9
ENDBRANCH   7   8
ENDBRANCH   1   7
BRANCH   2  22
ATOM     22  O   UNL     1      21.339 -26.352  32.613  1.00  0.00    -0.387 OA
ATOM     23  H   UNL     1      21.723 -27.053  32.027  1.00  0.00     0.211 HD
ENDBRANCH   2  22
BRANCH   3  24
ATOM     24  O   UNL     1      20.210 -23.892  32.829  1.00  0.00    -0.387 OA
ATOM     25  H   UNL     1      19.752 -23.336  33.504  1.00  0.00     0.211 HD
ENDBRANCH   3  24
BRANCH   5  26
ATOM     26  O   UNL     1      21.776 -22.347  30.555  1.00  0.00    -0.454 OA
BRANCH  26  27
ATOM     27  C   UNL     1      21.720 -21.261  29.655  1.00  0.00     0.214 A 
ATOM     28  C   UNL     1      22.113 -21.482  28.319  1.00  0.00     0.180 A 
ATOM     29  C   UNL     1      21.260 -19.971  30.007  1.00  0.00     0.239 A 
ATOM     30  O   UNL     1      21.990 -20.520  27.412  1.00  0.00    -0.452 OA
ATOM     31  C   UNL     1      21.166 -18.969  29.016  1.00  0.00     0.111 A 
ATOM     32  O   UNL     1      20.943 -19.710  31.197  1.00  0.00    -0.285 OA
ATOM     33  C   UNL     1      21.540 -19.307  27.696  1.00  0.00     0.146 A 
ATOM     34  C   UNL     1      20.709 -17.654  29.285  1.00  0.00     0.134 A 
ATOM     35  C   UNL     1      21.445 -18.362  26.671  1.00  0.00     0.094 A 
ATOM     36  C   UNL     1      20.623 -16.719  28.243  1.00  0.00     0.093 A 
ATOM     37  C   UNL     1      20.985 -17.070  26.940  1.00  0.00     0.123 A 
BRANCH  28  38
ATOM     38  C   UNL     1      22.648 -22.783  27.875  1.00  0.00     0.025 A 
ATOM     39  C   UNL     1      21.766 -23.791  27.456  1.00  0.00     0.062 A 
ATOM     40  C   UNL     1      24.030 -23.003  27.801  1.00  0.00     0.016 A 
ATOM     41  C   UNL     1      22.258 -25.020  27.002  1.00  0.00     0.158 A 
ATOM     42  C   UNL     1      24.526 -24.230  27.352  1.00  0.00     0.051 A 
ATOM     43  C   UNL     1      23.645 -25.243  26.952  1.00  0.00     0.157 A 
BRANCH  41  44
ATOM     44  O   UNL     1      21.355 -26.005  26.604  1.00  0.00    -0.504 OA
ATOM     45  H   UNL     1      20.401 -26.031  26.944  1.00  0.00     0.293 HD
ENDBRANCH  41  44
BRANCH  43  46
ATOM     46  O   UNL     1      24.140 -26.465  26.500  1.00  0.00    -0.504 OA
ATOM     47  H   UNL     1      24.153 -26.700  25.514  1.00  0.00     0.293 HD
ENDBRANCH  43  46
ENDBRANCH  28  38
BRANCH  34  48
ATOM     48  O   UNL     1      20.343 -17.270  30.576  1.00  0.00    -0.507 OA
ATOM     49  H   UNL     1      20.681 -16.411  30.992  1.00  0.00     0.293 HD
ENDBRANCH  34  48
BRANCH  37  50
ATOM     50  O   UNL     1      20.882 -16.126  25.919  1.00  0.00    -0.508 OA
ATOM     51  H   UNL     1      20.921 -16.397  24.943  1.00  0.00     0.293 HD
ENDBRANCH  37  50
ENDBRANCH  26  27
ENDBRANCH   5  26
BRANCH   4  52
ATOM     52  O   UNL     1      21.692 -21.581  33.310  1.00  0.00    -0.384 OA
ATOM     53  H   UNL     1      21.395 -21.699  34.249  1.00  0.00     0.211 HD
ENDBRANCH   4  52
TORSDOF 16
ENDMDL
MODEL 7
REMARK VINA RESULT:    -8.349      1.932      3.224
REMARK INTER + INTRA:         -15.934
REMARK INTER:                 -12.897
REMARK INTRA:                  -3.037
REMARK UNBOUND:                -2.216
REMARK SMILES C[C@H]1O[C@H](OC[C@@H]2O[C@@H](Oc3c(-c4ccc(O)c(O)c4)oc4cc(O)cc(O)c4c3=O)[C@@H](O)[C@@H](O)[C@H]2O)[C@H](O)[C@H](O)[C@@H]1O
REMARK SMILES IDX 7 1 36 2 34 3 32 4 9 5 8 6 6 7 5 8 4 9 1 10 2 11 42 12 3 13
REMARK SMILES IDX 40 14 38 15 43 16 41 18 39 20 37 22 35 24 10 26 11 27 12 28
REMARK SMILES IDX 30 29 21 30 29 31 31 32 22 33 27 34 23 35 26 36 24 37 13 38
REMARK SMILES IDX 20 39 14 40 18 41 15 42 16 43 19 44 17 46 28 48 25 50 33 52
REMARK H PARENT 43 17 41 19 39 21 37 23 35 25 19 45 17 47 28 49 25 51 33 53
REMARK Flexibility Score: inf
ROOT
ATOM      1  C   UNL     1      23.634 -25.109  30.423  1.00  0.00     0.180 C 
ATOM      2  C   UNL     1      24.189 -26.471  29.940  1.00  0.00     0.177 C 
ATOM      3  C   UNL     1      24.244 -26.534  28.398  1.00  0.00     0.180 C 
ATOM      4  C   UNL     1      22.930 -26.003  27.780  1.00  0.00     0.214 C 
ATOM      5  C   UNL     1      22.426 -24.704  28.452  1.00  0.00     0.339 C 
ATOM      6  O   UNL     1      22.357 -24.856  29.860  1.00  0.00    -0.332 OA
ENDROOT
BRANCH   1   7
ATOM      7  C   UNL     1      23.499 -25.078  31.952  1.00  0.00     0.198 C 
BRANCH   7   8
ATOM      8  O   UNL     1      23.153 -23.773  32.388  1.00  0.00    -0.347 OA
BRANCH   8   9
ATOM      9  C   UNL     1      22.186 -23.813  33.427  1.00  0.00     0.281 C 
ATOM     10  C   UNL     1      24.379 -23.592  36.375  1.00  0.00     0.041 C 
ATOM     11  C   UNL     1      23.713 -23.128  35.079  1.00  0.00     0.150 C 
ATOM     12  C   UNL     1      23.011 -21.766  35.286  1.00  0.00     0.174 C 
ATOM     13  O   UNL     1      22.779 -24.119  34.681  1.00  0.00    -0.344 OA
ATOM     14  C   UNL     1      22.306 -21.339  33.987  1.00  0.00     0.179 C 
ATOM     15  C   UNL     1      21.406 -22.482  33.490  1.00  0.00     0.202 C 
BRANCH  12  16
ATOM     16  O   UNL     1      23.950 -20.792  35.665  1.00  0.00    -0.388 OA
ATOM     17  H   UNL     1      23.896 -20.715  36.654  1.00  0.00     0.211 HD
ENDBRANCH  12  16
BRANCH  14  18
ATOM     18  O   UNL     1      23.267 -21.002  33.015  1.00  0.00    -0.387 OA
ATOM     19  H   UNL     1      23.201 -21.685  32.297  1.00  0.00     0.211 HD
ENDBRANCH  14  18
BRANCH  15  20
ATOM     20  O   UNL     1      20.872 -22.162  32.230  1.00  0.00    -0.385 OA
ATOM     21  H   UNL     1      20.358 -22.954  31.926  1.00  0.00     0.211 HD
ENDBRANCH  15  20
ENDBRANCH   8   9
ENDBRANCH   7   8
ENDBRANCH   1   7
BRANCH   2  22
ATOM     22  O   UNL     1      25.469 -26.684  30.477  1.00  0.00    -0.387 OA
ATOM     23  H   UNL     1      25.358 -26.787  31.457  1.00  0.00     0.211 HD
ENDBRANCH   2  22
BRANCH   3  24
ATOM     24  O   UNL     1      25.379 -25.878  27.886  1.00  0.00    -0.387 OA
ATOM     25  H   UNL     1      25.722 -25.273  28.588  1.00  0.00     0.211 HD
ENDBRANCH   3  24
BRANCH   5  26
ATOM     26  O   UNL     1      23.224 -23.571  28.084  1.00  0.00    -0.454 OA
BRANCH  26  27
ATOM     27  C   UNL     1      22.773 -22.243  27.930  1.00  0.00     0.214 A 
ATOM     28  C   UNL     1      22.531 -21.768  26.625  1.00  0.00     0.180 A 
ATOM     29  C   UNL     1      22.516 -21.369  29.011  1.00  0.00     0.239 A 
ATOM     30  O   UNL     1      22.017 -20.559  26.431  1.00  0.00    -0.452 OA
ATOM     31  C   UNL     1      21.990 -20.082  28.761  1.00  0.00     0.111 A 
ATOM     32  O   UNL     1      22.760 -21.728  30.193  1.00  0.00    -0.285 OA
ATOM     33  C   UNL     1      21.739 -19.721  27.418  1.00  0.00     0.146 A 
ATOM     34  C   UNL     1      21.700 -19.150  29.789  1.00  0.00     0.134 A 
ATOM     35  C   UNL     1      21.197 -18.470  27.112  1.00  0.00     0.094 A 
ATOM     36  C   UNL     1      21.158 -17.898  29.461  1.00  0.00     0.093 A 
ATOM     37  C   UNL     1      20.904 -17.558  28.130  1.00  0.00     0.123 A 
BRANCH  28  38
ATOM     38  C   UNL     1      22.813 -22.594  25.436  1.00  0.00     0.025 A 
ATOM     39  C   UNL     1      24.136 -22.750  24.995  1.00  0.00     0.062 A 
ATOM     40  C   UNL     1      21.784 -23.282  24.778  1.00  0.00     0.016 A 
ATOM     41  C   UNL     1      24.426 -23.556  23.888  1.00  0.00     0.158 A 
ATOM     42  C   UNL     1      22.067 -24.085  23.670  1.00  0.00     0.051 A 
ATOM     43  C   UNL     1      23.386 -24.225  23.219  1.00  0.00     0.157 A 
BRANCH  41  44
ATOM     44  O   UNL     1      25.750 -23.681  23.470  1.00  0.00    -0.504 OA
ATOM     45  H   UNL     1      25.995 -23.875  22.507  1.00  0.00     0.293 HD
ENDBRANCH  41  44
BRANCH  43  46
ATOM     46  O   UNL     1      23.668 -25.030  22.117  1.00  0.00    -0.504 OA
ATOM     47  H   UNL     1      23.686 -26.040  22.188  1.00  0.00     0.293 HD
ENDBRANCH  43  46
ENDBRANCH  28  38
BRANCH  34  48
ATOM     48  O   UNL     1      21.944 -19.457  31.128  1.00  0.00    -0.507 OA
ATOM     49  H   UNL     1      21.375 -20.126  31.633  1.00  0.00     0.293 HD
ENDBRANCH  34  48
BRANCH  37  50
ATOM     50  O   UNL     1      20.356 -16.311  27.831  1.00  0.00    -0.508 OA
ATOM     51  H   UNL     1      19.457 -16.026  28.204  1.00  0.00     0.293 HD
ENDBRANCH  37  50
ENDBRANCH  26  27
ENDBRANCH   5  26
BRANCH   4  52
ATOM     52  O   UNL     1      23.031 -25.863  26.384  1.00  0.00    -0.384 OA
ATOM     53  H   UNL     1      23.868 -25.373  26.181  1.00  0.00     0.211 HD
ENDBRANCH   4  52
TORSDOF 16
ENDMDL
MODEL 8
REMARK VINA RESULT:    -8.085      3.663      7.660
REMARK INTER + INTRA:         -15.500
REMARK INTER:                 -13.101
REMARK INTRA:                  -2.400
REMARK UNBOUND:                -2.216
REMARK SMILES C[C@H]1O[C@H](OC[C@@H]2O[C@@H](Oc3c(-c4ccc(O)c(O)c4)oc4cc(O)cc(O)c4c3=O)[C@@H](O)[C@@H](O)[C@H]2O)[C@H](O)[C@H](O)[C@@H]1O
REMARK SMILES IDX 7 1 36 2 34 3 32 4 9 5 8 6 6 7 5 8 4 9 1 10 2 11 42 12 3 13
REMARK SMILES IDX 40 14 38 15 43 16 41 18 39 20 37 22 35 24 10 26 11 27 12 28
REMARK SMILES IDX 30 29 21 30 29 31 31 32 22 33 27 34 23 35 26 36 24 37 13 38
REMARK SMILES IDX 20 39 14 40 18 41 15 42 16 43 19 44 17 46 28 48 25 50 33 52
REMARK H PARENT 43 17 41 19 39 21 37 23 35 25 19 45 17 47 28 49 25 51 33 53
REMARK Flexibility Score: inf
ROOT
ATOM      1  C   UNL     1      22.426 -22.216  27.449  1.00  0.00     0.180 C 
ATOM      2  C   UNL     1      22.834 -23.669  27.790  1.00  0.00     0.177 C 
ATOM      3  C   UNL     1      22.420 -24.041  29.231  1.00  0.00     0.180 C 
ATOM      4  C   UNL     1      22.794 -22.912  30.218  1.00  0.00     0.214 C 
ATOM      5  C   UNL     1      22.445 -21.501  29.686  1.00  0.00     0.339 C 
ATOM      6  O   UNL     1      22.978 -21.305  28.386  1.00  0.00    -0.332 OA
ENDROOT
BRANCH   1   7
ATOM      7  C   UNL     1      22.913 -21.818  26.049  1.00  0.00     0.198 C 
BRANCH   7   8
ATOM      8  O   UNL     1      24.052 -22.582  25.689  1.00  0.00    -0.347 OA
BRANCH   8   9
ATOM      9  C   UNL     1      24.273 -22.556  24.287  1.00  0.00     0.281 C 
ATOM     10  C   UNL     1      27.728 -21.289  24.188  1.00  0.00     0.041 C 
ATOM     11  C   UNL     1      26.597 -22.268  24.506  1.00  0.00     0.150 C 
ATOM     12  C   UNL     1      26.911 -23.669  23.930  1.00  0.00     0.174 C 
ATOM     13  O   UNL     1      25.397 -21.754  23.949  1.00  0.00    -0.344 OA
ATOM     14  C   UNL     1      25.742 -24.626  24.217  1.00  0.00     0.179 C 
ATOM     15  C   UNL     1      24.427 -23.990  23.737  1.00  0.00     0.202 C 
BRANCH  12  16
ATOM     16  O   UNL     1      28.093 -24.170  24.502  1.00  0.00    -0.388 OA
ATOM     17  H   UNL     1      28.043 -23.974  25.474  1.00  0.00     0.211 HD
ENDBRANCH  12  16
BRANCH  14  18
ATOM     18  O   UNL     1      25.687 -24.906  25.595  1.00  0.00    -0.387 OA
ATOM     19  H   UNL     1      26.608 -24.797  25.949  1.00  0.00     0.211 HD
ENDBRANCH  14  18
BRANCH  15  20
ATOM     20  O   UNL     1      23.337 -24.788  24.126  1.00  0.00    -0.385 OA
ATOM     21  H   UNL     1      23.682 -25.712  24.235  1.00  0.00     0.211 HD
ENDBRANCH  15  20
ENDBRANCH   8   9
ENDBRANCH   7   8
ENDBRANCH   1   7
BRANCH   2  22
ATOM     22  O   UNL     1      22.247 -24.559  26.875  1.00  0.00    -0.387 OA
ATOM     23  H   UNL     1      21.349 -24.786  27.229  1.00  0.00     0.211 HD
ENDBRANCH   2  22
BRANCH   3  24
ATOM     24  O   UNL     1      21.060 -24.393  29.311  1.00  0.00    -0.387 OA
ATOM     25  H   UNL     1      20.747 -24.608  28.399  1.00  0.00     0.211 HD
ENDBRANCH   3  24
BRANCH   5  26
ATOM     26  O   UNL     1      21.033 -21.256  29.717  1.00  0.00    -0.454 OA
BRANCH  26  27
ATOM     27  C   UNL     1      20.301 -20.712  30.794  1.00  0.00     0.214 A 
ATOM     28  C   UNL     1      20.358 -19.319  31.004  1.00  0.00     0.180 A 
ATOM     29  C   UNL     1      19.483 -21.479  31.656  1.00  0.00     0.239 A 
ATOM     30  O   UNL     1      19.614 -18.747  31.943  1.00  0.00    -0.452 OA
ATOM     31  C   UNL     1      18.725 -20.834  32.658  1.00  0.00     0.111 A 
ATOM     32  O   UNL     1      19.435 -22.732  31.541  1.00  0.00    -0.285 OA
ATOM     33  C   UNL     1      18.817 -19.427  32.754  1.00  0.00     0.146 A 
ATOM     34  C   UNL     1      17.878 -21.529  33.557  1.00  0.00     0.134 A 
ATOM     35  C   UNL     1      18.072 -18.733  33.710  1.00  0.00     0.094 A 
ATOM     36  C   UNL     1      17.139 -20.814  34.512  1.00  0.00     0.093 A 
ATOM     37  C   UNL     1      17.231 -19.423  34.588  1.00  0.00     0.123 A 
BRANCH  28  38
ATOM     38  C   UNL     1      21.219 -18.448  30.182  1.00  0.00     0.025 A 
ATOM     39  C   UNL     1      20.735 -17.934  28.969  1.00  0.00     0.062 A 
ATOM     40  C   UNL     1      22.493 -18.070  30.628  1.00  0.00     0.016 A 
ATOM     41  C   UNL     1      21.526 -17.081  28.192  1.00  0.00     0.158 A 
ATOM     42  C   UNL     1      23.289 -17.222  29.854  1.00  0.00     0.051 A 
ATOM     43  C   UNL     1      22.812 -16.724  28.635  1.00  0.00     0.157 A 
BRANCH  41  44
ATOM     44  O   UNL     1      21.019 -16.598  26.987  1.00  0.00    -0.504 OA
ATOM     45  H   UNL     1      21.604 -16.138  26.301  1.00  0.00     0.293 HD
ENDBRANCH  41  44
BRANCH  43  46
ATOM     46  O   UNL     1      23.605 -15.875  27.865  1.00  0.00    -0.504 OA
ATOM     47  H   UNL     1      23.883 -16.119  26.922  1.00  0.00     0.293 HD
ENDBRANCH  43  46
ENDBRANCH  28  38
BRANCH  34  48
ATOM     48  O   UNL     1      17.765 -22.919  33.510  1.00  0.00    -0.507 OA
ATOM     49  H   UNL     1      16.954 -23.374  33.108  1.00  0.00     0.293 HD
ENDBRANCH  34  48
BRANCH  37  50
ATOM     50  O   UNL     1      16.479 -18.735  35.539  1.00  0.00    -0.508 OA
ATOM     51  H   UNL     1      15.701 -19.175  36.018  1.00  0.00     0.293 HD
ENDBRANCH  37  50
ENDBRANCH  26  27
ENDBRANCH   5  26
BRANCH   4  52
ATOM     52  O   UNL     1      22.251 -23.136  31.496  1.00  0.00    -0.384 OA
ATOM     53  H   UNL     1      22.880 -22.769  32.168  1.00  0.00     0.211 HD
ENDBRANCH   4  52
TORSDOF 16
ENDMDL
