MODEL 1
REMARK VINA RESULT:    -3.069      0.000      0.000
REMARK INTER + INTRA:          -3.961
REMARK INTER:                  -3.876
REMARK INTRA:                  -0.085
REMARK UNBOUND:                -0.085
REMARK SMILES CCCCC[C@H](C)O
REMARK SMILES IDX 4 1 3 2 2 3 1 4 5 5 6 6 7 7 8 8
REMARK H PARENT 8 9
REMARK Flexibility Score: inf
ROOT
ATOM      1  C   UNL     1       1.372   2.550  -4.790  1.00  0.00     0.003 C 
ENDROOT
BRANCH   1   2
ATOM      2  C   UNL     1       2.633   2.058  -4.058  1.00  0.00    -0.000 C 
BRANCH   2   3
ATOM      3  C   UNL     1       2.417   0.727  -3.323  1.00  0.00    -0.003 C 
ATOM      4  C   UNL     1       3.727  -0.042  -3.180  1.00  0.00     0.004 C 
ENDBRANCH   2   3
ENDBRANCH   1   2
BRANCH   1   5
ATOM      5  C   UNL     1       0.049   2.332  -4.030  1.00  0.00     0.031 C 
BRANCH   5   6
ATOM      6  C   UNL     1      -1.210   2.593  -4.885  1.00  0.00     0.111 C 
ATOM      7  C   UNL     1      -1.983   3.810  -4.367  1.00  0.00     0.038 C 
BRANCH   6   8
ATOM      8  O   UNL     1      -2.047   1.463  -4.920  1.00  0.00    -0.393 OA
ATOM      9  H   UNL     1      -1.521   0.691  -4.581  1.00  0.00     0.210 HD
ENDBRANCH   6   8
ENDBRANCH   5   6
ENDBRANCH   1   5
TORSDOF 5
ENDMDL
MODEL 2
REMARK VINA RESULT:    -3.021      1.793      2.479
REMARK INTER + INTRA:          -3.900
REMARK INTER:                  -3.849
REMARK INTRA:                  -0.051
REMARK UNBOUND:                -0.085
REMARK SMILES CCCCC[C@H](C)O
REMARK SMILES IDX 4 1 3 2 2 3 1 4 5 5 6 6 7 7 8 8
REMARK H PARENT 8 9
REMARK Flexibility Score: inf
ROOT
ATOM      1  C   UNL     1      -0.726   2.634  -5.372  1.00  0.00     0.003 C 
ENDROOT
BRANCH   1   2
ATOM      2  C   UNL     1      -0.042   1.990  -4.154  1.00  0.00    -0.000 C 
BRANCH   2   3
ATOM      3  C   UNL     1       1.490   2.070  -4.216  1.00  0.00    -0.003 C 
ATOM      4  C   UNL     1       2.133   0.937  -3.422  1.00  0.00     0.004 C 
ENDBRANCH   2   3
ENDBRANCH   1   2
BRANCH   1   5
ATOM      5  C   UNL     1      -2.267   2.596  -5.352  1.00  0.00     0.031 C 
BRANCH   5   6
ATOM      6  C   UNL     1      -2.911   2.698  -6.751  1.00  0.00     0.111 C 
ATOM      7  C   UNL     1      -3.759   3.969  -6.874  1.00  0.00     0.038 C 
BRANCH   6   8
ATOM      8  O   UNL     1      -3.689   1.563  -7.039  1.00  0.00    -0.393 OA
ATOM      9  H   UNL     1      -4.470   1.573  -6.426  1.00  0.00     0.210 HD
ENDBRANCH   6   8
ENDBRANCH   5   6
ENDBRANCH   1   5
TORSDOF 5
ENDMDL
MODEL 3
REMARK VINA RESULT:    -2.999      1.020      1.276
REMARK INTER + INTRA:          -3.873
REMARK INTER:                  -3.706
REMARK INTRA:                  -0.167
REMARK UNBOUND:                -0.085
REMARK SMILES CCCCC[C@H](C)O
REMARK SMILES IDX 4 1 3 2 2 3 1 4 5 5 6 6 7 7 8 8
REMARK H PARENT 8 9
REMARK Flexibility Score: inf
ROOT
ATOM      1  C   UNL     1       0.638   3.769  -4.513  1.00  0.00     0.003 C 
ENDROOT
BRANCH   1   2
ATOM      2  C   UNL     1       1.460   2.501  -4.804  1.00  0.00    -0.000 C 
BRANCH   2   3
ATOM      3  C   UNL     1       1.326   1.436  -3.705  1.00  0.00    -0.003 C 
ATOM      4  C   UNL     1       2.684   0.834  -3.354  1.00  0.00     0.004 C 
ENDBRANCH   2   3
ENDBRANCH   1   2
BRANCH   1   5
ATOM      5  C   UNL     1      -0.839   3.521  -4.151  1.00  0.00     0.031 C 
BRANCH   5   6
ATOM      6  C   UNL     1      -1.652   2.846  -5.277  1.00  0.00     0.111 C 
ATOM      7  C   UNL     1      -2.900   3.666  -5.621  1.00  0.00     0.038 C 
BRANCH   6   8
ATOM      8  O   UNL     1      -2.012   1.532  -4.931  1.00  0.00    -0.393 OA
ATOM      9  H   UNL     1      -2.970   1.545  -4.666  1.00  0.00     0.210 HD
ENDBRANCH   6   8
ENDBRANCH   5   6
ENDBRANCH   1   5
TORSDOF 5
ENDMDL
MODEL 4
REMARK VINA RESULT:    -2.986      1.512      1.777
REMARK INTER + INTRA:          -3.857
REMARK INTER:                  -3.707
REMARK INTRA:                  -0.150
REMARK UNBOUND:                -0.085
REMARK SMILES CCCCC[C@H](C)O
REMARK SMILES IDX 4 1 3 2 2 3 1 4 5 5 6 6 7 7 8 8
REMARK H PARENT 8 9
REMARK Flexibility Score: inf
ROOT
ATOM      1  C   UNL     1       2.468   2.226  -4.114  1.00  0.00     0.003 C 
ENDROOT
BRANCH   1   2
ATOM      2  C   UNL     1       3.778   1.554  -3.669  1.00  0.00    -0.000 C 
BRANCH   2   3
ATOM      3  C   UNL     1       3.564   0.140  -3.107  1.00  0.00    -0.003 C 
ATOM      4  C   UNL     1       4.825  -0.374  -2.418  1.00  0.00     0.004 C 
ENDBRANCH   2   3
ENDBRANCH   1   2
BRANCH   1   5
ATOM      5  C   UNL     1       1.181   1.479  -3.712  1.00  0.00     0.031 C 
BRANCH   5   6
ATOM      6  C   UNL     1      -0.093   2.021  -4.395  1.00  0.00     0.111 C 
ATOM      7  C   UNL     1       0.226   2.583  -5.785  1.00  0.00     0.038 C 
BRANCH   6   8
ATOM      8  O   UNL     1      -0.719   3.002  -3.606  1.00  0.00    -0.393 OA
ATOM      9  H   UNL     1      -1.613   3.178  -4.001  1.00  0.00     0.210 HD
ENDBRANCH   6   8
ENDBRANCH   5   6
ENDBRANCH   1   5
TORSDOF 5
ENDMDL
MODEL 5
REMARK VINA RESULT:    -2.951      2.648      5.051
REMARK INTER + INTRA:          -3.812
REMARK INTER:                  -3.724
REMARK INTRA:                  -0.089
REMARK UNBOUND:                -0.085
REMARK SMILES CCCCC[C@H](C)O
REMARK SMILES IDX 4 1 3 2 2 3 1 4 5 5 6 6 7 7 8 8
REMARK H PARENT 8 9
REMARK Flexibility Score: inf
ROOT
ATOM      1  C   UNL     1       1.801   1.876  -3.978  1.00  0.00     0.003 C 
ENDROOT
BRANCH   1   2
ATOM      2  C   UNL     1       0.268   1.925  -4.102  1.00  0.00    -0.000 C 
BRANCH   2   3
ATOM      3  C   UNL     1      -0.216   2.946  -5.141  1.00  0.00    -0.003 C 
ATOM      4  C   UNL     1       0.342   2.628  -6.526  1.00  0.00     0.004 C 
ENDBRANCH   2   3
ENDBRANCH   1   2
BRANCH   1   5
ATOM      5  C   UNL     1       2.364   0.592  -3.336  1.00  0.00     0.031 C 
BRANCH   5   6
ATOM      6  C   UNL     1       3.795   0.751  -2.778  1.00  0.00     0.111 C 
ATOM      7  C   UNL     1       4.731  -0.317  -3.353  1.00  0.00     0.038 C 
BRANCH   6   8
ATOM      8  O   UNL     1       3.803   0.701  -1.373  1.00  0.00    -0.393 OA
ATOM      9  H   UNL     1       2.859   0.629  -1.071  1.00  0.00     0.210 HD
ENDBRANCH   6   8
ENDBRANCH   5   6
ENDBRANCH   1   5
TORSDOF 5
ENDMDL
MODEL 6
REMARK VINA RESULT:    -2.910      1.470      2.248
REMARK INTER + INTRA:          -3.760
REMARK INTER:                  -3.354
REMARK INTRA:                  -0.406
REMARK UNBOUND:                -0.085
REMARK SMILES CCCCC[C@H](C)O
REMARK SMILES IDX 4 1 3 2 2 3 1 4 5 5 6 6 7 7 8 8
REMARK H PARENT 8 9
REMARK Flexibility Score: inf
ROOT
ATOM      1  C   UNL     1       0.109   2.473  -6.546  1.00  0.00     0.003 C 
ENDROOT
BRANCH   1   2
ATOM      2  C   UNL     1       1.329   3.302  -6.108  1.00  0.00    -0.000 C 
BRANCH   2   3
ATOM      3  C   UNL     1       1.549   3.285  -4.588  1.00  0.00    -0.003 C 
ATOM      4  C   UNL     1       1.563   1.858  -4.050  1.00  0.00     0.004 C 
ENDBRANCH   2   3
ENDBRANCH   1   2
BRANCH   1   5
ATOM      5  C   UNL     1      -1.225   3.243  -6.580  1.00  0.00     0.031 C 
BRANCH   5   6
ATOM      6  C   UNL     1      -2.168   2.908  -5.403  1.00  0.00     0.111 C 
ATOM      7  C   UNL     1      -2.085   3.980  -4.311  1.00  0.00     0.038 C 
BRANCH   6   8
ATOM      8  O   UNL     1      -1.882   1.641  -4.865  1.00  0.00    -0.393 OA
ATOM      9  H   UNL     1      -0.999   1.357  -5.221  1.00  0.00     0.210 HD
ENDBRANCH   6   8
ENDBRANCH   5   6
ENDBRANCH   1   5
TORSDOF 5
ENDMDL
MODEL 7
REMARK VINA RESULT:    -2.803     11.595     12.174
REMARK INTER + INTRA:          -3.626
REMARK INTER:                  -3.340
REMARK INTRA:                  -0.286
REMARK UNBOUND:                -0.085
REMARK SMILES CCCCC[C@H](C)O
REMARK SMILES IDX 4 1 3 2 2 3 1 4 5 5 6 6 7 7 8 8
REMARK H PARENT 8 9
REMARK Flexibility Score: inf
ROOT
ATOM      1  C   UNL     1      -2.112   1.393   8.170  1.00  0.00     0.003 C 
ENDROOT
BRANCH   1   2
ATOM      2  C   UNL     1      -1.579   2.498   9.099  1.00  0.00    -0.000 C 
BRANCH   2   3
ATOM      3  C   UNL     1      -0.092   2.327   9.441  1.00  0.00    -0.003 C 
ATOM      4  C   UNL     1       0.751   3.418   8.787  1.00  0.00     0.004 C 
ENDBRANCH   2   3
ENDBRANCH   1   2
BRANCH   1   5
ATOM      5  C   UNL     1      -1.835   1.612   6.670  1.00  0.00     0.031 C 
BRANCH   5   6
ATOM      6  C   UNL     1      -1.328   0.349   5.940  1.00  0.00     0.111 C 
ATOM      7  C   UNL     1      -0.199  -0.324   6.728  1.00  0.00     0.038 C 
BRANCH   6   8
ATOM      8  O   UNL     1      -0.898   0.651   4.636  1.00  0.00    -0.393 OA
ATOM      9  H   UNL     1      -0.035   1.137   4.710  1.00  0.00     0.210 HD
ENDBRANCH   6   8
ENDBRANCH   5   6
ENDBRANCH   1   5
TORSDOF 5
ENDMDL
MODEL 8
REMARK VINA RESULT:    -2.754      2.296      4.540
REMARK INTER + INTRA:          -3.564
REMARK INTER:                  -3.161
REMARK INTRA:                  -0.403
REMARK UNBOUND:                -0.085
REMARK SMILES CCCCC[C@H](C)O
REMARK SMILES IDX 4 1 3 2 2 3 1 4 5 5 6 6 7 7 8 8
REMARK H PARENT 8 9
REMARK Flexibility Score: inf
ROOT
ATOM      1  C   UNL     1      -0.013   2.531  -6.638  1.00  0.00     0.003 C 
ENDROOT
BRANCH   1   2
ATOM      2  C   UNL     1      -1.318   3.336  -6.768  1.00  0.00    -0.000 C 
BRANCH   2   3
ATOM      3  C   UNL     1      -2.376   2.932  -5.731  1.00  0.00    -0.003 C 
ATOM      4  C   UNL     1      -2.590   4.040  -4.704  1.00  0.00     0.004 C 
ENDBRANCH   2   3
ENDBRANCH   1   2
BRANCH   1   5
ATOM      5  C   UNL     1       1.194   3.327  -6.102  1.00  0.00     0.031 C 
BRANCH   5   6
ATOM      6  C   UNL     1       1.376   3.226  -4.572  1.00  0.00     0.111 C 
ATOM      7  C   UNL     1       0.791   1.915  -4.035  1.00  0.00     0.038 C 
BRANCH   6   8
ATOM      8  O   UNL     1       0.794   4.324  -3.915  1.00  0.00    -0.393 OA
ATOM      9  H   UNL     1      -0.185   4.161  -3.869  1.00  0.00     0.210 HD
ENDBRANCH   6   8
ENDBRANCH   5   6
ENDBRANCH   1   5
TORSDOF 5
ENDMDL
MODEL 9
REMARK VINA RESULT:    -2.746     12.408     13.119
REMARK INTER + INTRA:          -3.553
REMARK INTER:                  -3.185
REMARK INTRA:                  -0.368
REMARK UNBOUND:                -0.085
REMARK SMILES CCCCC[C@H](C)O
REMARK SMILES IDX 4 1 3 2 2 3 1 4 5 5 6 6 7 7 8 8
REMARK H PARENT 8 9
REMARK Flexibility Score: inf
ROOT
ATOM      1  C   UNL     1      -0.839   1.537   6.843  1.00  0.00     0.003 C 
ENDROOT
BRANCH   1   2
ATOM      2  C   UNL     1      -2.300   2.009   6.745  1.00  0.00    -0.000 C 
BRANCH   2   3
ATOM      3  C   UNL     1      -3.206   1.380   7.814  1.00  0.00    -0.003 C 
ATOM      4  C   UNL     1      -3.910   2.454   8.639  1.00  0.00     0.004 C 
ENDBRANCH   2   3
ENDBRANCH   1   2
BRANCH   1   5
ATOM      5  C   UNL     1      -0.344   1.241   8.273  1.00  0.00     0.031 C 
BRANCH   5   6
ATOM      6  C   UNL     1       0.417   2.417   8.923  1.00  0.00     0.111 C 
ATOM      7  C   UNL     1      -0.417   3.062  10.036  1.00  0.00     0.038 C 
BRANCH   6   8
ATOM      8  O   UNL     1       0.782   3.381   7.967  1.00  0.00    -0.393 OA
ATOM      9  H   UNL     1       0.803   2.931   7.082  1.00  0.00     0.210 HD
ENDBRANCH   6   8
ENDBRANCH   5   6
ENDBRANCH   1   5
TORSDOF 5
ENDMDL
