MODEL 1
REMARK VINA RESULT:    -4.094      0.000      0.000
REMARK INTER + INTRA:          -4.432
REMARK INTER:                  -4.333
REMARK INTRA:                  -0.098
REMARK UNBOUND:                -0.098
REMARK SMILES C=C(C)[C@H]1CC=C(C)C(=O)C1
REMARK SMILES IDX 8 1 7 2 6 3 5 4 4 5 11 6 9 7 10 8 2 9 1 10 3 11
REMARK H PARENT
REMARK Flexibility Score: inf
ROOT
ATOM      1  C   UNL     1     -13.109  27.400  12.356  1.00  0.00     0.048 C 
ATOM      2  C   UNL     1     -13.422  27.703  13.795  1.00  0.00    -0.012 C 
ATOM      3  C   UNL     1     -13.398  26.720  14.713  1.00  0.00    -0.019 C 
ATOM      4  C   UNL     1     -13.783  26.960  16.149  1.00  0.00     0.036 C 
ATOM      5  C   UNL     1     -13.454  28.401  16.580  1.00  0.00     0.025 C 
ATOM      6  C   UNL     1     -14.116  29.410  15.624  1.00  0.00     0.089 C 
ATOM      7  C   UNL     1     -13.779  29.086  14.195  1.00  0.00     0.158 C 
ATOM      8  O   UNL     1     -13.849  29.997  13.326  1.00  0.00    -0.295 OA
ENDROOT
BRANCH   5   9
ATOM      9  C   UNL     1     -13.859  28.657  18.026  1.00  0.00    -0.077 C 
ATOM     10  C   UNL     1     -14.700  27.816  18.647  1.00  0.00     0.008 C 
ATOM     11  C   UNL     1     -13.331  29.845  18.792  1.00  0.00     0.039 C 
ENDBRANCH   5   9
TORSDOF 1
ENDMDL
MODEL 2
REMARK VINA RESULT:    -4.020      2.400      4.940
REMARK INTER + INTRA:          -4.353
REMARK INTER:                  -4.257
REMARK INTRA:                  -0.096
REMARK UNBOUND:                -0.098
REMARK SMILES C=C(C)[C@H]1CC=C(C)C(=O)C1
REMARK SMILES IDX 8 1 7 2 6 3 5 4 4 5 11 6 9 7 10 8 2 9 1 10 3 11
REMARK H PARENT
REMARK Flexibility Score: inf
ROOT
ATOM      1  C   UNL     1     -14.324  28.497  20.625  1.00  0.00     0.048 C 
ATOM      2  C   UNL     1     -14.277  28.310  19.134  1.00  0.00    -0.012 C 
ATOM      3  C   UNL     1     -13.729  29.257  18.352  1.00  0.00    -0.019 C 
ATOM      4  C   UNL     1     -13.731  29.151  16.849  1.00  0.00     0.036 C 
ATOM      5  C   UNL     1     -13.687  27.680  16.395  1.00  0.00     0.025 C 
ATOM      6  C   UNL     1     -14.840  26.887  17.037  1.00  0.00     0.089 C 
ATOM      7  C   UNL     1     -14.857  27.087  18.527  1.00  0.00     0.158 C 
ATOM      8  O   UNL     1     -15.414  26.222  19.257  1.00  0.00    -0.295 OA
ENDROOT
BRANCH   5   9
ATOM      9  C   UNL     1     -13.710  27.564  14.877  1.00  0.00    -0.077 C 
ATOM     10  C   UNL     1     -13.737  26.355  14.294  1.00  0.00     0.008 C 
ATOM     11  C   UNL     1     -13.705  28.789  13.995  1.00  0.00     0.039 C 
ENDBRANCH   5   9
TORSDOF 1
ENDMDL
MODEL 3
REMARK VINA RESULT:    -3.930      3.533      5.872
REMARK INTER + INTRA:          -4.258
REMARK INTER:                  -4.171
REMARK INTRA:                  -0.087
REMARK UNBOUND:                -0.098
REMARK SMILES C=C(C)[C@H]1CC=C(C)C(=O)C1
REMARK SMILES IDX 8 1 7 2 6 3 5 4 4 5 11 6 9 7 10 8 2 9 1 10 3 11
REMARK H PARENT
REMARK Flexibility Score: inf
ROOT
ATOM      1  C   UNL     1     -16.760  33.981  19.628  1.00  0.00     0.048 C 
ATOM      2  C   UNL     1     -16.071  32.665  19.389  1.00  0.00    -0.012 C 
ATOM      3  C   UNL     1     -14.760  32.531  19.656  1.00  0.00    -0.019 C 
ATOM      4  C   UNL     1     -14.010  31.259  19.358  1.00  0.00     0.036 C 
ATOM      5  C   UNL     1     -14.932  30.031  19.472  1.00  0.00     0.025 C 
ATOM      6  C   UNL     1     -16.168  30.203  18.570  1.00  0.00     0.089 C 
ATOM      7  C   UNL     1     -16.839  31.522  18.836  1.00  0.00     0.158 C 
ATOM      8  O   UNL     1     -18.057  31.663  18.540  1.00  0.00    -0.295 OA
ENDROOT
BRANCH   5   9
ATOM      9  C   UNL     1     -14.186  28.743  19.152  1.00  0.00    -0.077 C 
ATOM     10  C   UNL     1     -14.057  27.789  20.087  1.00  0.00     0.008 C 
ATOM     11  C   UNL     1     -13.580  28.503  17.790  1.00  0.00     0.039 C 
ENDBRANCH   5   9
TORSDOF 1
ENDMDL
MODEL 4
REMARK VINA RESULT:    -3.914      1.461      2.084
REMARK INTER + INTRA:          -4.241
REMARK INTER:                  -4.150
REMARK INTRA:                  -0.091
REMARK UNBOUND:                -0.098
REMARK SMILES C=C(C)[C@H]1CC=C(C)C(=O)C1
REMARK SMILES IDX 8 1 7 2 6 3 5 4 4 5 11 6 9 7 10 8 2 9 1 10 3 11
REMARK H PARENT
REMARK Flexibility Score: inf
ROOT
ATOM      1  C   UNL     1     -13.629  28.428  12.502  1.00  0.00     0.048 C 
ATOM      2  C   UNL     1     -13.682  28.305  14.000  1.00  0.00    -0.012 C 
ATOM      3  C   UNL     1     -13.776  29.406  14.765  1.00  0.00    -0.019 C 
ATOM      4  C   UNL     1     -13.751  29.338  16.270  1.00  0.00     0.036 C 
ATOM      5  C   UNL     1     -14.355  28.014  16.776  1.00  0.00     0.025 C 
ATOM      6  C   UNL     1     -13.639  26.816  16.127  1.00  0.00     0.089 C 
ATOM      7  C   UNL     1     -13.608  26.963  14.631  1.00  0.00     0.158 C 
ATOM      8  O   UNL     1     -13.471  25.935  13.915  1.00  0.00    -0.295 OA
ENDROOT
BRANCH   5   9
ATOM      9  C   UNL     1     -14.314  27.930  18.296  1.00  0.00    -0.077 C 
ATOM     10  C   UNL     1     -15.202  27.165  18.951  1.00  0.00     0.008 C 
ATOM     11  C   UNL     1     -13.287  28.690  19.099  1.00  0.00     0.039 C 
ENDBRANCH   5   9
TORSDOF 1
ENDMDL
MODEL 5
REMARK VINA RESULT:    -3.912      2.031      4.660
REMARK INTER + INTRA:          -4.239
REMARK INTER:                  -4.145
REMARK INTRA:                  -0.094
REMARK UNBOUND:                -0.098
REMARK SMILES C=C(C)[C@H]1CC=C(C)C(=O)C1
REMARK SMILES IDX 8 1 7 2 6 3 5 4 4 5 11 6 9 7 10 8 2 9 1 10 3 11
REMARK H PARENT
REMARK Flexibility Score: inf
ROOT
ATOM      1  C   UNL     1     -14.700  28.522  20.602  1.00  0.00     0.048 C 
ATOM      2  C   UNL     1     -14.392  28.473  19.130  1.00  0.00    -0.012 C 
ATOM      3  C   UNL     1     -14.696  27.377  18.413  1.00  0.00    -0.019 C 
ATOM      4  C   UNL     1     -14.334  27.251  16.956  1.00  0.00     0.036 C 
ATOM      5  C   UNL     1     -14.325  28.627  16.264  1.00  0.00     0.025 C 
ATOM      6  C   UNL     1     -13.394  29.597  17.013  1.00  0.00     0.089 C 
ATOM      7  C   UNL     1     -13.731  29.631  18.479  1.00  0.00     0.158 C 
ATOM      8  O   UNL     1     -13.402  30.638  19.162  1.00  0.00    -0.295 OA
ENDROOT
BRANCH   5   9
ATOM      9  C   UNL     1     -13.940  28.509  14.796  1.00  0.00    -0.077 C 
ATOM     10  C   UNL     1     -14.055  29.570  13.982  1.00  0.00     0.008 C 
ATOM     11  C   UNL     1     -13.423  27.213  14.220  1.00  0.00     0.039 C 
ENDBRANCH   5   9
TORSDOF 1
ENDMDL
MODEL 6
REMARK VINA RESULT:    -3.841      2.671      4.607
REMARK INTER + INTRA:          -4.163
REMARK INTER:                  -4.072
REMARK INTRA:                  -0.092
REMARK UNBOUND:                -0.098
REMARK SMILES C=C(C)[C@H]1CC=C(C)C(=O)C1
REMARK SMILES IDX 8 1 7 2 6 3 5 4 4 5 11 6 9 7 10 8 2 9 1 10 3 11
REMARK H PARENT
REMARK Flexibility Score: inf
ROOT
ATOM      1  C   UNL     1     -13.403  30.467  19.141  1.00  0.00     0.048 C 
ATOM      2  C   UNL     1     -13.838  29.047  18.905  1.00  0.00    -0.012 C 
ATOM      3  C   UNL     1     -14.113  28.244  19.947  1.00  0.00    -0.019 C 
ATOM      4  C   UNL     1     -14.474  26.793  19.763  1.00  0.00     0.036 C 
ATOM      5  C   UNL     1     -15.201  26.566  18.424  1.00  0.00     0.025 C 
ATOM      6  C   UNL     1     -14.355  27.108  17.258  1.00  0.00     0.089 C 
ATOM      7  C   UNL     1     -13.942  28.530  17.518  1.00  0.00     0.158 C 
ATOM      8  O   UNL     1     -13.637  29.269  16.543  1.00  0.00    -0.295 OA
ENDROOT
BRANCH   5   9
ATOM      9  C   UNL     1     -15.551  25.098  18.223  1.00  0.00    -0.077 C 
ATOM     10  C   UNL     1     -16.459  24.507  19.015  1.00  0.00     0.008 C 
ATOM     11  C   UNL     1     -14.898  24.276  17.138  1.00  0.00     0.039 C 
ENDBRANCH   5   9
TORSDOF 1
ENDMDL
MODEL 7
REMARK VINA RESULT:    -3.839      1.624      4.380
REMARK INTER + INTRA:          -4.162
REMARK INTER:                  -4.063
REMARK INTRA:                  -0.098
REMARK UNBOUND:                -0.098
REMARK SMILES C=C(C)[C@H]1CC=C(C)C(=O)C1
REMARK SMILES IDX 8 1 7 2 6 3 5 4 4 5 11 6 9 7 10 8 2 9 1 10 3 11
REMARK H PARENT
REMARK Flexibility Score: inf
ROOT
ATOM      1  C   UNL     1     -14.682  27.251  18.349  1.00  0.00     0.048 C 
ATOM      2  C   UNL     1     -14.256  27.546  16.937  1.00  0.00    -0.012 C 
ATOM      3  C   UNL     1     -13.899  26.543  16.116  1.00  0.00    -0.019 C 
ATOM      4  C   UNL     1     -13.389  26.796  14.721  1.00  0.00     0.036 C 
ATOM      5  C   UNL     1     -14.010  28.073  14.126  1.00  0.00     0.025 C 
ATOM      6  C   UNL     1     -13.768  29.272  15.060  1.00  0.00     0.089 C 
ATOM      7  C   UNL     1     -14.210  28.950  16.461  1.00  0.00     0.158 C 
ATOM      8  O   UNL     1     -14.498  29.894  17.246  1.00  0.00    -0.295 OA
ENDROOT
BRANCH   5   9
ATOM      9  C   UNL     1     -13.483  28.346  12.723  1.00  0.00    -0.077 C 
ATOM     10  C   UNL     1     -13.411  29.605  12.264  1.00  0.00     0.008 C 
ATOM     11  C   UNL     1     -13.030  27.223  11.821  1.00  0.00     0.039 C 
ENDBRANCH   5   9
TORSDOF 1
ENDMDL
MODEL 8
REMARK VINA RESULT:    -3.835      1.462      2.096
REMARK INTER + INTRA:          -4.158
REMARK INTER:                  -4.060
REMARK INTRA:                  -0.098
REMARK UNBOUND:                -0.098
REMARK SMILES C=C(C)[C@H]1CC=C(C)C(=O)C1
REMARK SMILES IDX 8 1 7 2 6 3 5 4 4 5 11 6 9 7 10 8 2 9 1 10 3 11
REMARK H PARENT
REMARK Flexibility Score: inf
ROOT
ATOM      1  C   UNL     1     -14.620  25.720  14.319  1.00  0.00     0.048 C 
ATOM      2  C   UNL     1     -14.478  26.634  15.505  1.00  0.00    -0.012 C 
ATOM      3  C   UNL     1     -14.905  26.239  16.717  1.00  0.00    -0.019 C 
ATOM      4  C   UNL     1     -14.857  27.149  17.916  1.00  0.00     0.036 C 
ATOM      5  C   UNL     1     -13.682  28.139  17.817  1.00  0.00     0.025 C 
ATOM      6  C   UNL     1     -13.752  28.922  16.494  1.00  0.00     0.089 C 
ATOM      7  C   UNL     1     -13.886  27.983  15.327  1.00  0.00     0.158 C 
ATOM      8  O   UNL     1     -13.530  28.371  14.181  1.00  0.00    -0.295 OA
ENDROOT
BRANCH   5   9
ATOM      9  C   UNL     1     -13.640  29.076  19.016  1.00  0.00    -0.077 C 
ATOM     10  C   UNL     1     -13.112  30.304  18.893  1.00  0.00     0.008 C 
ATOM     11  C   UNL     1     -14.186  28.658  20.360  1.00  0.00     0.039 C 
ENDBRANCH   5   9
TORSDOF 1
ENDMDL
MODEL 9
REMARK VINA RESULT:    -3.810      3.142      4.934
REMARK INTER + INTRA:          -4.131
REMARK INTER:                  -4.035
REMARK INTRA:                  -0.096
REMARK UNBOUND:                -0.098
REMARK SMILES C=C(C)[C@H]1CC=C(C)C(=O)C1
REMARK SMILES IDX 8 1 7 2 6 3 5 4 4 5 11 6 9 7 10 8 2 9 1 10 3 11
REMARK H PARENT
REMARK Flexibility Score: inf
ROOT
ATOM      1  C   UNL     1     -13.053  30.254  18.920  1.00  0.00     0.048 C 
ATOM      2  C   UNL     1     -13.796  29.026  18.470  1.00  0.00    -0.012 C 
ATOM      3  C   UNL     1     -13.832  28.698  17.167  1.00  0.00    -0.019 C 
ATOM      4  C   UNL     1     -14.630  27.525  16.661  1.00  0.00     0.036 C 
ATOM      5  C   UNL     1     -14.715  26.411  17.722  1.00  0.00     0.025 C 
ATOM      6  C   UNL     1     -15.276  26.971  19.042  1.00  0.00     0.089 C 
ATOM      7  C   UNL     1     -14.509  28.191  19.469  1.00  0.00     0.158 C 
ATOM      8  O   UNL     1     -14.515  28.527  20.684  1.00  0.00    -0.295 OA
ENDROOT
BRANCH   5   9
ATOM      9  C   UNL     1     -15.537  25.230  17.224  1.00  0.00    -0.077 C 
ATOM     10  C   UNL     1     -16.876  25.319  17.166  1.00  0.00     0.008 C 
ATOM     11  C   UNL     1     -14.881  23.944  16.785  1.00  0.00     0.039 C 
ENDBRANCH   5   9
TORSDOF 1
ENDMDL
