MODEL 1
REMARK VINA RESULT:    -5.646      0.000      0.000
REMARK INTER + INTRA:          -7.275
REMARK INTER:                  -6.966
REMARK INTRA:                  -0.309
REMARK UNBOUND:                -0.309
REMARK SMILES O=c1c(O)c(-c2cc(O)c(O)c(O)c2)oc2cc(O)cc(O)c12
REMARK SMILES IDX 5 1 3 2 2 3 1 4 23 5 21 6 20 7 18 8 17 9 16 10 15 11 6 12
REMARK SMILES IDX 7 13 8 14 14 15 10 16 12 17 9 18 11 20 13 22 4 24 22 26
REMARK SMILES IDX 19 28
REMARK H PARENT 9 19 11 21 13 23 4 25 22 27 19 29
REMARK Flexibility Score: inf
ROOT
ATOM      1  C   UNL     1      14.647  55.974  33.804  1.00  0.00     0.180 A 
ATOM      2  C   UNL     1      14.534  55.680  32.434  1.00  0.00     0.208 A 
ATOM      3  C   UNL     1      15.052  56.589  31.497  1.00  0.00     0.238 A 
ATOM      4  O   UNL     1      14.996  56.295  30.276  1.00  0.00    -0.285 OA
ATOM      5  C   UNL     1      15.662  57.788  31.941  1.00  0.00     0.111 A 
ATOM      6  C   UNL     1      16.184  58.798  31.080  1.00  0.00     0.134 A 
ATOM      7  C   UNL     1      16.883  59.881  31.629  1.00  0.00     0.093 A 
ATOM      8  C   UNL     1      17.020  60.023  33.009  1.00  0.00     0.123 A 
ATOM      9  C   UNL     1      16.461  59.071  33.863  1.00  0.00     0.094 A 
ATOM     10  C   UNL     1      15.791  57.962  33.344  1.00  0.00     0.146 A 
ATOM     11  O   UNL     1      15.283  57.074  34.191  1.00  0.00    -0.452 OA
ENDROOT
BRANCH   1  12
ATOM     12  C   UNL     1      14.103  55.076  34.850  1.00  0.00     0.029 A 
ATOM     13  C   UNL     1      12.875  55.383  35.452  1.00  0.00     0.062 A 
ATOM     14  C   UNL     1      12.322  54.546  36.429  1.00  0.00     0.162 A 
ATOM     15  C   UNL     1      14.763  53.892  35.210  1.00  0.00     0.062 A 
ATOM     16  C   UNL     1      13.004  53.365  36.805  1.00  0.00     0.200 A 
ATOM     17  C   UNL     1      14.225  53.044  36.182  1.00  0.00     0.162 A 
BRANCH  14  18
ATOM     18  O   UNL     1      11.102  54.927  36.991  1.00  0.00    -0.504 OA
ATOM     19  H   UNL     1      10.226  54.457  36.815  1.00  0.00     0.293 HD
ENDBRANCH  14  18
BRANCH  16  20
ATOM     20  O   UNL     1      12.506  52.495  37.777  1.00  0.00    -0.502 OA
ATOM     21  H   UNL     1      12.739  51.514  37.835  1.00  0.00     0.293 HD
ENDBRANCH  16  20
BRANCH  17  22
ATOM     22  O   UNL     1      14.919  51.880  36.514  1.00  0.00    -0.504 OA
ATOM     23  H   UNL     1      14.479  50.968  36.509  1.00  0.00     0.293 HD
ENDBRANCH  17  22
ENDBRANCH   1  12
BRANCH   2  24
ATOM     24  O   UNL     1      13.947  54.481  32.018  1.00  0.00    -0.502 OA
ATOM     25  H   UNL     1      14.462  53.771  31.513  1.00  0.00     0.293 HD
ENDBRANCH   2  24
BRANCH   6  26
ATOM     26  O   UNL     1      16.023  58.800  29.691  1.00  0.00    -0.507 OA
ATOM     27  H   UNL     1      16.303  58.048  29.080  1.00  0.00     0.293 HD
ENDBRANCH   6  26
BRANCH   8  28
ATOM     28  O   UNL     1      17.708  61.121  33.522  1.00  0.00    -0.508 OA
ATOM     29  H   UNL     1      18.038  61.867  32.922  1.00  0.00     0.293 HD
ENDBRANCH   8  28
TORSDOF 7
ENDMDL
MODEL 2
REMARK VINA RESULT:    -5.047      3.083      6.993
REMARK INTER + INTRA:          -6.537
REMARK INTER:                  -6.216
REMARK INTRA:                  -0.321
REMARK UNBOUND:                -0.309
REMARK SMILES O=c1c(O)c(-c2cc(O)c(O)c(O)c2)oc2cc(O)cc(O)c12
REMARK SMILES IDX 5 1 3 2 2 3 1 4 23 5 21 6 20 7 18 8 17 9 16 10 15 11 6 12
REMARK SMILES IDX 7 13 8 14 14 15 10 16 12 17 9 18 11 20 13 22 4 24 22 26
REMARK SMILES IDX 19 28
REMARK H PARENT 9 19 11 21 13 23 4 25 22 27 19 29
REMARK Flexibility Score: inf
ROOT
ATOM      1  C   UNL     1      15.358  54.873  32.595  1.00  0.00     0.180 A 
ATOM      2  C   UNL     1      15.099  53.941  33.615  1.00  0.00     0.208 A 
ATOM      3  C   UNL     1      14.718  52.635  33.265  1.00  0.00     0.238 A 
ATOM      4  O   UNL     1      14.541  51.792  34.181  1.00  0.00    -0.285 OA
ATOM      5  C   UNL     1      14.585  52.283  31.900  1.00  0.00     0.111 A 
ATOM      6  C   UNL     1      14.167  51.002  31.432  1.00  0.00     0.134 A 
ATOM      7  C   UNL     1      14.197  50.724  30.059  1.00  0.00     0.093 A 
ATOM      8  C   UNL     1      14.567  51.700  29.136  1.00  0.00     0.123 A 
ATOM      9  C   UNL     1      14.920  52.976  29.579  1.00  0.00     0.094 A 
ATOM     10  C   UNL     1      14.935  53.271  30.944  1.00  0.00     0.146 A 
ATOM     11  O   UNL     1      15.289  54.493  31.324  1.00  0.00    -0.452 OA
ENDROOT
BRANCH   1  12
ATOM     12  C   UNL     1      15.739  56.274  32.886  1.00  0.00     0.029 A 
ATOM     13  C   UNL     1      17.064  56.685  32.682  1.00  0.00     0.062 A 
ATOM     14  C   UNL     1      17.455  58.007  32.926  1.00  0.00     0.162 A 
ATOM     15  C   UNL     1      14.790  57.217  33.307  1.00  0.00     0.062 A 
ATOM     16  C   UNL     1      16.497  58.948  33.373  1.00  0.00     0.200 A 
ATOM     17  C   UNL     1      15.162  58.541  33.554  1.00  0.00     0.162 A 
BRANCH  14  18
ATOM     18  O   UNL     1      18.794  58.337  32.712  1.00  0.00    -0.504 OA
ATOM     19  H   UNL     1      19.242  58.330  31.807  1.00  0.00     0.293 HD
ENDBRANCH  14  18
BRANCH  16  20
ATOM     20  O   UNL     1      16.827  60.279  33.641  1.00  0.00    -0.502 OA
ATOM     21  H   UNL     1      16.203  60.943  34.074  1.00  0.00     0.293 HD
ENDBRANCH  16  20
BRANCH  17  22
ATOM     22  O   UNL     1      14.185  59.443  33.978  1.00  0.00    -0.504 OA
ATOM     23  H   UNL     1      13.892  60.229  33.411  1.00  0.00     0.293 HD
ENDBRANCH  17  22
ENDBRANCH   1  12
BRANCH   2  24
ATOM     24  O   UNL     1      15.257  54.305  34.956  1.00  0.00    -0.502 OA
ATOM     25  H   UNL     1      14.718  53.882  35.701  1.00  0.00     0.293 HD
ENDBRANCH   2  24
BRANCH   6  26
ATOM     26  O   UNL     1      13.691  49.984  32.263  1.00  0.00    -0.507 OA
ATOM     27  H   UNL     1      13.893  49.003  32.143  1.00  0.00     0.293 HD
ENDBRANCH   6  26
BRANCH   8  28
ATOM     28  O   UNL     1      14.570  51.395  27.776  1.00  0.00    -0.508 OA
ATOM     29  H   UNL     1      15.399  51.040  27.314  1.00  0.00     0.293 HD
ENDBRANCH   8  28
TORSDOF 7
ENDMDL
MODEL 3
REMARK VINA RESULT:    -4.974      3.088      6.807
REMARK INTER + INTRA:          -6.446
REMARK INTER:                  -6.161
REMARK INTRA:                  -0.285
REMARK UNBOUND:                -0.309
REMARK SMILES O=c1c(O)c(-c2cc(O)c(O)c(O)c2)oc2cc(O)cc(O)c12
REMARK SMILES IDX 5 1 3 2 2 3 1 4 23 5 21 6 20 7 18 8 17 9 16 10 15 11 6 12
REMARK SMILES IDX 7 13 8 14 14 15 10 16 12 17 9 18 11 20 13 22 4 24 22 26
REMARK SMILES IDX 19 28
REMARK H PARENT 9 19 11 21 13 23 4 25 22 27 19 29
REMARK Flexibility Score: inf
ROOT
ATOM      1  C   UNL     1      15.371  54.887  32.531  1.00  0.00     0.180 A 
ATOM      2  C   UNL     1      15.078  53.987  33.571  1.00  0.00     0.208 A 
ATOM      3  C   UNL     1      14.684  52.678  33.248  1.00  0.00     0.238 A 
ATOM      4  O   UNL     1      14.477  51.863  34.182  1.00  0.00    -0.285 OA
ATOM      5  C   UNL     1      14.571  52.291  31.891  1.00  0.00     0.111 A 
ATOM      6  C   UNL     1      14.141  51.005  31.448  1.00  0.00     0.134 A 
ATOM      7  C   UNL     1      14.192  50.690  30.085  1.00  0.00     0.093 A 
ATOM      8  C   UNL     1      14.595  51.636  29.143  1.00  0.00     0.123 A 
ATOM      9  C   UNL     1      14.960  52.917  29.558  1.00  0.00     0.094 A 
ATOM     10  C   UNL     1      14.954  53.248  30.915  1.00  0.00     0.146 A 
ATOM     11  O   UNL     1      15.319  54.475  31.270  1.00  0.00    -0.452 OA
ENDROOT
BRANCH   1  12
ATOM     12  C   UNL     1      15.769  56.290  32.792  1.00  0.00     0.029 A 
ATOM     13  C   UNL     1      14.809  57.208  33.239  1.00  0.00     0.062 A 
ATOM     14  C   UNL     1      15.155  58.536  33.516  1.00  0.00     0.162 A 
ATOM     15  C   UNL     1      17.101  56.707  32.658  1.00  0.00     0.062 A 
ATOM     16  C   UNL     1      16.497  58.957  33.356  1.00  0.00     0.200 A 
ATOM     17  C   UNL     1      17.465  58.029  32.931  1.00  0.00     0.162 A 
BRANCH  14  18
ATOM     18  O   UNL     1      14.140  59.394  33.945  1.00  0.00    -0.504 OA
ATOM     19  H   UNL     1      14.242  60.395  34.029  1.00  0.00     0.293 HD
ENDBRANCH  14  18
BRANCH  16  20
ATOM     20  O   UNL     1      16.901  60.270  33.609  1.00  0.00    -0.502 OA
ATOM     21  H   UNL     1      17.634  60.523  34.255  1.00  0.00     0.293 HD
ENDBRANCH  16  20
BRANCH  17  22
ATOM     22  O   UNL     1      18.801  58.401  32.777  1.00  0.00    -0.504 OA
ATOM     23  H   UNL     1      19.076  59.350  32.558  1.00  0.00     0.293 HD
ENDBRANCH  17  22
ENDBRANCH   1  12
BRANCH   2  24
ATOM     24  O   UNL     1      15.218  54.384  34.904  1.00  0.00    -0.502 OA
ATOM     25  H   UNL     1      15.912  55.059  35.200  1.00  0.00     0.293 HD
ENDBRANCH   2  24
BRANCH   6  26
ATOM     26  O   UNL     1      13.634  50.017  32.297  1.00  0.00    -0.507 OA
ATOM     27  H   UNL     1      13.879  49.915  33.271  1.00  0.00     0.293 HD
ENDBRANCH   6  26
BRANCH   8  28
ATOM     28  O   UNL     1      14.618  51.294  27.792  1.00  0.00    -0.508 OA
ATOM     29  H   UNL     1      14.660  52.000  27.067  1.00  0.00     0.293 HD
ENDBRANCH   8  28
TORSDOF 7
ENDMDL
MODEL 4
REMARK VINA RESULT:    -4.956      3.087      4.718
REMARK INTER + INTRA:          -6.424
REMARK INTER:                  -6.060
REMARK INTRA:                  -0.364
REMARK UNBOUND:                -0.309
REMARK SMILES O=c1c(O)c(-c2cc(O)c(O)c(O)c2)oc2cc(O)cc(O)c12
REMARK SMILES IDX 5 1 3 2 2 3 1 4 23 5 21 6 20 7 18 8 17 9 16 10 15 11 6 12
REMARK SMILES IDX 7 13 8 14 14 15 10 16 12 17 9 18 11 20 13 22 4 24 22 26
REMARK SMILES IDX 19 28
REMARK H PARENT 9 19 11 21 13 23 4 25 22 27 19 29
REMARK Flexibility Score: inf
ROOT
ATOM      1  C   UNL     1      15.521  56.554  32.351  1.00  0.00     0.180 A 
ATOM      2  C   UNL     1      16.833  57.029  32.528  1.00  0.00     0.208 A 
ATOM      3  C   UNL     1      17.026  58.295  33.103  1.00  0.00     0.238 A 
ATOM      4  O   UNL     1      18.202  58.691  33.309  1.00  0.00    -0.285 OA
ATOM      5  C   UNL     1      15.907  59.077  33.479  1.00  0.00     0.111 A 
ATOM      6  C   UNL     1      15.985  60.389  34.033  1.00  0.00     0.134 A 
ATOM      7  C   UNL     1      14.819  61.017  34.489  1.00  0.00     0.093 A 
ATOM      8  C   UNL     1      13.573  60.408  34.351  1.00  0.00     0.123 A 
ATOM      9  C   UNL     1      13.478  59.150  33.756  1.00  0.00     0.094 A 
ATOM     10  C   UNL     1      14.627  58.483  33.325  1.00  0.00     0.146 A 
ATOM     11  O   UNL     1      14.495  57.282  32.773  1.00  0.00    -0.452 OA
ENDROOT
BRANCH   1  12
ATOM     12  C   UNL     1      15.237  55.239  31.729  1.00  0.00     0.029 A 
ATOM     13  C   UNL     1      14.987  54.128  32.546  1.00  0.00     0.062 A 
ATOM     14  C   UNL     1      14.694  52.877  31.992  1.00  0.00     0.162 A 
ATOM     15  C   UNL     1      15.153  55.094  30.336  1.00  0.00     0.062 A 
ATOM     16  C   UNL     1      14.634  52.731  30.586  1.00  0.00     0.200 A 
ATOM     17  C   UNL     1      14.860  53.852  29.766  1.00  0.00     0.162 A 
BRANCH  14  18
ATOM     18  O   UNL     1      14.470  51.816  32.872  1.00  0.00    -0.504 OA
ATOM     19  H   UNL     1      13.573  51.372  33.008  1.00  0.00     0.293 HD
ENDBRANCH  14  18
BRANCH  16  20
ATOM     20  O   UNL     1      14.353  51.507  29.975  1.00  0.00    -0.502 OA
ATOM     21  H   UNL     1      14.462  50.610  30.425  1.00  0.00     0.293 HD
ENDBRANCH  16  20
BRANCH  17  22
ATOM     22  O   UNL     1      14.794  53.753  28.375  1.00  0.00    -0.504 OA
ATOM     23  H   UNL     1      15.303  53.047  27.859  1.00  0.00     0.293 HD
ENDBRANCH  17  22
ENDBRANCH   1  12
BRANCH   2  24
ATOM     24  O   UNL     1      17.923  56.231  32.170  1.00  0.00    -0.502 OA
ATOM     25  H   UNL     1      17.992  55.255  32.431  1.00  0.00     0.293 HD
ENDBRANCH   2  24
BRANCH   6  26
ATOM     26  O   UNL     1      17.170  61.125  34.133  1.00  0.00    -0.507 OA
ATOM     27  H   UNL     1      17.930  61.082  33.472  1.00  0.00     0.293 HD
ENDBRANCH   6  26
BRANCH   8  28
ATOM     28  O   UNL     1      12.431  61.069  34.801  1.00  0.00    -0.508 OA
ATOM     29  H   UNL     1      12.162  61.973  34.433  1.00  0.00     0.293 HD
ENDBRANCH   8  28
TORSDOF 7
ENDMDL
MODEL 5
REMARK VINA RESULT:    -4.900      3.212      6.859
REMARK INTER + INTRA:          -6.354
REMARK INTER:                  -6.034
REMARK INTRA:                  -0.321
REMARK UNBOUND:                -0.309
REMARK SMILES O=c1c(O)c(-c2cc(O)c(O)c(O)c2)oc2cc(O)cc(O)c12
REMARK SMILES IDX 5 1 3 2 2 3 1 4 23 5 21 6 20 7 18 8 17 9 16 10 15 11 6 12
REMARK SMILES IDX 7 13 8 14 14 15 10 16 12 17 9 18 11 20 13 22 4 24 22 26
REMARK SMILES IDX 19 28
REMARK H PARENT 9 19 11 21 13 23 4 25 22 27 19 29
REMARK Flexibility Score: inf
ROOT
ATOM      1  C   UNL     1      15.381  54.973  31.451  1.00  0.00     0.180 A 
ATOM      2  C   UNL     1      15.307  54.965  30.047  1.00  0.00     0.208 A 
ATOM      3  C   UNL     1      15.006  53.762  29.388  1.00  0.00     0.238 A 
ATOM      4  O   UNL     1      14.887  53.773  28.136  1.00  0.00    -0.285 OA
ATOM      5  C   UNL     1      14.799  52.579  30.140  1.00  0.00     0.111 A 
ATOM      6  C   UNL     1      14.528  51.298  29.575  1.00  0.00     0.134 A 
ATOM      7  C   UNL     1      14.211  50.224  30.417  1.00  0.00     0.093 A 
ATOM      8  C   UNL     1      14.220  50.371  31.804  1.00  0.00     0.123 A 
ATOM      9  C   UNL     1      14.542  51.606  32.369  1.00  0.00     0.094 A 
ATOM     10  C   UNL     1      14.827  52.703  31.554  1.00  0.00     0.146 A 
ATOM     11  O   UNL     1      15.118  53.864  32.131  1.00  0.00    -0.452 OA
ENDROOT
BRANCH   1  12
ATOM     12  C   UNL     1      15.718  56.197  32.215  1.00  0.00     0.029 A 
ATOM     13  C   UNL     1      17.053  56.621  32.285  1.00  0.00     0.062 A 
ATOM     14  C   UNL     1      17.403  57.785  32.980  1.00  0.00     0.162 A 
ATOM     15  C   UNL     1      14.722  56.976  32.822  1.00  0.00     0.062 A 
ATOM     16  C   UNL     1      16.396  58.554  33.611  1.00  0.00     0.200 A 
ATOM     17  C   UNL     1      15.054  58.141  33.519  1.00  0.00     0.162 A 
BRANCH  14  18
ATOM     18  O   UNL     1      18.755  58.135  33.016  1.00  0.00    -0.504 OA
ATOM     19  H   UNL     1      19.093  59.071  33.182  1.00  0.00     0.293 HD
ENDBRANCH  14  18
BRANCH  16  20
ATOM     20  O   UNL     1      16.685  59.719  34.325  1.00  0.00    -0.502 OA
ATOM     21  H   UNL     1      17.612  60.105  34.429  1.00  0.00     0.293 HD
ENDBRANCH  16  20
BRANCH  17  22
ATOM     22  O   UNL     1      14.030  58.881  34.113  1.00  0.00    -0.504 OA
ATOM     23  H   UNL     1      14.009  59.892  34.087  1.00  0.00     0.293 HD
ENDBRANCH  17  22
ENDBRANCH   1  12
BRANCH   2  24
ATOM     24  O   UNL     1      15.493  56.148  29.327  1.00  0.00    -0.502 OA
ATOM     25  H   UNL     1      16.352  56.682  29.371  1.00  0.00     0.293 HD
ENDBRANCH   2  24
BRANCH   6  26
ATOM     26  O   UNL     1      14.583  51.021  28.206  1.00  0.00    -0.507 OA
ATOM     27  H   UNL     1      14.599  51.720  27.479  1.00  0.00     0.293 HD
ENDBRANCH   6  26
BRANCH   8  28
ATOM     28  O   UNL     1      13.915  49.277  32.613  1.00  0.00    -0.508 OA
ATOM     29  H   UNL     1      13.048  48.766  32.508  1.00  0.00     0.293 HD
ENDBRANCH   8  28
TORSDOF 7
ENDMDL
MODEL 6
REMARK VINA RESULT:    -4.877      4.741      6.508
REMARK INTER + INTRA:          -6.327
REMARK INTER:                  -5.992
REMARK INTRA:                  -0.335
REMARK UNBOUND:                -0.309
REMARK SMILES O=c1c(O)c(-c2cc(O)c(O)c(O)c2)oc2cc(O)cc(O)c12
REMARK SMILES IDX 5 1 3 2 2 3 1 4 23 5 21 6 20 7 18 8 17 9 16 10 15 11 6 12
REMARK SMILES IDX 7 13 8 14 14 15 10 16 12 17 9 18 11 20 13 22 4 24 22 26
REMARK SMILES IDX 19 28
REMARK H PARENT 9 19 11 21 13 23 4 25 22 27 19 29
REMARK Flexibility Score: inf
ROOT
ATOM      1  C   UNL     1      14.759  51.348  32.163  1.00  0.00     0.180 A 
ATOM      2  C   UNL     1      14.673  52.348  31.178  1.00  0.00     0.208 A 
ATOM      3  C   UNL     1      14.606  53.693  31.576  1.00  0.00     0.238 A 
ATOM      4  O   UNL     1      14.584  54.584  30.689  1.00  0.00    -0.285 OA
ATOM      5  C   UNL     1      14.611  54.021  32.953  1.00  0.00     0.111 A 
ATOM      6  C   UNL     1      14.507  55.346  33.471  1.00  0.00     0.134 A 
ATOM      7  C   UNL     1      14.654  55.565  34.846  1.00  0.00     0.093 A 
ATOM      8  C   UNL     1      14.834  54.500  35.728  1.00  0.00     0.123 A 
ATOM      9  C   UNL     1      14.877  53.194  35.240  1.00  0.00     0.094 A 
ATOM     10  C   UNL     1      14.771  52.948  33.869  1.00  0.00     0.146 A 
ATOM     11  O   UNL     1      14.828  51.691  33.444  1.00  0.00    -0.452 OA
ENDROOT
BRANCH   1  12
ATOM     12  C   UNL     1      14.807  49.907  31.821  1.00  0.00     0.029 A 
ATOM     13  C   UNL     1      16.032  49.322  31.472  1.00  0.00     0.062 A 
ATOM     14  C   UNL     1      16.118  47.959  31.164  1.00  0.00     0.162 A 
ATOM     15  C   UNL     1      13.663  49.101  31.897  1.00  0.00     0.062 A 
ATOM     16  C   UNL     1      14.955  47.155  31.220  1.00  0.00     0.200 A 
ATOM     17  C   UNL     1      13.730  47.738  31.594  1.00  0.00     0.162 A 
BRANCH  14  18
ATOM     18  O   UNL     1      17.371  47.452  30.813  1.00  0.00    -0.504 OA
ATOM     19  H   UNL     1      18.180  48.024  30.620  1.00  0.00     0.293 HD
ENDBRANCH  14  18
BRANCH  16  20
ATOM     20  O   UNL     1      14.976  45.792  30.917  1.00  0.00    -0.502 OA
ATOM     21  H   UNL     1      15.000  45.057  31.608  1.00  0.00     0.293 HD
ENDBRANCH  16  20
BRANCH  17  22
ATOM     22  O   UNL     1      12.564  46.975  31.677  1.00  0.00    -0.504 OA
ATOM     23  H   UNL     1      12.580  45.963  31.692  1.00  0.00     0.293 HD
ENDBRANCH  17  22
ENDBRANCH   1  12
BRANCH   2  24
ATOM     24  O   UNL     1      14.692  52.003  29.823  1.00  0.00    -0.502 OA
ATOM     25  H   UNL     1      14.739  51.041  29.508  1.00  0.00     0.293 HD
ENDBRANCH   2  24
BRANCH   6  26
ATOM     26  O   UNL     1      14.236  56.471  32.686  1.00  0.00    -0.507 OA
ATOM     27  H   UNL     1      14.388  56.527  31.691  1.00  0.00     0.293 HD
ENDBRANCH   6  26
BRANCH   8  28
ATOM     28  O   UNL     1      14.961  54.752  37.093  1.00  0.00    -0.508 OA
ATOM     29  H   UNL     1      14.731  54.050  37.786  1.00  0.00     0.293 HD
ENDBRANCH   8  28
TORSDOF 7
ENDMDL
MODEL 7
REMARK VINA RESULT:    -4.829      4.780      6.325
REMARK INTER + INTRA:          -6.268
REMARK INTER:                  -5.921
REMARK INTRA:                  -0.347
REMARK UNBOUND:                -0.309
REMARK SMILES O=c1c(O)c(-c2cc(O)c(O)c(O)c2)oc2cc(O)cc(O)c12
REMARK SMILES IDX 5 1 3 2 2 3 1 4 23 5 21 6 20 7 18 8 17 9 16 10 15 11 6 12
REMARK SMILES IDX 7 13 8 14 14 15 10 16 12 17 9 18 11 20 13 22 4 24 22 26
REMARK SMILES IDX 19 28
REMARK H PARENT 9 19 11 21 13 23 4 25 22 27 19 29
REMARK Flexibility Score: inf
ROOT
ATOM      1  C   UNL     1      14.847  51.330  32.136  1.00  0.00     0.180 A 
ATOM      2  C   UNL     1      14.773  52.308  31.129  1.00  0.00     0.208 A 
ATOM      3  C   UNL     1      14.702  53.662  31.498  1.00  0.00     0.238 A 
ATOM      4  O   UNL     1      14.691  54.534  30.592  1.00  0.00    -0.285 OA
ATOM      5  C   UNL     1      14.690  54.019  32.868  1.00  0.00     0.111 A 
ATOM      6  C   UNL     1      14.580  55.355  33.356  1.00  0.00     0.134 A 
ATOM      7  C   UNL     1      14.710  55.603  34.728  1.00  0.00     0.093 A 
ATOM      8  C   UNL     1      14.879  54.558  35.635  1.00  0.00     0.123 A 
ATOM      9  C   UNL     1      14.928  53.241  35.175  1.00  0.00     0.094 A 
ATOM     10  C   UNL     1      14.838  52.966  33.808  1.00  0.00     0.146 A 
ATOM     11  O   UNL     1      14.900  51.700  33.411  1.00  0.00    -0.452 OA
ENDROOT
BRANCH   1  12
ATOM     12  C   UNL     1      14.899  49.882  31.827  1.00  0.00     0.029 A 
ATOM     13  C   UNL     1      13.708  49.143  31.781  1.00  0.00     0.062 A 
ATOM     14  C   UNL     1      13.719  47.778  31.471  1.00  0.00     0.162 A 
ATOM     15  C   UNL     1      16.109  49.245  31.519  1.00  0.00     0.062 A 
ATOM     16  C   UNL     1      14.947  47.135  31.184  1.00  0.00     0.200 A 
ATOM     17  C   UNL     1      16.138  47.883  31.206  1.00  0.00     0.162 A 
BRANCH  14  18
ATOM     18  O   UNL     1      12.494  47.108  31.458  1.00  0.00    -0.504 OA
ATOM     19  H   UNL     1      11.683  47.418  30.942  1.00  0.00     0.293 HD
ENDBRANCH  14  18
BRANCH  16  20
ATOM     20  O   UNL     1      15.021  45.775  30.875  1.00  0.00    -0.502 OA
ATOM     21  H   UNL     1      15.854  45.214  30.980  1.00  0.00     0.293 HD
ENDBRANCH  16  20
BRANCH  17  22
ATOM     22  O   UNL     1      17.367  47.289  30.913  1.00  0.00    -0.504 OA
ATOM     23  H   UNL     1      18.237  47.624  31.307  1.00  0.00     0.293 HD
ENDBRANCH  17  22
ENDBRANCH   1  12
BRANCH   2  24
ATOM     24  O   UNL     1      14.808  51.934  29.783  1.00  0.00    -0.502 OA
ATOM     25  H   UNL     1      13.998  51.567  29.299  1.00  0.00     0.293 HD
ENDBRANCH   2  24
BRANCH   6  26
ATOM     26  O   UNL     1      14.320  56.463  32.544  1.00  0.00    -0.507 OA
ATOM     27  H   UNL     1      13.853  57.303  32.852  1.00  0.00     0.293 HD
ENDBRANCH   6  26
BRANCH   8  28
ATOM     28  O   UNL     1      14.989  54.839  36.996  1.00  0.00    -0.508 OA
ATOM     29  H   UNL     1      14.297  55.398  37.479  1.00  0.00     0.293 HD
ENDBRANCH   8  28
TORSDOF 7
ENDMDL
MODEL 8
REMARK VINA RESULT:    -4.681      5.027      7.204
REMARK INTER + INTRA:          -6.085
REMARK INTER:                  -5.730
REMARK INTRA:                  -0.355
REMARK UNBOUND:                -0.309
REMARK SMILES O=c1c(O)c(-c2cc(O)c(O)c(O)c2)oc2cc(O)cc(O)c12
REMARK SMILES IDX 5 1 3 2 2 3 1 4 23 5 21 6 20 7 18 8 17 9 16 10 15 11 6 12
REMARK SMILES IDX 7 13 8 14 14 15 10 16 12 17 9 18 11 20 13 22 4 24 22 26
REMARK SMILES IDX 19 28
REMARK H PARENT 9 19 11 21 13 23 4 25 22 27 19 29
REMARK Flexibility Score: inf
ROOT
ATOM      1  C   UNL     1      14.474  51.007  32.149  1.00  0.00     0.180 A 
ATOM      2  C   UNL     1      13.252  51.500  31.659  1.00  0.00     0.208 A 
ATOM      3  C   UNL     1      12.626  52.561  32.334  1.00  0.00     0.238 A 
ATOM      4  O   UNL     1      11.561  53.033  31.859  1.00  0.00    -0.285 OA
ATOM      5  C   UNL     1      13.221  53.104  33.498  1.00  0.00     0.111 A 
ATOM      6  C   UNL     1      12.655  54.152  34.283  1.00  0.00     0.134 A 
ATOM      7  C   UNL     1      13.394  54.701  35.339  1.00  0.00     0.093 A 
ATOM      8  C   UNL     1      14.648  54.195  35.679  1.00  0.00     0.123 A 
ATOM      9  C   UNL     1      15.185  53.129  34.955  1.00  0.00     0.094 A 
ATOM     10  C   UNL     1      14.488  52.586  33.874  1.00  0.00     0.146 A 
ATOM     11  O   UNL     1      15.040  51.581  33.204  1.00  0.00    -0.452 OA
ENDROOT
BRANCH   1  12
ATOM     12  C   UNL     1      15.181  49.875  31.506  1.00  0.00     0.029 A 
ATOM     13  C   UNL     1      16.080  50.127  30.459  1.00  0.00     0.062 A 
ATOM     14  C   UNL     1      16.781  49.083  29.844  1.00  0.00     0.162 A 
ATOM     15  C   UNL     1      15.016  48.558  31.961  1.00  0.00     0.062 A 
ATOM     16  C   UNL     1      16.592  47.754  30.292  1.00  0.00     0.200 A 
ATOM     17  C   UNL     1      15.709  47.504  31.359  1.00  0.00     0.162 A 
BRANCH  14  18
ATOM     18  O   UNL     1      17.648  49.413  28.800  1.00  0.00    -0.504 OA
ATOM     19  H   UNL     1      17.349  49.797  27.916  1.00  0.00     0.293 HD
ENDBRANCH  14  18
BRANCH  16  20
ATOM     20  O   UNL     1      17.257  46.671  29.713  1.00  0.00    -0.502 OA
ATOM     21  H   UNL     1      17.295  46.492  28.721  1.00  0.00     0.293 HD
ENDBRANCH  16  20
BRANCH  17  22
ATOM     22  O   UNL     1      15.508  46.210  31.840  1.00  0.00    -0.504 OA
ATOM     23  H   UNL     1      14.585  45.838  32.025  1.00  0.00     0.293 HD
ENDBRANCH  17  22
ENDBRANCH   1  12
BRANCH   2  24
ATOM     24  O   UNL     1      12.694  50.963  30.495  1.00  0.00    -0.502 OA
ATOM     25  H   UNL     1      13.019  50.096  30.086  1.00  0.00     0.293 HD
ENDBRANCH   2  24
BRANCH   6  26
ATOM     26  O   UNL     1      11.371  54.669  34.086  1.00  0.00    -0.507 OA
ATOM     27  H   UNL     1      11.046  55.086  33.227  1.00  0.00     0.293 HD
ENDBRANCH   6  26
BRANCH   8  28
ATOM     28  O   UNL     1      15.348  54.753  36.747  1.00  0.00    -0.508 OA
ATOM     29  H   UNL     1      15.000  55.565  37.243  1.00  0.00     0.293 HD
ENDBRANCH   8  28
TORSDOF 7
ENDMDL
MODEL 9
REMARK VINA RESULT:    -4.573      3.483      4.915
REMARK INTER + INTRA:          -5.951
REMARK INTER:                  -5.619
REMARK INTRA:                  -0.332
REMARK UNBOUND:                -0.309
REMARK SMILES O=c1c(O)c(-c2cc(O)c(O)c(O)c2)oc2cc(O)cc(O)c12
REMARK SMILES IDX 5 1 3 2 2 3 1 4 23 5 21 6 20 7 18 8 17 9 16 10 15 11 6 12
REMARK SMILES IDX 7 13 8 14 14 15 10 16 12 17 9 18 11 20 13 22 4 24 22 26
REMARK SMILES IDX 19 28
REMARK H PARENT 9 19 11 21 13 23 4 25 22 27 19 29
REMARK Flexibility Score: inf
ROOT
ATOM      1  C   UNL     1      14.321  53.890  31.932  1.00  0.00     0.180 A 
ATOM      2  C   UNL     1      13.195  54.583  32.411  1.00  0.00     0.208 A 
ATOM      3  C   UNL     1      13.360  55.883  32.916  1.00  0.00     0.238 A 
ATOM      4  O   UNL     1      12.341  56.518  33.291  1.00  0.00    -0.285 OA
ATOM      5  C   UNL     1      14.649  56.467  32.951  1.00  0.00     0.111 A 
ATOM      6  C   UNL     1      14.938  57.761  33.478  1.00  0.00     0.134 A 
ATOM      7  C   UNL     1      16.228  58.290  33.343  1.00  0.00     0.093 A 
ATOM      8  C   UNL     1      17.253  57.546  32.760  1.00  0.00     0.123 A 
ATOM      9  C   UNL     1      16.996  56.256  32.295  1.00  0.00     0.094 A 
ATOM     10  C   UNL     1      15.711  55.716  32.383  1.00  0.00     0.146 A 
ATOM     11  O   UNL     1      15.506  54.488  31.918  1.00  0.00    -0.452 OA
ENDROOT
BRANCH   1  12
ATOM     12  C   UNL     1      14.230  52.507  31.408  1.00  0.00     0.029 A 
ATOM     13  C   UNL     1      14.293  52.288  30.025  1.00  0.00     0.062 A 
ATOM     14  C   UNL     1      14.233  50.993  29.497  1.00  0.00     0.162 A 
ATOM     15  C   UNL     1      14.141  51.404  32.270  1.00  0.00     0.062 A 
ATOM     16  C   UNL     1      14.119  49.885  30.371  1.00  0.00     0.200 A 
ATOM     17  C   UNL     1      14.081  50.104  31.760  1.00  0.00     0.162 A 
BRANCH  14  18
ATOM     18  O   UNL     1      14.289  50.857  28.108  1.00  0.00    -0.504 OA
ATOM     19  H   UNL     1      13.492  50.637  27.528  1.00  0.00     0.293 HD
ENDBRANCH  14  18
BRANCH  16  20
ATOM     20  O   UNL     1      14.047  48.571  29.903  1.00  0.00    -0.502 OA
ATOM     21  H   UNL     1      13.591  48.299  29.045  1.00  0.00     0.293 HD
ENDBRANCH  16  20
BRANCH  17  22
ATOM     22  O   UNL     1      13.986  49.037  32.655  1.00  0.00    -0.504 OA
ATOM     23  H   UNL     1      13.814  49.174  33.643  1.00  0.00     0.293 HD
ENDBRANCH  17  22
ENDBRANCH   1  12
BRANCH   2  24
ATOM     24  O   UNL     1      11.928  53.996  32.345  1.00  0.00    -0.502 OA
ATOM     25  H   UNL     1      11.666  53.203  32.919  1.00  0.00     0.293 HD
ENDBRANCH   2  24
BRANCH   6  26
ATOM     26  O   UNL     1      14.009  58.551  34.161  1.00  0.00    -0.507 OA
ATOM     27  H   UNL     1      14.086  58.820  35.130  1.00  0.00     0.293 HD
ENDBRANCH   6  26
BRANCH   8  28
ATOM     28  O   UNL     1      18.529  58.098  32.656  1.00  0.00    -0.508 OA
ATOM     29  H   UNL     1      19.324  57.685  33.128  1.00  0.00     0.293 HD
ENDBRANCH   8  28
TORSDOF 7
ENDMDL
