MODEL 1
REMARK VINA RESULT:    -3.985      0.000      0.000
REMARK INTER + INTRA:          -4.483
REMARK INTER:                  -4.218
REMARK INTRA:                  -0.265
REMARK UNBOUND:                -0.265
REMARK SMILES C=C(C)[C@H]1CC=C(C)CC1
REMARK SMILES IDX 8 1 7 2 6 3 5 4 4 5 10 6 9 7 2 8 1 9 3 10
REMARK H PARENT
REMARK Flexibility Score: inf
ROOT
ATOM      1  C   UNL     1     135.758 133.236 132.373  1.00  0.00     0.039 C 
ATOM      2  C   UNL     1     134.730 134.319 132.197  1.00  0.00    -0.077 C 
ATOM      3  C   UNL     1     134.011 134.359 131.056  1.00  0.00    -0.027 C 
ATOM      4  C   UNL     1     132.933 135.381 130.783  1.00  0.00     0.035 C 
ATOM      5  C   UNL     1     132.964 136.603 131.729  1.00  0.00     0.018 C 
ATOM      6  C   UNL     1     133.309 136.183 133.166  1.00  0.00     0.013 C 
ATOM      7  C   UNL     1     134.627 135.408 133.243  1.00  0.00     0.031 C 
ENDROOT
BRANCH   5   8
ATOM      8  C   UNL     1     133.843 137.751 131.233  1.00  0.00    -0.077 C 
ATOM      9  C   UNL     1     134.092 138.842 131.978  1.00  0.00     0.008 C 
ATOM     10  C   UNL     1     134.453 137.677 129.857  1.00  0.00     0.039 C 
ENDBRANCH   5   8
TORSDOF 1
ENDMDL
MODEL 2
REMARK VINA RESULT:    -3.979      5.359      6.977
REMARK INTER + INTRA:          -4.477
REMARK INTER:                  -4.205
REMARK INTRA:                  -0.272
REMARK UNBOUND:                -0.265
REMARK SMILES C=C(C)[C@H]1CC=C(C)CC1
REMARK SMILES IDX 8 1 7 2 6 3 5 4 4 5 10 6 9 7 2 8 1 9 3 10
REMARK H PARENT
REMARK Flexibility Score: inf
ROOT
ATOM      1  C   UNL     1     137.862 140.583 132.334  1.00  0.00     0.039 C 
ATOM      2  C   UNL     1     138.903 139.517 132.131  1.00  0.00    -0.077 C 
ATOM      3  C   UNL     1     139.603 139.497 130.977  1.00  0.00    -0.027 C 
ATOM      4  C   UNL     1     140.692 138.495 130.678  1.00  0.00     0.035 C 
ATOM      5  C   UNL     1     140.697 137.265 131.614  1.00  0.00     0.018 C 
ATOM      6  C   UNL     1     140.370 137.669 133.060  1.00  0.00     0.013 C 
ATOM      7  C   UNL     1     139.042 138.423 133.167  1.00  0.00     0.031 C 
ENDROOT
BRANCH   5   8
ATOM      8  C   UNL     1     139.827 136.107 131.124  1.00  0.00    -0.077 C 
ATOM      9  C   UNL     1     139.221 136.119 129.924  1.00  0.00     0.008 C 
ATOM     10  C   UNL     1     139.622 134.906 132.012  1.00  0.00     0.039 C 
ENDBRANCH   5   8
TORSDOF 1
ENDMDL
MODEL 3
REMARK VINA RESULT:    -3.974      2.976      4.872
REMARK INTER + INTRA:          -4.471
REMARK INTER:                  -4.207
REMARK INTRA:                  -0.264
REMARK UNBOUND:                -0.265
REMARK SMILES C=C(C)[C@H]1CC=C(C)CC1
REMARK SMILES IDX 8 1 7 2 6 3 5 4 4 5 10 6 9 7 2 8 1 9 3 10
REMARK H PARENT
REMARK Flexibility Score: inf
ROOT
ATOM      1  C   UNL     1     133.246 137.908 132.335  1.00  0.00     0.039 C 
ATOM      2  C   UNL     1     134.321 138.941 132.135  1.00  0.00    -0.077 C 
ATOM      3  C   UNL     1     134.345 139.644 130.984  1.00  0.00    -0.027 C 
ATOM      4  C   UNL     1     135.357 140.726 130.687  1.00  0.00     0.035 C 
ATOM      5  C   UNL     1     136.588 140.717 131.622  1.00  0.00     0.018 C 
ATOM      6  C   UNL     1     136.183 140.388 133.067  1.00  0.00     0.013 C 
ATOM      7  C   UNL     1     135.418 139.066 133.169  1.00  0.00     0.031 C 
ENDROOT
BRANCH   5   8
ATOM      8  C   UNL     1     137.737 139.838 131.127  1.00  0.00    -0.077 C 
ATOM      9  C   UNL     1     138.849 139.630 131.853  1.00  0.00     0.008 C 
ATOM     10  C   UNL     1     137.640 139.183 129.773  1.00  0.00     0.039 C 
ENDBRANCH   5   8
TORSDOF 1
ENDMDL
MODEL 4
REMARK VINA RESULT:    -3.970      3.080      4.910
REMARK INTER + INTRA:          -4.467
REMARK INTER:                  -4.205
REMARK INTRA:                  -0.262
REMARK UNBOUND:                -0.265
REMARK SMILES C=C(C)[C@H]1CC=C(C)CC1
REMARK SMILES IDX 8 1 7 2 6 3 5 4 4 5 10 6 9 7 2 8 1 9 3 10
REMARK H PARENT
REMARK Flexibility Score: inf
ROOT
ATOM      1  C   UNL     1     140.552 135.838 132.338  1.00  0.00     0.039 C 
ATOM      2  C   UNL     1     139.462 134.816 132.169  1.00  0.00    -0.077 C 
ATOM      3  C   UNL     1     139.382 134.130 131.010  1.00  0.00    -0.027 C 
ATOM      4  C   UNL     1     138.350 133.060 130.742  1.00  0.00     0.035 C 
ATOM      5  C   UNL     1     137.161 133.064 131.731  1.00  0.00     0.018 C 
ATOM      6  C   UNL     1     137.631 133.368 133.161  1.00  0.00     0.013 C 
ATOM      7  C   UNL     1     138.410 134.683 133.250  1.00  0.00     0.031 C 
ENDROOT
BRANCH   5   8
ATOM      8  C   UNL     1     135.998 133.957 131.300  1.00  0.00    -0.077 C 
ATOM      9  C   UNL     1     134.915 134.152 132.073  1.00  0.00     0.008 C 
ATOM     10  C   UNL     1     136.047 134.644 129.959  1.00  0.00     0.039 C 
ENDBRANCH   5   8
TORSDOF 1
ENDMDL
MODEL 5
REMARK VINA RESULT:    -3.787      5.202      6.945
REMARK INTER + INTRA:          -4.274
REMARK INTER:                  -4.087
REMARK INTRA:                  -0.187
REMARK UNBOUND:                -0.265
REMARK SMILES C=C(C)[C@H]1CC=C(C)CC1
REMARK SMILES IDX 8 1 7 2 6 3 5 4 4 5 10 6 9 7 2 8 1 9 3 10
REMARK H PARENT
REMARK Flexibility Score: inf
ROOT
ATOM      1  C   UNL     1     138.138 140.231 132.269  1.00  0.00     0.039 C 
ATOM      2  C   UNL     1     139.073 139.063 132.425  1.00  0.00    -0.077 C 
ATOM      3  C   UNL     1     139.792 138.655 131.360  1.00  0.00    -0.027 C 
ATOM      4  C   UNL     1     140.783 137.516 131.408  1.00  0.00     0.035 C 
ATOM      5  C   UNL     1     140.646 136.608 132.651  1.00  0.00     0.018 C 
ATOM      6  C   UNL     1     140.328 137.433 133.908  1.00  0.00     0.013 C 
ATOM      7  C   UNL     1     139.079 138.300 133.733  1.00  0.00     0.031 C 
ENDROOT
BRANCH   5   8
ATOM      8  C   UNL     1     139.677 135.440 132.464  1.00  0.00    -0.077 C 
ATOM      9  C   UNL     1     139.441 134.885 131.262  1.00  0.00     0.008 C 
ATOM     10  C   UNL     1     138.943 134.886 133.658  1.00  0.00     0.039 C 
ENDBRANCH   5   8
TORSDOF 1
ENDMDL
MODEL 6
REMARK VINA RESULT:    -3.773      3.687      5.603
REMARK INTER + INTRA:          -4.258
REMARK INTER:                  -3.984
REMARK INTRA:                  -0.274
REMARK UNBOUND:                -0.265
REMARK SMILES C=C(C)[C@H]1CC=C(C)CC1
REMARK SMILES IDX 8 1 7 2 6 3 5 4 4 5 10 6 9 7 2 8 1 9 3 10
REMARK H PARENT
REMARK Flexibility Score: inf
ROOT
ATOM      1  C   UNL     1     139.942 138.421 130.433  1.00  0.00     0.039 C 
ATOM      2  C   UNL     1     138.746 139.252 130.811  1.00  0.00    -0.077 C 
ATOM      3  C   UNL     1     138.776 139.955 131.962  1.00  0.00    -0.027 C 
ATOM      4  C   UNL     1     137.648 140.846 132.426  1.00  0.00     0.035 C 
ATOM      5  C   UNL     1     136.309 140.609 131.692  1.00  0.00     0.018 C 
ATOM      6  C   UNL     1     136.538 140.337 130.197  1.00  0.00     0.013 C 
ATOM      7  C   UNL     1     137.498 139.168 129.959  1.00  0.00     0.031 C 
ENDROOT
BRANCH   5   8
ATOM      8  C   UNL     1     135.422 139.549 132.345  1.00  0.00    -0.077 C 
ATOM      9  C   UNL     1     135.674 139.053 133.569  1.00  0.00     0.008 C 
ATOM     10  C   UNL     1     134.222 139.023 131.599  1.00  0.00     0.039 C 
ENDBRANCH   5   8
TORSDOF 1
ENDMDL
MODEL 7
REMARK VINA RESULT:    -3.735      1.030      3.942
REMARK INTER + INTRA:          -4.218
REMARK INTER:                  -3.945
REMARK INTRA:                  -0.273
REMARK UNBOUND:                -0.265
REMARK SMILES C=C(C)[C@H]1CC=C(C)CC1
REMARK SMILES IDX 8 1 7 2 6 3 5 4 4 5 10 6 9 7 2 8 1 9 3 10
REMARK H PARENT
REMARK Flexibility Score: inf
ROOT
ATOM      1  C   UNL     1     135.174 139.820 130.376  1.00  0.00     0.039 C 
ATOM      2  C   UNL     1     134.382 138.625 130.830  1.00  0.00    -0.077 C 
ATOM      3  C   UNL     1     133.741 138.678 132.016  1.00  0.00    -0.027 C 
ATOM      4  C   UNL     1     132.893 137.552 132.558  1.00  0.00     0.035 C 
ATOM      5  C   UNL     1     133.110 136.196 131.848  1.00  0.00     0.018 C 
ATOM      6  C   UNL     1     133.298 136.386 130.335  1.00  0.00     0.013 C 
ATOM      7  C   UNL     1     134.438 137.355 130.009  1.00  0.00     0.031 C 
ENDROOT
BRANCH   5   8
ATOM      8  C   UNL     1     134.217 135.341 132.467  1.00  0.00    -0.077 C 
ATOM      9  C   UNL     1     134.758 135.620 133.665  1.00  0.00     0.008 C 
ATOM     10  C   UNL     1     134.737 134.143 131.714  1.00  0.00     0.039 C 
ENDBRANCH   5   8
TORSDOF 1
ENDMDL
MODEL 8
REMARK VINA RESULT:    -3.731      5.191      6.204
REMARK INTER + INTRA:          -4.214
REMARK INTER:                  -3.949
REMARK INTRA:                  -0.266
REMARK UNBOUND:                -0.265
REMARK SMILES C=C(C)[C@H]1CC=C(C)CC1
REMARK SMILES IDX 8 1 7 2 6 3 5 4 4 5 10 6 9 7 2 8 1 9 3 10
REMARK H PARENT
REMARK Flexibility Score: inf
ROOT
ATOM      1  C   UNL     1     138.430 133.777 130.764  1.00  0.00     0.039 C 
ATOM      2  C   UNL     1     139.264 135.010 130.975  1.00  0.00    -0.077 C 
ATOM      3  C   UNL     1     140.064 135.081 132.059  1.00  0.00    -0.027 C 
ATOM      4  C   UNL     1     140.968 136.255 132.355  1.00  0.00     0.035 C 
ATOM      5  C   UNL     1     140.640 137.528 131.542  1.00  0.00     0.018 C 
ATOM      6  C   UNL     1     140.247 137.178 130.099  1.00  0.00     0.013 C 
ATOM      7  C   UNL     1     139.083 136.186 130.039  1.00  0.00     0.031 C 
ENDROOT
BRANCH   5   8
ATOM      8  C   UNL     1     139.622 138.449 132.214  1.00  0.00    -0.077 C 
ATOM      9  C   UNL     1     139.101 139.522 131.594  1.00  0.00     0.008 C 
ATOM     10  C   UNL     1     139.182 138.164 133.628  1.00  0.00     0.039 C 
ENDBRANCH   5   8
TORSDOF 1
ENDMDL
MODEL 9
REMARK VINA RESULT:    -3.610      3.027      5.037
REMARK INTER + INTRA:          -4.085
REMARK INTER:                  -3.824
REMARK INTRA:                  -0.261
REMARK UNBOUND:                -0.265
REMARK SMILES C=C(C)[C@H]1CC=C(C)CC1
REMARK SMILES IDX 8 1 7 2 6 3 5 4 4 5 10 6 9 7 2 8 1 9 3 10
REMARK H PARENT
REMARK Flexibility Score: inf
ROOT
ATOM      1  C   UNL     1     139.286 134.363 128.620  1.00  0.00     0.039 C 
ATOM      2  C   UNL     1     138.792 134.040 130.004  1.00  0.00    -0.077 C 
ATOM      3  C   UNL     1     138.199 132.849 130.225  1.00  0.00    -0.027 C 
ATOM      4  C   UNL     1     137.694 132.406 131.578  1.00  0.00     0.035 C 
ATOM      5  C   UNL     1     137.558 133.548 132.609  1.00  0.00     0.018 C 
ATOM      6  C   UNL     1     138.720 134.546 132.488  1.00  0.00     0.013 C 
ATOM      7  C   UNL     1     138.854 135.111 131.071  1.00  0.00     0.031 C 
ENDROOT
BRANCH   5   8
ATOM      8  C   UNL     1     136.195 134.241 132.593  1.00  0.00    -0.077 C 
ATOM      9  C   UNL     1     135.114 133.690 132.014  1.00  0.00     0.008 C 
ATOM     10  C   UNL     1     136.044 135.595 133.237  1.00  0.00     0.039 C 
ENDBRANCH   5   8
TORSDOF 1
ENDMDL
