MODEL 1
REMARK VINA RESULT:    -4.547      0.000      0.000
REMARK INTER + INTRA:          -9.918
REMARK INTER:                  -8.800
REMARK INTRA:                  -1.118
REMARK UNBOUND:                -1.118
REMARK SMILES CCCCCCCCCCCCCCCCCC(=O)[O-]
REMARK SMILES IDX 10 1 11 2 12 3 13 4 14 5 15 6 16 7 17 8 18 9 19 10 20 11
REMARK SMILES IDX 9 12 8 13 7 14 6 15 5 16 4 17 3 18 2 19 1 20
REMARK H PARENT
REMARK Flexibility Score: inf
ROOT
ATOM      1  C   UNL     1      19.002  23.868   4.350  1.00  0.00     0.000 C 
ENDROOT
BRANCH   1   2
ATOM      2  C   UNL     1      19.278  25.361   4.119  1.00  0.00     0.000 C 
BRANCH   2   3
ATOM      3  C   UNL     1      19.192  25.760   2.636  1.00  0.00     0.000 C 
BRANCH   3   4
ATOM      4  C   UNL     1      19.553  24.637   1.644  1.00  0.00     0.000 C 
BRANCH   4   5
ATOM      5  C   UNL     1      18.990  24.859   0.224  1.00  0.00     0.000 C 
BRANCH   5   6
ATOM      6  C   UNL     1      18.611  26.330  -0.029  1.00  0.00     0.000 C 
BRANCH   6   7
ATOM      7  C   UNL     1      17.283  26.479  -0.787  1.00  0.00     0.006 C 
BRANCH   7   8
ATOM      8  C   UNL     1      16.820  25.166  -1.430  1.00  0.00     0.053 C 
BRANCH   8   9
ATOM      9  C   UNL     1      15.421  25.302  -1.943  1.00  0.00     0.041 C 
ATOM     10  O   UNL     1      14.453  25.353  -1.140  1.00  0.00    -0.550 OA
ATOM     11  O   UNL     1      15.190  25.423  -3.309  1.00  0.00    -0.550 OA
ENDBRANCH   8   9
ENDBRANCH   7   8
ENDBRANCH   6   7
ENDBRANCH   5   6
ENDBRANCH   4   5
ENDBRANCH   3   4
ENDBRANCH   2   3
ENDBRANCH   1   2
BRANCH   1  12
ATOM     12  C   UNL     1      17.777  23.672   5.255  1.00  0.00     0.000 C 
BRANCH  12  13
ATOM     13  C   UNL     1      17.000  22.382   4.939  1.00  0.00    -0.000 C 
BRANCH  13  14
ATOM     14  C   UNL     1      16.235  21.771   6.131  1.00  0.00    -0.000 C 
BRANCH  14  15
ATOM     15  C   UNL     1      14.741  21.497   5.877  1.00  0.00    -0.000 C 
BRANCH  15  16
ATOM     16  C   UNL     1      14.205  22.222   4.635  1.00  0.00    -0.000 C 
BRANCH  16  17
ATOM     17  C   UNL     1      13.290  23.390   5.032  1.00  0.00    -0.000 C 
BRANCH  17  18
ATOM     18  C   UNL     1      12.239  23.718   3.957  1.00  0.00    -0.000 C 
BRANCH  18  19
ATOM     19  C   UNL     1      12.053  22.596   2.913  1.00  0.00    -0.003 C 
ATOM     20  C   UNL     1      10.591  22.423   2.500  1.00  0.00     0.004 C 
ENDBRANCH  18  19
ENDBRANCH  17  18
ENDBRANCH  16  17
ENDBRANCH  15  16
ENDBRANCH  14  15
ENDBRANCH  13  14
ENDBRANCH  12  13
ENDBRANCH   1  12
TORSDOF 16
ENDMDL
MODEL 2
REMARK VINA RESULT:    -4.198      2.221      6.444
REMARK INTER + INTRA:          -9.242
REMARK INTER:                  -8.032
REMARK INTRA:                  -1.210
REMARK UNBOUND:                -1.118
REMARK SMILES CCCCCCCCCCCCCCCCCC(=O)[O-]
REMARK SMILES IDX 10 1 11 2 12 3 13 4 14 5 15 6 16 7 17 8 18 9 19 10 20 11
REMARK SMILES IDX 9 12 8 13 7 14 6 15 5 16 4 17 3 18 2 19 1 20
REMARK H PARENT
REMARK Flexibility Score: inf
ROOT
ATOM      1  C   UNL     1      18.911  25.396   4.195  1.00  0.00     0.000 C 
ENDROOT
BRANCH   1   2
ATOM      2  C   UNL     1      18.861  23.894   4.513  1.00  0.00     0.000 C 
BRANCH   2   3
ATOM      3  C   UNL     1      17.707  23.524   5.459  1.00  0.00     0.000 C 
BRANCH   3   4
ATOM      4  C   UNL     1      16.794  22.391   4.953  1.00  0.00     0.000 C 
BRANCH   4   5
ATOM      5  C   UNL     1      16.085  21.614   6.082  1.00  0.00     0.000 C 
BRANCH   5   6
ATOM      6  C   UNL     1      14.554  21.627   5.925  1.00  0.00     0.000 C 
BRANCH   6   7
ATOM      7  C   UNL     1      14.077  22.599   4.835  1.00  0.00     0.006 C 
BRANCH   7   8
ATOM      8  C   UNL     1      13.233  21.909   3.756  1.00  0.00     0.053 C 
BRANCH   8   9
ATOM      9  C   UNL     1      12.095  22.788   3.343  1.00  0.00     0.041 C 
ATOM     10  O   UNL     1      11.951  23.925   3.864  1.00  0.00    -0.550 OA
ATOM     11  O   UNL     1      11.219  22.370   2.348  1.00  0.00    -0.550 OA
ENDBRANCH   8   9
ENDBRANCH   7   8
ENDBRANCH   6   7
ENDBRANCH   5   6
ENDBRANCH   4   5
ENDBRANCH   3   4
ENDBRANCH   2   3
ENDBRANCH   1   2
BRANCH   1  12
ATOM     12  C   UNL     1      19.399  25.635   2.759  1.00  0.00     0.000 C 
BRANCH  12  13
ATOM     13  C   UNL     1      19.631  24.328   1.981  1.00  0.00    -0.000 C 
BRANCH  13  14
ATOM     14  C   UNL     1      18.656  24.081   0.811  1.00  0.00    -0.000 C 
BRANCH  14  15
ATOM     15  C   UNL     1      19.309  24.005  -0.580  1.00  0.00    -0.000 C 
BRANCH  15  16
ATOM     16  C   UNL     1      18.931  25.187  -1.482  1.00  0.00    -0.000 C 
BRANCH  16  17
ATOM     17  C   UNL     1      18.245  26.298  -0.675  1.00  0.00    -0.000 C 
BRANCH  17  18
ATOM     18  C   UNL     1      16.733  26.387  -0.942  1.00  0.00    -0.000 C 
BRANCH  18  19
ATOM     19  C   UNL     1      16.230  25.366  -1.986  1.00  0.00    -0.003 C 
ATOM     20  C   UNL     1      14.802  24.897  -1.699  1.00  0.00     0.004 C 
ENDBRANCH  18  19
ENDBRANCH  17  18
ENDBRANCH  16  17
ENDBRANCH  15  16
ENDBRANCH  14  15
ENDBRANCH  13  14
ENDBRANCH  12  13
ENDBRANCH   1  12
TORSDOF 16
ENDMDL
MODEL 3
REMARK VINA RESULT:    -3.491      2.170      6.450
REMARK INTER + INTRA:          -7.874
REMARK INTER:                  -6.939
REMARK INTRA:                  -0.935
REMARK UNBOUND:                -1.118
REMARK SMILES CCCCCCCCCCCCCCCCCC(=O)[O-]
REMARK SMILES IDX 10 1 11 2 12 3 13 4 14 5 15 6 16 7 17 8 18 9 19 10 20 11
REMARK SMILES IDX 9 12 8 13 7 14 6 15 5 16 4 17 3 18 2 19 1 20
REMARK H PARENT
REMARK Flexibility Score: inf
ROOT
ATOM      1  C   UNL     1      17.801  23.516   5.607  1.00  0.00     0.000 C 
ENDROOT
BRANCH   1   2
ATOM      2  C   UNL     1      17.074  22.409   4.828  1.00  0.00     0.000 C 
BRANCH   2   3
ATOM      3  C   UNL     1      16.285  21.458   5.742  1.00  0.00     0.000 C 
BRANCH   3   4
ATOM      4  C   UNL     1      14.824  21.874   6.000  1.00  0.00     0.000 C 
BRANCH   4   5
ATOM      5  C   UNL     1      14.057  22.272   4.720  1.00  0.00     0.000 C 
BRANCH   5   6
ATOM      6  C   UNL     1      13.193  23.529   4.927  1.00  0.00     0.000 C 
BRANCH   6   7
ATOM      7  C   UNL     1      12.240  23.793   3.752  1.00  0.00     0.006 C 
BRANCH   7   8
ATOM      8  C   UNL     1      12.043  22.559   2.862  1.00  0.00     0.053 C 
BRANCH   8   9
ATOM      9  C   UNL     1      10.627  22.480   2.385  1.00  0.00     0.041 C 
ATOM     10  O   UNL     1      10.376  22.167   1.192  1.00  0.00    -0.550 OA
ATOM     11  O   UNL     1       9.581  22.705   3.273  1.00  0.00    -0.550 OA
ENDBRANCH   8   9
ENDBRANCH   7   8
ENDBRANCH   6   7
ENDBRANCH   5   6
ENDBRANCH   4   5
ENDBRANCH   3   4
ENDBRANCH   2   3
ENDBRANCH   1   2
BRANCH   1  12
ATOM     12  C   UNL     1      18.493  24.496   4.647  1.00  0.00     0.000 C 
BRANCH  12  13
ATOM     13  C   UNL     1      19.539  23.814   3.749  1.00  0.00    -0.000 C 
BRANCH  13  14
ATOM     14  C   UNL     1      20.030  24.662   2.557  1.00  0.00    -0.000 C 
BRANCH  14  15
ATOM     15  C   UNL     1      19.005  25.671   2.007  1.00  0.00    -0.000 C 
BRANCH  15  16
ATOM     16  C   UNL     1      19.141  25.894   0.495  1.00  0.00    -0.000 C 
BRANCH  16  17
ATOM     17  C   UNL     1      17.783  26.234  -0.136  1.00  0.00    -0.000 C 
BRANCH  17  18
ATOM     18  C   UNL     1      17.300  25.163  -1.129  1.00  0.00    -0.000 C 
BRANCH  18  19
ATOM     19  C   UNL     1      16.078  25.601  -1.964  1.00  0.00    -0.003 C 
ATOM     20  C   UNL     1      14.829  24.779  -1.643  1.00  0.00     0.004 C 
ENDBRANCH  18  19
ENDBRANCH  17  18
ENDBRANCH  16  17
ENDBRANCH  15  16
ENDBRANCH  14  15
ENDBRANCH  13  14
ENDBRANCH  12  13
ENDBRANCH   1  12
TORSDOF 16
ENDMDL
MODEL 4
REMARK VINA RESULT:    -3.270     14.579     17.745
REMARK INTER + INTRA:          -7.448
REMARK INTER:                  -5.280
REMARK INTRA:                  -2.168
REMARK UNBOUND:                -1.118
REMARK SMILES CCCCCCCCCCCCCCCCCC(=O)[O-]
REMARK SMILES IDX 10 1 11 2 12 3 13 4 14 5 15 6 16 7 17 8 18 9 19 10 20 11
REMARK SMILES IDX 9 12 8 13 7 14 6 15 5 16 4 17 3 18 2 19 1 20
REMARK H PARENT
REMARK Flexibility Score: inf
ROOT
ATOM      1  C   UNL     1      22.666  37.146  14.885  1.00  0.00     0.000 C 
ENDROOT
BRANCH   1   2
ATOM      2  C   UNL     1      22.884  35.647  15.140  1.00  0.00     0.000 C 
BRANCH   2   3
ATOM      3  C   UNL     1      21.569  34.849  15.154  1.00  0.00     0.000 C 
BRANCH   3   4
ATOM      4  C   UNL     1      21.502  33.697  14.132  1.00  0.00     0.000 C 
BRANCH   4   5
ATOM      5  C   UNL     1      22.113  34.049  12.759  1.00  0.00     0.000 C 
BRANCH   5   6
ATOM      6  C   UNL     1      21.087  34.701  11.815  1.00  0.00     0.000 C 
BRANCH   6   7
ATOM      7  C   UNL     1      19.710  34.022  11.876  1.00  0.00     0.006 C 
BRANCH   7   8
ATOM      8  C   UNL     1      18.913  34.186  10.575  1.00  0.00     0.053 C 
BRANCH   8   9
ATOM      9  C   UNL     1      17.660  33.370  10.625  1.00  0.00     0.041 C 
ATOM     10  O   UNL     1      16.611  33.850  11.129  1.00  0.00    -0.550 OA
ATOM     11  O   UNL     1      17.637  32.096  10.070  1.00  0.00    -0.550 OA
ENDBRANCH   8   9
ENDBRANCH   7   8
ENDBRANCH   6   7
ENDBRANCH   5   6
ENDBRANCH   4   5
ENDBRANCH   3   4
ENDBRANCH   2   3
ENDBRANCH   1   2
BRANCH   1  12
ATOM     12  C   UNL     1      23.975  37.927  15.071  1.00  0.00     0.000 C 
BRANCH  12  13
ATOM     13  C   UNL     1      25.159  37.027  15.464  1.00  0.00    -0.000 C 
BRANCH  13  14
ATOM     14  C   UNL     1      26.427  37.201  14.603  1.00  0.00    -0.000 C 
BRANCH  14  15
ATOM     15  C   UNL     1      26.181  37.289  13.087  1.00  0.00    -0.000 C 
BRANCH  15  16
ATOM     16  C   UNL     1      26.606  36.019  12.338  1.00  0.00    -0.000 C 
BRANCH  16  17
ATOM     17  C   UNL     1      25.658  34.852  12.651  1.00  0.00    -0.000 C 
BRANCH  17  18
ATOM     18  C   UNL     1      26.268  33.831  13.627  1.00  0.00    -0.000 C 
BRANCH  18  19
ATOM     19  C   UNL     1      25.233  33.187  14.574  1.00  0.00    -0.003 C 
ATOM     20  C   UNL     1      25.654  33.274  16.042  1.00  0.00     0.004 C 
ENDBRANCH  18  19
ENDBRANCH  17  18
ENDBRANCH  16  17
ENDBRANCH  15  16
ENDBRANCH  14  15
ENDBRANCH  13  14
ENDBRANCH  12  13
ENDBRANCH   1  12
TORSDOF 16
ENDMDL
MODEL 5
REMARK VINA RESULT:    -3.258     14.712     17.175
REMARK INTER + INTRA:          -7.423
REMARK INTER:                  -5.387
REMARK INTRA:                  -2.036
REMARK UNBOUND:                -1.118
REMARK SMILES CCCCCCCCCCCCCCCCCC(=O)[O-]
REMARK SMILES IDX 10 1 11 2 12 3 13 4 14 5 15 6 16 7 17 8 18 9 19 10 20 11
REMARK SMILES IDX 9 12 8 13 7 14 6 15 5 16 4 17 3 18 2 19 1 20
REMARK H PARENT
REMARK Flexibility Score: inf
ROOT
ATOM      1  C   UNL     1      22.603  33.367  16.062  1.00  0.00     0.000 C 
ENDROOT
BRANCH   1   2
ATOM      2  C   UNL     1      22.602  34.903  16.102  1.00  0.00     0.000 C 
BRANCH   2   3
ATOM      3  C   UNL     1      23.991  35.506  15.834  1.00  0.00     0.000 C 
BRANCH   3   4
ATOM      4  C   UNL     1      24.038  36.536  14.688  1.00  0.00     0.000 C 
BRANCH   4   5
ATOM      5  C   UNL     1      25.242  37.498  14.768  1.00  0.00     0.000 C 
BRANCH   5   6
ATOM      6  C   UNL     1      26.149  37.400  13.528  1.00  0.00     0.000 C 
BRANCH   6   7
ATOM      7  C   UNL     1      25.673  36.336  12.527  1.00  0.00     0.006 C 
BRANCH   7   8
ATOM      8  C   UNL     1      26.824  35.481  11.981  1.00  0.00     0.053 C 
BRANCH   8   9
ATOM      9  C   UNL     1      26.751  34.094  12.536  1.00  0.00     0.041 C 
ATOM     10  O   UNL     1      26.880  33.898  13.773  1.00  0.00    -0.550 OA
ATOM     11  O   UNL     1      26.492  33.020  11.693  1.00  0.00    -0.550 OA
ENDBRANCH   8   9
ENDBRANCH   7   8
ENDBRANCH   6   7
ENDBRANCH   5   6
ENDBRANCH   4   5
ENDBRANCH   3   4
ENDBRANCH   2   3
ENDBRANCH   1   2
BRANCH   1  12
ATOM     12  C   UNL     1      23.641  32.848  15.057  1.00  0.00     0.000 C 
BRANCH  12  13
ATOM     13  C   UNL     1      23.043  32.570  13.668  1.00  0.00    -0.000 C 
BRANCH  13  14
ATOM     14  C   UNL     1      23.152  33.736  12.664  1.00  0.00    -0.000 C 
BRANCH  14  15
ATOM     15  C   UNL     1      21.845  34.093  11.933  1.00  0.00    -0.000 C 
BRANCH  15  16
ATOM     16  C   UNL     1      20.757  34.618  12.879  1.00  0.00    -0.000 C 
BRANCH  16  17
ATOM     17  C   UNL     1      19.381  34.048  12.506  1.00  0.00    -0.000 C 
BRANCH  17  18
ATOM     18  C   UNL     1      19.019  34.276  11.028  1.00  0.00    -0.000 C 
BRANCH  18  19
ATOM     19  C   UNL     1      17.644  33.697  10.633  1.00  0.00    -0.003 C 
ATOM     20  C   UNL     1      17.740  32.248  10.150  1.00  0.00     0.004 C 
ENDBRANCH  18  19
ENDBRANCH  17  18
ENDBRANCH  16  17
ENDBRANCH  15  16
ENDBRANCH  14  15
ENDBRANCH  13  14
ENDBRANCH  12  13
ENDBRANCH   1  12
TORSDOF 16
ENDMDL
MODEL 6
REMARK VINA RESULT:    -3.134     14.031     17.219
REMARK INTER + INTRA:          -7.184
REMARK INTER:                  -5.261
REMARK INTRA:                  -1.923
REMARK UNBOUND:                -1.118
REMARK SMILES CCCCCCCCCCCCCCCCCC(=O)[O-]
REMARK SMILES IDX 10 1 11 2 12 3 13 4 14 5 15 6 16 7 17 8 18 9 19 10 20 11
REMARK SMILES IDX 9 12 8 13 7 14 6 15 5 16 4 17 3 18 2 19 1 20
REMARK H PARENT
REMARK Flexibility Score: inf
ROOT
ATOM      1  C   UNL     1      22.427  33.429  15.422  1.00  0.00     0.000 C 
ENDROOT
BRANCH   1   2
ATOM      2  C   UNL     1      23.785  33.011  14.837  1.00  0.00     0.000 C 
BRANCH   2   3
ATOM      3  C   UNL     1      23.862  33.205  13.314  1.00  0.00     0.000 C 
BRANCH   3   4
ATOM      4  C   UNL     1      22.554  32.903  12.557  1.00  0.00     0.000 C 
BRANCH   4   5
ATOM      5  C   UNL     1      22.029  34.093  11.726  1.00  0.00     0.000 C 
BRANCH   5   6
ATOM      6  C   UNL     1      20.829  34.787  12.397  1.00  0.00     0.000 C 
BRANCH   6   7
ATOM      7  C   UNL     1      19.507  34.040  12.166  1.00  0.00     0.006 C 
BRANCH   7   8
ATOM      8  C   UNL     1      19.019  34.138  10.714  1.00  0.00     0.053 C 
BRANCH   8   9
ATOM      9  C   UNL     1      17.732  33.395  10.546  1.00  0.00     0.041 C 
ATOM     10  O   UNL     1      17.730  32.233  10.060  1.00  0.00    -0.550 OA
ATOM     11  O   UNL     1      16.538  33.966  10.971  1.00  0.00    -0.550 OA
ENDBRANCH   8   9
ENDBRANCH   7   8
ENDBRANCH   6   7
ENDBRANCH   5   6
ENDBRANCH   4   5
ENDBRANCH   3   4
ENDBRANCH   2   3
ENDBRANCH   1   2
BRANCH   1  12
ATOM     12  C   UNL     1      22.490  34.856  15.985  1.00  0.00     0.000 C 
BRANCH  12  13
ATOM     13  C   UNL     1      22.649  35.925  14.891  1.00  0.00    -0.000 C 
BRANCH  13  14
ATOM     14  C   UNL     1      23.859  36.866  15.067  1.00  0.00    -0.000 C 
BRANCH  14  15
ATOM     15  C   UNL     1      25.166  36.177  15.496  1.00  0.00    -0.000 C 
BRANCH  15  16
ATOM     16  C   UNL     1      26.273  36.286  14.438  1.00  0.00    -0.000 C 
BRANCH  16  17
ATOM     17  C   UNL     1      25.677  36.397  13.028  1.00  0.00    -0.000 C 
BRANCH  17  18
ATOM     18  C   UNL     1      26.584  35.789  11.945  1.00  0.00    -0.000 C 
BRANCH  18  19
ATOM     19  C   UNL     1      27.119  34.386  12.303  1.00  0.00    -0.003 C 
ATOM     20  C   UNL     1      26.802  33.350  11.225  1.00  0.00     0.004 C 
ENDBRANCH  18  19
ENDBRANCH  17  18
ENDBRANCH  16  17
ENDBRANCH  15  16
ENDBRANCH  14  15
ENDBRANCH  13  14
ENDBRANCH  12  13
ENDBRANCH   1  12
TORSDOF 16
ENDMDL
MODEL 7
REMARK VINA RESULT:    -3.094     16.461     18.742
REMARK INTER + INTRA:          -7.106
REMARK INTER:                  -4.813
REMARK INTRA:                  -2.293
REMARK UNBOUND:                -1.118
REMARK SMILES CCCCCCCCCCCCCCCCCC(=O)[O-]
REMARK SMILES IDX 10 1 11 2 12 3 13 4 14 5 15 6 16 7 17 8 18 9 19 10 20 11
REMARK SMILES IDX 9 12 8 13 7 14 6 15 5 16 4 17 3 18 2 19 1 20
REMARK H PARENT
REMARK Flexibility Score: inf
ROOT
ATOM      1  C   UNL     1      20.575  33.971  13.649  1.00  0.00     0.000 C 
ENDROOT
BRANCH   1   2
ATOM      2  C   UNL     1      21.395  35.126  13.055  1.00  0.00     0.000 C 
BRANCH   2   3
ATOM      3  C   UNL     1      21.687  36.236  14.079  1.00  0.00     0.000 C 
BRANCH   3   4
ATOM      4  C   UNL     1      23.168  36.371  14.480  1.00  0.00     0.000 C 
BRANCH   4   5
ATOM      5  C   UNL     1      23.424  37.448  15.556  1.00  0.00     0.000 C 
BRANCH   5   6
ATOM      6  C   UNL     1      24.926  37.656  15.825  1.00  0.00     0.000 C 
BRANCH   6   7
ATOM      7  C   UNL     1      25.753  36.384  15.589  1.00  0.00     0.006 C 
BRANCH   7   8
ATOM      8  C   UNL     1      27.101  36.672  14.916  1.00  0.00     0.053 C 
BRANCH   8   9
ATOM      9  C   UNL     1      26.914  36.896  13.449  1.00  0.00     0.041 C 
ATOM     10  O   UNL     1      27.125  35.961  12.633  1.00  0.00    -0.550 OA
ATOM     11  O   UNL     1      26.459  38.125  12.985  1.00  0.00    -0.550 OA
ENDBRANCH   8   9
ENDBRANCH   7   8
ENDBRANCH   6   7
ENDBRANCH   5   6
ENDBRANCH   4   5
ENDBRANCH   3   4
ENDBRANCH   2   3
ENDBRANCH   1   2
BRANCH   1  12
ATOM     12  C   UNL     1      20.176  34.273  15.101  1.00  0.00     0.000 C 
BRANCH  12  13
ATOM     13  C   UNL     1      20.969  33.442  16.124  1.00  0.00    -0.000 C 
BRANCH  13  14
ATOM     14  C   UNL     1      22.180  32.679  15.549  1.00  0.00    -0.000 C 
BRANCH  14  15
ATOM     15  C   UNL     1      23.557  33.227  15.966  1.00  0.00    -0.000 C 
BRANCH  15  16
ATOM     16  C   UNL     1      24.644  32.974  14.914  1.00  0.00    -0.000 C 
BRANCH  16  17
ATOM     17  C   UNL     1      24.029  32.804  13.517  1.00  0.00    -0.000 C 
BRANCH  17  18
ATOM     18  C   UNL     1      24.860  33.479  12.412  1.00  0.00    -0.000 C 
BRANCH  18  19
ATOM     19  C   UNL     1      26.087  32.653  11.970  1.00  0.00    -0.003 C 
ATOM     20  C   UNL     1      26.751  33.223  10.716  1.00  0.00     0.004 C 
ENDBRANCH  18  19
ENDBRANCH  17  18
ENDBRANCH  16  17
ENDBRANCH  15  16
ENDBRANCH  14  15
ENDBRANCH  13  14
ENDBRANCH  12  13
ENDBRANCH   1  12
TORSDOF 16
ENDMDL
MODEL 8
REMARK VINA RESULT:    -2.860     15.305     17.840
REMARK INTER + INTRA:          -6.653
REMARK INTER:                  -4.804
REMARK INTRA:                  -1.849
REMARK UNBOUND:                -1.118
REMARK SMILES CCCCCCCCCCCCCCCCCC(=O)[O-]
REMARK SMILES IDX 10 1 11 2 12 3 13 4 14 5 15 6 16 7 17 8 18 9 19 10 20 11
REMARK SMILES IDX 9 12 8 13 7 14 6 15 5 16 4 17 3 18 2 19 1 20
REMARK H PARENT
REMARK Flexibility Score: inf
ROOT
ATOM      1  C   UNL     1      24.250  35.629  15.852  1.00  0.00     0.000 C 
ENDROOT
BRANCH   1   2
ATOM      2  C   UNL     1      24.473  37.135  16.063  1.00  0.00     0.000 C 
BRANCH   2   3
ATOM      3  C   UNL     1      25.777  37.639  15.423  1.00  0.00     0.000 C 
BRANCH   3   4
ATOM      4  C   UNL     1      25.642  38.102  13.960  1.00  0.00     0.000 C 
BRANCH   4   5
ATOM      5  C   UNL     1      26.980  38.124  13.190  1.00  0.00     0.000 C 
BRANCH   5   6
ATOM      6  C   UNL     1      26.953  37.214  11.949  1.00  0.00     0.000 C 
BRANCH   6   7
ATOM      7  C   UNL     1      25.957  36.053  12.086  1.00  0.00     0.006 C 
BRANCH   7   8
ATOM      8  C   UNL     1      26.644  34.724  12.430  1.00  0.00     0.053 C 
BRANCH   8   9
ATOM      9  C   UNL     1      26.779  33.875  11.206  1.00  0.00     0.041 C 
ATOM     10  O   UNL     1      26.537  32.641  11.261  1.00  0.00    -0.550 OA
ATOM     11  O   UNL     1      27.125  34.455   9.992  1.00  0.00    -0.550 OA
ENDBRANCH   8   9
ENDBRANCH   7   8
ENDBRANCH   6   7
ENDBRANCH   5   6
ENDBRANCH   4   5
ENDBRANCH   3   4
ENDBRANCH   2   3
ENDBRANCH   1   2
BRANCH   1  12
ATOM     12  C   UNL     1      25.591  34.887  15.759  1.00  0.00     0.000 C 
BRANCH  12  13
ATOM     13  C   UNL     1      25.425  33.359  15.685  1.00  0.00    -0.000 C 
BRANCH  13  14
ATOM     14  C   UNL     1      24.052  32.875  15.174  1.00  0.00    -0.000 C 
BRANCH  14  15
ATOM     15  C   UNL     1      23.946  32.704  13.648  1.00  0.00    -0.000 C 
BRANCH  15  16
ATOM     16  C   UNL     1      22.502  32.787  13.137  1.00  0.00    -0.000 C 
BRANCH  16  17
ATOM     17  C   UNL     1      22.234  34.138  12.458  1.00  0.00    -0.000 C 
BRANCH  17  18
ATOM     18  C   UNL     1      20.764  34.579  12.562  1.00  0.00    -0.000 C 
BRANCH  18  19
ATOM     19  C   UNL     1      20.038  34.630  11.201  1.00  0.00    -0.003 C 
ATOM     20  C   UNL     1      18.704  33.881  11.225  1.00  0.00     0.004 C 
ENDBRANCH  18  19
ENDBRANCH  17  18
ENDBRANCH  16  17
ENDBRANCH  15  16
ENDBRANCH  14  15
ENDBRANCH  13  14
ENDBRANCH  12  13
ENDBRANCH   1  12
TORSDOF 16
ENDMDL
MODEL 9
REMARK VINA RESULT:    -2.622     14.977     17.433
REMARK INTER + INTRA:          -6.193
REMARK INTER:                  -4.505
REMARK INTRA:                  -1.688
REMARK UNBOUND:                -1.118
REMARK SMILES CCCCCCCCCCCCCCCCCC(=O)[O-]
REMARK SMILES IDX 10 1 11 2 12 3 13 4 14 5 15 6 16 7 17 8 18 9 19 10 20 11
REMARK SMILES IDX 9 12 8 13 7 14 6 15 5 16 4 17 3 18 2 19 1 20
REMARK H PARENT
REMARK Flexibility Score: inf
ROOT
ATOM      1  C   UNL     1      23.101  35.053  15.996  1.00  0.00     0.000 C 
ENDROOT
BRANCH   1   2
ATOM      2  C   UNL     1      24.255  35.708  15.223  1.00  0.00     0.000 C 
BRANCH   2   3
ATOM      3  C   UNL     1      25.498  35.946  16.097  1.00  0.00     0.000 C 
BRANCH   3   4
ATOM      4  C   UNL     1      26.660  34.967  15.847  1.00  0.00     0.000 C 
BRANCH   4   5
ATOM      5  C   UNL     1      26.352  33.897  14.777  1.00  0.00     0.000 C 
BRANCH   5   6
ATOM      6  C   UNL     1      27.125  34.142  13.469  1.00  0.00     0.000 C 
BRANCH   6   7
ATOM      7  C   UNL     1      26.203  34.237  12.244  1.00  0.00     0.006 C 
BRANCH   7   8
ATOM      8  C   UNL     1      25.528  35.610  12.118  1.00  0.00     0.053 C 
BRANCH   8   9
ATOM      9  C   UNL     1      26.504  36.625  11.612  1.00  0.00     0.041 C 
ATOM     10  O   UNL     1      26.749  36.710  10.381  1.00  0.00    -0.550 OA
ATOM     11  O   UNL     1      27.105  37.512  12.497  1.00  0.00    -0.550 OA
ENDBRANCH   8   9
ENDBRANCH   7   8
ENDBRANCH   6   7
ENDBRANCH   5   6
ENDBRANCH   4   5
ENDBRANCH   3   4
ENDBRANCH   2   3
ENDBRANCH   1   2
BRANCH   1  12
ATOM     12  C   UNL     1      23.278  33.528  16.052  1.00  0.00     0.000 C 
BRANCH  12  13
ATOM     13  C   UNL     1      22.428  32.789  15.004  1.00  0.00    -0.000 C 
BRANCH  13  14
ATOM     14  C   UNL     1      22.993  32.814  13.569  1.00  0.00    -0.000 C 
BRANCH  14  15
ATOM     15  C   UNL     1      22.181  33.647  12.561  1.00  0.00    -0.000 C 
BRANCH  15  16
ATOM     16  C   UNL     1      21.374  34.769  13.229  1.00  0.00    -0.000 C 
BRANCH  16  17
ATOM     17  C   UNL     1      19.883  34.658  12.879  1.00  0.00    -0.000 C 
BRANCH  17  18
ATOM     18  C   UNL     1      19.639  34.090  11.471  1.00  0.00    -0.000 C 
BRANCH  18  19
ATOM     19  C   UNL     1      18.273  33.389  11.316  1.00  0.00    -0.003 C 
ATOM     20  C   UNL     1      17.934  33.093   9.854  1.00  0.00     0.004 C 
ENDBRANCH  18  19
ENDBRANCH  17  18
ENDBRANCH  16  17
ENDBRANCH  15  16
ENDBRANCH  14  15
ENDBRANCH  13  14
ENDBRANCH  12  13
ENDBRANCH   1  12
TORSDOF 16
ENDMDL
