MODEL 1
REMARK VINA RESULT:    -4.968      0.000      0.000
REMARK INTER + INTRA:          -8.381
REMARK INTER:                  -8.017
REMARK INTRA:                  -0.364
REMARK UNBOUND:                -0.364
REMARK SMILES CCCCCCCCCCCCO
REMARK SMILES IDX 7 1 6 2 5 3 4 4 3 5 2 6 1 7 8 8 9 9 10 10 11 11 12 12 13 13
REMARK H PARENT 13 14
REMARK Flexibility Score: inf
ROOT
ATOM      1  C   UNL     1      -0.249   1.581  12.860  1.00  0.00     0.000 C 
ENDROOT
BRANCH   1   2
ATOM      2  C   UNL     1      -1.024   2.854  13.221  1.00  0.00    -0.000 C 
BRANCH   2   3
ATOM      3  C   UNL     1      -0.568   4.040  12.361  1.00  0.00    -0.000 C 
BRANCH   3   4
ATOM      4  C   UNL     1       0.642   3.658  11.497  1.00  0.00    -0.000 C 
BRANCH   4   5
ATOM      5  C   UNL     1       1.180   4.840  10.675  1.00  0.00    -0.000 C 
BRANCH   5   6
ATOM      6  C   UNL     1       2.695   4.757  10.440  1.00  0.00    -0.003 C 
ATOM      7  C   UNL     1       3.459   5.549  11.497  1.00  0.00     0.004 C 
ENDBRANCH   5   6
ENDBRANCH   4   5
ENDBRANCH   3   4
ENDBRANCH   2   3
ENDBRANCH   1   2
BRANCH   1   8
ATOM      8  C   UNL     1      -0.236   0.592  14.031  1.00  0.00     0.000 C 
BRANCH   8   9
ATOM      9  C   UNL     1       0.560  -0.672  13.674  1.00  0.00     0.000 C 
BRANCH   9  10
ATOM     10  C   UNL     1       1.806  -0.865  14.557  1.00  0.00     0.002 C 
BRANCH  10  11
ATOM     11  C   UNL     1       2.715  -2.039  14.152  1.00  0.00     0.028 C 
BRANCH  11  12
ATOM     12  C   UNL     1       2.665  -3.206  15.146  1.00  0.00     0.156 C 
BRANCH  12  13
ATOM     13  O   UNL     1       2.385  -4.403  14.472  1.00  0.00    -0.396 OA
ATOM     14  H   UNL     1       3.055  -4.482  13.743  1.00  0.00     0.210 HD
ENDBRANCH  12  13
ENDBRANCH  11  12
ENDBRANCH  10  11
ENDBRANCH   9  10
ENDBRANCH   8   9
ENDBRANCH   1   8
TORSDOF 11
ENDMDL
MODEL 2
REMARK VINA RESULT:    -4.849      3.248      6.849
REMARK INTER + INTRA:          -8.189
REMARK INTER:                  -7.687
REMARK INTRA:                  -0.502
REMARK UNBOUND:                -0.364
REMARK SMILES CCCCCCCCCCCCO
REMARK SMILES IDX 7 1 6 2 5 3 4 4 3 5 2 6 1 7 8 8 9 9 10 10 11 11 12 12 13 13
REMARK H PARENT 13 14
REMARK Flexibility Score: inf
ROOT
ATOM      1  C   UNL     1      -0.577   1.598  11.803  1.00  0.00     0.000 C 
ENDROOT
BRANCH   1   2
ATOM      2  C   UNL     1      -0.537   0.250  12.531  1.00  0.00    -0.000 C 
BRANCH   2   3
ATOM      3  C   UNL     1       0.227   0.360  13.856  1.00  0.00    -0.000 C 
BRANCH   3   4
ATOM      4  C   UNL     1       0.933  -0.961  14.195  1.00  0.00    -0.000 C 
BRANCH   4   5
ATOM      5  C   UNL     1       2.298  -0.749  14.868  1.00  0.00    -0.000 C 
BRANCH   5   6
ATOM      6  C   UNL     1       3.266  -1.917  14.625  1.00  0.00    -0.003 C 
ATOM      7  C   UNL     1       2.565  -3.259  14.818  1.00  0.00     0.004 C 
ENDBRANCH   5   6
ENDBRANCH   4   5
ENDBRANCH   3   4
ENDBRANCH   2   3
ENDBRANCH   1   2
BRANCH   1   8
ATOM      8  C   UNL     1      -0.768   2.754  12.792  1.00  0.00     0.000 C 
BRANCH   8   9
ATOM      9  C   UNL     1      -0.245   4.073  12.205  1.00  0.00     0.000 C 
BRANCH   9  10
ATOM     10  C   UNL     1       0.657   3.867  10.975  1.00  0.00     0.002 C 
BRANCH  10  11
ATOM     11  C   UNL     1       2.041   4.533  11.065  1.00  0.00     0.028 C 
BRANCH  11  12
ATOM     12  C   UNL     1       1.986   6.056  10.899  1.00  0.00     0.156 C 
BRANCH  12  13
ATOM     13  O   UNL     1       2.114   6.683  12.147  1.00  0.00    -0.396 OA
ATOM     14  H   UNL     1       2.443   7.602  11.971  1.00  0.00     0.210 HD
ENDBRANCH  12  13
ENDBRANCH  11  12
ENDBRANCH  10  11
ENDBRANCH   9  10
ENDBRANCH   8   9
ENDBRANCH   1   8
TORSDOF 11
ENDMDL
MODEL 3
REMARK VINA RESULT:    -4.834      1.046      1.203
REMARK INTER + INTRA:          -8.165
REMARK INTER:                  -7.568
REMARK INTRA:                  -0.597
REMARK UNBOUND:                -0.364
REMARK SMILES CCCCCCCCCCCCO
REMARK SMILES IDX 7 1 6 2 5 3 4 4 3 5 2 6 1 7 8 8 9 9 10 10 11 11 12 12 13 13
REMARK H PARENT 13 14
REMARK Flexibility Score: inf
ROOT
ATOM      1  C   UNL     1      -0.558   1.330  11.997  1.00  0.00     0.000 C 
ENDROOT
BRANCH   1   2
ATOM      2  C   UNL     1      -0.745   2.629  12.789  1.00  0.00    -0.000 C 
BRANCH   2   3
ATOM      3  C   UNL     1      -0.248   3.840  11.988  1.00  0.00    -0.000 C 
BRANCH   3   4
ATOM      4  C   UNL     1       0.772   3.412  10.923  1.00  0.00    -0.000 C 
BRANCH   4   5
ATOM      5  C   UNL     1       1.584   4.595  10.372  1.00  0.00    -0.000 C 
BRANCH   5   6
ATOM      6  C   UNL     1       2.018   5.577  11.471  1.00  0.00    -0.003 C 
ATOM      7  C   UNL     1       3.539   5.669  11.554  1.00  0.00     0.004 C 
ENDBRANCH   5   6
ENDBRANCH   4   5
ENDBRANCH   3   4
ENDBRANCH   2   3
ENDBRANCH   1   2
BRANCH   1   8
ATOM      8  C   UNL     1      -0.467   0.120  12.934  1.00  0.00     0.000 C 
BRANCH   8   9
ATOM      9  C   UNL     1       0.340   0.462  14.196  1.00  0.00     0.000 C 
BRANCH   9  10
ATOM     10  C   UNL     1       0.921  -0.782  14.892  1.00  0.00     0.002 C 
BRANCH  10  11
ATOM     11  C   UNL     1       2.418  -0.693  15.238  1.00  0.00     0.028 C 
BRANCH  11  12
ATOM     12  C   UNL     1       3.283  -1.649  14.406  1.00  0.00     0.156 C 
BRANCH  12  13
ATOM     13  O   UNL     1       2.470  -2.563  13.721  1.00  0.00    -0.396 OA
ATOM     14  H   UNL     1       2.858  -3.463  13.879  1.00  0.00     0.210 HD
ENDBRANCH  12  13
ENDBRANCH  11  12
ENDBRANCH  10  11
ENDBRANCH   9  10
ENDBRANCH   8   9
ENDBRANCH   1   8
TORSDOF 11
ENDMDL
MODEL 4
REMARK VINA RESULT:    -4.822      3.702      7.173
REMARK INTER + INTRA:          -8.147
REMARK INTER:                  -7.757
REMARK INTRA:                  -0.390
REMARK UNBOUND:                -0.364
REMARK SMILES CCCCCCCCCCCCO
REMARK SMILES IDX 7 1 6 2 5 3 4 4 3 5 2 6 1 7 8 8 9 9 10 10 11 11 12 12 13 13
REMARK H PARENT 13 14
REMARK Flexibility Score: inf
ROOT
ATOM      1  C   UNL     1      -0.623   3.591  12.289  1.00  0.00     0.000 C 
ENDROOT
BRANCH   1   2
ATOM      2  C   UNL     1      -1.285   2.238  12.577  1.00  0.00    -0.000 C 
BRANCH   2   3
ATOM      3  C   UNL     1      -0.250   1.106  12.571  1.00  0.00    -0.000 C 
BRANCH   3   4
ATOM      4  C   UNL     1       0.171   0.740  14.001  1.00  0.00    -0.000 C 
BRANCH   4   5
ATOM      5  C   UNL     1       0.787  -0.665  14.096  1.00  0.00    -0.000 C 
BRANCH   5   6
ATOM      6  C   UNL     1       2.005  -0.715  15.030  1.00  0.00    -0.003 C 
ATOM      7  C   UNL     1       3.187  -1.404  14.354  1.00  0.00     0.004 C 
ENDBRANCH   5   6
ENDBRANCH   4   5
ENDBRANCH   3   4
ENDBRANCH   2   3
ENDBRANCH   1   2
BRANCH   1   8
ATOM      8  C   UNL     1       0.596   3.425  11.375  1.00  0.00     0.000 C 
BRANCH   8   9
ATOM      9  C   UNL     1       1.059   4.782  10.823  1.00  0.00     0.000 C 
BRANCH   9  10
ATOM     10  C   UNL     1       2.436   5.210  11.361  1.00  0.00     0.002 C 
BRANCH  10  11
ATOM     11  C   UNL     1       3.065   6.421  10.648  1.00  0.00     0.028 C 
BRANCH  11  12
ATOM     12  C   UNL     1       2.117   7.622  10.559  1.00  0.00     0.156 C 
BRANCH  12  13
ATOM     13  O   UNL     1       1.925   8.182  11.830  1.00  0.00    -0.396 OA
ATOM     14  H   UNL     1       2.592   8.911  11.924  1.00  0.00     0.210 HD
ENDBRANCH  12  13
ENDBRANCH  11  12
ENDBRANCH  10  11
ENDBRANCH   9  10
ENDBRANCH   8   9
ENDBRANCH   1   8
TORSDOF 11
ENDMDL
MODEL 5
REMARK VINA RESULT:    -4.786      1.412      2.313
REMARK INTER + INTRA:          -8.089
REMARK INTER:                  -7.346
REMARK INTRA:                  -0.742
REMARK UNBOUND:                -0.364
REMARK SMILES CCCCCCCCCCCCO
REMARK SMILES IDX 7 1 6 2 5 3 4 4 3 5 2 6 1 7 8 8 9 9 10 10 11 11 12 12 13 13
REMARK H PARENT 13 14
REMARK Flexibility Score: inf
ROOT
ATOM      1  C   UNL     1      -0.637   3.086  12.576  1.00  0.00     0.000 C 
ENDROOT
BRANCH   1   2
ATOM      2  C   UNL     1       0.138   4.178  11.829  1.00  0.00    -0.000 C 
BRANCH   2   3
ATOM      3  C   UNL     1       0.768   3.626  10.544  1.00  0.00    -0.000 C 
BRANCH   3   4
ATOM      4  C   UNL     1       2.128   4.286  10.272  1.00  0.00    -0.000 C 
BRANCH   4   5
ATOM      5  C   UNL     1       2.570   5.221  11.409  1.00  0.00    -0.000 C 
BRANCH   5   6
ATOM      6  C   UNL     1       3.113   6.563  10.895  1.00  0.00    -0.003 C 
ATOM      7  C   UNL     1       1.994   7.591  10.759  1.00  0.00     0.004 C 
ENDBRANCH   5   6
ENDBRANCH   4   5
ENDBRANCH   3   4
ENDBRANCH   2   3
ENDBRANCH   1   2
BRANCH   1   8
ATOM      8  C   UNL     1      -0.765   1.819  11.724  1.00  0.00     0.000 C 
BRANCH   8   9
ATOM      9  C   UNL     1      -0.611   0.557  12.587  1.00  0.00     0.000 C 
BRANCH   9  10
ATOM     10  C   UNL     1      -0.208   0.869  14.039  1.00  0.00     0.002 C 
BRANCH  10  11
ATOM     11  C   UNL     1       1.040   0.121  14.543  1.00  0.00     0.028 C 
BRANCH  11  12
ATOM     12  C   UNL     1       0.887  -1.403  14.489  1.00  0.00     0.156 C 
BRANCH  12  13
ATOM     13  O   UNL     1       1.964  -1.972  13.794  1.00  0.00    -0.396 OA
ATOM     14  H   UNL     1       1.574  -2.590  13.121  1.00  0.00     0.210 HD
ENDBRANCH  12  13
ENDBRANCH  11  12
ENDBRANCH  10  11
ENDBRANCH   9  10
ENDBRANCH   8   9
ENDBRANCH   1   8
TORSDOF 11
ENDMDL
MODEL 6
REMARK VINA RESULT:    -4.760      1.976      3.045
REMARK INTER + INTRA:          -8.046
REMARK INTER:                  -7.277
REMARK INTRA:                  -0.769
REMARK UNBOUND:                -0.364
REMARK SMILES CCCCCCCCCCCCO
REMARK SMILES IDX 7 1 6 2 5 3 4 4 3 5 2 6 1 7 8 8 9 9 10 10 11 11 12 12 13 13
REMARK H PARENT 13 14
REMARK Flexibility Score: inf
ROOT
ATOM      1  C   UNL     1      -0.621   4.128  11.377  1.00  0.00     0.000 C 
ENDROOT
BRANCH   1   2
ATOM      2  C   UNL     1       0.430   3.449  10.490  1.00  0.00    -0.000 C 
BRANCH   2   3
ATOM      3  C   UNL     1       0.683   4.260   9.214  1.00  0.00    -0.000 C 
BRANCH   3   4
ATOM      4  C   UNL     1       1.904   5.177   9.379  1.00  0.00    -0.000 C 
BRANCH   4   5
ATOM      5  C   UNL     1       2.952   4.599  10.343  1.00  0.00    -0.000 C 
BRANCH   5   6
ATOM      6  C   UNL     1       3.423   5.622  11.387  1.00  0.00    -0.003 C 
ATOM      7  C   UNL     1       2.303   6.596  11.745  1.00  0.00     0.004 C 
ENDBRANCH   5   6
ENDBRANCH   4   5
ENDBRANCH   3   4
ENDBRANCH   2   3
ENDBRANCH   1   2
BRANCH   1   8
ATOM      8  C   UNL     1      -0.774   3.393  12.713  1.00  0.00     0.000 C 
BRANCH   8   9
ATOM      9  C   UNL     1      -0.234   1.958  12.617  1.00  0.00     0.000 C 
BRANCH   9  10
ATOM     10  C   UNL     1      -0.754   1.045  13.742  1.00  0.00     0.002 C 
BRANCH  10  11
ATOM     11  C   UNL     1       0.340   0.347  14.570  1.00  0.00     0.028 C 
BRANCH  11  12
ATOM     12  C   UNL     1       0.116  -1.163  14.708  1.00  0.00     0.156 C 
BRANCH  12  13
ATOM     13  O   UNL     1      -1.257  -1.445  14.764  1.00  0.00    -0.396 OA
ATOM     14  H   UNL     1      -1.341  -2.400  15.021  1.00  0.00     0.210 HD
ENDBRANCH  12  13
ENDBRANCH  11  12
ENDBRANCH  10  11
ENDBRANCH   9  10
ENDBRANCH   8   9
ENDBRANCH   1   8
TORSDOF 11
ENDMDL
MODEL 7
REMARK VINA RESULT:    -4.751      3.890      6.953
REMARK INTER + INTRA:          -8.031
REMARK INTER:                  -7.228
REMARK INTRA:                  -0.803
REMARK UNBOUND:                -0.364
REMARK SMILES CCCCCCCCCCCCO
REMARK SMILES IDX 7 1 6 2 5 3 4 4 3 5 2 6 1 7 8 8 9 9 10 10 11 11 12 12 13 13
REMARK H PARENT 13 14
REMARK Flexibility Score: inf
ROOT
ATOM      1  C   UNL     1       0.514   3.124  11.474  1.00  0.00     0.000 C 
ENDROOT
BRANCH   1   2
ATOM      2  C   UNL     1      -0.228   4.247  12.209  1.00  0.00    -0.000 C 
BRANCH   2   3
ATOM      3  C   UNL     1      -1.345   3.682  13.096  1.00  0.00    -0.000 C 
BRANCH   3   4
ATOM      4  C   UNL     1      -1.588   2.197  12.792  1.00  0.00    -0.000 C 
BRANCH   4   5
ATOM      5  C   UNL     1      -1.572   1.323  14.056  1.00  0.00    -0.000 C 
BRANCH   5   6
ATOM      6  C   UNL     1      -0.166   0.811  14.403  1.00  0.00    -0.003 C 
ATOM      7  C   UNL     1       0.187  -0.424  13.579  1.00  0.00     0.004 C 
ENDBRANCH   5   6
ENDBRANCH   4   5
ENDBRANCH   3   4
ENDBRANCH   2   3
ENDBRANCH   1   2
BRANCH   1   8
ATOM      8  C   UNL     1       0.567   3.393   9.966  1.00  0.00     0.000 C 
BRANCH   8   9
ATOM      9  C   UNL     1       1.250   4.737   9.670  1.00  0.00     0.000 C 
BRANCH   9  10
ATOM     10  C   UNL     1       2.721   4.774  10.121  1.00  0.00     0.002 C 
BRANCH  10  11
ATOM     11  C   UNL     1       3.073   5.906  11.102  1.00  0.00     0.028 C 
BRANCH  11  12
ATOM     12  C   UNL     1       2.667   7.292  10.588  1.00  0.00     0.156 C 
BRANCH  12  13
ATOM     13  O   UNL     1       1.925   7.972  11.564  1.00  0.00    -0.396 OA
ATOM     14  H   UNL     1       2.576   8.308  12.234  1.00  0.00     0.210 HD
ENDBRANCH  12  13
ENDBRANCH  11  12
ENDBRANCH  10  11
ENDBRANCH   9  10
ENDBRANCH   8   9
ENDBRANCH   1   8
TORSDOF 11
ENDMDL
MODEL 8
REMARK VINA RESULT:    -4.714      1.645      2.242
REMARK INTER + INTRA:          -7.971
REMARK INTER:                  -7.348
REMARK INTRA:                  -0.623
REMARK UNBOUND:                -0.364
REMARK SMILES CCCCCCCCCCCCO
REMARK SMILES IDX 7 1 6 2 5 3 4 4 3 5 2 6 1 7 8 8 9 9 10 10 11 11 12 12 13 13
REMARK H PARENT 13 14
REMARK Flexibility Score: inf
ROOT
ATOM      1  C   UNL     1      -0.236   0.256  13.204  1.00  0.00     0.000 C 
ENDROOT
BRANCH   1   2
ATOM      2  C   UNL     1      -1.206   1.294  12.629  1.00  0.00    -0.000 C 
BRANCH   2   3
ATOM      3  C   UNL     1      -0.930   2.688  13.208  1.00  0.00    -0.000 C 
BRANCH   3   4
ATOM      4  C   UNL     1      -0.551   3.678  12.097  1.00  0.00    -0.000 C 
BRANCH   4   5
ATOM      5  C   UNL     1       0.278   3.025  10.979  1.00  0.00    -0.000 C 
BRANCH   5   6
ATOM      6  C   UNL     1      -0.365   3.188   9.593  1.00  0.00    -0.003 C 
ATOM      7  C   UNL     1      -0.374   1.865   8.834  1.00  0.00     0.004 C 
ENDBRANCH   5   6
ENDBRANCH   4   5
ENDBRANCH   3   4
ENDBRANCH   2   3
ENDBRANCH   1   2
BRANCH   1   8
ATOM      8  C   UNL     1       0.058   0.535  14.683  1.00  0.00     0.000 C 
BRANCH   8   9
ATOM      9  C   UNL     1       1.099  -0.451  15.233  1.00  0.00     0.000 C 
BRANCH   9  10
ATOM     10  C   UNL     1       1.628  -1.424  14.164  1.00  0.00     0.002 C 
BRANCH  10  11
ATOM     11  C   UNL     1       2.956  -2.117  14.515  1.00  0.00     0.028 C 
BRANCH  11  12
ATOM     12  C   UNL     1       2.765  -3.403  15.328  1.00  0.00     0.156 C 
BRANCH  12  13
ATOM     13  O   UNL     1       2.337  -4.444  14.492  1.00  0.00    -0.396 OA
ATOM     14  H   UNL     1       3.154  -4.835  14.084  1.00  0.00     0.210 HD
ENDBRANCH  12  13
ENDBRANCH  11  12
ENDBRANCH  10  11
ENDBRANCH   9  10
ENDBRANCH   8   9
ENDBRANCH   1   8
TORSDOF 11
ENDMDL
MODEL 9
REMARK VINA RESULT:    -4.610      3.200      6.759
REMARK INTER + INTRA:          -7.804
REMARK INTER:                  -7.205
REMARK INTRA:                  -0.599
REMARK UNBOUND:                -0.364
REMARK SMILES CCCCCCCCCCCCO
REMARK SMILES IDX 7 1 6 2 5 3 4 4 3 5 2 6 1 7 8 8 9 9 10 10 11 11 12 12 13 13
REMARK H PARENT 13 14
REMARK Flexibility Score: inf
ROOT
ATOM      1  C   UNL     1      -0.266   1.173  12.354  1.00  0.00     0.000 C 
ENDROOT
BRANCH   1   2
ATOM      2  C   UNL     1      -0.340   0.027  13.370  1.00  0.00    -0.000 C 
BRANCH   2   3
ATOM      3  C   UNL     1       0.085   0.499  14.766  1.00  0.00    -0.000 C 
BRANCH   3   4
ATOM      4  C   UNL     1       1.270  -0.326  15.287  1.00  0.00    -0.000 C 
BRANCH   4   5
ATOM      5  C   UNL     1       1.079  -1.836  15.074  1.00  0.00    -0.000 C 
BRANCH   5   6
ATOM      6  C   UNL     1       2.412  -2.590  14.952  1.00  0.00    -0.003 C 
ATOM      7  C   UNL     1       3.467  -1.730  14.261  1.00  0.00     0.004 C 
ENDBRANCH   5   6
ENDBRANCH   4   5
ENDBRANCH   3   4
ENDBRANCH   2   3
ENDBRANCH   1   2
BRANCH   1   8
ATOM      8  C   UNL     1      -0.840   2.468  12.940  1.00  0.00     0.000 C 
BRANCH   8   9
ATOM      9  C   UNL     1      -0.300   3.697  12.193  1.00  0.00     0.000 C 
BRANCH   9  10
ATOM     10  C   UNL     1       0.504   3.328  10.933  1.00  0.00     0.002 C 
BRANCH  10  11
ATOM     11  C   UNL     1       1.712   4.237  10.644  1.00  0.00     0.028 C 
BRANCH  11  12
ATOM     12  C   UNL     1       1.465   5.211   9.486  1.00  0.00     0.156 C 
BRANCH  12  13
ATOM     13  O   UNL     1       1.805   4.608   8.266  1.00  0.00    -0.396 OA
ATOM     14  H   UNL     1       1.203   4.999   7.579  1.00  0.00     0.210 HD
ENDBRANCH  12  13
ENDBRANCH  11  12
ENDBRANCH  10  11
ENDBRANCH   9  10
ENDBRANCH   8   9
ENDBRANCH   1   8
TORSDOF 11
ENDMDL
