MODEL 1
REMARK VINA RESULT:    -6.246      0.000      0.000
REMARK INTER + INTRA:         -10.217
REMARK INTER:                  -8.436
REMARK INTRA:                  -1.781
REMARK UNBOUND:                -1.781
REMARK SMILES CC[C@H](CC[C@H](C)[C@@H]1CC[C@@H]2[C@H]3CC(=O)C4=CC(=O)CC[C@@]4(C)[C@H]3CC[C@]21C)C(C)C
REMARK SMILES IDX 4 1 3 2 2 3 1 4 29 5 30 6 31 7 5 8 6 9 7 10 8 11 9 12 27 13
REMARK SMILES IDX 10 14 11 15 26 16 28 17 12 18 25 19 24 20 13 21 22 22 14 23
REMARK SMILES IDX 16 24 21 25 23 26 15 27 17 28 20 29 18 30 19 31
REMARK H PARENT
REMARK Flexibility Score: inf
ROOT
ATOM      1  C   UNL     1      15.805 -19.656  39.902  1.00  0.00     0.004 C 
ENDROOT
BRANCH   1   2
ATOM      2  C   UNL     1      14.490 -19.199  39.210  1.00  0.00    -0.009 C 
BRANCH   2   3
ATOM      3  C   UNL     1      14.243 -17.677  39.417  1.00  0.00     0.000 C 
ATOM      4  C   UNL     1      15.433 -16.865  39.936  1.00  0.00     0.004 C 
ENDBRANCH   2   3
BRANCH   2   5
ATOM      5  C   UNL     1      14.311 -19.733  37.744  1.00  0.00    -0.014 C 
ATOM      6  C   UNL     1      14.278 -18.599  36.707  1.00  0.00     0.007 C 
ATOM      7  C   UNL     1      15.305 -20.827  37.310  1.00  0.00     0.007 C 
ENDBRANCH   2   5
ENDBRANCH   1   2
BRANCH   1   8
ATOM      8  C   UNL     1      15.624 -20.466  41.207  1.00  0.00     0.004 C 
BRANCH   8   9
ATOM      9  C   UNL     1      14.172 -20.928  41.539  1.00  0.00    -0.011 C 
ATOM     10  C   UNL     1      13.734 -20.325  42.887  1.00  0.00     0.008 C 
BRANCH   9  11
ATOM     11  C   UNL     1      14.094 -22.496  41.555  1.00  0.00    -0.002 C 
ATOM     12  C   UNL     1      15.392 -23.157  41.020  1.00  0.00     0.005 C 
ATOM     13  C   UNL     1      12.959 -23.196  40.741  1.00  0.00    -0.026 C 
ATOM     14  C   UNL     1      14.992 -24.467  40.333  1.00  0.00     0.005 C 
ATOM     15  C   UNL     1      13.512 -24.632  40.660  1.00  0.00    -0.001 C 
ATOM     16  C   UNL     1      11.573 -23.246  41.455  1.00  0.00     0.007 C 
ATOM     17  C   UNL     1      12.817 -22.539  39.329  1.00  0.00     0.012 C 
ATOM     18  C   UNL     1      12.670 -25.571  39.751  1.00  0.00     0.004 C 
ATOM     19  C   UNL     1      10.854 -24.618  41.360  1.00  0.00     0.005 C 
ATOM     20  C   UNL     1      11.110 -25.374  40.019  1.00  0.00     0.003 C 
ATOM     21  C   UNL     1      13.197 -27.038  39.864  1.00  0.00     0.085 C 
ATOM     22  C   UNL     1      10.270 -26.704  39.903  1.00  0.00    -0.000 C 
ATOM     23  C   UNL     1      12.381 -27.912  40.759  1.00  0.00     0.159 C 
ATOM     24  C   UNL     1      10.913 -27.754  40.818  1.00  0.00     0.005 C 
ATOM     25  C   UNL     1       8.731 -26.480  40.200  1.00  0.00     0.020 C 
ATOM     26  C   UNL     1      10.327 -27.212  38.431  1.00  0.00     0.017 C 
ATOM     27  O   UNL     1      12.964 -28.806  41.436  1.00  0.00    -0.295 OA
ATOM     28  C   UNL     1      10.200 -28.494  41.685  1.00  0.00     0.055 C 
ATOM     29  C   UNL     1       8.274 -26.842  41.615  1.00  0.00     0.081 C 
ATOM     30  C   UNL     1       8.802 -28.185  41.978  1.00  0.00     0.156 C 
ATOM     31  O   UNL     1       8.091 -29.003  42.616  1.00  0.00    -0.295 OA
ENDBRANCH   9  11
ENDBRANCH   8   9
ENDBRANCH   1   8
TORSDOF 6
ENDMDL
MODEL 2
REMARK VINA RESULT:    -6.192      2.501      4.160
REMARK INTER + INTRA:         -10.145
REMARK INTER:                  -8.488
REMARK INTRA:                  -1.657
REMARK UNBOUND:                -1.781
REMARK SMILES CC[C@H](CC[C@H](C)[C@@H]1CC[C@@H]2[C@H]3CC(=O)C4=CC(=O)CC[C@@]4(C)[C@H]3CC[C@]21C)C(C)C
REMARK SMILES IDX 4 1 3 2 2 3 1 4 29 5 30 6 31 7 5 8 6 9 7 10 8 11 9 12 27 13
REMARK SMILES IDX 10 14 11 15 26 16 28 17 12 18 25 19 24 20 13 21 22 22 14 23
REMARK SMILES IDX 16 24 21 25 23 26 15 27 17 28 20 29 18 30 19 31
REMARK H PARENT
REMARK Flexibility Score: inf
ROOT
ATOM      1  C   UNL     1      13.180 -21.228  40.226  1.00  0.00     0.004 C 
ENDROOT
BRANCH   1   2
ATOM      2  C   UNL     1      12.690 -21.244  41.702  1.00  0.00    -0.009 C 
BRANCH   2   3
ATOM      3  C   UNL     1      11.552 -22.285  41.905  1.00  0.00     0.000 C 
ATOM      4  C   UNL     1      10.690 -22.591  40.678  1.00  0.00     0.004 C 
ENDBRANCH   2   3
BRANCH   2   5
ATOM      5  C   UNL     1      13.844 -21.267  42.766  1.00  0.00    -0.014 C 
ATOM      6  C   UNL     1      14.233 -19.859  43.241  1.00  0.00     0.007 C 
ATOM      7  C   UNL     1      13.615 -22.196  43.974  1.00  0.00     0.007 C 
ENDBRANCH   2   5
ENDBRANCH   1   2
BRANCH   1   8
ATOM      8  C   UNL     1      14.532 -21.934  39.965  1.00  0.00     0.004 C 
BRANCH   8   9
ATOM      9  C   UNL     1      14.462 -23.329  39.271  1.00  0.00    -0.011 C 
ATOM     10  C   UNL     1      13.334 -23.327  38.222  1.00  0.00     0.008 C 
BRANCH   9  11
ATOM     11  C   UNL     1      14.252 -24.455  40.343  1.00  0.00    -0.002 C 
ATOM     12  C   UNL     1      15.424 -24.530  41.358  1.00  0.00     0.005 C 
ATOM     13  C   UNL     1      14.092 -25.931  39.855  1.00  0.00    -0.026 C 
ATOM     14  C   UNL     1      15.574 -25.995  41.781  1.00  0.00     0.005 C 
ATOM     15  C   UNL     1      14.369 -26.696  41.163  1.00  0.00    -0.001 C 
ATOM     16  C   UNL     1      12.659 -26.308  39.363  1.00  0.00     0.007 C 
ATOM     17  C   UNL     1      15.146 -26.256  38.747  1.00  0.00     0.012 C 
ATOM     18  C   UNL     1      14.444 -28.237  40.978  1.00  0.00     0.004 C 
ATOM     19  C   UNL     1      12.147 -27.679  39.878  1.00  0.00     0.005 C 
ATOM     20  C   UNL     1      13.267 -28.754  40.033  1.00  0.00     0.003 C 
ATOM     21  C   UNL     1      14.553 -28.938  42.370  1.00  0.00     0.085 C 
ATOM     22  C   UNL     1      12.698 -30.169  40.439  1.00  0.00    -0.000 C 
ATOM     23  C   UNL     1      13.266 -29.511  42.867  1.00  0.00     0.159 C 
ATOM     24  C   UNL     1      12.305 -30.115  41.921  1.00  0.00     0.005 C 
ATOM     25  C   UNL     1      11.515 -30.642  39.500  1.00  0.00     0.020 C 
ATOM     26  C   UNL     1      13.816 -31.237  40.251  1.00  0.00     0.017 C 
ATOM     27  O   UNL     1      13.033 -29.499  44.109  1.00  0.00    -0.295 OA
ATOM     28  C   UNL     1      11.117 -30.556  42.372  1.00  0.00     0.055 C 
ATOM     29  C   UNL     1      10.105 -30.412  40.049  1.00  0.00     0.081 C 
ATOM     30  C   UNL     1      10.035 -30.900  41.453  1.00  0.00     0.156 C 
ATOM     31  O   UNL     1       9.017 -31.510  41.871  1.00  0.00    -0.295 OA
ENDBRANCH   9  11
ENDBRANCH   8   9
ENDBRANCH   1   8
TORSDOF 6
ENDMDL
MODEL 3
REMARK VINA RESULT:    -6.136      2.912      5.223
REMARK INTER + INTRA:         -10.068
REMARK INTER:                  -8.285
REMARK INTRA:                  -1.783
REMARK UNBOUND:                -1.781
REMARK SMILES CC[C@H](CC[C@H](C)[C@@H]1CC[C@@H]2[C@H]3CC(=O)C4=CC(=O)CC[C@@]4(C)[C@H]3CC[C@]21C)C(C)C
REMARK SMILES IDX 4 1 3 2 2 3 1 4 29 5 30 6 31 7 5 8 6 9 7 10 8 11 9 12 27 13
REMARK SMILES IDX 10 14 11 15 26 16 28 17 12 18 25 19 24 20 13 21 22 22 14 23
REMARK SMILES IDX 16 24 21 25 23 26 15 27 17 28 20 29 18 30 19 31
REMARK H PARENT
REMARK Flexibility Score: inf
ROOT
ATOM      1  C   UNL     1      13.072 -22.303  38.733  1.00  0.00     0.004 C 
ENDROOT
BRANCH   1   2
ATOM      2  C   UNL     1      13.503 -21.966  40.189  1.00  0.00    -0.009 C 
BRANCH   2   3
ATOM      3  C   UNL     1      14.581 -20.845  40.211  1.00  0.00     0.000 C 
ATOM      4  C   UNL     1      15.882 -21.174  40.948  1.00  0.00     0.004 C 
ENDBRANCH   2   3
BRANCH   2   5
ATOM      5  C   UNL     1      12.309 -21.794  41.193  1.00  0.00    -0.014 C 
ATOM      6  C   UNL     1      10.997 -22.383  40.652  1.00  0.00     0.007 C 
ATOM      7  C   UNL     1      12.570 -22.295  42.627  1.00  0.00     0.007 C 
ENDBRANCH   2   5
ENDBRANCH   1   2
BRANCH   1   8
ATOM      8  C   UNL     1      13.641 -23.622  38.159  1.00  0.00     0.004 C 
BRANCH   8   9
ATOM      9  C   UNL     1      14.724 -24.342  39.019  1.00  0.00    -0.011 C 
ATOM     10  C   UNL     1      16.125 -23.995  38.481  1.00  0.00     0.008 C 
BRANCH   9  11
ATOM     11  C   UNL     1      14.472 -25.890  39.020  1.00  0.00    -0.002 C 
ATOM     12  C   UNL     1      13.479 -26.328  37.910  1.00  0.00     0.005 C 
ATOM     13  C   UNL     1      13.897 -26.554  40.313  1.00  0.00    -0.026 C 
ATOM     14  C   UNL     1      12.704 -27.539  38.437  1.00  0.00     0.005 C 
ATOM     15  C   UNL     1      13.399 -27.897  39.746  1.00  0.00    -0.001 C 
ATOM     16  C   UNL     1      14.951 -26.852  41.423  1.00  0.00     0.007 C 
ATOM     17  C   UNL     1      12.729 -25.691  40.894  1.00  0.00     0.012 C 
ATOM     18  C   UNL     1      12.608 -28.751  40.777  1.00  0.00     0.004 C 
ATOM     19  C   UNL     1      14.812 -28.253  42.077  1.00  0.00     0.005 C 
ATOM     20  C   UNL     1      13.338 -28.751  42.195  1.00  0.00     0.003 C 
ATOM     21  C   UNL     1      12.295 -30.158  40.176  1.00  0.00     0.085 C 
ATOM     22  C   UNL     1      13.220 -30.118  42.973  1.00  0.00    -0.000 C 
ATOM     23  C   UNL     1      13.206 -31.242  40.653  1.00  0.00     0.159 C 
ATOM     24  C   UNL     1      13.706 -31.237  42.044  1.00  0.00     0.005 C 
ATOM     25  C   UNL     1      13.976 -30.094  44.364  1.00  0.00     0.020 C 
ATOM     26  C   UNL     1      11.725 -30.370  43.331  1.00  0.00     0.017 C 
ATOM     27  O   UNL     1      13.513 -32.175  39.858  1.00  0.00    -0.295 OA
ATOM     28  C   UNL     1      14.587 -32.174  42.436  1.00  0.00     0.055 C 
ATOM     29  C   UNL     1      15.370 -30.725  44.367  1.00  0.00     0.081 C 
ATOM     30  C   UNL     1      15.315 -32.052  43.697  1.00  0.00     0.156 C 
ATOM     31  O   UNL     1      15.966 -33.028  44.151  1.00  0.00    -0.295 OA
ENDBRANCH   9  11
ENDBRANCH   8   9
ENDBRANCH   1   8
TORSDOF 6
ENDMDL
MODEL 4
REMARK VINA RESULT:    -6.112      3.050      8.911
REMARK INTER + INTRA:         -10.036
REMARK INTER:                  -8.047
REMARK INTRA:                  -1.989
REMARK UNBOUND:                -1.781
REMARK SMILES CC[C@H](CC[C@H](C)[C@@H]1CC[C@@H]2[C@H]3CC(=O)C4=CC(=O)CC[C@@]4(C)[C@H]3CC[C@]21C)C(C)C
REMARK SMILES IDX 4 1 3 2 2 3 1 4 29 5 30 6 31 7 5 8 6 9 7 10 8 11 9 12 27 13
REMARK SMILES IDX 10 14 11 15 26 16 28 17 12 18 25 19 24 20 13 21 22 22 14 23
REMARK SMILES IDX 16 24 21 25 23 26 15 27 17 28 20 29 18 30 19 31
REMARK H PARENT
REMARK Flexibility Score: inf
ROOT
ATOM      1  C   UNL     1       7.990 -30.749  39.547  1.00  0.00     0.004 C 
ENDROOT
BRANCH   1   2
ATOM      2  C   UNL     1       9.322 -31.122  40.257  1.00  0.00    -0.009 C 
BRANCH   2   3
ATOM      3  C   UNL     1       9.056 -31.857  41.602  1.00  0.00     0.000 C 
ATOM      4  C   UNL     1       7.628 -32.361  41.825  1.00  0.00     0.004 C 
ENDBRANCH   2   3
BRANCH   2   5
ATOM      5  C   UNL     1      10.396 -31.776  39.315  1.00  0.00    -0.014 C 
ATOM      6  C   UNL     1       9.923 -31.858  37.856  1.00  0.00     0.007 C 
ATOM      7  C   UNL     1      11.806 -31.160  39.389  1.00  0.00     0.007 C 
ENDBRANCH   2   5
ENDBRANCH   1   2
BRANCH   1   8
ATOM      8  C   UNL     1       7.735 -29.234  39.365  1.00  0.00     0.004 C 
BRANCH   8   9
ATOM      9  C   UNL     1       8.539 -28.279  40.300  1.00  0.00    -0.011 C 
ATOM     10  C   UNL     1       7.562 -27.443  41.148  1.00  0.00     0.008 C 
BRANCH   9  11
ATOM     11  C   UNL     1       9.492 -27.367  39.450  1.00  0.00    -0.002 C 
ATOM     12  C   UNL     1      10.100 -28.118  38.235  1.00  0.00     0.005 C 
ATOM     13  C   UNL     1      10.736 -26.730  40.150  1.00  0.00    -0.026 C 
ATOM     14  C   UNL     1      11.495 -27.537  37.985  1.00  0.00     0.005 C 
ATOM     15  C   UNL     1      11.583 -26.338  38.924  1.00  0.00    -0.001 C 
ATOM     16  C   UNL     1      10.437 -25.436  40.970  1.00  0.00     0.007 C 
ATOM     17  C   UNL     1      11.456 -27.786  41.050  1.00  0.00     0.012 C 
ATOM     18  C   UNL     1      12.997 -25.807  39.289  1.00  0.00     0.004 C 
ATOM     19  C   UNL     1      11.463 -24.291  40.754  1.00  0.00     0.005 C 
ATOM     20  C   UNL     1      12.922 -24.788  40.514  1.00  0.00     0.003 C 
ATOM     21  C   UNL     1      13.716 -25.274  38.009  1.00  0.00     0.085 C 
ATOM     22  C   UNL     1      13.959 -23.602  40.422  1.00  0.00    -0.000 C 
ATOM     23  C   UNL     1      13.685 -23.788  37.865  1.00  0.00     0.159 C 
ATOM     24  C   UNL     1      13.783 -22.922  39.059  1.00  0.00     0.005 C 
ATOM     25  C   UNL     1      13.842 -22.595  41.638  1.00  0.00     0.020 C 
ATOM     26  C   UNL     1      15.401 -24.182  40.515  1.00  0.00     0.017 C 
ATOM     27  O   UNL     1      13.609 -23.288  36.707  1.00  0.00    -0.295 OA
ATOM     28  C   UNL     1      13.675 -21.588  38.922  1.00  0.00     0.055 C 
ATOM     29  C   UNL     1      13.038 -21.323  41.364  1.00  0.00     0.081 C 
ATOM     30  C   UNL     1      13.487 -20.719  40.081  1.00  0.00     0.156 C 
ATOM     31  O   UNL     1      13.605 -19.472  39.965  1.00  0.00    -0.295 OA
ENDBRANCH   9  11
ENDBRANCH   8   9
ENDBRANCH   1   8
TORSDOF 6
ENDMDL
MODEL 5
REMARK VINA RESULT:    -6.035      2.903      4.997
REMARK INTER + INTRA:          -9.932
REMARK INTER:                  -8.499
REMARK INTRA:                  -1.433
REMARK UNBOUND:                -1.781
REMARK SMILES CC[C@H](CC[C@H](C)[C@@H]1CC[C@@H]2[C@H]3CC(=O)C4=CC(=O)CC[C@@]4(C)[C@H]3CC[C@]21C)C(C)C
REMARK SMILES IDX 4 1 3 2 2 3 1 4 29 5 30 6 31 7 5 8 6 9 7 10 8 11 9 12 27 13
REMARK SMILES IDX 10 14 11 15 26 16 28 17 12 18 25 19 24 20 13 21 22 22 14 23
REMARK SMILES IDX 16 24 21 25 23 26 15 27 17 28 20 29 18 30 19 31
REMARK H PARENT
REMARK Flexibility Score: inf
ROOT
ATOM      1  C   UNL     1      12.942 -22.562  39.567  1.00  0.00     0.004 C 
ENDROOT
BRANCH   1   2
ATOM      2  C   UNL     1      12.081 -23.046  40.768  1.00  0.00    -0.009 C 
BRANCH   2   3
ATOM      3  C   UNL     1      11.951 -21.936  41.850  1.00  0.00     0.000 C 
ATOM      4  C   UNL     1      12.574 -22.246  43.213  1.00  0.00     0.004 C 
ENDBRANCH   2   3
BRANCH   2   5
ATOM      5  C   UNL     1      10.749 -23.770  40.359  1.00  0.00    -0.014 C 
ATOM      6  C   UNL     1      10.629 -25.171  40.978  1.00  0.00     0.007 C 
ATOM      7  C   UNL     1       9.456 -22.966  40.598  1.00  0.00     0.007 C 
ENDBRANCH   2   5
ENDBRANCH   1   2
BRANCH   1   8
ATOM      8  C   UNL     1      14.375 -23.141  39.499  1.00  0.00     0.004 C 
BRANCH   8   9
ATOM      9  C   UNL     1      14.504 -24.616  39.009  1.00  0.00    -0.011 C 
ATOM     10  C   UNL     1      13.595 -24.834  37.785  1.00  0.00     0.008 C 
BRANCH   9  11
ATOM     11  C   UNL     1      14.150 -25.605  40.175  1.00  0.00    -0.002 C 
ATOM     12  C   UNL     1      15.142 -25.495  41.364  1.00  0.00     0.005 C 
ATOM     13  C   UNL     1      14.110 -27.137  39.869  1.00  0.00    -0.026 C 
ATOM     14  C   UNL     1      15.258 -26.885  41.998  1.00  0.00     0.005 C 
ATOM     15  C   UNL     1      14.189 -27.714  41.295  1.00  0.00    -0.001 C 
ATOM     16  C   UNL     1      12.788 -27.641  39.211  1.00  0.00     0.007 C 
ATOM     17  C   UNL     1      15.339 -27.551  38.997  1.00  0.00     0.012 C 
ATOM     18  C   UNL     1      14.332 -29.261  41.332  1.00  0.00     0.004 C 
ATOM     19  C   UNL     1      12.233 -28.957  39.817  1.00  0.00     0.005 C 
ATOM     20  C   UNL     1      13.340 -29.950  40.290  1.00  0.00     0.003 C 
ATOM     21  C   UNL     1      14.230 -29.773  42.805  1.00  0.00     0.085 C 
ATOM     22  C   UNL     1      12.749 -31.326  40.786  1.00  0.00    -0.000 C 
ATOM     23  C   UNL     1      12.895 -30.338  43.163  1.00  0.00     0.159 C 
ATOM     24  C   UNL     1      12.117 -31.102  42.165  1.00  0.00     0.005 C 
ATOM     25  C   UNL     1      11.748 -31.970  39.742  1.00  0.00     0.020 C 
ATOM     26  C   UNL     1      13.909 -32.356  40.922  1.00  0.00     0.017 C 
ATOM     27  O   UNL     1      12.461 -30.178  44.339  1.00  0.00    -0.295 OA
ATOM     28  C   UNL     1      10.883 -31.537  42.477  1.00  0.00     0.055 C 
ATOM     29  C   UNL     1      10.262 -31.739  40.025  1.00  0.00     0.081 C 
ATOM     30  C   UNL     1       9.976 -32.046  41.452  1.00  0.00     0.156 C 
ATOM     31  O   UNL     1       8.919 -32.645  41.780  1.00  0.00    -0.295 OA
ENDBRANCH   9  11
ENDBRANCH   8   9
ENDBRANCH   1   8
TORSDOF 6
ENDMDL
MODEL 6
REMARK VINA RESULT:    -5.979      2.654      4.064
REMARK INTER + INTRA:          -9.857
REMARK INTER:                  -8.153
REMARK INTRA:                  -1.704
REMARK UNBOUND:                -1.781
REMARK SMILES CC[C@H](CC[C@H](C)[C@@H]1CC[C@@H]2[C@H]3CC(=O)C4=CC(=O)CC[C@@]4(C)[C@H]3CC[C@]21C)C(C)C
REMARK SMILES IDX 4 1 3 2 2 3 1 4 29 5 30 6 31 7 5 8 6 9 7 10 8 11 9 12 27 13
REMARK SMILES IDX 10 14 11 15 26 16 28 17 12 18 25 19 24 20 13 21 22 22 14 23
REMARK SMILES IDX 16 24 21 25 23 26 15 27 17 28 20 29 18 30 19 31
REMARK H PARENT
REMARK Flexibility Score: inf
ROOT
ATOM      1  C   UNL     1      13.080 -20.944  42.124  1.00  0.00     0.004 C 
ENDROOT
BRANCH   1   2
ATOM      2  C   UNL     1      14.624 -21.136  42.125  1.00  0.00    -0.009 C 
BRANCH   2   3
ATOM      3  C   UNL     1      15.360 -19.769  42.235  1.00  0.00     0.000 C 
ATOM      4  C   UNL     1      14.724 -18.733  43.165  1.00  0.00     0.004 C 
ENDBRANCH   2   3
BRANCH   2   5
ATOM      5  C   UNL     1      15.134 -22.272  43.080  1.00  0.00    -0.014 C 
ATOM      6  C   UNL     1      14.280 -22.399  44.351  1.00  0.00     0.007 C 
ATOM      7  C   UNL     1      15.328 -23.653  42.424  1.00  0.00     0.007 C 
ENDBRANCH   2   5
ENDBRANCH   1   2
BRANCH   1   8
ATOM      8  C   UNL     1      12.348 -21.445  40.857  1.00  0.00     0.004 C 
BRANCH   8   9
ATOM      9  C   UNL     1      11.558 -22.782  40.997  1.00  0.00    -0.011 C 
ATOM     10  C   UNL     1      11.171 -23.001  42.471  1.00  0.00     0.008 C 
BRANCH   9  11
ATOM     11  C   UNL     1      12.413 -23.975  40.440  1.00  0.00    -0.002 C 
ATOM     12  C   UNL     1      13.289 -23.559  39.228  1.00  0.00     0.005 C 
ATOM     13  C   UNL     1      11.671 -25.256  39.938  1.00  0.00    -0.026 C 
ATOM     14  C   UNL     1      13.413 -24.779  38.310  1.00  0.00     0.005 C 
ATOM     15  C   UNL     1      12.782 -25.919  39.102  1.00  0.00    -0.001 C 
ATOM     16  C   UNL     1      11.244 -26.251  41.062  1.00  0.00     0.007 C 
ATOM     17  C   UNL     1      10.434 -24.862  39.067  1.00  0.00     0.012 C 
ATOM     18  C   UNL     1      12.304 -27.171  38.315  1.00  0.00     0.004 C 
ATOM     19  C   UNL     1      11.535 -27.741  40.740  1.00  0.00     0.005 C 
ATOM     20  C   UNL     1      11.386 -28.102  39.229  1.00  0.00     0.003 C 
ATOM     21  C   UNL     1      13.524 -27.876  37.640  1.00  0.00     0.085 C 
ATOM     22  C   UNL     1      11.566 -29.644  38.953  1.00  0.00    -0.000 C 
ATOM     23  C   UNL     1      14.015 -29.081  38.374  1.00  0.00     0.159 C 
ATOM     24  C   UNL     1      13.060 -29.975  39.062  1.00  0.00     0.005 C 
ATOM     25  C   UNL     1      10.662 -30.541  39.893  1.00  0.00     0.020 C 
ATOM     26  C   UNL     1      11.082 -29.959  37.506  1.00  0.00     0.017 C 
ATOM     27  O   UNL     1      15.252 -29.337  38.367  1.00  0.00    -0.295 OA
ATOM     28  C   UNL     1      13.522 -31.011  39.784  1.00  0.00     0.055 C 
ATOM     29  C   UNL     1      11.366 -31.132  41.116  1.00  0.00     0.081 C 
ATOM     30  C   UNL     1      12.653 -31.748  40.697  1.00  0.00     0.156 C 
ATOM     31  O   UNL     1      13.036 -32.838  41.197  1.00  0.00    -0.295 OA
ENDBRANCH   9  11
ENDBRANCH   8   9
ENDBRANCH   1   8
TORSDOF 6
ENDMDL
MODEL 7
REMARK VINA RESULT:    -5.966      2.023      4.394
REMARK INTER + INTRA:          -9.840
REMARK INTER:                  -8.143
REMARK INTRA:                  -1.697
REMARK UNBOUND:                -1.781
REMARK SMILES CC[C@H](CC[C@H](C)[C@@H]1CC[C@@H]2[C@H]3CC(=O)C4=CC(=O)CC[C@@]4(C)[C@H]3CC[C@]21C)C(C)C
REMARK SMILES IDX 4 1 3 2 2 3 1 4 29 5 30 6 31 7 5 8 6 9 7 10 8 11 9 12 27 13
REMARK SMILES IDX 10 14 11 15 26 16 28 17 12 18 25 19 24 20 13 21 22 22 14 23
REMARK SMILES IDX 16 24 21 25 23 26 15 27 17 28 20 29 18 30 19 31
REMARK H PARENT
REMARK Flexibility Score: inf
ROOT
ATOM      1  C   UNL     1      14.687 -20.162  41.488  1.00  0.00     0.004 C 
ENDROOT
BRANCH   1   2
ATOM      2  C   UNL     1      14.243 -20.164  42.979  1.00  0.00    -0.009 C 
BRANCH   2   3
ATOM      3  C   UNL     1      14.216 -21.609  43.555  1.00  0.00     0.000 C 
ATOM      4  C   UNL     1      12.867 -22.097  44.089  1.00  0.00     0.004 C 
ENDBRANCH   2   3
BRANCH   2   5
ATOM      5  C   UNL     1      14.953 -19.081  43.866  1.00  0.00    -0.014 C 
ATOM      6  C   UNL     1      14.570 -17.649  43.463  1.00  0.00     0.007 C 
ATOM      7  C   UNL     1      14.802 -19.268  45.388  1.00  0.00     0.007 C 
ENDBRANCH   2   5
ENDBRANCH   1   2
BRANCH   1   8
ATOM      8  C   UNL     1      13.547 -20.317  40.454  1.00  0.00     0.004 C 
BRANCH   8   9
ATOM      9  C   UNL     1      13.727 -21.442  39.389  1.00  0.00    -0.011 C 
ATOM     10  C   UNL     1      13.800 -20.816  37.984  1.00  0.00     0.008 C 
BRANCH   9  11
ATOM     11  C   UNL     1      12.557 -22.482  39.498  1.00  0.00    -0.002 C 
ATOM     12  C   UNL     1      11.545 -22.118  40.617  1.00  0.00     0.005 C 
ATOM     13  C   UNL     1      12.910 -23.976  39.791  1.00  0.00    -0.026 C 
ATOM     14  C   UNL     1      10.993 -23.430  41.184  1.00  0.00     0.005 C 
ATOM     15  C   UNL     1      11.540 -24.507  40.253  1.00  0.00    -0.001 C 
ATOM     16  C   UNL     1      13.359 -24.802  38.545  1.00  0.00     0.007 C 
ATOM     17  C   UNL     1      13.989 -24.070  40.919  1.00  0.00     0.012 C 
ATOM     18  C   UNL     1      11.586 -25.967  40.784  1.00  0.00     0.004 C 
ATOM     19  C   UNL     1      12.719 -26.213  38.449  1.00  0.00     0.005 C 
ATOM     20  C   UNL     1      12.474 -26.890  39.834  1.00  0.00     0.003 C 
ATOM     21  C   UNL     1      10.137 -26.480  41.065  1.00  0.00     0.085 C 
ATOM     22  C   UNL     1      11.940 -28.368  39.699  1.00  0.00    -0.000 C 
ATOM     23  C   UNL     1       9.584 -27.362  39.995  1.00  0.00     0.159 C 
ATOM     24  C   UNL     1      10.467 -28.304  39.276  1.00  0.00     0.005 C 
ATOM     25  C   UNL     1      12.827 -29.251  38.730  1.00  0.00     0.020 C 
ATOM     26  C   UNL     1      12.037 -29.070  41.086  1.00  0.00     0.017 C 
ATOM     27  O   UNL     1       8.347 -27.312  39.741  1.00  0.00    -0.295 OA
ATOM     28  C   UNL     1       9.972 -29.036  38.261  1.00  0.00     0.055 C 
ATOM     29  C   UNL     1      12.293 -29.402  37.304  1.00  0.00     0.081 C 
ATOM     30  C   UNL     1      10.851 -29.764  37.350  1.00  0.00     0.156 C 
ATOM     31  O   UNL     1      10.375 -30.609  36.549  1.00  0.00    -0.295 OA
ENDBRANCH   9  11
ENDBRANCH   8   9
ENDBRANCH   1   8
TORSDOF 6
ENDMDL
MODEL 8
REMARK VINA RESULT:    -5.879      3.143      8.907
REMARK INTER + INTRA:          -9.722
REMARK INTER:                  -7.655
REMARK INTRA:                  -2.067
REMARK UNBOUND:                -1.781
REMARK SMILES CC[C@H](CC[C@H](C)[C@@H]1CC[C@@H]2[C@H]3CC(=O)C4=CC(=O)CC[C@@]4(C)[C@H]3CC[C@]21C)C(C)C
REMARK SMILES IDX 4 1 3 2 2 3 1 4 29 5 30 6 31 7 5 8 6 9 7 10 8 11 9 12 27 13
REMARK SMILES IDX 10 14 11 15 26 16 28 17 12 18 25 19 24 20 13 21 22 22 14 23
REMARK SMILES IDX 16 24 21 25 23 26 15 27 17 28 20 29 18 30 19 31
REMARK H PARENT
REMARK Flexibility Score: inf
ROOT
ATOM      1  C   UNL     1      10.055 -31.696  39.075  1.00  0.00     0.004 C 
ENDROOT
BRANCH   1   2
ATOM      2  C   UNL     1      11.082 -32.280  40.087  1.00  0.00    -0.009 C 
BRANCH   2   3
ATOM      3  C   UNL     1      12.518 -32.288  39.488  1.00  0.00     0.000 C 
ATOM      4  C   UNL     1      13.563 -31.450  40.229  1.00  0.00     0.004 C 
ENDBRANCH   2   3
BRANCH   2   5
ATOM      5  C   UNL     1      10.946 -31.715  41.545  1.00  0.00    -0.014 C 
ATOM      6  C   UNL     1       9.661 -30.895  41.739  1.00  0.00     0.007 C 
ATOM      7  C   UNL     1      11.097 -32.751  42.675  1.00  0.00     0.007 C 
ENDBRANCH   2   5
ENDBRANCH   1   2
BRANCH   1   8
ATOM      8  C   UNL     1      10.611 -30.630  38.102  1.00  0.00     0.004 C 
BRANCH   8   9
ATOM      9  C   UNL     1      10.152 -29.160  38.349  1.00  0.00    -0.011 C 
ATOM     10  C   UNL     1       8.954 -28.833  37.439  1.00  0.00     0.008 C 
BRANCH   9  11
ATOM     11  C   UNL     1      11.348 -28.174  38.107  1.00  0.00    -0.002 C 
ATOM     12  C   UNL     1      12.633 -28.906  37.638  1.00  0.00     0.005 C 
ATOM     13  C   UNL     1      11.841 -27.290  39.298  1.00  0.00    -0.026 C 
ATOM     14  C   UNL     1      13.834 -28.127  38.184  1.00  0.00     0.005 C 
ATOM     15  C   UNL     1      13.227 -26.862  38.780  1.00  0.00    -0.001 C 
ATOM     16  C   UNL     1      10.997 -26.003  39.555  1.00  0.00     0.007 C 
ATOM     17  C   UNL     1      11.939 -28.142  40.605  1.00  0.00     0.012 C 
ATOM     18  C   UNL     1      14.068 -26.080  39.828  1.00  0.00     0.004 C 
ATOM     19  C   UNL     1      11.840 -24.726  39.816  1.00  0.00     0.005 C 
ATOM     20  C   UNL     1      13.173 -24.995  40.581  1.00  0.00     0.003 C 
ATOM     21  C   UNL     1      15.376 -25.538  39.168  1.00  0.00     0.085 C 
ATOM     22  C   UNL     1      13.945 -23.668  40.939  1.00  0.00    -0.000 C 
ATOM     23  C   UNL     1      15.319 -24.092  38.798  1.00  0.00     0.159 C 
ATOM     24  C   UNL     1      14.590 -23.132  39.654  1.00  0.00     0.005 C 
ATOM     25  C   UNL     1      13.024 -22.602  41.661  1.00  0.00     0.020 C 
ATOM     26  C   UNL     1      15.067 -23.996  41.969  1.00  0.00     0.017 C 
ATOM     27  O   UNL     1      15.931 -23.702  37.763  1.00  0.00    -0.295 OA
ATOM     28  C   UNL     1      14.481 -21.848  39.268  1.00  0.00     0.055 C 
ATOM     29  C   UNL     1      12.457 -21.503  40.760  1.00  0.00     0.081 C 
ATOM     30  C   UNL     1      13.549 -20.935  39.925  1.00  0.00     0.156 C 
ATOM     31  O   UNL     1      13.611 -19.698  39.704  1.00  0.00    -0.295 OA
ENDBRANCH   9  11
ENDBRANCH   8   9
ENDBRANCH   1   8
TORSDOF 6
ENDMDL
MODEL 9
REMARK VINA RESULT:    -5.820      2.809      8.413
REMARK INTER + INTRA:          -9.642
REMARK INTER:                  -7.931
REMARK INTRA:                  -1.711
REMARK UNBOUND:                -1.781
REMARK SMILES CC[C@H](CC[C@H](C)[C@@H]1CC[C@@H]2[C@H]3CC(=O)C4=CC(=O)CC[C@@]4(C)[C@H]3CC[C@]21C)C(C)C
REMARK SMILES IDX 4 1 3 2 2 3 1 4 29 5 30 6 31 7 5 8 6 9 7 10 8 11 9 12 27 13
REMARK SMILES IDX 10 14 11 15 26 16 28 17 12 18 25 19 24 20 13 21 22 22 14 23
REMARK SMILES IDX 16 24 21 25 23 26 15 27 17 28 20 29 18 30 19 31
REMARK H PARENT
REMARK Flexibility Score: inf
ROOT
ATOM      1  C   UNL     1      13.542 -30.973  40.463  1.00  0.00     0.004 C 
ENDROOT
BRANCH   1   2
ATOM      2  C   UNL     1      12.629 -30.845  41.716  1.00  0.00    -0.009 C 
BRANCH   2   3
ATOM      3  C   UNL     1      12.979 -29.572  42.539  1.00  0.00     0.000 C 
ATOM      4  C   UNL     1      14.429 -29.088  42.450  1.00  0.00     0.004 C 
ENDBRANCH   2   3
BRANCH   2   5
ATOM      5  C   UNL     1      11.104 -31.084  41.432  1.00  0.00    -0.014 C 
ATOM      6  C   UNL     1      10.623 -32.456  41.929  1.00  0.00     0.007 C 
ATOM      7  C   UNL     1      10.155 -29.973  41.923  1.00  0.00     0.007 C 
ENDBRANCH   2   5
ENDBRANCH   1   2
BRANCH   1   8
ATOM      8  C   UNL     1      12.935 -30.447  39.141  1.00  0.00     0.004 C 
BRANCH   8   9
ATOM      9  C   UNL     1      13.509 -29.100  38.604  1.00  0.00    -0.011 C 
ATOM     10  C   UNL     1      15.038 -29.079  38.789  1.00  0.00     0.008 C 
BRANCH   9  11
ATOM     11  C   UNL     1      12.823 -27.891  39.332  1.00  0.00    -0.002 C 
ATOM     12  C   UNL     1      11.301 -27.810  39.038  1.00  0.00     0.005 C 
ATOM     13  C   UNL     1      13.335 -26.446  39.029  1.00  0.00    -0.026 C 
ATOM     14  C   UNL     1      10.906 -26.330  39.055  1.00  0.00     0.005 C 
ATOM     15  C   UNL     1      12.153 -25.609  39.554  1.00  0.00    -0.001 C 
ATOM     16  C   UNL     1      14.618 -26.026  39.811  1.00  0.00     0.007 C 
ATOM     17  C   UNL     1      13.553 -26.258  37.492  1.00  0.00     0.012 C 
ATOM     18  C   UNL     1      12.283 -24.091  39.248  1.00  0.00     0.004 C 
ATOM     19  C   UNL     1      14.561 -24.596  40.412  1.00  0.00     0.005 C 
ATOM     20  C   UNL     1      13.765 -23.576  39.539  1.00  0.00     0.003 C 
ATOM     21  C   UNL     1      11.140 -23.302  39.962  1.00  0.00     0.085 C 
ATOM     22  C   UNL     1      13.830 -22.108  40.112  1.00  0.00    -0.000 C 
ATOM     23  C   UNL     1      11.562 -22.625  41.225  1.00  0.00     0.159 C 
ATOM     24  C   UNL     1      12.913 -22.036  41.340  1.00  0.00     0.005 C 
ATOM     25  C   UNL     1      15.310 -21.637  40.415  1.00  0.00     0.020 C 
ATOM     26  C   UNL     1      13.304 -21.119  39.030  1.00  0.00     0.017 C 
ATOM     27  O   UNL     1      10.735 -22.537  42.177  1.00  0.00    -0.295 OA
ATOM     28  C   UNL     1      13.307 -21.500  42.509  1.00  0.00     0.055 C 
ATOM     29  C   UNL     1      15.751 -21.749  41.876  1.00  0.00     0.081 C 
ATOM     30  C   UNL     1      14.706 -21.162  42.756  1.00  0.00     0.156 C 
ATOM     31  O   UNL     1      15.024 -20.469  43.757  1.00  0.00    -0.295 OA
ENDBRANCH   9  11
ENDBRANCH   8   9
ENDBRANCH   1   8
TORSDOF 6
ENDMDL
