MODEL 1
REMARK VINA RESULT:    22.901      0.000      0.000
REMARK INTER + INTRA:          32.368
REMARK INTER:                  30.265
REMARK INTRA:                   2.104
REMARK UNBOUND:                 2.104
REMARK SMILES CC(C)=CCC[C@H](C(=O)[O-])[C@@H]1CC[C@@]2(C)C3=C(CC[C@@]12C)[C@]1(C)CC[C@@H](O)C(C)(C)[C@H]1CC3
REMARK SMILES IDX 6 1 7 2 8 3 9 4 10 5 11 6 12 7 20 8 13 9 14 10 19 11 21 12
REMARK SMILES IDX 15 13 16 14 18 15 17 16 33 17 22 18 32 19 31 20 24 21 23 22
REMARK SMILES IDX 28 23 25 24 26 25 29 26 30 27 27 28 5 30 4 31 2 32 1 33 3 34
REMARK H PARENT 27 29
REMARK Flexibility Score: inf
ROOT
ATOM      1  C   UNL     1       7.201 -37.735  16.608  1.00  0.00     0.014 C 
ENDROOT
BRANCH   1   2
ATOM      2  C   UNL     1       7.032 -36.448  15.752  1.00  0.00     0.039 C 
BRANCH   2   3
ATOM      3  C   UNL     1       6.524 -36.738  14.354  1.00  0.00     0.045 C 
ATOM      4  O   UNL     1       6.575 -37.901  13.874  1.00  0.00    -0.550 OA
ATOM      5  O   UNL     1       5.979 -35.718  13.588  1.00  0.00    -0.550 OA
ENDBRANCH   2   3
BRANCH   2   6
ATOM      6  C   UNL     1       8.276 -35.494  15.838  1.00  0.00     0.004 C 
ATOM      7  C   UNL     1       8.967 -35.542  17.198  1.00  0.00     0.006 C 
ATOM      8  C   UNL     1       8.219 -33.969  15.422  1.00  0.00    -0.020 C 
ATOM      9  C   UNL     1       9.935 -34.379  17.176  1.00  0.00     0.012 C 
ATOM     10  C   UNL     1       9.199 -33.231  16.452  1.00  0.00    -0.006 C 
ATOM     11  C   UNL     1       8.722 -33.809  13.956  1.00  0.00     0.012 C 
ATOM     12  C   UNL     1       6.782 -33.381  15.436  1.00  0.00     0.012 C 
ATOM     13  C   UNL     1       8.424 -32.442  17.559  1.00  0.00     0.017 C 
ATOM     14  C   UNL     1      10.275 -32.327  15.778  1.00  0.00    -0.064 C 
ATOM     15  C   UNL     1      10.241 -33.884  13.848  1.00  0.00     0.032 C 
ATOM     16  C   UNL     1      10.873 -32.736  14.611  1.00  0.00    -0.064 C 
ATOM     17  C   UNL     1      10.790 -31.108  16.547  1.00  0.00     0.032 C 
ATOM     18  C   UNL     1      12.075 -31.991  13.984  1.00  0.00    -0.008 C 
ATOM     19  C   UNL     1      11.871 -30.283  15.846  1.00  0.00     0.009 C 
ATOM     20  C   UNL     1      12.844 -31.222  15.116  1.00  0.00     0.007 C 
ATOM     21  C   UNL     1      13.066 -33.013  13.353  1.00  0.00     0.014 C 
ATOM     22  C   UNL     1      11.488 -31.079  12.876  1.00  0.00     0.016 C 
ATOM     23  C   UNL     1      14.250 -30.592  14.744  1.00  0.00    -0.006 C 
ATOM     24  C   UNL     1      14.373 -32.370  12.880  1.00  0.00     0.033 C 
ATOM     25  C   UNL     1      15.116 -31.680  14.029  1.00  0.00     0.120 C 
ATOM     26  C   UNL     1      14.155 -29.303  13.878  1.00  0.00     0.014 C 
ATOM     27  C   UNL     1      14.994 -30.209  16.055  1.00  0.00     0.014 C 
BRANCH  25  28
ATOM     28  O   UNL     1      16.303 -31.118  13.521  1.00  0.00    -0.393 OA
ATOM     29  H   UNL     1      17.027 -31.304  14.174  1.00  0.00     0.210 HD
ENDBRANCH  25  28
ENDBRANCH   2   6
ENDBRANCH   1   2
BRANCH   1  30
ATOM     30  C   UNL     1       6.024 -37.960  17.574  1.00  0.00     0.028 C 
BRANCH  30  31
ATOM     31  C   UNL     1       6.495 -38.102  19.005  1.00  0.00    -0.028 C 
ATOM     32  C   UNL     1       7.188 -37.145  19.652  1.00  0.00    -0.080 C 
ATOM     33  C   UNL     1       7.598 -35.862  18.968  1.00  0.00     0.039 C 
ATOM     34  C   UNL     1       7.569 -37.378  21.092  1.00  0.00     0.039 C 
ENDBRANCH  30  31
ENDBRANCH   1  30
TORSDOF 6
ENDMDL
