MODEL 1
REMARK VINA RESULT:    -4.434      0.000      0.000
REMARK INTER + INTRA:         -11.412
REMARK INTER:                  -8.581
REMARK INTRA:                  -2.831
REMARK UNBOUND:                -2.831
REMARK SMILES CCCCCCCCCCCCCCCCCC(=O)[O-]
REMARK SMILES IDX 10 1 11 2 12 3 13 4 14 5 15 6 16 7 17 8 18 9 19 10 20 11
REMARK SMILES IDX 9 12 8 13 7 14 6 15 5 16 4 17 3 18 2 19 1 20
REMARK H PARENT
REMARK Flexibility Score: inf
ROOT
ATOM      1  C   UNL     1      17.476 -31.738  20.879  1.00  0.00     0.000 C 
ENDROOT
BRANCH   1   2
ATOM      2  C   UNL     1      18.044 -31.472  22.283  1.00  0.00     0.000 C 
BRANCH   2   3
ATOM      3  C   UNL     1      18.231 -32.759  23.109  1.00  0.00     0.000 C 
BRANCH   3   4
ATOM      4  C   UNL     1      17.450 -32.808  24.435  1.00  0.00     0.000 C 
BRANCH   4   5
ATOM      5  C   UNL     1      16.340 -33.871  24.440  1.00  0.00     0.000 C 
BRANCH   5   6
ATOM      6  C   UNL     1      15.273 -33.558  23.385  1.00  0.00     0.000 C 
BRANCH   6   7
ATOM      7  C   UNL     1      14.236 -32.567  23.929  1.00  0.00     0.006 C 
BRANCH   7   8
ATOM      8  C   UNL     1      14.368 -31.179  23.290  1.00  0.00     0.053 C 
BRANCH   8   9
ATOM      9  C   UNL     1      13.385 -30.983  22.176  1.00  0.00     0.041 C 
ATOM     10  O   UNL     1      12.205 -30.624  22.429  1.00  0.00    -0.550 OA
ATOM     11  O   UNL     1      13.780 -31.170  20.857  1.00  0.00    -0.550 OA
ENDBRANCH   8   9
ENDBRANCH   7   8
ENDBRANCH   6   7
ENDBRANCH   5   6
ENDBRANCH   4   5
ENDBRANCH   3   4
ENDBRANCH   2   3
ENDBRANCH   1   2
BRANCH   1  12
ATOM     12  C   UNL     1      18.196 -32.886  20.146  1.00  0.00     0.000 C 
BRANCH  12  13
ATOM     13  C   UNL     1      17.327 -33.676  19.149  1.00  0.00    -0.000 C 
BRANCH  13  14
ATOM     14  C   UNL     1      15.906 -33.939  19.668  1.00  0.00    -0.000 C 
BRANCH  14  15
ATOM     15  C   UNL     1      15.763 -35.381  20.170  1.00  0.00    -0.000 C 
BRANCH  15  16
ATOM     16  C   UNL     1      16.813 -36.294  19.526  1.00  0.00    -0.000 C 
BRANCH  16  17
ATOM     17  C   UNL     1      17.641 -37.020  20.592  1.00  0.00    -0.000 C 
BRANCH  17  18
ATOM     18  C   UNL     1      17.810 -36.151  21.843  1.00  0.00    -0.000 C 
BRANCH  18  19
ATOM     19  C   UNL     1      19.190 -36.360  22.476  1.00  0.00    -0.003 C 
ATOM     20  C   UNL     1      19.072 -36.694  23.960  1.00  0.00     0.004 C 
ENDBRANCH  18  19
ENDBRANCH  17  18
ENDBRANCH  16  17
ENDBRANCH  15  16
ENDBRANCH  14  15
ENDBRANCH  13  14
ENDBRANCH  12  13
ENDBRANCH   1  12
TORSDOF 16
ENDMDL
MODEL 2
REMARK VINA RESULT:    -4.426      1.503      3.915
REMARK INTER + INTRA:         -11.397
REMARK INTER:                  -8.747
REMARK INTRA:                  -2.650
REMARK UNBOUND:                -2.831
REMARK SMILES CCCCCCCCCCCCCCCCCC(=O)[O-]
REMARK SMILES IDX 10 1 11 2 12 3 13 4 14 5 15 6 16 7 17 8 18 9 19 10 20 11
REMARK SMILES IDX 9 12 8 13 7 14 6 15 5 16 4 17 3 18 2 19 1 20
REMARK H PARENT
REMARK Flexibility Score: inf
ROOT
ATOM      1  C   UNL     1      17.646 -33.277  19.521  1.00  0.00     0.000 C 
ENDROOT
BRANCH   1   2
ATOM      2  C   UNL     1      17.468 -34.777  19.805  1.00  0.00     0.000 C 
BRANCH   2   3
ATOM      3  C   UNL     1      15.993 -35.184  19.982  1.00  0.00     0.000 C 
BRANCH   3   4
ATOM      4  C   UNL     1      15.003 -34.017  20.144  1.00  0.00     0.000 C 
BRANCH   4   5
ATOM      5  C   UNL     1      14.767 -33.628  21.611  1.00  0.00     0.000 C 
BRANCH   5   6
ATOM      6  C   UNL     1      14.516 -32.122  21.748  1.00  0.00     0.000 C 
BRANCH   6   7
ATOM      7  C   UNL     1      13.955 -31.782  23.137  1.00  0.00     0.006 C 
BRANCH   7   8
ATOM      8  C   UNL     1      14.063 -30.286  23.456  1.00  0.00     0.053 C 
BRANCH   8   9
ATOM      9  C   UNL     1      12.725 -29.612  23.423  1.00  0.00     0.041 C 
ATOM     10  O   UNL     1      11.894 -29.900  22.524  1.00  0.00    -0.550 OA
ATOM     11  O   UNL     1      12.387 -28.688  24.404  1.00  0.00    -0.550 OA
ENDBRANCH   8   9
ENDBRANCH   7   8
ENDBRANCH   6   7
ENDBRANCH   5   6
ENDBRANCH   4   5
ENDBRANCH   3   4
ENDBRANCH   2   3
ENDBRANCH   1   2
BRANCH   1  12
ATOM     12  C   UNL     1      18.275 -32.511  20.701  1.00  0.00     0.000 C 
BRANCH  12  13
ATOM     13  C   UNL     1      17.996 -30.996  20.725  1.00  0.00    -0.000 C 
BRANCH  13  14
ATOM     14  C   UNL     1      17.752 -30.452  22.141  1.00  0.00    -0.000 C 
BRANCH  14  15
ATOM     15  C   UNL     1      18.411 -31.351  23.195  1.00  0.00    -0.000 C 
BRANCH  15  16
ATOM     16  C   UNL     1      17.436 -31.665  24.336  1.00  0.00    -0.000 C 
BRANCH  16  17
ATOM     17  C   UNL     1      18.159 -32.339  25.508  1.00  0.00    -0.000 C 
BRANCH  17  18
ATOM     18  C   UNL     1      17.733 -33.806  25.646  1.00  0.00    -0.000 C 
BRANCH  18  19
ATOM     19  C   UNL     1      16.817 -34.225  24.491  1.00  0.00    -0.003 C 
ATOM     20  C   UNL     1      17.551 -35.129  23.506  1.00  0.00     0.004 C 
ENDBRANCH  18  19
ENDBRANCH  17  18
ENDBRANCH  16  17
ENDBRANCH  15  16
ENDBRANCH  14  15
ENDBRANCH  13  14
ENDBRANCH  12  13
ENDBRANCH   1  12
TORSDOF 16
ENDMDL
MODEL 3
REMARK VINA RESULT:    -4.412      2.727      5.555
REMARK INTER + INTRA:         -11.370
REMARK INTER:                  -8.486
REMARK INTRA:                  -2.884
REMARK UNBOUND:                -2.831
REMARK SMILES CCCCCCCCCCCCCCCCCC(=O)[O-]
REMARK SMILES IDX 10 1 11 2 12 3 13 4 14 5 15 6 16 7 17 8 18 9 19 10 20 11
REMARK SMILES IDX 9 12 8 13 7 14 6 15 5 16 4 17 3 18 2 19 1 20
REMARK H PARENT
REMARK Flexibility Score: inf
ROOT
ATOM      1  C   UNL     1      14.789 -33.746  19.919  1.00  0.00     0.000 C 
ENDROOT
BRANCH   1   2
ATOM      2  C   UNL     1      15.435 -35.111  20.211  1.00  0.00     0.000 C 
BRANCH   2   3
ATOM      3  C   UNL     1      16.707 -35.364  19.381  1.00  0.00     0.000 C 
BRANCH   3   4
ATOM      4  C   UNL     1      17.608 -36.504  19.889  1.00  0.00     0.000 C 
BRANCH   4   5
ATOM      5  C   UNL     1      17.990 -36.354  21.370  1.00  0.00     0.000 C 
BRANCH   5   6
ATOM      6  C   UNL     1      18.786 -35.065  21.605  1.00  0.00     0.000 C 
BRANCH   6   7
ATOM      7  C   UNL     1      18.418 -34.430  22.953  1.00  0.00     0.006 C 
BRANCH   7   8
ATOM      8  C   UNL     1      17.633 -35.393  23.853  1.00  0.00     0.053 C 
BRANCH   8   9
ATOM      9  C   UNL     1      17.687 -34.979  25.292  1.00  0.00     0.041 C 
ATOM     10  O   UNL     1      18.468 -34.063  25.658  1.00  0.00    -0.550 OA
ATOM     11  O   UNL     1      16.853 -35.585  26.223  1.00  0.00    -0.550 OA
ENDBRANCH   8   9
ENDBRANCH   7   8
ENDBRANCH   6   7
ENDBRANCH   5   6
ENDBRANCH   4   5
ENDBRANCH   3   4
ENDBRANCH   2   3
ENDBRANCH   1   2
BRANCH   1  12
ATOM     12  C   UNL     1      14.413 -32.973  21.198  1.00  0.00     0.000 C 
BRANCH  12  13
ATOM     13  C   UNL     1      14.936 -33.583  22.512  1.00  0.00    -0.000 C 
BRANCH  13  14
ATOM     14  C   UNL     1      14.648 -32.704  23.739  1.00  0.00    -0.000 C 
BRANCH  14  15
ATOM     15  C   UNL     1      15.185 -31.282  23.533  1.00  0.00    -0.000 C 
BRANCH  15  16
ATOM     16  C   UNL     1      16.696 -31.223  23.784  1.00  0.00    -0.000 C 
BRANCH  16  17
ATOM     17  C   UNL     1      17.384 -30.284  22.787  1.00  0.00    -0.000 C 
BRANCH  17  18
ATOM     18  C   UNL     1      16.894 -30.544  21.357  1.00  0.00    -0.000 C 
BRANCH  18  19
ATOM     19  C   UNL     1      17.805 -31.544  20.637  1.00  0.00    -0.003 C 
ATOM     20  C   UNL     1      19.266 -31.338  21.025  1.00  0.00     0.004 C 
ENDBRANCH  18  19
ENDBRANCH  17  18
ENDBRANCH  16  17
ENDBRANCH  15  16
ENDBRANCH  14  15
ENDBRANCH  13  14
ENDBRANCH  12  13
ENDBRANCH   1  12
TORSDOF 16
ENDMDL
MODEL 4
REMARK VINA RESULT:    -4.394      4.717      6.717
REMARK INTER + INTRA:         -11.335
REMARK INTER:                  -9.152
REMARK INTRA:                  -2.183
REMARK UNBOUND:                -2.831
REMARK SMILES CCCCCCCCCCCCCCCCCC(=O)[O-]
REMARK SMILES IDX 10 1 11 2 12 3 13 4 14 5 15 6 16 7 17 8 18 9 19 10 20 11
REMARK SMILES IDX 9 12 8 13 7 14 6 15 5 16 4 17 3 18 2 19 1 20
REMARK H PARENT
REMARK Flexibility Score: inf
ROOT
ATOM      1  C   UNL     1      15.978 -29.843  23.288  1.00  0.00     0.000 C 
ENDROOT
BRANCH   1   2
ATOM      2  C   UNL     1      16.259 -29.547  21.806  1.00  0.00     0.000 C 
BRANCH   2   3
ATOM      3  C   UNL     1      17.349 -30.457  21.208  1.00  0.00     0.000 C 
BRANCH   3   4
ATOM      4  C   UNL     1      18.763 -29.850  21.165  1.00  0.00     0.000 C 
BRANCH   4   5
ATOM      5  C   UNL     1      18.780 -28.401  20.656  1.00  0.00     0.000 C 
BRANCH   5   6
ATOM      6  C   UNL     1      20.192 -27.809  20.729  1.00  0.00     0.000 C 
BRANCH   6   7
ATOM      7  C   UNL     1      20.144 -26.316  21.084  1.00  0.00     0.006 C 
BRANCH   7   8
ATOM      8  C   UNL     1      20.799 -25.441  20.007  1.00  0.00     0.053 C 
BRANCH   8   9
ATOM      9  C   UNL     1      22.294 -25.471  20.099  1.00  0.00     0.041 C 
ATOM     10  O   UNL     1      22.993 -25.453  19.053  1.00  0.00    -0.550 OA
ATOM     11  O   UNL     1      22.915 -25.488  21.342  1.00  0.00    -0.550 OA
ENDBRANCH   8   9
ENDBRANCH   7   8
ENDBRANCH   6   7
ENDBRANCH   5   6
ENDBRANCH   4   5
ENDBRANCH   3   4
ENDBRANCH   2   3
ENDBRANCH   1   2
BRANCH   1  12
ATOM     12  C   UNL     1      14.501 -30.185  23.564  1.00  0.00     0.000 C 
BRANCH  12  13
ATOM     13  C   UNL     1      13.570 -30.111  22.340  1.00  0.00    -0.000 C 
BRANCH  13  14
ATOM     14  C   UNL     1      13.060 -31.488  21.888  1.00  0.00    -0.000 C 
BRANCH  14  15
ATOM     15  C   UNL     1      13.597 -31.842  20.496  1.00  0.00    -0.000 C 
BRANCH  15  16
ATOM     16  C   UNL     1      14.368 -33.167  20.525  1.00  0.00    -0.000 C 
BRANCH  16  17
ATOM     17  C   UNL     1      14.778 -33.535  21.955  1.00  0.00    -0.000 C 
BRANCH  17  18
ATOM     18  C   UNL     1      16.244 -33.981  22.009  1.00  0.00    -0.000 C 
BRANCH  18  19
ATOM     19  C   UNL     1      16.920 -33.495  23.295  1.00  0.00    -0.003 C 
ATOM     20  C   UNL     1      15.944 -33.500  24.468  1.00  0.00     0.004 C 
ENDBRANCH  18  19
ENDBRANCH  17  18
ENDBRANCH  16  17
ENDBRANCH  15  16
ENDBRANCH  14  15
ENDBRANCH  13  14
ENDBRANCH  12  13
ENDBRANCH   1  12
TORSDOF 16
ENDMDL
MODEL 5
REMARK VINA RESULT:    -4.362      4.830      6.667
REMARK INTER + INTRA:         -11.273
REMARK INTER:                  -9.370
REMARK INTRA:                  -1.903
REMARK UNBOUND:                -2.831
REMARK SMILES CCCCCCCCCCCCCCCCCC(=O)[O-]
REMARK SMILES IDX 10 1 11 2 12 3 13 4 14 5 15 6 16 7 17 8 18 9 19 10 20 11
REMARK SMILES IDX 9 12 8 13 7 14 6 15 5 16 4 17 3 18 2 19 1 20
REMARK H PARENT
REMARK Flexibility Score: inf
ROOT
ATOM      1  C   UNL     1      18.577 -32.343  20.799  1.00  0.00     0.000 C 
ENDROOT
BRANCH   1   2
ATOM      2  C   UNL     1      17.918 -30.973  20.566  1.00  0.00     0.000 C 
BRANCH   2   3
ATOM      3  C   UNL     1      18.511 -29.862  21.453  1.00  0.00     0.000 C 
BRANCH   3   4
ATOM      4  C   UNL     1      20.039 -29.912  21.636  1.00  0.00     0.000 C 
BRANCH   4   5
ATOM      5  C   UNL     1      20.779 -28.854  20.803  1.00  0.00     0.000 C 
BRANCH   5   6
ATOM      6  C   UNL     1      19.980 -27.547  20.739  1.00  0.00     0.000 C 
BRANCH   6   7
ATOM      7  C   UNL     1      20.848 -26.351  21.157  1.00  0.00     0.006 C 
BRANCH   7   8
ATOM      8  C   UNL     1      21.166 -25.424  19.977  1.00  0.00     0.053 C 
BRANCH   8   9
ATOM      9  C   UNL     1      22.619 -25.467  19.612  1.00  0.00     0.041 C 
ATOM     10  O   UNL     1      23.263 -26.544  19.707  1.00  0.00    -0.550 OA
ATOM     11  O   UNL     1      23.252 -24.324  19.140  1.00  0.00    -0.550 OA
ENDBRANCH   8   9
ENDBRANCH   7   8
ENDBRANCH   6   7
ENDBRANCH   5   6
ENDBRANCH   4   5
ENDBRANCH   3   4
ENDBRANCH   2   3
ENDBRANCH   1   2
BRANCH   1  12
ATOM     12  C   UNL     1      18.018 -33.444  19.877  1.00  0.00     0.000 C 
BRANCH  12  13
ATOM     13  C   UNL     1      17.725 -34.791  20.564  1.00  0.00    -0.000 C 
BRANCH  13  14
ATOM     14  C   UNL     1      16.225 -35.110  20.649  1.00  0.00    -0.000 C 
BRANCH  14  15
ATOM     15  C   UNL     1      15.394 -34.024  19.956  1.00  0.00    -0.000 C 
BRANCH  15  16
ATOM     16  C   UNL     1      14.590 -33.211  20.977  1.00  0.00    -0.000 C 
BRANCH  16  17
ATOM     17  C   UNL     1      15.025 -33.540  22.409  1.00  0.00    -0.000 C 
BRANCH  17  18
ATOM     18  C   UNL     1      14.622 -32.421  23.378  1.00  0.00    -0.000 C 
BRANCH  18  19
ATOM     19  C   UNL     1      15.732 -31.372  23.499  1.00  0.00    -0.003 C 
ATOM     20  C   UNL     1      16.975 -31.957  24.163  1.00  0.00     0.004 C 
ENDBRANCH  18  19
ENDBRANCH  17  18
ENDBRANCH  16  17
ENDBRANCH  15  16
ENDBRANCH  14  15
ENDBRANCH  13  14
ENDBRANCH  12  13
ENDBRANCH   1  12
TORSDOF 16
ENDMDL
MODEL 6
REMARK VINA RESULT:    -4.348      2.425      5.611
REMARK INTER + INTRA:         -11.246
REMARK INTER:                  -8.429
REMARK INTRA:                  -2.817
REMARK UNBOUND:                -2.831
REMARK SMILES CCCCCCCCCCCCCCCCCC(=O)[O-]
REMARK SMILES IDX 10 1 11 2 12 3 13 4 14 5 15 6 16 7 17 8 18 9 19 10 20 11
REMARK SMILES IDX 9 12 8 13 7 14 6 15 5 16 4 17 3 18 2 19 1 20
REMARK H PARENT
REMARK Flexibility Score: inf
ROOT
ATOM      1  C   UNL     1      16.015 -33.795  20.136  1.00  0.00     0.000 C 
ENDROOT
BRANCH   1   2
ATOM      2  C   UNL     1      15.821 -35.319  20.186  1.00  0.00     0.000 C 
BRANCH   2   3
ATOM      3  C   UNL     1      16.869 -36.087  19.358  1.00  0.00     0.000 C 
BRANCH   3   4
ATOM      4  C   UNL     1      17.791 -37.018  20.165  1.00  0.00     0.000 C 
BRANCH   4   5
ATOM      5  C   UNL     1      17.824 -36.681  21.664  1.00  0.00     0.000 C 
BRANCH   5   6
ATOM      6  C   UNL     1      19.040 -35.812  22.007  1.00  0.00     0.000 C 
BRANCH   6   7
ATOM      7  C   UNL     1      18.754 -34.922  23.225  1.00  0.00     0.006 C 
BRANCH   7   8
ATOM      8  C   UNL     1      17.258 -34.860  23.560  1.00  0.00     0.053 C 
BRANCH   8   9
ATOM      9  C   UNL     1      17.014 -34.947  25.036  1.00  0.00     0.041 C 
ATOM     10  O   UNL     1      16.565 -33.952  25.662  1.00  0.00    -0.550 OA
ATOM     11  O   UNL     1      17.254 -36.136  25.712  1.00  0.00    -0.550 OA
ENDBRANCH   8   9
ENDBRANCH   7   8
ENDBRANCH   6   7
ENDBRANCH   5   6
ENDBRANCH   4   5
ENDBRANCH   3   4
ENDBRANCH   2   3
ENDBRANCH   1   2
BRANCH   1  12
ATOM     12  C   UNL     1      17.365 -33.381  19.518  1.00  0.00     0.000 C 
BRANCH  12  13
ATOM     13  C   UNL     1      18.298 -32.585  20.450  1.00  0.00    -0.000 C 
BRANCH  13  14
ATOM     14  C   UNL     1      17.739 -31.204  20.824  1.00  0.00    -0.000 C 
BRANCH  14  15
ATOM     15  C   UNL     1      17.797 -30.980  22.340  1.00  0.00    -0.000 C 
BRANCH  15  16
ATOM     16  C   UNL     1      16.452 -31.314  22.996  1.00  0.00    -0.000 C 
BRANCH  16  17
ATOM     17  C   UNL     1      15.582 -30.060  23.138  1.00  0.00    -0.000 C 
BRANCH  17  18
ATOM     18  C   UNL     1      14.092 -30.422  23.153  1.00  0.00    -0.000 C 
BRANCH  18  19
ATOM     19  C   UNL     1      13.833 -31.717  22.375  1.00  0.00    -0.003 C 
ATOM     20  C   UNL     1      13.316 -31.423  20.970  1.00  0.00     0.004 C 
ENDBRANCH  18  19
ENDBRANCH  17  18
ENDBRANCH  16  17
ENDBRANCH  15  16
ENDBRANCH  14  15
ENDBRANCH  13  14
ENDBRANCH  12  13
ENDBRANCH   1  12
TORSDOF 16
ENDMDL
MODEL 7
REMARK VINA RESULT:    -4.348      4.088      6.117
REMARK INTER + INTRA:         -11.246
REMARK INTER:                  -9.309
REMARK INTRA:                  -1.937
REMARK UNBOUND:                -2.831
REMARK SMILES CCCCCCCCCCCCCCCCCC(=O)[O-]
REMARK SMILES IDX 10 1 11 2 12 3 13 4 14 5 15 6 16 7 17 8 18 9 19 10 20 11
REMARK SMILES IDX 9 12 8 13 7 14 6 15 5 16 4 17 3 18 2 19 1 20
REMARK H PARENT
REMARK Flexibility Score: inf
ROOT
ATOM      1  C   UNL     1      16.908 -30.732  22.624  1.00  0.00     0.000 C 
ENDROOT
BRANCH   1   2
ATOM      2  C   UNL     1      17.420 -31.066  21.213  1.00  0.00     0.000 C 
BRANCH   2   3
ATOM      3  C   UNL     1      18.947 -30.917  21.076  1.00  0.00     0.000 C 
BRANCH   3   4
ATOM      4  C   UNL     1      19.704 -30.670  22.394  1.00  0.00     0.000 C 
BRANCH   4   5
ATOM      5  C   UNL     1      20.869 -29.680  22.241  1.00  0.00     0.000 C 
BRANCH   5   6
ATOM      6  C   UNL     1      20.935 -29.123  20.814  1.00  0.00     0.000 C 
BRANCH   6   7
ATOM      7  C   UNL     1      21.375 -27.652  20.817  1.00  0.00     0.006 C 
BRANCH   7   8
ATOM      8  C   UNL     1      20.198 -26.693  20.603  1.00  0.00     0.053 C 
BRANCH   8   9
ATOM      9  C   UNL     1      20.444 -25.358  21.236  1.00  0.00     0.041 C 
ATOM     10  O   UNL     1      19.628 -24.896  22.075  1.00  0.00    -0.550 OA
ATOM     11  O   UNL     1      21.590 -24.639  20.921  1.00  0.00    -0.550 OA
ENDBRANCH   8   9
ENDBRANCH   7   8
ENDBRANCH   6   7
ENDBRANCH   5   6
ENDBRANCH   4   5
ENDBRANCH   3   4
ENDBRANCH   2   3
ENDBRANCH   1   2
BRANCH   1  12
ATOM     12  C   UNL     1      15.795 -29.666  22.624  1.00  0.00     0.000 C 
BRANCH  12  13
ATOM     13  C   UNL     1      14.436 -30.136  23.175  1.00  0.00    -0.000 C 
BRANCH  13  14
ATOM     14  C   UNL     1      14.088 -31.577  22.770  1.00  0.00    -0.000 C 
BRANCH  14  15
ATOM     15  C   UNL     1      13.656 -31.645  21.301  1.00  0.00    -0.000 C 
BRANCH  15  16
ATOM     16  C   UNL     1      14.212 -32.901  20.621  1.00  0.00    -0.000 C 
BRANCH  16  17
ATOM     17  C   UNL     1      14.937 -33.799  21.630  1.00  0.00    -0.000 C 
BRANCH  17  18
ATOM     18  C   UNL     1      16.067 -34.584  20.956  1.00  0.00    -0.000 C 
BRANCH  18  19
ATOM     19  C   UNL     1      16.128 -34.283  19.455  1.00  0.00    -0.003 C 
ATOM     20  C   UNL     1      17.556 -33.977  19.011  1.00  0.00     0.004 C 
ENDBRANCH  18  19
ENDBRANCH  17  18
ENDBRANCH  16  17
ENDBRANCH  15  16
ENDBRANCH  14  15
ENDBRANCH  13  14
ENDBRANCH  12  13
ENDBRANCH   1  12
TORSDOF 16
ENDMDL
MODEL 8
REMARK VINA RESULT:    -4.340      2.483      4.804
REMARK INTER + INTRA:         -11.231
REMARK INTER:                  -8.463
REMARK INTRA:                  -2.768
REMARK UNBOUND:                -2.831
REMARK SMILES CCCCCCCCCCCCCCCCCC(=O)[O-]
REMARK SMILES IDX 10 1 11 2 12 3 13 4 14 5 15 6 16 7 17 8 18 9 19 10 20 11
REMARK SMILES IDX 9 12 8 13 7 14 6 15 5 16 4 17 3 18 2 19 1 20
REMARK H PARENT
REMARK Flexibility Score: inf
ROOT
ATOM      1  C   UNL     1      15.948 -29.428  22.130  1.00  0.00     0.000 C 
ENDROOT
BRANCH   1   2
ATOM      2  C   UNL     1      15.447 -30.109  23.414  1.00  0.00     0.000 C 
BRANCH   2   3
ATOM      3  C   UNL     1      14.305 -31.110  23.158  1.00  0.00     0.000 C 
BRANCH   3   4
ATOM      4  C   UNL     1      13.357 -30.744  22.001  1.00  0.00     0.000 C 
BRANCH   4   5
ATOM      5  C   UNL     1      13.494 -31.682  20.792  1.00  0.00     0.000 C 
BRANCH   5   6
ATOM      6  C   UNL     1      14.255 -32.958  21.169  1.00  0.00     0.000 C 
BRANCH   6   7
ATOM      7  C   UNL     1      14.826 -33.647  19.921  1.00  0.00     0.006 C 
BRANCH   7   8
ATOM      8  C   UNL     1      15.346 -35.058  20.223  1.00  0.00     0.053 C 
BRANCH   8   9
ATOM      9  C   UNL     1      16.582 -35.376  19.437  1.00  0.00     0.041 C 
ATOM     10  O   UNL     1      16.920 -36.574  19.248  1.00  0.00    -0.550 OA
ATOM     11  O   UNL     1      17.343 -34.351  18.891  1.00  0.00    -0.550 OA
ENDBRANCH   8   9
ENDBRANCH   7   8
ENDBRANCH   6   7
ENDBRANCH   5   6
ENDBRANCH   4   5
ENDBRANCH   3   4
ENDBRANCH   2   3
ENDBRANCH   1   2
BRANCH   1  12
ATOM     12  C   UNL     1      17.373 -29.862  21.736  1.00  0.00     0.000 C 
BRANCH  12  13
ATOM     13  C   UNL     1      17.458 -31.138  20.878  1.00  0.00    -0.000 C 
BRANCH  13  14
ATOM     14  C   UNL     1      18.815 -31.848  20.989  1.00  0.00    -0.000 C 
BRANCH  14  15
ATOM     15  C   UNL     1      19.827 -30.981  21.748  1.00  0.00    -0.000 C 
BRANCH  15  16
ATOM     16  C   UNL     1      20.114 -31.558  23.139  1.00  0.00    -0.000 C 
BRANCH  16  17
ATOM     17  C   UNL     1      19.376 -32.886  23.347  1.00  0.00    -0.000 C 
BRANCH  17  18
ATOM     18  C   UNL     1      18.309 -32.757  24.440  1.00  0.00    -0.000 C 
BRANCH  18  19
ATOM     19  C   UNL     1      17.010 -33.457  24.026  1.00  0.00    -0.003 C 
ATOM     20  C   UNL     1      17.297 -34.737  23.246  1.00  0.00     0.004 C 
ENDBRANCH  18  19
ENDBRANCH  17  18
ENDBRANCH  16  17
ENDBRANCH  15  16
ENDBRANCH  14  15
ENDBRANCH  13  14
ENDBRANCH  12  13
ENDBRANCH   1  12
TORSDOF 16
ENDMDL
MODEL 9
REMARK VINA RESULT:    -4.308      0.952      3.379
REMARK INTER + INTRA:         -11.169
REMARK INTER:                  -8.470
REMARK INTRA:                  -2.698
REMARK UNBOUND:                -2.831
REMARK SMILES CCCCCCCCCCCCCCCCCC(=O)[O-]
REMARK SMILES IDX 10 1 11 2 12 3 13 4 14 5 15 6 16 7 17 8 18 9 19 10 20 11
REMARK SMILES IDX 9 12 8 13 7 14 6 15 5 16 4 17 3 18 2 19 1 20
REMARK H PARENT
REMARK Flexibility Score: inf
ROOT
ATOM      1  C   UNL     1      18.370 -36.583  21.874  1.00  0.00     0.000 C 
ENDROOT
BRANCH   1   2
ATOM      2  C   UNL     1      19.184 -35.317  22.186  1.00  0.00     0.000 C 
BRANCH   2   3
ATOM      3  C   UNL     1      18.555 -34.456  23.298  1.00  0.00     0.000 C 
BRANCH   3   4
ATOM      4  C   UNL     1      17.226 -34.987  23.867  1.00  0.00     0.000 C 
BRANCH   4   5
ATOM      5  C   UNL     1      16.319 -33.874  24.414  1.00  0.00     0.000 C 
BRANCH   5   6
ATOM      6  C   UNL     1      15.326 -33.399  23.347  1.00  0.00     0.000 C 
BRANCH   6   7
ATOM      7  C   UNL     1      14.229 -32.523  23.968  1.00  0.00     0.006 C 
BRANCH   7   8
ATOM      8  C   UNL     1      14.241 -31.095  23.408  1.00  0.00     0.053 C 
BRANCH   8   9
ATOM      9  C   UNL     1      13.350 -30.959  22.210  1.00  0.00     0.041 C 
ATOM     10  O   UNL     1      13.785 -31.240  21.063  1.00  0.00    -0.550 OA
ATOM     11  O   UNL     1      12.032 -30.549  22.366  1.00  0.00    -0.550 OA
ENDBRANCH   8   9
ENDBRANCH   7   8
ENDBRANCH   6   7
ENDBRANCH   5   6
ENDBRANCH   4   5
ENDBRANCH   3   4
ENDBRANCH   2   3
ENDBRANCH   1   2
BRANCH   1  12
ATOM     12  C   UNL     1      17.925 -36.665  20.401  1.00  0.00     0.000 C 
BRANCH  12  13
ATOM     13  C   UNL     1      16.509 -36.131  20.113  1.00  0.00    -0.000 C 
BRANCH  13  14
ATOM     14  C   UNL     1      16.511 -34.848  19.268  1.00  0.00    -0.000 C 
BRANCH  14  15
ATOM     15  C   UNL     1      16.541 -33.602  20.162  1.00  0.00    -0.000 C 
BRANCH  15  16
ATOM     16  C   UNL     1      17.859 -32.837  19.996  1.00  0.00    -0.000 C 
BRANCH  16  17
ATOM     17  C   UNL     1      17.830 -31.515  20.770  1.00  0.00    -0.000 C 
BRANCH  17  18
ATOM     18  C   UNL     1      19.249 -31.055  21.128  1.00  0.00    -0.000 C 
BRANCH  18  19
ATOM     19  C   UNL     1      19.353 -30.697  22.614  1.00  0.00    -0.003 C 
ATOM     20  C   UNL     1      17.989 -30.761  23.294  1.00  0.00     0.004 C 
ENDBRANCH  18  19
ENDBRANCH  17  18
ENDBRANCH  16  17
ENDBRANCH  15  16
ENDBRANCH  14  15
ENDBRANCH  13  14
ENDBRANCH  12  13
ENDBRANCH   1  12
TORSDOF 16
ENDMDL
