MODEL 1
REMARK VINA RESULT:    -5.524      0.000      0.000
REMARK INTER + INTRA:         -10.995
REMARK INTER:                 -10.045
REMARK INTRA:                  -0.950
REMARK UNBOUND:                -0.950
REMARK SMILES CCCCCCCCCCCCCC[C@@H](C)C(=O)[O-]
REMARK SMILES IDX 9 1 10 2 11 3 12 4 13 5 14 6 15 7 16 8 17 9 18 10 19 11 8 12
REMARK SMILES IDX 7 13 6 14 5 15 4 16 3 17 2 18 1 19
REMARK H PARENT
REMARK Flexibility Score: inf
ROOT
ATOM      1  C   UNL     1      45.057  35.580  13.114  1.00  0.00     0.000 C 
ENDROOT
BRANCH   1   2
ATOM      2  C   UNL     1      46.543  35.668  12.728  1.00  0.00     0.000 C 
BRANCH   2   3
ATOM      3  C   UNL     1      47.050  34.405  12.010  1.00  0.00     0.000 C 
BRANCH   3   4
ATOM      4  C   UNL     1      48.457  33.936  12.430  1.00  0.00     0.000 C 
BRANCH   4   5
ATOM      5  C   UNL     1      48.784  34.194  13.916  1.00  0.00     0.001 C 
BRANCH   5   6
ATOM      6  C   UNL     1      48.193  33.111  14.837  1.00  0.00     0.009 C 
BRANCH   6   7
ATOM      7  C   UNL     1      48.555  33.328  16.321  1.00  0.00     0.032 C 
ATOM      8  C   UNL     1      47.528  34.212  17.045  1.00  0.00     0.014 C 
BRANCH   7   9
ATOM      9  C   UNL     1      48.650  31.998  17.018  1.00  0.00     0.044 C 
ATOM     10  O   UNL     1      47.859  31.718  17.957  1.00  0.00    -0.550 OA
ATOM     11  O   UNL     1      49.621  31.077  16.643  1.00  0.00    -0.550 OA
ENDBRANCH   7   9
ENDBRANCH   6   7
ENDBRANCH   5   6
ENDBRANCH   4   5
ENDBRANCH   3   4
ENDBRANCH   2   3
ENDBRANCH   1   2
BRANCH   1  12
ATOM     12  C   UNL     1      44.165  36.497  12.260  1.00  0.00     0.000 C 
BRANCH  12  13
ATOM     13  C   UNL     1      42.677  36.530  12.665  1.00  0.00    -0.000 C 
BRANCH  13  14
ATOM     14  C   UNL     1      41.696  36.905  11.540  1.00  0.00    -0.000 C 
BRANCH  14  15
ATOM     15  C   UNL     1      41.906  36.074  10.262  1.00  0.00    -0.000 C 
BRANCH  15  16
ATOM     16  C   UNL     1      40.801  35.026  10.041  1.00  0.00    -0.000 C 
BRANCH  16  17
ATOM     17  C   UNL     1      39.360  35.569  10.094  1.00  0.00    -0.000 C 
BRANCH  17  18
ATOM     18  C   UNL     1      38.504  34.895  11.176  1.00  0.00    -0.003 C 
ATOM     19  C   UNL     1      39.373  34.116  12.157  1.00  0.00     0.004 C 
ENDBRANCH  17  18
ENDBRANCH  16  17
ENDBRANCH  15  16
ENDBRANCH  14  15
ENDBRANCH  13  14
ENDBRANCH  12  13
ENDBRANCH   1  12
TORSDOF 14
ENDMDL
MODEL 2
REMARK VINA RESULT:    -5.422      3.842      8.493
REMARK INTER + INTRA:         -10.809
REMARK INTER:                  -9.523
REMARK INTRA:                  -1.286
REMARK UNBOUND:                -0.950
REMARK SMILES CCCCCCCCCCCCCC[C@@H](C)C(=O)[O-]
REMARK SMILES IDX 9 1 10 2 11 3 12 4 13 5 14 6 15 7 16 8 17 9 18 10 19 11 8 12
REMARK SMILES IDX 7 13 6 14 5 15 4 16 3 17 2 18 1 19
REMARK H PARENT
REMARK Flexibility Score: inf
ROOT
ATOM      1  C   UNL     1      48.415  33.416  14.494  1.00  0.00     0.000 C 
ENDROOT
BRANCH   1   2
ATOM      2  C   UNL     1      48.507  34.406  13.322  1.00  0.00     0.000 C 
BRANCH   2   3
ATOM      3  C   UNL     1      47.212  34.475  12.494  1.00  0.00     0.000 C 
BRANCH   3   4
ATOM      4  C   UNL     1      46.441  35.806  12.598  1.00  0.00     0.000 C 
BRANCH   4   5
ATOM      5  C   UNL     1      45.035  35.667  13.221  1.00  0.00     0.001 C 
BRANCH   5   6
ATOM      6  C   UNL     1      43.917  35.879  12.184  1.00  0.00     0.009 C 
BRANCH   6   7
ATOM      7  C   UNL     1      43.139  37.193  12.407  1.00  0.00     0.032 C 
ATOM      8  C   UNL     1      43.104  38.068  11.145  1.00  0.00     0.014 C 
BRANCH   7   9
ATOM      9  C   UNL     1      41.732  36.880  12.838  1.00  0.00     0.044 C 
ATOM     10  O   UNL     1      41.162  37.593  13.707  1.00  0.00    -0.550 OA
ATOM     11  O   UNL     1      41.058  35.792  12.296  1.00  0.00    -0.550 OA
ENDBRANCH   7   9
ENDBRANCH   6   7
ENDBRANCH   5   6
ENDBRANCH   4   5
ENDBRANCH   3   4
ENDBRANCH   2   3
ENDBRANCH   1   2
BRANCH   1  12
ATOM     12  C   UNL     1      47.518  33.927  15.635  1.00  0.00     0.000 C 
BRANCH  12  13
ATOM     13  C   UNL     1      48.172  33.933  17.033  1.00  0.00    -0.000 C 
BRANCH  13  14
ATOM     14  C   UNL     1      48.840  32.611  17.452  1.00  0.00    -0.000 C 
BRANCH  14  15
ATOM     15  C   UNL     1      47.883  31.671  18.206  1.00  0.00    -0.000 C 
BRANCH  15  16
ATOM     16  C   UNL     1      47.820  30.261  17.590  1.00  0.00    -0.000 C 
BRANCH  16  17
ATOM     17  C   UNL     1      47.510  30.216  16.082  1.00  0.00    -0.000 C 
BRANCH  17  18
ATOM     18  C   UNL     1      48.497  29.344  15.293  1.00  0.00    -0.003 C 
ATOM     19  C   UNL     1      49.938  29.644  15.694  1.00  0.00     0.004 C 
ENDBRANCH  17  18
ENDBRANCH  16  17
ENDBRANCH  15  16
ENDBRANCH  14  15
ENDBRANCH  13  14
ENDBRANCH  12  13
ENDBRANCH   1  12
TORSDOF 14
ENDMDL
MODEL 3
REMARK VINA RESULT:    -5.267      1.970      4.664
REMARK INTER + INTRA:         -10.528
REMARK INTER:                  -9.279
REMARK INTRA:                  -1.249
REMARK UNBOUND:                -0.950
REMARK SMILES CCCCCCCCCCCCCC[C@@H](C)C(=O)[O-]
REMARK SMILES IDX 9 1 10 2 11 3 12 4 13 5 14 6 15 7 16 8 17 9 18 10 19 11 8 12
REMARK SMILES IDX 7 13 6 14 5 15 4 16 3 17 2 18 1 19
REMARK H PARENT
REMARK Flexibility Score: inf
ROOT
ATOM      1  C   UNL     1      47.210  33.825  15.206  1.00  0.00     0.000 C 
ENDROOT
BRANCH   1   2
ATOM      2  C   UNL     1      47.481  33.998  16.710  1.00  0.00     0.000 C 
BRANCH   2   3
ATOM      3  C   UNL     1      48.970  34.215  17.028  1.00  0.00     0.000 C 
BRANCH   3   4
ATOM      4  C   UNL     1      49.644  33.073  17.813  1.00  0.00     0.000 C 
BRANCH   4   5
ATOM      5  C   UNL     1      48.844  31.753  17.804  1.00  0.00     0.001 C 
BRANCH   5   6
ATOM      6  C   UNL     1      49.474  30.699  16.874  1.00  0.00     0.009 C 
BRANCH   6   7
ATOM      7  C   UNL     1      48.490  29.569  16.501  1.00  0.00     0.032 C 
ATOM      8  C   UNL     1      47.308  30.083  15.665  1.00  0.00     0.014 C 
BRANCH   7   9
ATOM      9  C   UNL     1      49.217  28.499  15.735  1.00  0.00     0.044 C 
ATOM     10  O   UNL     1      50.476  28.492  15.697  1.00  0.00    -0.550 OA
ATOM     11  O   UNL     1      48.507  27.521  15.048  1.00  0.00    -0.550 OA
ENDBRANCH   7   9
ENDBRANCH   6   7
ENDBRANCH   5   6
ENDBRANCH   4   5
ENDBRANCH   3   4
ENDBRANCH   2   3
ENDBRANCH   1   2
BRANCH   1  12
ATOM     12  C   UNL     1      48.495  33.872  14.361  1.00  0.00     0.000 C 
BRANCH  12  13
ATOM     13  C   UNL     1      48.356  34.566  12.991  1.00  0.00    -0.000 C 
BRANCH  13  14
ATOM     14  C   UNL     1      46.933  34.584  12.403  1.00  0.00    -0.000 C 
BRANCH  14  15
ATOM     15  C   UNL     1      46.200  35.914  12.651  1.00  0.00    -0.000 C 
BRANCH  15  16
ATOM     16  C   UNL     1      44.697  35.728  12.924  1.00  0.00    -0.000 C 
BRANCH  16  17
ATOM     17  C   UNL     1      43.766  36.679  12.148  1.00  0.00    -0.000 C 
BRANCH  17  18
ATOM     18  C   UNL     1      42.337  36.135  12.004  1.00  0.00    -0.003 C 
ATOM     19  C   UNL     1      41.881  36.164  10.549  1.00  0.00     0.004 C 
ENDBRANCH  17  18
ENDBRANCH  16  17
ENDBRANCH  15  16
ENDBRANCH  14  15
ENDBRANCH  13  14
ENDBRANCH  12  13
ENDBRANCH   1  12
TORSDOF 14
ENDMDL
MODEL 4
REMARK VINA RESULT:    -5.221      3.783      8.717
REMARK INTER + INTRA:         -10.445
REMARK INTER:                  -9.226
REMARK INTRA:                  -1.218
REMARK UNBOUND:                -0.950
REMARK SMILES CCCCCCCCCCCCCC[C@@H](C)C(=O)[O-]
REMARK SMILES IDX 9 1 10 2 11 3 12 4 13 5 14 6 15 7 16 8 17 9 18 10 19 11 8 12
REMARK SMILES IDX 7 13 6 14 5 15 4 16 3 17 2 18 1 19
REMARK H PARENT
REMARK Flexibility Score: inf
ROOT
ATOM      1  C   UNL     1      44.841  35.973  13.120  1.00  0.00     0.000 C 
ENDROOT
BRANCH   1   2
ATOM      2  C   UNL     1      43.437  36.174  12.525  1.00  0.00     0.000 C 
BRANCH   2   3
ATOM      3  C   UNL     1      43.238  37.576  11.922  1.00  0.00     0.000 C 
BRANCH   3   4
ATOM      4  C   UNL     1      42.544  37.603  10.546  1.00  0.00     0.000 C 
BRANCH   4   5
ATOM      5  C   UNL     1      41.625  36.390  10.286  1.00  0.00     0.001 C 
BRANCH   5   6
ATOM      6  C   UNL     1      40.134  36.770  10.338  1.00  0.00     0.009 C 
BRANCH   6   7
ATOM      7  C   UNL     1      39.409  36.173  11.563  1.00  0.00     0.032 C 
ATOM      8  C   UNL     1      39.964  34.793  11.948  1.00  0.00     0.014 C 
BRANCH   7   9
ATOM      9  C   UNL     1      39.540  37.109  12.734  1.00  0.00     0.044 C 
ATOM     10  O   UNL     1      39.048  38.267  12.677  1.00  0.00    -0.550 OA
ATOM     11  O   UNL     1      40.221  36.710  13.878  1.00  0.00    -0.550 OA
ENDBRANCH   7   9
ENDBRANCH   6   7
ENDBRANCH   5   6
ENDBRANCH   4   5
ENDBRANCH   3   4
ENDBRANCH   2   3
ENDBRANCH   1   2
BRANCH   1  12
ATOM     12  C   UNL     1      45.760  35.143  12.207  1.00  0.00     0.000 C 
BRANCH  12  13
ATOM     13  C   UNL     1      47.247  35.123  12.615  1.00  0.00    -0.000 C 
BRANCH  13  14
ATOM     14  C   UNL     1      48.076  33.966  12.029  1.00  0.00    -0.000 C 
BRANCH  14  15
ATOM     15  C   UNL     1      48.930  33.247  13.088  1.00  0.00    -0.000 C 
BRANCH  15  16
ATOM     16  C   UNL     1      48.591  33.681  14.526  1.00  0.00    -0.000 C 
BRANCH  16  17
ATOM     17  C   UNL     1      48.201  32.537  15.481  1.00  0.00    -0.000 C 
BRANCH  17  18
ATOM     18  C   UNL     1      48.357  32.913  16.962  1.00  0.00    -0.003 C 
ATOM     19  C   UNL     1      48.728  34.384  17.119  1.00  0.00     0.004 C 
ENDBRANCH  17  18
ENDBRANCH  16  17
ENDBRANCH  15  16
ENDBRANCH  14  15
ENDBRANCH  13  14
ENDBRANCH  12  13
ENDBRANCH   1  12
TORSDOF 14
ENDMDL
MODEL 5
REMARK VINA RESULT:    -5.189      7.781     12.657
REMARK INTER + INTRA:         -10.386
REMARK INTER:                  -8.432
REMARK INTRA:                  -1.953
REMARK UNBOUND:                -0.950
REMARK SMILES CCCCCCCCCCCCCC[C@@H](C)C(=O)[O-]
REMARK SMILES IDX 9 1 10 2 11 3 12 4 13 5 14 6 15 7 16 8 17 9 18 10 19 11 8 12
REMARK SMILES IDX 7 13 6 14 5 15 4 16 3 17 2 18 1 19
REMARK H PARENT
REMARK Flexibility Score: inf
ROOT
ATOM      1  C   UNL     1      48.534  26.000  19.507  1.00  0.00     0.000 C 
ENDROOT
BRANCH   1   2
ATOM      2  C   UNL     1      49.372  24.910  18.818  1.00  0.00     0.000 C 
BRANCH   2   3
ATOM      3  C   UNL     1      49.689  25.239  17.349  1.00  0.00     0.000 C 
BRANCH   3   4
ATOM      4  C   UNL     1      48.465  25.594  16.481  1.00  0.00     0.000 C 
BRANCH   4   5
ATOM      5  C   UNL     1      48.704  26.776  15.518  1.00  0.00     0.001 C 
BRANCH   5   6
ATOM      6  C   UNL     1      47.840  27.999  15.876  1.00  0.00     0.009 C 
BRANCH   6   7
ATOM      7  C   UNL     1      48.507  28.913  16.926  1.00  0.00     0.032 C 
ATOM      8  C   UNL     1      50.006  29.110  16.654  1.00  0.00     0.014 C 
BRANCH   7   9
ATOM      9  C   UNL     1      47.821  30.252  16.939  1.00  0.00     0.044 C 
ATOM     10  O   UNL     1      47.344  30.729  15.875  1.00  0.00    -0.550 OA
ATOM     11  O   UNL     1      47.723  30.979  18.119  1.00  0.00    -0.550 OA
ENDBRANCH   7   9
ENDBRANCH   6   7
ENDBRANCH   5   6
ENDBRANCH   4   5
ENDBRANCH   3   4
ENDBRANCH   2   3
ENDBRANCH   1   2
BRANCH   1  12
ATOM     12  C   UNL     1      48.174  25.644  20.960  1.00  0.00     0.000 C 
BRANCH  12  13
ATOM     13  C   UNL     1      48.185  26.828  21.949  1.00  0.00    -0.000 C 
BRANCH  13  14
ATOM     14  C   UNL     1      49.547  27.131  22.599  1.00  0.00    -0.000 C 
BRANCH  14  15
ATOM     15  C   UNL     1      50.500  25.924  22.579  1.00  0.00    -0.000 C 
BRANCH  15  16
ATOM     16  C   UNL     1      51.966  26.322  22.329  1.00  0.00    -0.000 C 
BRANCH  16  17
ATOM     17  C   UNL     1      52.528  25.930  20.950  1.00  0.00    -0.000 C 
BRANCH  17  18
ATOM     18  C   UNL     1      52.618  27.116  19.979  1.00  0.00    -0.003 C 
ATOM     19  C   UNL     1      52.885  26.642  18.554  1.00  0.00     0.004 C 
ENDBRANCH  17  18
ENDBRANCH  16  17
ENDBRANCH  15  16
ENDBRANCH  14  15
ENDBRANCH  13  14
ENDBRANCH  12  13
ENDBRANCH   1  12
TORSDOF 14
ENDMDL
MODEL 6
REMARK VINA RESULT:    -5.179      5.008      9.022
REMARK INTER + INTRA:         -10.368
REMARK INTER:                  -8.968
REMARK INTRA:                  -1.400
REMARK UNBOUND:                -0.950
REMARK SMILES CCCCCCCCCCCCCC[C@@H](C)C(=O)[O-]
REMARK SMILES IDX 9 1 10 2 11 3 12 4 13 5 14 6 15 7 16 8 17 9 18 10 19 11 8 12
REMARK SMILES IDX 7 13 6 14 5 15 4 16 3 17 2 18 1 19
REMARK H PARENT
REMARK Flexibility Score: inf
ROOT
ATOM      1  C   UNL     1      48.181  30.748  17.414  1.00  0.00     0.000 C 
ENDROOT
BRANCH   1   2
ATOM      2  C   UNL     1      48.036  32.216  17.849  1.00  0.00     0.000 C 
BRANCH   2   3
ATOM      3  C   UNL     1      49.181  33.107  17.336  1.00  0.00     0.000 C 
BRANCH   3   4
ATOM      4  C   UNL     1      48.780  34.127  16.252  1.00  0.00     0.000 C 
BRANCH   4   5
ATOM      5  C   UNL     1      48.011  33.508  15.066  1.00  0.00     0.001 C 
BRANCH   5   6
ATOM      6  C   UNL     1      48.913  33.303  13.834  1.00  0.00     0.009 C 
BRANCH   6   7
ATOM      7  C   UNL     1      48.187  33.609  12.507  1.00  0.00     0.032 C 
ATOM      8  C   UNL     1      47.387  34.919  12.573  1.00  0.00     0.014 C 
BRANCH   7   9
ATOM      9  C   UNL     1      49.192  33.692  11.390  1.00  0.00     0.044 C 
ATOM     10  O   UNL     1      50.410  33.881  11.646  1.00  0.00    -0.550 OA
ATOM     11  O   UNL     1      48.781  33.578  10.067  1.00  0.00    -0.550 OA
ENDBRANCH   7   9
ENDBRANCH   6   7
ENDBRANCH   5   6
ENDBRANCH   4   5
ENDBRANCH   3   4
ENDBRANCH   2   3
ENDBRANCH   1   2
BRANCH   1  12
ATOM     12  C   UNL     1      49.551  30.449  16.780  1.00  0.00     0.000 C 
BRANCH  12  13
ATOM     13  C   UNL     1      49.500  29.863  15.353  1.00  0.00    -0.000 C 
BRANCH  13  14
ATOM     14  C   UNL     1      48.384  28.833  15.103  1.00  0.00    -0.000 C 
BRANCH  14  15
ATOM     15  C   UNL     1      48.540  27.564  15.959  1.00  0.00    -0.000 C 
BRANCH  15  16
ATOM     16  C   UNL     1      49.754  26.711  15.549  1.00  0.00    -0.000 C 
BRANCH  16  17
ATOM     17  C   UNL     1      49.422  25.286  15.068  1.00  0.00    -0.000 C 
BRANCH  17  18
ATOM     18  C   UNL     1      48.403  25.263  13.919  1.00  0.00    -0.003 C 
ATOM     19  C   UNL     1      49.044  25.701  12.607  1.00  0.00     0.004 C 
ENDBRANCH  17  18
ENDBRANCH  16  17
ENDBRANCH  15  16
ENDBRANCH  14  15
ENDBRANCH  13  14
ENDBRANCH  12  13
ENDBRANCH   1  12
TORSDOF 14
ENDMDL
MODEL 7
REMARK VINA RESULT:    -5.161      5.675      9.783
REMARK INTER + INTRA:         -10.335
REMARK INTER:                  -8.909
REMARK INTRA:                  -1.426
REMARK UNBOUND:                -0.950
REMARK SMILES CCCCCCCCCCCCCC[C@@H](C)C(=O)[O-]
REMARK SMILES IDX 9 1 10 2 11 3 12 4 13 5 14 6 15 7 16 8 17 9 18 10 19 11 8 12
REMARK SMILES IDX 7 13 6 14 5 15 4 16 3 17 2 18 1 19
REMARK H PARENT
REMARK Flexibility Score: inf
ROOT
ATOM      1  C   UNL     1      47.772  29.962  17.319  1.00  0.00     0.000 C 
ENDROOT
BRANCH   1   2
ATOM      2  C   UNL     1      47.891  31.350  17.972  1.00  0.00     0.000 C 
BRANCH   2   3
ATOM      3  C   UNL     1      49.258  32.011  17.726  1.00  0.00     0.000 C 
BRANCH   3   4
ATOM      4  C   UNL     1      49.201  33.416  17.096  1.00  0.00     0.000 C 
BRANCH   4   5
ATOM      5  C   UNL     1      47.771  33.895  16.767  1.00  0.00     0.001 C 
BRANCH   5   6
ATOM      6  C   UNL     1      47.410  33.669  15.287  1.00  0.00     0.009 C 
BRANCH   6   7
ATOM      7  C   UNL     1      48.632  33.280  14.428  1.00  0.00     0.032 C 
ATOM      8  C   UNL     1      48.607  31.799  14.022  1.00  0.00     0.014 C 
BRANCH   7   9
ATOM      9  C   UNL     1      48.674  34.138  13.193  1.00  0.00     0.044 C 
ATOM     10  O   UNL     1      47.696  34.876  12.901  1.00  0.00    -0.550 OA
ATOM     11  O   UNL     1      49.783  34.109  12.356  1.00  0.00    -0.550 OA
ENDBRANCH   7   9
ENDBRANCH   6   7
ENDBRANCH   5   6
ENDBRANCH   4   5
ENDBRANCH   3   4
ENDBRANCH   2   3
ENDBRANCH   1   2
BRANCH   1  12
ATOM     12  C   UNL     1      49.119  29.432  16.799  1.00  0.00     0.000 C 
BRANCH  12  13
ATOM     13  C   UNL     1      49.027  28.468  15.599  1.00  0.00    -0.000 C 
BRANCH  13  14
ATOM     14  C   UNL     1      48.295  27.142  15.874  1.00  0.00    -0.000 C 
BRANCH  14  15
ATOM     15  C   UNL     1      49.130  26.162  16.717  1.00  0.00    -0.000 C 
BRANCH  15  16
ATOM     16  C   UNL     1      48.392  25.676  17.977  1.00  0.00    -0.000 C 
BRANCH  16  17
ATOM     17  C   UNL     1      49.276  25.486  19.224  1.00  0.00    -0.000 C 
BRANCH  17  18
ATOM     18  C   UNL     1      48.468  25.418  20.528  1.00  0.00    -0.003 C 
ATOM     19  C   UNL     1      48.135  26.815  21.042  1.00  0.00     0.004 C 
ENDBRANCH  17  18
ENDBRANCH  16  17
ENDBRANCH  15  16
ENDBRANCH  14  15
ENDBRANCH  13  14
ENDBRANCH  12  13
ENDBRANCH   1  12
TORSDOF 14
ENDMDL
MODEL 8
REMARK VINA RESULT:    -5.116     12.222     14.308
REMARK INTER + INTRA:         -10.254
REMARK INTER:                  -7.932
REMARK INTRA:                  -2.322
REMARK UNBOUND:                -0.950
REMARK SMILES CCCCCCCCCCCCCC[C@@H](C)C(=O)[O-]
REMARK SMILES IDX 9 1 10 2 11 3 12 4 13 5 14 6 15 7 16 8 17 9 18 10 19 11 8 12
REMARK SMILES IDX 7 13 6 14 5 15 4 16 3 17 2 18 1 19
REMARK H PARENT
REMARK Flexibility Score: inf
ROOT
ATOM      1  C   UNL     1      38.162  37.953  23.266  1.00  0.00     0.000 C 
ENDROOT
BRANCH   1   2
ATOM      2  C   UNL     1      37.224  38.396  24.402  1.00  0.00     0.000 C 
BRANCH   2   3
ATOM      3  C   UNL     1      37.705  39.674  25.111  1.00  0.00     0.000 C 
BRANCH   3   4
ATOM      4  C   UNL     1      39.230  39.773  25.315  1.00  0.00     0.000 C 
BRANCH   4   5
ATOM      5  C   UNL     1      39.690  41.100  25.956  1.00  0.00     0.001 C 
BRANCH   5   6
ATOM      6  C   UNL     1      41.196  41.348  25.758  1.00  0.00     0.009 C 
BRANCH   6   7
ATOM      7  C   UNL     1      41.489  42.637  24.961  1.00  0.00     0.032 C 
ATOM      8  C   UNL     1      40.210  43.263  24.383  1.00  0.00     0.014 C 
BRANCH   7   9
ATOM      9  C   UNL     1      42.177  43.636  25.850  1.00  0.00     0.044 C 
ATOM     10  O   UNL     1      42.932  44.512  25.352  1.00  0.00    -0.550 OA
ATOM     11  O   UNL     1      42.001  43.588  27.228  1.00  0.00    -0.550 OA
ENDBRANCH   7   9
ENDBRANCH   6   7
ENDBRANCH   5   6
ENDBRANCH   4   5
ENDBRANCH   3   4
ENDBRANCH   2   3
ENDBRANCH   1   2
BRANCH   1  12
ATOM     12  C   UNL     1      38.477  36.448  23.308  1.00  0.00     0.000 C 
BRANCH  12  13
ATOM     13  C   UNL     1      39.758  36.066  24.078  1.00  0.00    -0.000 C 
BRANCH  13  14
ATOM     14  C   UNL     1      40.931  37.051  23.934  1.00  0.00    -0.000 C 
BRANCH  14  15
ATOM     15  C   UNL     1      41.750  36.822  22.651  1.00  0.00    -0.000 C 
BRANCH  15  16
ATOM     16  C   UNL     1      41.995  38.118  21.858  1.00  0.00    -0.000 C 
BRANCH  16  17
ATOM     17  C   UNL     1      41.836  39.421  22.664  1.00  0.00    -0.000 C 
BRANCH  17  18
ATOM     18  C   UNL     1      40.917  40.443  21.978  1.00  0.00    -0.003 C 
ATOM     19  C   UNL     1      40.010  39.766  20.955  1.00  0.00     0.004 C 
ENDBRANCH  17  18
ENDBRANCH  16  17
ENDBRANCH  15  16
ENDBRANCH  14  15
ENDBRANCH  13  14
ENDBRANCH  12  13
ENDBRANCH   1  12
TORSDOF 14
ENDMDL
MODEL 9
REMARK VINA RESULT:    -5.084      9.501     13.619
REMARK INTER + INTRA:         -10.195
REMARK INTER:                  -8.875
REMARK INTRA:                  -1.320
REMARK UNBOUND:                -0.950
REMARK SMILES CCCCCCCCCCCCCC[C@@H](C)C(=O)[O-]
REMARK SMILES IDX 9 1 10 2 11 3 12 4 13 5 14 6 15 7 16 8 17 9 18 10 19 11 8 12
REMARK SMILES IDX 7 13 6 14 5 15 4 16 3 17 2 18 1 19
REMARK H PARENT
REMARK Flexibility Score: inf
ROOT
ATOM      1  C   UNL     1      48.933  27.177  22.292  1.00  0.00     0.000 C 
ENDROOT
BRANCH   1   2
ATOM      2  C   UNL     1      48.279  26.693  20.987  1.00  0.00     0.000 C 
BRANCH   2   3
ATOM      3  C   UNL     1      48.662  25.247  20.627  1.00  0.00     0.000 C 
BRANCH   3   4
ATOM      4  C   UNL     1      49.387  25.081  19.277  1.00  0.00     0.000 C 
BRANCH   4   5
ATOM      5  C   UNL     1      48.749  25.882  18.122  1.00  0.00     0.001 C 
BRANCH   5   6
ATOM      6  C   UNL     1      49.040  25.251  16.748  1.00  0.00     0.009 C 
BRANCH   6   7
ATOM      7  C   UNL     1      48.283  25.950  15.599  1.00  0.00     0.032 C 
ATOM      8  C   UNL     1      48.326  27.480  15.724  1.00  0.00     0.014 C 
BRANCH   7   9
ATOM      9  C   UNL     1      48.877  25.539  14.279  1.00  0.00     0.044 C 
ATOM     10  O   UNL     1      48.193  24.875  13.456  1.00  0.00    -0.550 OA
ATOM     11  O   UNL     1      50.190  25.873  13.966  1.00  0.00    -0.550 OA
ENDBRANCH   7   9
ENDBRANCH   6   7
ENDBRANCH   5   6
ENDBRANCH   4   5
ENDBRANCH   3   4
ENDBRANCH   2   3
ENDBRANCH   1   2
BRANCH   1  12
ATOM     12  C   UNL     1      50.189  26.369  22.663  1.00  0.00     0.000 C 
BRANCH  12  13
ATOM     13  C   UNL     1      51.530  27.090  22.420  1.00  0.00    -0.000 C 
BRANCH  13  14
ATOM     14  C   UNL     1      52.754  26.170  22.262  1.00  0.00    -0.000 C 
BRANCH  14  15
ATOM     15  C   UNL     1      52.957  25.690  20.815  1.00  0.00    -0.000 C 
BRANCH  15  16
ATOM     16  C   UNL     1      52.699  26.795  19.775  1.00  0.00    -0.000 C 
BRANCH  16  17
ATOM     17  C   UNL     1      53.913  27.179  18.908  1.00  0.00    -0.000 C 
BRANCH  17  18
ATOM     18  C   UNL     1      53.946  28.671  18.549  1.00  0.00    -0.003 C 
ATOM     19  C   UNL     1      55.243  29.036  17.833  1.00  0.00     0.004 C 
ENDBRANCH  17  18
ENDBRANCH  16  17
ENDBRANCH  15  16
ENDBRANCH  14  15
ENDBRANCH  13  14
ENDBRANCH  12  13
ENDBRANCH   1  12
TORSDOF 14
ENDMDL
