MODEL 1
REMARK VINA RESULT:    -4.860      0.000      0.000
REMARK INTER + INTRA:          -5.002
REMARK INTER:                  -5.002
REMARK INTRA:                   0.000
REMARK UNBOUND:                 0.000
REMARK SMILES Oc1ccc2[nH]ccc2c1
REMARK SMILES IDX 3 1 4 2 5 3 9 4 8 5 7 6 6 7 10 8 2 9 1 11
REMARK H PARENT 6 10 1 12
REMARK Flexibility Score: inf
ROOT
ATOM      1  C   UNL     1     138.454 132.943 150.085  1.00  0.00     0.048 A 
ATOM      2  C   UNL     1     139.852 132.864 149.946  1.00  0.00     0.030 A 
ATOM      3  C   UNL     1     140.532 131.929 150.724  1.00  0.00     0.046 A 
ATOM      4  C   UNL     1     139.874 131.108 151.600  1.00  0.00     0.003 A 
ATOM      5  C   UNL     1     140.820 130.311 152.208  1.00  0.00     0.028 A 
ATOM      6  C   UNL     1     142.035 130.701 151.652  1.00  0.00     0.083 A 
ATOM      7  N   UNL     1     141.853 131.690 150.747  1.00  0.00    -0.361 N 
ATOM      8  C   UNL     1     138.491 131.160 151.763  1.00  0.00     0.056 A 
ATOM      9  C   UNL     1     137.772 132.096 150.990  1.00  0.00     0.116 A 
ATOM     10  H   UNL     1     142.592 132.167 150.184  1.00  0.00     0.166 HD
ENDROOT
BRANCH   9  11
ATOM     11  O   UNL     1     136.389 132.195 151.109  1.00  0.00    -0.508 OA
ATOM     12  H   UNL     1     135.805 131.372 151.199  1.00  0.00     0.293 HD
ENDBRANCH   9  11
TORSDOF 1
ENDMDL
MODEL 2
REMARK VINA RESULT:    -4.746      2.584      4.140
REMARK INTER + INTRA:          -4.885
REMARK INTER:                  -4.885
REMARK INTRA:                   0.000
REMARK UNBOUND:                 0.000
REMARK SMILES Oc1ccc2[nH]ccc2c1
REMARK SMILES IDX 3 1 4 2 5 3 9 4 8 5 7 6 6 7 10 8 2 9 1 11
REMARK H PARENT 6 10 1 12
REMARK Flexibility Score: inf
ROOT
ATOM      1  C   UNL     1     139.834 130.463 151.519  1.00  0.00     0.048 A 
ATOM      2  C   UNL     1     138.436 130.618 151.492  1.00  0.00     0.030 A 
ATOM      3  C   UNL     1     137.921 131.792 150.947  1.00  0.00     0.046 A 
ATOM      4  C   UNL     1     138.738 132.773 150.451  1.00  0.00     0.003 A 
ATOM      5  C   UNL     1     137.928 133.789 149.991  1.00  0.00     0.028 A 
ATOM      6  C   UNL     1     136.629 133.359 150.239  1.00  0.00     0.083 A 
ATOM      7  N   UNL     1     136.630 132.139 150.824  1.00  0.00    -0.361 N 
ATOM      8  C   UNL     1     140.126 132.652 150.462  1.00  0.00     0.056 A 
ATOM      9  C   UNL     1     140.680 131.474 151.007  1.00  0.00     0.116 A 
ATOM     10  H   UNL     1     135.795 131.584 151.117  1.00  0.00     0.166 HD
ENDROOT
BRANCH   9  11
ATOM     11  O   UNL     1     142.060 131.297 151.047  1.00  0.00    -0.508 OA
ATOM     12  H   UNL     1     142.473 130.374 151.102  1.00  0.00     0.293 HD
ENDBRANCH   9  11
TORSDOF 1
ENDMDL
MODEL 3
REMARK VINA RESULT:    -4.573      2.555      3.680
REMARK INTER + INTRA:          -4.706
REMARK INTER:                  -4.706
REMARK INTRA:                   0.000
REMARK UNBOUND:                 0.000
REMARK SMILES Oc1ccc2[nH]ccc2c1
REMARK SMILES IDX 3 1 4 2 5 3 9 4 8 5 7 6 6 7 10 8 2 9 1 11
REMARK H PARENT 6 10 1 12
REMARK Flexibility Score: inf
ROOT
ATOM      1  C   UNL     1     142.317 131.484 150.563  1.00  0.00     0.048 A 
ATOM      2  C   UNL     1     141.316 132.242 149.926  1.00  0.00     0.030 A 
ATOM      3  C   UNL     1     140.035 132.218 150.473  1.00  0.00     0.046 A 
ATOM      4  C   UNL     1     139.744 131.486 151.593  1.00  0.00     0.003 A 
ATOM      5  C   UNL     1     138.408 131.673 151.873  1.00  0.00     0.028 A 
ATOM      6  C   UNL     1     137.946 132.533 150.881  1.00  0.00     0.083 A 
ATOM      7  N   UNL     1     138.944 132.862 150.029  1.00  0.00    -0.361 N 
ATOM      8  C   UNL     1     140.711 130.725 152.247  1.00  0.00     0.056 A 
ATOM      9  C   UNL     1     142.019 130.727 151.720  1.00  0.00     0.116 A 
ATOM     10  H   UNL     1     138.875 133.490 149.196  1.00  0.00     0.166 HD
ENDROOT
BRANCH   9  11
ATOM     11  O   UNL     1     143.027 129.985 152.330  1.00  0.00    -0.508 OA
ATOM     12  H   UNL     1     143.891 129.769 151.847  1.00  0.00     0.293 HD
ENDBRANCH   9  11
TORSDOF 1
ENDMDL
MODEL 4
REMARK VINA RESULT:    -4.554      0.851      2.204
REMARK INTER + INTRA:          -4.687
REMARK INTER:                  -4.687
REMARK INTRA:                   0.000
REMARK UNBOUND:                 0.000
REMARK SMILES Oc1ccc2[nH]ccc2c1
REMARK SMILES IDX 3 1 4 2 5 3 9 4 8 5 7 6 6 7 10 8 2 9 1 11
REMARK H PARENT 6 10 1 12
REMARK Flexibility Score: inf
ROOT
ATOM      1  C   UNL     1     138.481 131.496 151.990  1.00  0.00     0.048 A 
ATOM      2  C   UNL     1     139.885 131.416 152.011  1.00  0.00     0.030 A 
ATOM      3  C   UNL     1     140.584 131.949 150.930  1.00  0.00     0.046 A 
ATOM      4  C   UNL     1     139.938 132.535 149.874  1.00  0.00     0.003 A 
ATOM      5  C   UNL     1     140.901 132.956 148.983  1.00  0.00     0.028 A 
ATOM      6  C   UNL     1     142.114 132.593 149.561  1.00  0.00     0.083 A 
ATOM      7  N   UNL     1     141.914 131.978 150.750  1.00  0.00    -0.361 N 
ATOM      8  C   UNL     1     138.549 132.631 149.822  1.00  0.00     0.056 A 
ATOM      9  C   UNL     1     137.810 132.101 150.901  1.00  0.00     0.116 A 
ATOM     10  H   UNL     1     142.648 131.604 151.393  1.00  0.00     0.166 HD
ENDROOT
BRANCH   9  11
ATOM     11  O   UNL     1     136.420 132.167 150.905  1.00  0.00    -0.508 OA
ATOM     12  H   UNL     1     135.870 131.766 150.155  1.00  0.00     0.293 HD
ENDBRANCH   9  11
TORSDOF 1
ENDMDL
MODEL 5
REMARK VINA RESULT:    -4.431      2.130      2.253
REMARK INTER + INTRA:          -4.561
REMARK INTER:                  -4.561
REMARK INTRA:                   0.000
REMARK UNBOUND:                 0.000
REMARK SMILES Oc1ccc2[nH]ccc2c1
REMARK SMILES IDX 3 1 4 2 5 3 9 4 8 5 7 6 6 7 10 8 2 9 1 11
REMARK H PARENT 6 10 1 12
REMARK Flexibility Score: inf
ROOT
ATOM      1  C   UNL     1     137.656 129.848 148.828  1.00  0.00     0.048 A 
ATOM      2  C   UNL     1     138.857 130.510 148.513  1.00  0.00     0.030 A 
ATOM      3  C   UNL     1     139.688 130.887 149.566  1.00  0.00     0.046 A 
ATOM      4  C   UNL     1     139.359 130.628 150.870  1.00  0.00     0.003 A 
ATOM      5  C   UNL     1     140.377 131.122 151.657  1.00  0.00     0.028 A 
ATOM      6  C   UNL     1     141.294 131.668 150.765  1.00  0.00     0.083 A 
ATOM      7  N   UNL     1     140.868 131.523 149.489  1.00  0.00    -0.361 N 
ATOM      8  C   UNL     1     138.179 129.974 151.216  1.00  0.00     0.056 A 
ATOM      9  C   UNL     1     137.314 129.579 150.174  1.00  0.00     0.116 A 
ATOM     10  H   UNL     1     141.360 131.841 148.624  1.00  0.00     0.166 HD
ENDROOT
BRANCH   9  11
ATOM     11  O   UNL     1     136.120 128.922 150.458  1.00  0.00    -0.508 OA
ATOM     12  H   UNL     1     136.076 128.176 151.142  1.00  0.00     0.293 HD
ENDBRANCH   9  11
TORSDOF 1
ENDMDL
MODEL 6
REMARK VINA RESULT:    -4.386     13.597     15.181
REMARK INTER + INTRA:          -4.514
REMARK INTER:                  -4.514
REMARK INTRA:                   0.000
REMARK UNBOUND:                 0.000
REMARK SMILES Oc1ccc2[nH]ccc2c1
REMARK SMILES IDX 3 1 4 2 5 3 9 4 8 5 7 6 6 7 10 8 2 9 1 11
REMARK H PARENT 6 10 1 12
REMARK Flexibility Score: inf
ROOT
ATOM      1  C   UNL     1     137.226 142.323 142.171  1.00  0.00     0.048 A 
ATOM      2  C   UNL     1     136.680 143.076 141.116  1.00  0.00     0.030 A 
ATOM      3  C   UNL     1     135.354 142.838 140.764  1.00  0.00     0.046 A 
ATOM      4  C   UNL     1     134.594 141.902 141.415  1.00  0.00     0.003 A 
ATOM      5  C   UNL     1     133.344 141.910 140.834  1.00  0.00     0.028 A 
ATOM      6  C   UNL     1     133.413 142.876 139.835  1.00  0.00     0.083 A 
ATOM      7  N   UNL     1     134.643 143.439 139.796  1.00  0.00    -0.361 N 
ATOM      8  C   UNL     1     135.103 141.140 142.463  1.00  0.00     0.056 A 
ATOM      9  C   UNL     1     136.444 141.356 142.845  1.00  0.00     0.116 A 
ATOM     10  H   UNL     1     134.969 144.188 139.145  1.00  0.00     0.166 HD
ENDROOT
BRANCH   9  11
ATOM     11  O   UNL     1     137.009 140.624 143.886  1.00  0.00    -0.508 OA
ATOM     12  H   UNL     1     137.181 141.040 144.793  1.00  0.00     0.293 HD
ENDBRANCH   9  11
TORSDOF 1
ENDMDL
MODEL 7
REMARK VINA RESULT:    -4.368      1.657      2.637
REMARK INTER + INTRA:          -4.495
REMARK INTER:                  -4.495
REMARK INTRA:                   0.000
REMARK UNBOUND:                 0.000
REMARK SMILES Oc1ccc2[nH]ccc2c1
REMARK SMILES IDX 3 1 4 2 5 3 9 4 8 5 7 6 6 7 10 8 2 9 1 11
REMARK H PARENT 6 10 1 12
REMARK Flexibility Score: inf
ROOT
ATOM      1  C   UNL     1     139.422 131.547 151.254  1.00  0.00     0.048 A 
ATOM      2  C   UNL     1     140.366 130.903 152.074  1.00  0.00     0.030 A 
ATOM      3  C   UNL     1     141.693 130.888 151.651  1.00  0.00     0.046 A 
ATOM      4  C   UNL     1     142.080 131.475 150.476  1.00  0.00     0.003 A 
ATOM      5  C   UNL     1     143.439 131.286 150.349  1.00  0.00     0.028 A 
ATOM      6  C   UNL     1     143.815 130.575 151.484  1.00  0.00     0.083 A 
ATOM      7  N   UNL     1     142.745 130.334 152.276  1.00  0.00    -0.361 N 
ATOM      8  C   UNL     1     141.171 132.120 149.641  1.00  0.00     0.056 A 
ATOM      9  C   UNL     1     139.818 132.155 150.040  1.00  0.00     0.116 A 
ATOM     10  H   UNL     1     142.741 129.821 153.186  1.00  0.00     0.166 HD
ENDROOT
BRANCH   9  11
ATOM     11  O   UNL     1     138.864 132.784 149.246  1.00  0.00    -0.508 OA
ATOM     12  H   UNL     1     138.974 133.747 148.950  1.00  0.00     0.293 HD
ENDBRANCH   9  11
TORSDOF 1
ENDMDL
MODEL 8
REMARK VINA RESULT:    -4.338      2.361      3.591
REMARK INTER + INTRA:          -4.465
REMARK INTER:                  -4.465
REMARK INTRA:                   0.000
REMARK UNBOUND:                 0.000
REMARK SMILES Oc1ccc2[nH]ccc2c1
REMARK SMILES IDX 3 1 4 2 5 3 9 4 8 5 7 6 6 7 10 8 2 9 1 11
REMARK H PARENT 6 10 1 12
REMARK Flexibility Score: inf
ROOT
ATOM      1  C   UNL     1     141.304 131.549 150.511  1.00  0.00     0.048 A 
ATOM      2  C   UNL     1     140.548 132.235 149.542  1.00  0.00     0.030 A 
ATOM      3  C   UNL     1     139.215 132.515 149.835  1.00  0.00     0.046 A 
ATOM      4  C   UNL     1     138.645 132.141 151.022  1.00  0.00     0.003 A 
ATOM      5  C   UNL     1     137.333 132.561 151.000  1.00  0.00     0.028 A 
ATOM      6  C   UNL     1     137.172 133.185 149.767  1.00  0.00     0.083 A 
ATOM      7  N   UNL     1     138.325 133.154 149.059  1.00  0.00    -0.361 N 
ATOM      8  C   UNL     1     139.365 131.461 152.002  1.00  0.00     0.056 A 
ATOM      9  C   UNL     1     140.718 131.161 151.738  1.00  0.00     0.116 A 
ATOM     10  H   UNL     1     138.485 133.548 148.104  1.00  0.00     0.166 HD
ENDROOT
BRANCH   9  11
ATOM     11  O   UNL     1     141.487 130.483 152.679  1.00  0.00    -0.508 OA
ATOM     12  H   UNL     1     141.525 130.783 153.646  1.00  0.00     0.293 HD
ENDBRANCH   9  11
TORSDOF 1
ENDMDL
MODEL 9
REMARK VINA RESULT:    -4.221      2.430      3.202
REMARK INTER + INTRA:          -4.345
REMARK INTER:                  -4.345
REMARK INTRA:                   0.000
REMARK UNBOUND:                 0.000
REMARK SMILES Oc1ccc2[nH]ccc2c1
REMARK SMILES IDX 3 1 4 2 5 3 9 4 8 5 7 6 6 7 10 8 2 9 1 11
REMARK H PARENT 6 10 1 12
REMARK Flexibility Score: inf
ROOT
ATOM      1  C   UNL     1     137.402 134.523 149.572  1.00  0.00     0.048 A 
ATOM      2  C   UNL     1     137.291 133.793 150.770  1.00  0.00     0.030 A 
ATOM      3  C   UNL     1     138.042 132.626 150.893  1.00  0.00     0.046 A 
ATOM      4  C   UNL     1     138.865 132.190 149.889  1.00  0.00     0.003 A 
ATOM      5  C   UNL     1     139.457 131.023 150.319  1.00  0.00     0.028 A 
ATOM      6  C   UNL     1     138.949 130.806 151.596  1.00  0.00     0.083 A 
ATOM      7  N   UNL     1     138.085 131.788 151.941  1.00  0.00    -0.361 N 
ATOM      8  C   UNL     1     138.998 132.889 148.691  1.00  0.00     0.056 A 
ATOM      9  C   UNL     1     138.251 134.076 148.533  1.00  0.00     0.116 A 
ATOM     10  H   UNL     1     137.560 131.873 152.841  1.00  0.00     0.166 HD
ENDROOT
BRANCH   9  11
ATOM     11  O   UNL     1     138.342 134.815 147.358  1.00  0.00    -0.508 OA
ATOM     12  H   UNL     1     138.919 134.510 146.583  1.00  0.00     0.293 HD
ENDBRANCH   9  11
TORSDOF 1
ENDMDL
