MODEL 1
REMARK VINA RESULT:    -4.034      0.000      0.000
REMARK INTER + INTRA:          -6.322
REMARK INTER:                  -5.684
REMARK INTRA:                  -0.638
REMARK UNBOUND:                -0.638
REMARK SMILES C=CCCCCCCC(=O)[O-]
REMARK SMILES IDX 6 1 7 2 8 3 9 4 10 5 11 6 5 7 4 8 3 9 2 10 1 11
REMARK H PARENT
REMARK Flexibility Score: inf
ROOT
ATOM      1  C   UNL     1      -8.588  26.062  24.799  1.00  0.00     0.000 C 
ENDROOT
BRANCH   1   2
ATOM      2  C   UNL     1      -8.919  27.456  25.347  1.00  0.00     0.006 C 
BRANCH   2   3
ATOM      3  C   UNL     1      -9.935  28.171  24.453  1.00  0.00     0.053 C 
BRANCH   3   4
ATOM      4  C   UNL     1      -9.242  29.107  23.515  1.00  0.00     0.041 C 
ATOM      5  O   UNL     1      -9.235  28.874  22.278  1.00  0.00    -0.550 OA
ATOM      6  O   UNL     1      -8.562  30.211  24.012  1.00  0.00    -0.550 OA
ENDBRANCH   3   4
ENDBRANCH   2   3
ENDBRANCH   1   2
BRANCH   1   7
ATOM      7  C   UNL     1      -7.198  26.040  24.152  1.00  0.00     0.000 C 
BRANCH   7   8
ATOM      8  C   UNL     1      -7.302  25.851  22.632  1.00  0.00     0.004 C 
BRANCH   8   9
ATOM      9  C   UNL     1      -8.577  25.100  22.227  1.00  0.00     0.027 C 
BRANCH   9  10
ATOM     10  C   UNL     1      -8.284  23.672  21.855  1.00  0.00    -0.035 C 
ATOM     11  C   UNL     1      -9.055  22.662  22.267  1.00  0.00     0.004 C 
ENDBRANCH   9  10
ENDBRANCH   8   9
ENDBRANCH   7   8
ENDBRANCH   1   7
TORSDOF 7
ENDMDL
MODEL 2
REMARK VINA RESULT:    -3.984      2.047      4.416
REMARK INTER + INTRA:          -6.252
REMARK INTER:                  -5.481
REMARK INTRA:                  -0.772
REMARK UNBOUND:                -0.638
REMARK SMILES C=CCCCCCCC(=O)[O-]
REMARK SMILES IDX 6 1 7 2 8 3 9 4 10 5 11 6 5 7 4 8 3 9 2 10 1 11
REMARK H PARENT
REMARK Flexibility Score: inf
ROOT
ATOM      1  C   UNL     1      -7.245  25.987  23.856  1.00  0.00     0.000 C 
ENDROOT
BRANCH   1   2
ATOM      2  C   UNL     1      -7.256  25.763  22.339  1.00  0.00     0.006 C 
BRANCH   2   3
ATOM      3  C   UNL     1      -8.681  25.536  21.826  1.00  0.00     0.053 C 
BRANCH   3   4
ATOM      4  C   UNL     1      -8.805  25.985  20.405  1.00  0.00     0.041 C 
ATOM      5  O   UNL     1      -8.783  27.213  20.126  1.00  0.00    -0.550 OA
ATOM      6  O   UNL     1      -8.993  25.052  19.395  1.00  0.00    -0.550 OA
ENDBRANCH   3   4
ENDBRANCH   2   3
ENDBRANCH   1   2
BRANCH   1   7
ATOM      7  C   UNL     1      -8.564  25.529  24.489  1.00  0.00     0.000 C 
BRANCH   7   8
ATOM      8  C   UNL     1      -9.118  26.598  25.442  1.00  0.00     0.004 C 
BRANCH   8   9
ATOM      9  C   UNL     1      -8.649  28.009  25.064  1.00  0.00     0.027 C 
BRANCH   9  10
ATOM     10  C   UNL     1      -9.690  28.740  24.258  1.00  0.00    -0.035 C 
ATOM     11  C   UNL     1      -9.466  29.124  22.998  1.00  0.00     0.004 C 
ENDBRANCH   9  10
ENDBRANCH   8   9
ENDBRANCH   7   8
ENDBRANCH   1   7
TORSDOF 7
ENDMDL
MODEL 3
REMARK VINA RESULT:    -3.976      1.315      2.044
REMARK INTER + INTRA:          -6.241
REMARK INTER:                  -5.595
REMARK INTRA:                  -0.647
REMARK UNBOUND:                -0.638
REMARK SMILES C=CCCCCCCC(=O)[O-]
REMARK SMILES IDX 6 1 7 2 8 3 9 4 10 5 11 6 5 7 4 8 3 9 2 10 1 11
REMARK H PARENT
REMARK Flexibility Score: inf
ROOT
ATOM      1  C   UNL     1      -7.607  26.259  24.598  1.00  0.00     0.000 C 
ENDROOT
BRANCH   1   2
ATOM      2  C   UNL     1      -8.400  27.508  25.003  1.00  0.00     0.006 C 
BRANCH   2   3
ATOM      3  C   UNL     1      -9.495  27.820  23.980  1.00  0.00     0.053 C 
BRANCH   3   4
ATOM      4  C   UNL     1      -9.296  29.182  23.397  1.00  0.00     0.041 C 
ATOM      5  O   UNL     1      -8.692  30.070  24.055  1.00  0.00    -0.550 OA
ATOM      6  O   UNL     1      -9.820  29.488  22.148  1.00  0.00    -0.550 OA
ENDBRANCH   3   4
ENDBRANCH   2   3
ENDBRANCH   1   2
BRANCH   1   7
ATOM      7  C   UNL     1      -8.307  25.508  23.459  1.00  0.00     0.000 C 
BRANCH   7   8
ATOM      8  C   UNL     1      -7.403  25.421  22.221  1.00  0.00     0.004 C 
BRANCH   8   9
ATOM      9  C   UNL     1      -8.205  25.190  20.934  1.00  0.00     0.027 C 
BRANCH   9  10
ATOM     10  C   UNL     1      -8.935  26.435  20.506  1.00  0.00    -0.035 C 
ATOM     11  C   UNL     1     -10.267  26.471  20.402  1.00  0.00     0.004 C 
ENDBRANCH   9  10
ENDBRANCH   8   9
ENDBRANCH   7   8
ENDBRANCH   1   7
TORSDOF 7
ENDMDL
MODEL 4
REMARK VINA RESULT:    -3.906      2.659      4.985
REMARK INTER + INTRA:          -6.142
REMARK INTER:                  -5.454
REMARK INTRA:                  -0.687
REMARK UNBOUND:                -0.638
REMARK SMILES C=CCCCCCCC(=O)[O-]
REMARK SMILES IDX 6 1 7 2 8 3 9 4 10 5 11 6 5 7 4 8 3 9 2 10 1 11
REMARK H PARENT
REMARK Flexibility Score: inf
ROOT
ATOM      1  C   UNL     1      -7.078  25.960  22.969  1.00  0.00     0.000 C 
ENDROOT
BRANCH   1   2
ATOM      2  C   UNL     1      -8.200  25.813  21.934  1.00  0.00     0.006 C 
BRANCH   2   3
ATOM      3  C   UNL     1      -8.210  24.406  21.329  1.00  0.00     0.053 C 
BRANCH   3   4
ATOM      4  C   UNL     1      -9.062  23.490  22.148  1.00  0.00     0.041 C 
ATOM      5  O   UNL     1     -10.096  23.928  22.719  1.00  0.00    -0.550 OA
ATOM      6  O   UNL     1      -8.690  22.164  22.320  1.00  0.00    -0.550 OA
ENDBRANCH   3   4
ENDBRANCH   2   3
ENDBRANCH   1   2
BRANCH   1   7
ATOM      7  C   UNL     1      -7.649  26.219  24.368  1.00  0.00     0.000 C 
BRANCH   7   8
ATOM      8  C   UNL     1      -9.005  26.937  24.284  1.00  0.00     0.004 C 
BRANCH   8   9
ATOM      9  C   UNL     1      -8.884  28.437  24.577  1.00  0.00     0.027 C 
BRANCH   9  10
ATOM     10  C   UNL     1      -9.163  29.265  23.351  1.00  0.00    -0.035 C 
ATOM     11  C   UNL     1     -10.179  28.988  22.528  1.00  0.00     0.004 C 
ENDBRANCH   9  10
ENDBRANCH   8   9
ENDBRANCH   7   8
ENDBRANCH   1   7
TORSDOF 7
ENDMDL
MODEL 5
REMARK VINA RESULT:    -3.865      2.459      3.032
REMARK INTER + INTRA:          -6.085
REMARK INTER:                  -5.476
REMARK INTRA:                  -0.608
REMARK UNBOUND:                -0.638
REMARK SMILES C=CCCCCCCC(=O)[O-]
REMARK SMILES IDX 6 1 7 2 8 3 9 4 10 5 11 6 5 7 4 8 3 9 2 10 1 11
REMARK H PARENT
REMARK Flexibility Score: inf
ROOT
ATOM      1  C   UNL     1      -7.377  25.915  23.704  1.00  0.00     0.000 C 
ENDROOT
BRANCH   1   2
ATOM      2  C   UNL     1      -8.287  26.693  24.663  1.00  0.00     0.006 C 
BRANCH   2   3
ATOM      3  C   UNL     1      -9.547  25.890  24.999  1.00  0.00     0.053 C 
BRANCH   3   4
ATOM      4  C   UNL     1     -10.023  26.214  26.379  1.00  0.00     0.041 C 
ATOM      5  O   UNL     1      -9.530  27.188  27.006  1.00  0.00    -0.550 OA
ATOM      6  O   UNL     1     -10.976  25.412  26.991  1.00  0.00    -0.550 OA
ENDBRANCH   3   4
ENDBRANCH   2   3
ENDBRANCH   1   2
BRANCH   1   7
ATOM      7  C   UNL     1      -7.746  26.198  22.243  1.00  0.00     0.000 C 
BRANCH   7   8
ATOM      8  C   UNL     1      -7.907  24.892  21.453  1.00  0.00     0.004 C 
BRANCH   8   9
ATOM      9  C   UNL     1      -9.380  24.539  21.210  1.00  0.00     0.027 C 
BRANCH   9  10
ATOM     10  C   UNL     1      -9.773  23.277  21.930  1.00  0.00    -0.035 C 
ATOM     11  C   UNL     1      -8.863  22.405  22.374  1.00  0.00     0.004 C 
ENDBRANCH   9  10
ENDBRANCH   8   9
ENDBRANCH   7   8
ENDBRANCH   1   7
TORSDOF 7
ENDMDL
MODEL 6
REMARK VINA RESULT:    -3.808      1.481      2.206
REMARK INTER + INTRA:          -6.004
REMARK INTER:                  -5.257
REMARK INTRA:                  -0.747
REMARK UNBOUND:                -0.638
REMARK SMILES C=CCCCCCCC(=O)[O-]
REMARK SMILES IDX 6 1 7 2 8 3 9 4 10 5 11 6 5 7 4 8 3 9 2 10 1 11
REMARK H PARENT
REMARK Flexibility Score: inf
ROOT
ATOM      1  C   UNL     1     -10.336  27.038  25.344  1.00  0.00     0.000 C 
ENDROOT
BRANCH   1   2
ATOM      2  C   UNL     1     -10.667  28.374  24.669  1.00  0.00     0.006 C 
BRANCH   2   3
ATOM      3  C   UNL     1     -11.056  28.168  23.202  1.00  0.00     0.053 C 
BRANCH   3   4
ATOM      4  C   UNL     1     -10.223  29.034  22.312  1.00  0.00     0.041 C 
ATOM      5  O   UNL     1     -10.649  29.368  21.175  1.00  0.00    -0.550 OA
ATOM      6  O   UNL     1      -8.956  29.431  22.717  1.00  0.00    -0.550 OA
ENDBRANCH   3   4
ENDBRANCH   2   3
ENDBRANCH   1   2
BRANCH   1   7
ATOM      7  C   UNL     1      -8.936  27.069  25.968  1.00  0.00     0.000 C 
BRANCH   7   8
ATOM      8  C   UNL     1      -7.852  26.875  24.898  1.00  0.00     0.004 C 
BRANCH   8   9
ATOM      9  C   UNL     1      -8.150  25.680  23.984  1.00  0.00     0.027 C 
BRANCH   9  10
ATOM     10  C   UNL     1      -7.515  25.848  22.629  1.00  0.00    -0.035 C 
ATOM     11  C   UNL     1      -8.205  25.665  21.499  1.00  0.00     0.004 C 
ENDBRANCH   9  10
ENDBRANCH   8   9
ENDBRANCH   7   8
ENDBRANCH   1   7
TORSDOF 7
ENDMDL
MODEL 7
REMARK VINA RESULT:    -3.598      2.323      4.419
REMARK INTER + INTRA:          -5.709
REMARK INTER:                  -4.885
REMARK INTRA:                  -0.824
REMARK UNBOUND:                -0.638
REMARK SMILES C=CCCCCCCC(=O)[O-]
REMARK SMILES IDX 6 1 7 2 8 3 9 4 10 5 11 6 5 7 4 8 3 9 2 10 1 11
REMARK H PARENT
REMARK Flexibility Score: inf
ROOT
ATOM      1  C   UNL     1      -8.081  27.306  25.029  1.00  0.00     0.000 C 
ENDROOT
BRANCH   1   2
ATOM      2  C   UNL     1      -7.506  26.003  24.459  1.00  0.00     0.006 C 
BRANCH   2   3
ATOM      3  C   UNL     1      -7.598  25.984  22.931  1.00  0.00     0.053 C 
BRANCH   3   4
ATOM      4  C   UNL     1      -8.454  24.847  22.472  1.00  0.00     0.041 C 
ATOM      5  O   UNL     1      -7.968  23.942  21.743  1.00  0.00    -0.550 OA
ATOM      6  O   UNL     1      -9.801  24.812  22.808  1.00  0.00    -0.550 OA
ENDBRANCH   3   4
ENDBRANCH   2   3
ENDBRANCH   1   2
BRANCH   1   7
ATOM      7  C   UNL     1      -9.532  27.114  25.486  1.00  0.00     0.000 C 
BRANCH   7   8
ATOM      8  C   UNL     1     -10.465  28.116  24.791  1.00  0.00     0.004 C 
BRANCH   8   9
ATOM      9  C   UNL     1      -9.689  29.173  23.995  1.00  0.00     0.027 C 
BRANCH   9  10
ATOM     10  C   UNL     1     -10.189  29.278  22.579  1.00  0.00    -0.035 C 
ATOM     11  C   UNL     1     -10.369  28.198  21.812  1.00  0.00     0.004 C 
ENDBRANCH   9  10
ENDBRANCH   8   9
ENDBRANCH   7   8
ENDBRANCH   1   7
TORSDOF 7
ENDMDL
MODEL 8
REMARK VINA RESULT:    -3.578      3.476      5.392
REMARK INTER + INTRA:          -5.681
REMARK INTER:                  -5.133
REMARK INTRA:                  -0.548
REMARK UNBOUND:                -0.638
REMARK SMILES C=CCCCCCCC(=O)[O-]
REMARK SMILES IDX 6 1 7 2 8 3 9 4 10 5 11 6 5 7 4 8 3 9 2 10 1 11
REMARK H PARENT
REMARK Flexibility Score: inf
ROOT
ATOM      1  C   UNL     1      -8.881  24.055  22.793  1.00  0.00     0.000 C 
ENDROOT
BRANCH   1   2
ATOM      2  C   UNL     1     -10.363  24.215  22.433  1.00  0.00     0.006 C 
BRANCH   2   3
ATOM      3  C   UNL     1     -11.020  22.854  22.190  1.00  0.00     0.053 C 
BRANCH   3   4
ATOM      4  C   UNL     1     -10.482  22.227  20.943  1.00  0.00     0.041 C 
ATOM      5  O   UNL     1     -10.031  21.052  20.970  1.00  0.00    -0.550 OA
ATOM      6  O   UNL     1     -10.434  22.957  19.764  1.00  0.00    -0.550 OA
ENDBRANCH   3   4
ENDBRANCH   2   3
ENDBRANCH   1   2
BRANCH   1   7
ATOM      7  C   UNL     1      -7.996  24.894  21.863  1.00  0.00     0.000 C 
BRANCH   7   8
ATOM      8  C   UNL     1      -7.259  25.990  22.647  1.00  0.00     0.004 C 
BRANCH   8   9
ATOM      9  C   UNL     1      -7.465  25.857  24.161  1.00  0.00     0.027 C 
BRANCH   9  10
ATOM     10  C   UNL     1      -8.102  27.091  24.743  1.00  0.00    -0.035 C 
ATOM     11  C   UNL     1      -9.144  27.022  25.576  1.00  0.00     0.004 C 
ENDBRANCH   9  10
ENDBRANCH   8   9
ENDBRANCH   7   8
ENDBRANCH   1   7
TORSDOF 7
ENDMDL
MODEL 9
REMARK VINA RESULT:    -3.576      1.836      3.238
REMARK INTER + INTRA:          -5.678
REMARK INTER:                  -5.051
REMARK INTRA:                  -0.627
REMARK UNBOUND:                -0.638
REMARK SMILES C=CCCCCCCC(=O)[O-]
REMARK SMILES IDX 6 1 7 2 8 3 9 4 10 5 11 6 5 7 4 8 3 9 2 10 1 11
REMARK H PARENT
REMARK Flexibility Score: inf
ROOT
ATOM      1  C   UNL     1      -8.185  26.715  21.838  1.00  0.00     0.000 C 
ENDROOT
BRANCH   1   2
ATOM      2  C   UNL     1      -9.583  26.705  21.208  1.00  0.00     0.006 C 
BRANCH   2   3
ATOM      3  C   UNL     1     -10.625  27.274  22.175  1.00  0.00     0.053 C 
BRANCH   3   4
ATOM      4  C   UNL     1     -10.664  28.766  22.086  1.00  0.00     0.041 C 
ATOM      5  O   UNL     1     -10.611  29.335  20.963  1.00  0.00    -0.550 OA
ATOM      6  O   UNL     1     -10.708  29.531  23.243  1.00  0.00    -0.550 OA
ENDBRANCH   3   4
ENDBRANCH   2   3
ENDBRANCH   1   2
BRANCH   1   7
ATOM      7  C   UNL     1      -8.062  25.638  22.922  1.00  0.00     0.000 C 
BRANCH   7   8
ATOM      8  C   UNL     1      -7.336  26.184  24.160  1.00  0.00     0.004 C 
BRANCH   8   9
ATOM      9  C   UNL     1      -8.305  26.826  25.162  1.00  0.00     0.027 C 
BRANCH   9  10
ATOM     10  C   UNL     1      -9.450  25.906  25.492  1.00  0.00    -0.035 C 
ATOM     11  C   UNL     1     -10.345  26.204  26.438  1.00  0.00     0.004 C 
ENDBRANCH   9  10
ENDBRANCH   8   9
ENDBRANCH   7   8
ENDBRANCH   1   7
TORSDOF 7
ENDMDL
