MODEL 1
REMARK VINA RESULT:    -3.431      0.000      0.000
REMARK INTER + INTRA:          -5.326
REMARK INTER:                  -4.835
REMARK INTRA:                  -0.491
REMARK UNBOUND:                -0.491
REMARK SMILES CCCCCCCCC(=O)[O-]
REMARK SMILES IDX 6 1 7 2 8 3 9 4 10 5 11 6 5 7 4 8 3 9 2 10 1 11
REMARK H PARENT
REMARK Flexibility Score: inf
ROOT
ATOM      1  C   UNL     1     119.225  52.490  54.157  1.00  0.00     0.000 C 
ENDROOT
BRANCH   1   2
ATOM      2  C   UNL     1     117.951  51.667  53.929  1.00  0.00     0.006 C 
BRANCH   2   3
ATOM      3  C   UNL     1     116.727  52.374  54.517  1.00  0.00     0.053 C 
BRANCH   3   4
ATOM      4  C   UNL     1     115.628  52.448  53.504  1.00  0.00     0.041 C 
ATOM      5  O   UNL     1     114.952  53.502  53.378  1.00  0.00    -0.550 OA
ATOM      6  O   UNL     1     115.383  51.369  52.665  1.00  0.00    -0.550 OA
ENDBRANCH   3   4
ENDBRANCH   2   3
ENDBRANCH   1   2
BRANCH   1   7
ATOM      7  C   UNL     1     118.896  53.840  54.813  1.00  0.00     0.000 C 
BRANCH   7   8
ATOM      8  C   UNL     1     119.805  54.151  56.014  1.00  0.00    -0.000 C 
BRANCH   8   9
ATOM      9  C   UNL     1     120.991  53.177  56.125  1.00  0.00    -0.000 C 
BRANCH   9  10
ATOM     10  C   UNL     1     122.346  53.878  55.948  1.00  0.00    -0.003 C 
ATOM     11  C   UNL     1     122.751  54.018  54.480  1.00  0.00     0.004 C 
ENDBRANCH   9  10
ENDBRANCH   8   9
ENDBRANCH   7   8
ENDBRANCH   1   7
TORSDOF 7
ENDMDL
MODEL 2
REMARK VINA RESULT:    -3.425     11.423     12.974
REMARK INTER + INTRA:          -5.317
REMARK INTER:                  -4.614
REMARK INTRA:                  -0.703
REMARK UNBOUND:                -0.491
REMARK SMILES CCCCCCCCC(=O)[O-]
REMARK SMILES IDX 6 1 7 2 8 3 9 4 10 5 11 6 5 7 4 8 3 9 2 10 1 11
REMARK H PARENT
REMARK Flexibility Score: inf
ROOT
ATOM      1  C   UNL     1     125.922  55.649  42.995  1.00  0.00     0.000 C 
ENDROOT
BRANCH   1   2
ATOM      2  C   UNL     1     124.529  55.836  43.610  1.00  0.00     0.006 C 
BRANCH   2   3
ATOM      3  C   UNL     1     124.593  56.727  44.854  1.00  0.00     0.053 C 
BRANCH   3   4
ATOM      4  C   UNL     1     124.511  58.171  44.469  1.00  0.00     0.041 C 
ATOM      5  O   UNL     1     123.393  58.710  44.266  1.00  0.00    -0.550 OA
ATOM      6  O   UNL     1     125.670  58.933  44.381  1.00  0.00    -0.550 OA
ENDBRANCH   3   4
ENDBRANCH   2   3
ENDBRANCH   1   2
BRANCH   1   7
ATOM      7  C   UNL     1     126.506  54.278  43.368  1.00  0.00     0.000 C 
BRANCH   7   8
ATOM      8  C   UNL     1     125.473  53.145  43.259  1.00  0.00    -0.000 C 
BRANCH   8   9
ATOM      9  C   UNL     1     125.312  52.364  44.575  1.00  0.00    -0.000 C 
BRANCH   9  10
ATOM     10  C   UNL     1     126.209  52.909  45.697  1.00  0.00    -0.003 C 
ATOM     11  C   UNL     1     125.413  53.578  46.818  1.00  0.00     0.004 C 
ENDBRANCH   9  10
ENDBRANCH   8   9
ENDBRANCH   7   8
ENDBRANCH   1   7
TORSDOF 7
ENDMDL
MODEL 3
REMARK VINA RESULT:    -3.264      3.416      5.794
REMARK INTER + INTRA:          -5.090
REMARK INTER:                  -4.719
REMARK INTRA:                  -0.371
REMARK UNBOUND:                -0.491
REMARK SMILES CCCCCCCCC(=O)[O-]
REMARK SMILES IDX 6 1 7 2 8 3 9 4 10 5 11 6 5 7 4 8 3 9 2 10 1 11
REMARK H PARENT
REMARK Flexibility Score: inf
ROOT
ATOM      1  C   UNL     1     119.345  54.115  54.750  1.00  0.00     0.000 C 
ENDROOT
BRANCH   1   2
ATOM      2  C   UNL     1     119.996  53.900  56.121  1.00  0.00     0.006 C 
BRANCH   2   3
ATOM      3  C   UNL     1     121.445  54.396  56.125  1.00  0.00     0.053 C 
BRANCH   3   4
ATOM      4  C   UNL     1     122.254  53.658  55.105  1.00  0.00     0.041 C 
ATOM      5  O   UNL     1     122.956  54.291  54.274  1.00  0.00    -0.550 OA
ATOM      6  O   UNL     1     122.269  52.269  55.103  1.00  0.00    -0.550 OA
ENDBRANCH   3   4
ENDBRANCH   2   3
ENDBRANCH   1   2
BRANCH   1   7
ATOM      7  C   UNL     1     118.533  52.882  54.328  1.00  0.00     0.000 C 
BRANCH   7   8
ATOM      8  C   UNL     1     117.115  52.876  54.923  1.00  0.00    -0.000 C 
BRANCH   8   9
ATOM      9  C   UNL     1     116.092  52.184  54.006  1.00  0.00    -0.000 C 
BRANCH   9  10
ATOM     10  C   UNL     1     115.159  53.184  53.305  1.00  0.00    -0.003 C 
ATOM     11  C   UNL     1     115.719  53.678  51.971  1.00  0.00     0.004 C 
ENDBRANCH   9  10
ENDBRANCH   8   9
ENDBRANCH   7   8
ENDBRANCH   1   7
TORSDOF 7
ENDMDL
MODEL 4
REMARK VINA RESULT:    -3.206      2.163      3.506
REMARK INTER + INTRA:          -5.008
REMARK INTER:                  -4.493
REMARK INTRA:                  -0.515
REMARK UNBOUND:                -0.491
REMARK SMILES CCCCCCCCC(=O)[O-]
REMARK SMILES IDX 6 1 7 2 8 3 9 4 10 5 11 6 5 7 4 8 3 9 2 10 1 11
REMARK H PARENT
REMARK Flexibility Score: inf
ROOT
ATOM      1  C   UNL     1     115.591  52.129  53.211  1.00  0.00     0.000 C 
ENDROOT
BRANCH   1   2
ATOM      2  C   UNL     1     115.420  53.581  52.750  1.00  0.00     0.006 C 
BRANCH   2   3
ATOM      3  C   UNL     1     116.125  53.820  51.411  1.00  0.00     0.053 C 
BRANCH   3   4
ATOM      4  C   UNL     1     115.123  53.960  50.309  1.00  0.00     0.041 C 
ATOM      5  O   UNL     1     114.514  55.048  50.140  1.00  0.00    -0.550 OA
ATOM      6  O   UNL     1     114.896  52.901  49.438  1.00  0.00    -0.550 OA
ENDBRANCH   3   4
ENDBRANCH   2   3
ENDBRANCH   1   2
BRANCH   1   7
ATOM      7  C   UNL     1     116.592  52.035  54.372  1.00  0.00     0.000 C 
BRANCH   7   8
ATOM      8  C   UNL     1     117.987  51.577  53.915  1.00  0.00    -0.000 C 
BRANCH   8   9
ATOM      9  C   UNL     1     119.096  52.560  54.326  1.00  0.00    -0.000 C 
BRANCH   9  10
ATOM     10  C   UNL     1     118.550  53.782  55.081  1.00  0.00    -0.003 C 
ATOM     11  C   UNL     1     119.534  54.324  56.117  1.00  0.00     0.004 C 
ENDBRANCH   9  10
ENDBRANCH   8   9
ENDBRANCH   7   8
ENDBRANCH   1   7
TORSDOF 7
ENDMDL
MODEL 5
REMARK VINA RESULT:    -3.176     10.912     12.620
REMARK INTER + INTRA:          -4.967
REMARK INTER:                  -4.218
REMARK INTRA:                  -0.748
REMARK UNBOUND:                -0.491
REMARK SMILES CCCCCCCCC(=O)[O-]
REMARK SMILES IDX 6 1 7 2 8 3 9 4 10 5 11 6 5 7 4 8 3 9 2 10 1 11
REMARK H PARENT
REMARK Flexibility Score: inf
ROOT
ATOM      1  C   UNL     1     125.382  53.162  43.259  1.00  0.00     0.000 C 
ENDROOT
BRANCH   1   2
ATOM      2  C   UNL     1     125.332  52.302  44.528  1.00  0.00     0.006 C 
BRANCH   2   3
ATOM      3  C   UNL     1     126.227  52.888  45.625  1.00  0.00     0.053 C 
BRANCH   3   4
ATOM      4  C   UNL     1     126.442  51.886  46.715  1.00  0.00     0.041 C 
ATOM      5  O   UNL     1     126.424  50.655  46.457  1.00  0.00    -0.550 OA
ATOM      6  O   UNL     1     126.709  52.315  48.009  1.00  0.00    -0.550 OA
ENDBRANCH   3   4
ENDBRANCH   2   3
ENDBRANCH   1   2
BRANCH   1   7
ATOM      7  C   UNL     1     126.446  54.262  43.383  1.00  0.00     0.000 C 
BRANCH   7   8
ATOM      8  C   UNL     1     125.902  55.654  43.019  1.00  0.00    -0.000 C 
BRANCH   8   9
ATOM      9  C   UNL     1     124.486  55.898  43.570  1.00  0.00    -0.000 C 
BRANCH   9  10
ATOM     10  C   UNL     1     124.500  56.466  44.998  1.00  0.00    -0.003 C 
ATOM     11  C   UNL     1     123.720  55.599  45.986  1.00  0.00     0.004 C 
ENDBRANCH   9  10
ENDBRANCH   8   9
ENDBRANCH   7   8
ENDBRANCH   1   7
TORSDOF 7
ENDMDL
MODEL 6
REMARK VINA RESULT:    -3.147     10.464     12.081
REMARK INTER + INTRA:          -4.925
REMARK INTER:                  -4.172
REMARK INTRA:                  -0.753
REMARK UNBOUND:                -0.491
REMARK SMILES CCCCCCCCC(=O)[O-]
REMARK SMILES IDX 6 1 7 2 8 3 9 4 10 5 11 6 5 7 4 8 3 9 2 10 1 11
REMARK H PARENT
REMARK Flexibility Score: inf
ROOT
ATOM      1  C   UNL     1     124.473  55.884  43.712  1.00  0.00     0.000 C 
ENDROOT
BRANCH   1   2
ATOM      2  C   UNL     1     124.649  56.487  45.111  1.00  0.00     0.006 C 
BRANCH   2   3
ATOM      3  C   UNL     1     123.667  55.862  46.107  1.00  0.00     0.053 C 
BRANCH   3   4
ATOM      4  C   UNL     1     124.170  56.017  47.507  1.00  0.00     0.041 C 
ATOM      5  O   UNL     1     125.403  55.944  47.748  1.00  0.00    -0.550 OA
ATOM      6  O   UNL     1     123.282  56.290  48.539  1.00  0.00    -0.550 OA
ENDBRANCH   3   4
ENDBRANCH   2   3
ENDBRANCH   1   2
BRANCH   1   7
ATOM      7  C   UNL     1     125.833  55.664  43.034  1.00  0.00     0.000 C 
BRANCH   7   8
ATOM      8  C   UNL     1     126.492  54.337  43.445  1.00  0.00    -0.000 C 
BRANCH   8   9
ATOM      9  C   UNL     1     125.553  53.131  43.265  1.00  0.00    -0.000 C 
BRANCH   9  10
ATOM     10  C   UNL     1     125.338  52.353  44.572  1.00  0.00    -0.003 C 
ATOM     11  C   UNL     1     126.084  52.970  45.756  1.00  0.00     0.004 C 
ENDBRANCH   9  10
ENDBRANCH   8   9
ENDBRANCH   7   8
ENDBRANCH   1   7
TORSDOF 7
ENDMDL
MODEL 7
REMARK VINA RESULT:    -3.140      3.375      5.678
REMARK INTER + INTRA:          -4.915
REMARK INTER:                  -4.433
REMARK INTRA:                  -0.482
REMARK UNBOUND:                -0.491
REMARK SMILES CCCCCCCCC(=O)[O-]
REMARK SMILES IDX 6 1 7 2 8 3 9 4 10 5 11 6 5 7 4 8 3 9 2 10 1 11
REMARK H PARENT
REMARK Flexibility Score: inf
ROOT
ATOM      1  C   UNL     1     117.605  53.120  54.904  1.00  0.00     0.000 C 
ENDROOT
BRANCH   1   2
ATOM      2  C   UNL     1     118.889  53.817  54.439  1.00  0.00     0.006 C 
BRANCH   2   3
ATOM      3  C   UNL     1     119.846  54.047  55.612  1.00  0.00     0.053 C 
BRANCH   3   4
ATOM      4  C   UNL     1     121.264  53.858  55.176  1.00  0.00     0.041 C 
ATOM      5  O   UNL     1     121.571  53.956  53.959  1.00  0.00    -0.550 OA
ATOM      6  O   UNL     1     122.256  53.622  56.119  1.00  0.00    -0.550 OA
ENDBRANCH   3   4
ENDBRANCH   2   3
ENDBRANCH   1   2
BRANCH   1   7
ATOM      7  C   UNL     1     117.264  51.932  53.993  1.00  0.00     0.000 C 
BRANCH   7   8
ATOM      8  C   UNL     1     115.791  51.929  53.551  1.00  0.00    -0.000 C 
BRANCH   8   9
ATOM      9  C   UNL     1     115.315  53.312  53.074  1.00  0.00    -0.000 C 
BRANCH   9  10
ATOM     10  C   UNL     1     115.572  53.539  51.577  1.00  0.00    -0.003 C 
ATOM     11  C   UNL     1     116.792  54.424  51.316  1.00  0.00     0.004 C 
ENDBRANCH   9  10
ENDBRANCH   8   9
ENDBRANCH   7   8
ENDBRANCH   1   7
TORSDOF 7
ENDMDL
MODEL 8
REMARK VINA RESULT:    -3.124     11.106     12.633
REMARK INTER + INTRA:          -4.893
REMARK INTER:                  -4.271
REMARK INTRA:                  -0.623
REMARK UNBOUND:                -0.491
REMARK SMILES CCCCCCCCC(=O)[O-]
REMARK SMILES IDX 6 1 7 2 8 3 9 4 10 5 11 6 5 7 4 8 3 9 2 10 1 11
REMARK H PARENT
REMARK Flexibility Score: inf
ROOT
ATOM      1  C   UNL     1     126.457  54.218  43.359  1.00  0.00     0.000 C 
ENDROOT
BRANCH   1   2
ATOM      2  C   UNL     1     125.816  53.757  44.673  1.00  0.00     0.006 C 
BRANCH   2   3
ATOM      3  C   UNL     1     125.339  52.306  44.574  1.00  0.00     0.053 C 
BRANCH   3   4
ATOM      4  C   UNL     1     124.278  52.174  43.527  1.00  0.00     0.041 C 
ATOM      5  O   UNL     1     123.183  52.780  43.656  1.00  0.00    -0.550 OA
ATOM      6  O   UNL     1     124.517  51.419  42.386  1.00  0.00    -0.550 OA
ENDBRANCH   3   4
ENDBRANCH   2   3
ENDBRANCH   1   2
BRANCH   1   7
ATOM      7  C   UNL     1     125.948  55.610  42.957  1.00  0.00     0.000 C 
BRANCH   7   8
ATOM      8  C   UNL     1     124.641  55.990  43.673  1.00  0.00    -0.000 C 
BRANCH   8   9
ATOM      9  C   UNL     1     124.724  57.364  44.362  1.00  0.00    -0.000 C 
BRANCH   9  10
ATOM     10  C   UNL     1     123.872  57.434  45.639  1.00  0.00    -0.003 C 
ATOM     11  C   UNL     1     124.318  56.429  46.701  1.00  0.00     0.004 C 
ENDBRANCH   9  10
ENDBRANCH   8   9
ENDBRANCH   7   8
ENDBRANCH   1   7
TORSDOF 7
ENDMDL
MODEL 9
REMARK VINA RESULT:    -1.667     11.927     12.821
REMARK INTER + INTRA:          -2.839
REMARK INTER:                  -2.299
REMARK INTRA:                  -0.540
REMARK UNBOUND:                -0.491
REMARK SMILES CCCCCCCCC(=O)[O-]
REMARK SMILES IDX 6 1 7 2 8 3 9 4 10 5 11 6 5 7 4 8 3 9 2 10 1 11
REMARK H PARENT
REMARK Flexibility Score: inf
ROOT
ATOM      1  C   UNL     1     125.714  55.493  43.001  1.00  0.00     0.000 C 
ENDROOT
BRANCH   1   2
ATOM      2  C   UNL     1     126.572  54.399  43.649  1.00  0.00     0.006 C 
BRANCH   2   3
ATOM      3  C   UNL     1     125.768  53.109  43.836  1.00  0.00     0.053 C 
BRANCH   3   4
ATOM      4  C   UNL     1     125.775  52.691  45.273  1.00  0.00     0.041 C 
ATOM      5  O   UNL     1     125.837  53.557  46.184  1.00  0.00    -0.550 OA
ATOM      6  O   UNL     1     125.665  51.347  45.606  1.00  0.00    -0.550 OA
ENDBRANCH   3   4
ENDBRANCH   2   3
ENDBRANCH   1   2
BRANCH   1   7
ATOM      7  C   UNL     1     124.234  55.321  43.370  1.00  0.00     0.000 C 
BRANCH   7   8
ATOM      8  C   UNL     1     123.626  56.591  43.988  1.00  0.00    -0.000 C 
BRANCH   8   9
ATOM      9  C   UNL     1     124.428  57.101  45.198  1.00  0.00    -0.000 C 
BRANCH   9  10
ATOM     10  C   UNL     1     124.562  58.632  45.213  1.00  0.00    -0.003 C 
ATOM     11  C   UNL     1     125.787  59.125  44.443  1.00  0.00     0.004 C 
ENDBRANCH   9  10
ENDBRANCH   8   9
ENDBRANCH   7   8
ENDBRANCH   1   7
TORSDOF 7
ENDMDL
