MODEL 1
REMARK VINA RESULT:    -3.696      0.000      0.000
REMARK INTER + INTRA:         -13.983
REMARK INTER:                  -9.746
REMARK INTRA:                  -4.237
REMARK UNBOUND:                -4.237
REMARK SMILES CCCCCCCCCCCCCCCCCCCCCCCCCCCCCC(=O)[O-]
REMARK SMILES IDX 16 1 17 2 18 3 19 4 20 5 21 6 22 7 23 8 24 9 25 10 26 11
REMARK SMILES IDX 27 12 28 13 29 14 30 15 31 16 32 17 15 18 14 19 13 20 12 21
REMARK SMILES IDX 11 22 10 23 9 24 8 25 7 26 6 27 5 28 4 29 3 30 2 31 1 32
REMARK H PARENT
REMARK Flexibility Score: inf
ROOT
ATOM      1  C   UNL     1      21.732  11.455  34.784  1.00  0.00     0.000 C 
ENDROOT
BRANCH   1   2
ATOM      2  C   UNL     1      21.388  12.686  35.640  1.00  0.00     0.000 C 
BRANCH   2   3
ATOM      3  C   UNL     1      20.264  13.541  35.029  1.00  0.00     0.000 C 
BRANCH   3   4
ATOM      4  C   UNL     1      18.897  12.835  34.902  1.00  0.00     0.000 C 
BRANCH   4   5
ATOM      5  C   UNL     1      18.403  12.612  33.460  1.00  0.00     0.000 C 
BRANCH   5   6
ATOM      6  C   UNL     1      18.789  11.231  32.902  1.00  0.00     0.000 C 
BRANCH   6   7
ATOM      7  C   UNL     1      19.341  11.303  31.470  1.00  0.00     0.000 C 
BRANCH   7   8
ATOM      8  C   UNL     1      20.823  10.900  31.379  1.00  0.00     0.000 C 
BRANCH   8   9
ATOM      9  C   UNL     1      21.761  12.111  31.503  1.00  0.00     0.000 C 
BRANCH   9  10
ATOM     10  C   UNL     1      22.127  12.713  30.134  1.00  0.00     0.000 C 
BRANCH  10  11
ATOM     11  C   UNL     1      21.335  13.997  29.835  1.00  0.00     0.000 C 
BRANCH  11  12
ATOM     12  C   UNL     1      21.442  15.024  30.974  1.00  0.00     0.000 C 
BRANCH  12  13
ATOM     13  C   UNL     1      21.236  16.468  30.490  1.00  0.00     0.006 C 
BRANCH  13  14
ATOM     14  C   UNL     1      21.933  17.496  31.391  1.00  0.00     0.053 C 
BRANCH  14  15
ATOM     15  C   UNL     1      23.182  18.002  30.741  1.00  0.00     0.041 C 
ATOM     16  O   UNL     1      24.179  17.245  30.610  1.00  0.00    -0.550 OA
ATOM     17  O   UNL     1      23.262  19.324  30.322  1.00  0.00    -0.550 OA
ENDBRANCH  14  15
ENDBRANCH  13  14
ENDBRANCH  12  13
ENDBRANCH  11  12
ENDBRANCH  10  11
ENDBRANCH   9  10
ENDBRANCH   8   9
ENDBRANCH   7   8
ENDBRANCH   6   7
ENDBRANCH   5   6
ENDBRANCH   4   5
ENDBRANCH   3   4
ENDBRANCH   2   3
ENDBRANCH   1   2
BRANCH   1  18
ATOM     18  C   UNL     1      22.143  10.238  35.638  1.00  0.00     0.000 C 
BRANCH  18  19
ATOM     19  C   UNL     1      21.214   9.021  35.484  1.00  0.00     0.000 C 
BRANCH  19  20
ATOM     20  C   UNL     1      19.815   9.262  36.067  1.00  0.00     0.000 C 
BRANCH  20  21
ATOM     21  C   UNL     1      19.445   8.179  37.092  1.00  0.00     0.000 C 
BRANCH  21  22
ATOM     22  C   UNL     1      19.495   6.753  36.510  1.00  0.00     0.000 C 
BRANCH  22  23
ATOM     23  C   UNL     1      18.146   6.192  36.018  1.00  0.00     0.000 C 
BRANCH  23  24
ATOM     24  C   UNL     1      18.085   6.013  34.491  1.00  0.00    -0.000 C 
BRANCH  24  25
ATOM     25  C   UNL     1      19.415   6.355  33.796  1.00  0.00    -0.000 C 
BRANCH  25  26
ATOM     26  C   UNL     1      19.304   7.349  32.627  1.00  0.00    -0.000 C 
BRANCH  26  27
ATOM     27  C   UNL     1      18.020   7.163  31.806  1.00  0.00    -0.000 C 
BRANCH  27  28
ATOM     28  C   UNL     1      18.052   8.021  30.534  1.00  0.00    -0.000 C 
BRANCH  28  29
ATOM     29  C   UNL     1      19.398   7.885  29.814  1.00  0.00    -0.000 C 
BRANCH  29  30
ATOM     30  C   UNL     1      19.455   6.589  28.998  1.00  0.00    -0.000 C 
BRANCH  30  31
ATOM     31  C   UNL     1      20.780   5.853  29.227  1.00  0.00    -0.003 C 
ATOM     32  C   UNL     1      20.559   4.349  29.356  1.00  0.00     0.004 C 
ENDBRANCH  30  31
ENDBRANCH  29  30
ENDBRANCH  28  29
ENDBRANCH  27  28
ENDBRANCH  26  27
ENDBRANCH  25  26
ENDBRANCH  24  25
ENDBRANCH  23  24
ENDBRANCH  22  23
ENDBRANCH  21  22
ENDBRANCH  20  21
ENDBRANCH  19  20
ENDBRANCH  18  19
ENDBRANCH   1  18
TORSDOF 28
ENDMDL
MODEL 2
REMARK VINA RESULT:    -3.463      1.771      3.868
REMARK INTER + INTRA:         -13.369
REMARK INTER:                  -9.288
REMARK INTRA:                  -4.082
REMARK UNBOUND:                -4.237
REMARK SMILES CCCCCCCCCCCCCCCCCCCCCCCCCCCCCC(=O)[O-]
REMARK SMILES IDX 16 1 17 2 18 3 19 4 20 5 21 6 22 7 23 8 24 9 25 10 26 11
REMARK SMILES IDX 27 12 28 13 29 14 30 15 31 16 32 17 15 18 14 19 13 20 12 21
REMARK SMILES IDX 11 22 10 23 9 24 8 25 7 26 6 27 5 28 4 29 3 30 2 31 1 32
REMARK H PARENT
REMARK Flexibility Score: inf
ROOT
ATOM      1  C   UNL     1      22.736  11.023  34.312  1.00  0.00     0.000 C 
ENDROOT
BRANCH   1   2
ATOM      2  C   UNL     1      22.301  11.902  33.127  1.00  0.00     0.000 C 
BRANCH   2   3
ATOM      3  C   UNL     1      21.303  11.193  32.194  1.00  0.00     0.000 C 
BRANCH   3   4
ATOM      4  C   UNL     1      21.594  11.343  30.686  1.00  0.00     0.000 C 
BRANCH   4   5
ATOM      5  C   UNL     1      20.443  10.931  29.749  1.00  0.00     0.000 C 
BRANCH   5   6
ATOM      6  C   UNL     1      19.903  12.105  28.913  1.00  0.00     0.000 C 
BRANCH   6   7
ATOM      7  C   UNL     1      18.834  12.920  29.655  1.00  0.00     0.000 C 
BRANCH   7   8
ATOM      8  C   UNL     1      19.043  14.439  29.525  1.00  0.00     0.000 C 
BRANCH   8   9
ATOM      9  C   UNL     1      20.305  14.915  30.262  1.00  0.00     0.000 C 
BRANCH   9  10
ATOM     10  C   UNL     1      21.540  14.956  29.344  1.00  0.00     0.000 C 
BRANCH  10  11
ATOM     11  C   UNL     1      22.854  14.812  30.132  1.00  0.00     0.000 C 
BRANCH  11  12
ATOM     12  C   UNL     1      23.934  15.791  29.642  1.00  0.00     0.000 C 
BRANCH  12  13
ATOM     13  C   UNL     1      23.938  17.110  30.431  1.00  0.00     0.006 C 
BRANCH  13  14
ATOM     14  C   UNL     1      23.120  18.209  29.740  1.00  0.00     0.053 C 
BRANCH  14  15
ATOM     15  C   UNL     1      21.838  18.448  30.474  1.00  0.00     0.041 C 
ATOM     16  O   UNL     1      20.959  19.204  29.982  1.00  0.00    -0.550 OA
ATOM     17  O   UNL     1      21.631  17.873  31.721  1.00  0.00    -0.550 OA
ENDBRANCH  14  15
ENDBRANCH  13  14
ENDBRANCH  12  13
ENDBRANCH  11  12
ENDBRANCH  10  11
ENDBRANCH   9  10
ENDBRANCH   8   9
ENDBRANCH   7   8
ENDBRANCH   6   7
ENDBRANCH   5   6
ENDBRANCH   4   5
ENDBRANCH   3   4
ENDBRANCH   2   3
ENDBRANCH   1   2
BRANCH   1  18
ATOM     18  C   UNL     1      21.912  11.300  35.587  1.00  0.00     0.000 C 
BRANCH  18  19
ATOM     19  C   UNL     1      21.398  12.746  35.698  1.00  0.00     0.000 C 
BRANCH  19  20
ATOM     20  C   UNL     1      19.885  12.861  35.464  1.00  0.00     0.000 C 
BRANCH  20  21
ATOM     21  C   UNL     1      19.186  11.509  35.668  1.00  0.00     0.000 C 
BRANCH  21  22
ATOM     22  C   UNL     1      18.254  11.128  34.500  1.00  0.00     0.000 C 
BRANCH  22  23
ATOM     23  C   UNL     1      18.568   9.784  33.816  1.00  0.00     0.000 C 
BRANCH  23  24
ATOM     24  C   UNL     1      17.904   9.636  32.436  1.00  0.00    -0.000 C 
BRANCH  24  25
ATOM     25  C   UNL     1      18.596   8.586  31.549  1.00  0.00    -0.000 C 
BRANCH  25  26
ATOM     26  C   UNL     1      17.875   7.230  31.460  1.00  0.00    -0.000 C 
BRANCH  26  27
ATOM     27  C   UNL     1      18.784   6.046  31.821  1.00  0.00    -0.000 C 
BRANCH  27  28
ATOM     28  C   UNL     1      19.081   6.020  33.326  1.00  0.00    -0.000 C 
BRANCH  28  29
ATOM     29  C   UNL     1      20.481   6.573  33.619  1.00  0.00    -0.000 C 
BRANCH  29  30
ATOM     30  C   UNL     1      20.614   6.978  35.091  1.00  0.00    -0.000 C 
BRANCH  30  31
ATOM     31  C   UNL     1      19.254   6.940  35.796  1.00  0.00    -0.003 C 
ATOM     32  C   UNL     1      19.351   6.230  37.142  1.00  0.00     0.004 C 
ENDBRANCH  30  31
ENDBRANCH  29  30
ENDBRANCH  28  29
ENDBRANCH  27  28
ENDBRANCH  26  27
ENDBRANCH  25  26
ENDBRANCH  24  25
ENDBRANCH  23  24
ENDBRANCH  22  23
ENDBRANCH  21  22
ENDBRANCH  20  21
ENDBRANCH  19  20
ENDBRANCH  18  19
ENDBRANCH   1  18
TORSDOF 28
ENDMDL
MODEL 3
REMARK VINA RESULT:    -3.410      2.360      7.266
REMARK INTER + INTRA:         -13.230
REMARK INTER:                  -9.083
REMARK INTRA:                  -4.148
REMARK UNBOUND:                -4.237
REMARK SMILES CCCCCCCCCCCCCCCCCCCCCCCCCCCCCC(=O)[O-]
REMARK SMILES IDX 16 1 17 2 18 3 19 4 20 5 21 6 22 7 23 8 24 9 25 10 26 11
REMARK SMILES IDX 27 12 28 13 29 14 30 15 31 16 32 17 15 18 14 19 13 20 12 21
REMARK SMILES IDX 11 22 10 23 9 24 8 25 7 26 6 27 5 28 4 29 3 30 2 31 1 32
REMARK H PARENT
REMARK Flexibility Score: inf
ROOT
ATOM      1  C   UNL     1      20.508   5.873  32.083  1.00  0.00     0.000 C 
ENDROOT
BRANCH   1   2
ATOM      2  C   UNL     1      19.774   6.246  33.383  1.00  0.00     0.000 C 
BRANCH   2   3
ATOM      3  C   UNL     1      20.737   6.623  34.523  1.00  0.00     0.000 C 
BRANCH   3   4
ATOM      4  C   UNL     1      20.123   6.594  35.938  1.00  0.00     0.000 C 
BRANCH   4   5
ATOM      5  C   UNL     1      19.301   7.838  36.325  1.00  0.00     0.000 C 
BRANCH   5   6
ATOM      6  C   UNL     1      19.748   9.106  35.578  1.00  0.00     0.000 C 
BRANCH   6   7
ATOM      7  C   UNL     1      18.742   9.548  34.504  1.00  0.00     0.000 C 
BRANCH   7   8
ATOM      8  C   UNL     1      19.421  10.144  33.259  1.00  0.00     0.000 C 
BRANCH   8   9
ATOM      9  C   UNL     1      18.650  11.353  32.702  1.00  0.00     0.000 C 
BRANCH   9  10
ATOM     10  C   UNL     1      19.192  12.691  33.235  1.00  0.00     0.000 C 
BRANCH  10  11
ATOM     11  C   UNL     1      18.545  13.088  34.573  1.00  0.00     0.000 C 
BRANCH  11  12
ATOM     12  C   UNL     1      19.577  13.204  35.706  1.00  0.00     0.000 C 
BRANCH  12  13
ATOM     13  C   UNL     1      21.017  12.974  35.219  1.00  0.00     0.006 C 
BRANCH  13  14
ATOM     14  C   UNL     1      21.675  11.758  35.885  1.00  0.00     0.053 C 
BRANCH  14  15
ATOM     15  C   UNL     1      22.835  11.278  35.070  1.00  0.00     0.041 C 
ATOM     16  O   UNL     1      23.945  11.053  35.621  1.00  0.00    -0.550 OA
ATOM     17  O   UNL     1      22.705  11.126  33.695  1.00  0.00    -0.550 OA
ENDBRANCH  14  15
ENDBRANCH  13  14
ENDBRANCH  12  13
ENDBRANCH  11  12
ENDBRANCH  10  11
ENDBRANCH   9  10
ENDBRANCH   8   9
ENDBRANCH   7   8
ENDBRANCH   6   7
ENDBRANCH   5   6
ENDBRANCH   4   5
ENDBRANCH   3   4
ENDBRANCH   2   3
ENDBRANCH   1   2
BRANCH   1  18
ATOM     18  C   UNL     1      19.686   6.216  30.822  1.00  0.00     0.000 C 
BRANCH  18  19
ATOM     19  C   UNL     1      18.462   7.107  31.096  1.00  0.00     0.000 C 
BRANCH  19  20
ATOM     20  C   UNL     1      17.994   7.876  29.853  1.00  0.00     0.000 C 
BRANCH  20  21
ATOM     21  C   UNL     1      18.536   9.313  29.850  1.00  0.00     0.000 C 
BRANCH  21  22
ATOM     22  C   UNL     1      19.825   9.472  29.020  1.00  0.00     0.000 C 
BRANCH  22  23
ATOM     23  C   UNL     1      21.073   9.903  29.815  1.00  0.00     0.000 C 
BRANCH  23  24
ATOM     24  C   UNL     1      22.025  10.802  29.008  1.00  0.00    -0.000 C 
BRANCH  24  25
ATOM     25  C   UNL     1      22.681  11.900  29.865  1.00  0.00    -0.000 C 
BRANCH  25  26
ATOM     26  C   UNL     1      21.701  12.782  30.657  1.00  0.00    -0.000 C 
BRANCH  26  27
ATOM     27  C   UNL     1      20.719  13.543  29.754  1.00  0.00    -0.000 C 
BRANCH  27  28
ATOM     28  C   UNL     1      21.272  14.926  29.384  1.00  0.00    -0.000 C 
BRANCH  28  29
ATOM     29  C   UNL     1      22.208  15.453  30.478  1.00  0.00    -0.000 C 
BRANCH  29  30
ATOM     30  C   UNL     1      23.665  15.446  30.002  1.00  0.00    -0.000 C 
BRANCH  30  31
ATOM     31  C   UNL     1      24.252  16.861  30.008  1.00  0.00    -0.003 C 
ATOM     32  C   UNL     1      23.345  17.831  30.758  1.00  0.00     0.004 C 
ENDBRANCH  30  31
ENDBRANCH  29  30
ENDBRANCH  28  29
ENDBRANCH  27  28
ENDBRANCH  26  27
ENDBRANCH  25  26
ENDBRANCH  24  25
ENDBRANCH  23  24
ENDBRANCH  22  23
ENDBRANCH  21  22
ENDBRANCH  20  21
ENDBRANCH  19  20
ENDBRANCH  18  19
ENDBRANCH   1  18
TORSDOF 28
ENDMDL
MODEL 4
REMARK VINA RESULT:    -3.247      3.696      8.057
REMARK INTER + INTRA:         -12.800
REMARK INTER:                  -8.172
REMARK INTRA:                  -4.629
REMARK UNBOUND:                -4.237
REMARK SMILES CCCCCCCCCCCCCCCCCCCCCCCCCCCCCC(=O)[O-]
REMARK SMILES IDX 16 1 17 2 18 3 19 4 20 5 21 6 22 7 23 8 24 9 25 10 26 11
REMARK SMILES IDX 27 12 28 13 29 14 30 15 31 16 32 17 15 18 14 19 13 20 12 21
REMARK SMILES IDX 11 22 10 23 9 24 8 25 7 26 6 27 5 28 4 29 3 30 2 31 1 32
REMARK H PARENT
REMARK Flexibility Score: inf
ROOT
ATOM      1  C   UNL     1      21.901  11.651  35.480  1.00  0.00     0.000 C 
ENDROOT
BRANCH   1   2
ATOM      2  C   UNL     1      22.130  10.784  34.229  1.00  0.00     0.000 C 
BRANCH   2   3
ATOM      3  C   UNL     1      20.880   9.983  33.823  1.00  0.00     0.000 C 
BRANCH   3   4
ATOM      4  C   UNL     1      20.053   9.418  34.998  1.00  0.00     0.000 C 
BRANCH   4   5
ATOM      5  C   UNL     1      20.577   8.100  35.599  1.00  0.00     0.000 C 
BRANCH   5   6
ATOM      6  C   UNL     1      19.670   6.898  35.284  1.00  0.00     0.000 C 
BRANCH   6   7
ATOM      7  C   UNL     1      19.880   6.351  33.863  1.00  0.00     0.000 C 
BRANCH   7   8
ATOM      8  C   UNL     1      18.559   6.108  33.114  1.00  0.00     0.000 C 
BRANCH   8   9
ATOM      9  C   UNL     1      17.915   7.419  32.636  1.00  0.00     0.000 C 
BRANCH   9  10
ATOM     10  C   UNL     1      18.153   7.678  31.137  1.00  0.00     0.000 C 
BRANCH  10  11
ATOM     11  C   UNL     1      19.582   8.170  30.853  1.00  0.00     0.000 C 
BRANCH  11  12
ATOM     12  C   UNL     1      19.900   8.194  29.349  1.00  0.00     0.000 C 
BRANCH  12  13
ATOM     13  C   UNL     1      20.610   6.916  28.875  1.00  0.00     0.006 C 
BRANCH  13  14
ATOM     14  C   UNL     1      19.736   5.665  29.035  1.00  0.00     0.053 C 
BRANCH  14  15
ATOM     15  C   UNL     1      20.586   4.434  29.073  1.00  0.00     0.041 C 
ATOM     16  O   UNL     1      21.841   4.532  29.120  1.00  0.00    -0.550 OA
ATOM     17  O   UNL     1      19.996   3.178  29.007  1.00  0.00    -0.550 OA
ENDBRANCH  14  15
ENDBRANCH  13  14
ENDBRANCH  12  13
ENDBRANCH  11  12
ENDBRANCH  10  11
ENDBRANCH   9  10
ENDBRANCH   8   9
ENDBRANCH   7   8
ENDBRANCH   6   7
ENDBRANCH   5   6
ENDBRANCH   4   5
ENDBRANCH   3   4
ENDBRANCH   2   3
ENDBRANCH   1   2
BRANCH   1  18
ATOM     18  C   UNL     1      21.240  13.004  35.148  1.00  0.00     0.000 C 
BRANCH  18  19
ATOM     19  C   UNL     1      19.788  13.130  35.641  1.00  0.00     0.000 C 
BRANCH  19  20
ATOM     20  C   UNL     1      18.759  12.944  34.517  1.00  0.00     0.000 C 
BRANCH  20  21
ATOM     21  C   UNL     1      19.406  13.116  33.135  1.00  0.00     0.000 C 
BRANCH  21  22
ATOM     22  C   UNL     1      18.456  12.758  31.974  1.00  0.00     0.000 C 
BRANCH  22  23
ATOM     23  C   UNL     1      18.966  11.661  31.019  1.00  0.00     0.000 C 
BRANCH  23  24
ATOM     24  C   UNL     1      20.153  12.116  30.152  1.00  0.00    -0.000 C 
BRANCH  24  25
ATOM     25  C   UNL     1      21.465  11.395  30.511  1.00  0.00    -0.000 C 
BRANCH  25  26
ATOM     26  C   UNL     1      22.700  11.854  29.717  1.00  0.00    -0.000 C 
BRANCH  26  27
ATOM     27  C   UNL     1      22.448  13.136  28.909  1.00  0.00    -0.000 C 
BRANCH  27  28
ATOM     28  C   UNL     1      23.673  14.058  28.943  1.00  0.00    -0.000 C 
BRANCH  28  29
ATOM     29  C   UNL     1      23.325  15.412  29.573  1.00  0.00    -0.000 C 
BRANCH  29  30
ATOM     30  C   UNL     1      22.446  15.229  30.815  1.00  0.00    -0.000 C 
BRANCH  30  31
ATOM     31  C   UNL     1      21.302  16.248  30.834  1.00  0.00    -0.003 C 
ATOM     32  C   UNL     1      20.195  15.852  29.862  1.00  0.00     0.004 C 
ENDBRANCH  30  31
ENDBRANCH  29  30
ENDBRANCH  28  29
ENDBRANCH  27  28
ENDBRANCH  26  27
ENDBRANCH  25  26
ENDBRANCH  24  25
ENDBRANCH  23  24
ENDBRANCH  22  23
ENDBRANCH  21  22
ENDBRANCH  20  21
ENDBRANCH  19  20
ENDBRANCH  18  19
ENDBRANCH   1  18
TORSDOF 28
ENDMDL
MODEL 5
REMARK VINA RESULT:    -3.244      1.758      4.239
REMARK INTER + INTRA:         -12.790
REMARK INTER:                  -8.992
REMARK INTRA:                  -3.798
REMARK UNBOUND:                -4.237
REMARK SMILES CCCCCCCCCCCCCCCCCCCCCCCCCCCCCC(=O)[O-]
REMARK SMILES IDX 16 1 17 2 18 3 19 4 20 5 21 6 22 7 23 8 24 9 25 10 26 11
REMARK SMILES IDX 27 12 28 13 29 14 30 15 31 16 32 17 15 18 14 19 13 20 12 21
REMARK SMILES IDX 11 22 10 23 9 24 8 25 7 26 6 27 5 28 4 29 3 30 2 31 1 32
REMARK H PARENT
REMARK Flexibility Score: inf
ROOT
ATOM      1  C   UNL     1      22.260  11.532  34.901  1.00  0.00     0.000 C 
ENDROOT
BRANCH   1   2
ATOM      2  C   UNL     1      21.579  12.893  35.130  1.00  0.00     0.000 C 
BRANCH   2   3
ATOM      3  C   UNL     1      20.693  13.321  33.946  1.00  0.00     0.000 C 
BRANCH   3   4
ATOM      4  C   UNL     1      21.329  13.140  32.552  1.00  0.00     0.000 C 
BRANCH   4   5
ATOM      5  C   UNL     1      20.360  13.282  31.363  1.00  0.00     0.000 C 
BRANCH   5   6
ATOM      6  C   UNL     1      20.693  14.483  30.460  1.00  0.00     0.000 C 
BRANCH   6   7
ATOM      7  C   UNL     1      19.447  15.096  29.803  1.00  0.00     0.000 C 
BRANCH   7   8
ATOM      8  C   UNL     1      19.735  16.441  29.114  1.00  0.00     0.000 C 
BRANCH   8   9
ATOM      9  C   UNL     1      19.315  17.638  29.983  1.00  0.00     0.000 C 
BRANCH   9  10
ATOM     10  C   UNL     1      20.522  18.391  30.570  1.00  0.00     0.000 C 
BRANCH  10  11
ATOM     11  C   UNL     1      21.349  19.099  29.484  1.00  0.00     0.000 C 
BRANCH  11  12
ATOM     12  C   UNL     1      22.784  18.554  29.397  1.00  0.00     0.000 C 
BRANCH  12  13
ATOM     13  C   UNL     1      23.025  17.374  30.352  1.00  0.00     0.006 C 
BRANCH  13  14
ATOM     14  C   UNL     1      24.476  16.876  30.315  1.00  0.00     0.053 C 
BRANCH  14  15
ATOM     15  C   UNL     1      24.622  15.760  29.330  1.00  0.00     0.041 C 
ATOM     16  O   UNL     1      25.759  15.461  28.876  1.00  0.00    -0.550 OA
ATOM     17  O   UNL     1      23.499  15.080  28.875  1.00  0.00    -0.550 OA
ENDBRANCH  14  15
ENDBRANCH  13  14
ENDBRANCH  12  13
ENDBRANCH  11  12
ENDBRANCH  10  11
ENDBRANCH   9  10
ENDBRANCH   8   9
ENDBRANCH   7   8
ENDBRANCH   6   7
ENDBRANCH   5   6
ENDBRANCH   4   5
ENDBRANCH   3   4
ENDBRANCH   2   3
ENDBRANCH   1   2
BRANCH   1  18
ATOM     18  C   UNL     1      21.244  10.389  34.701  1.00  0.00     0.000 C 
BRANCH  18  19
ATOM     19  C   UNL     1      20.160  10.316  35.791  1.00  0.00     0.000 C 
BRANCH  19  20
ATOM     20  C   UNL     1      18.760  10.656  35.264  1.00  0.00     0.000 C 
BRANCH  20  21
ATOM     21  C   UNL     1      18.407   9.809  34.032  1.00  0.00     0.000 C 
BRANCH  21  22
ATOM     22  C   UNL     1      18.333  10.634  32.732  1.00  0.00     0.000 C 
BRANCH  22  23
ATOM     23  C   UNL     1      18.214   9.811  31.434  1.00  0.00     0.000 C 
BRANCH  23  24
ATOM     24  C   UNL     1      19.547   9.675  30.678  1.00  0.00    -0.000 C 
BRANCH  24  25
ATOM     25  C   UNL     1      19.989   8.211  30.507  1.00  0.00    -0.000 C 
BRANCH  25  26
ATOM     26  C   UNL     1      18.842   7.189  30.421  1.00  0.00    -0.000 C 
BRANCH  26  27
ATOM     27  C   UNL     1      19.156   5.876  31.153  1.00  0.00    -0.000 C 
BRANCH  27  28
ATOM     28  C   UNL     1      20.169   6.104  32.282  1.00  0.00    -0.000 C 
BRANCH  28  29
ATOM     29  C   UNL     1      19.463   6.237  33.636  1.00  0.00    -0.000 C 
BRANCH  29  30
ATOM     30  C   UNL     1      20.382   6.894  34.672  1.00  0.00    -0.000 C 
BRANCH  30  31
ATOM     31  C   UNL     1      20.107   6.346  36.076  1.00  0.00    -0.003 C 
ATOM     32  C   UNL     1      18.837   6.950  36.665  1.00  0.00     0.004 C 
ENDBRANCH  30  31
ENDBRANCH  29  30
ENDBRANCH  28  29
ENDBRANCH  27  28
ENDBRANCH  26  27
ENDBRANCH  25  26
ENDBRANCH  24  25
ENDBRANCH  23  24
ENDBRANCH  22  23
ENDBRANCH  21  22
ENDBRANCH  20  21
ENDBRANCH  19  20
ENDBRANCH  18  19
ENDBRANCH   1  18
TORSDOF 28
ENDMDL
MODEL 6
REMARK VINA RESULT:    -3.232      1.639      3.799
REMARK INTER + INTRA:         -12.760
REMARK INTER:                  -8.827
REMARK INTRA:                  -3.932
REMARK UNBOUND:                -4.237
REMARK SMILES CCCCCCCCCCCCCCCCCCCCCCCCCCCCCC(=O)[O-]
REMARK SMILES IDX 16 1 17 2 18 3 19 4 20 5 21 6 22 7 23 8 24 9 25 10 26 11
REMARK SMILES IDX 27 12 28 13 29 14 30 15 31 16 32 17 15 18 14 19 13 20 12 21
REMARK SMILES IDX 11 22 10 23 9 24 8 25 7 26 6 27 5 28 4 29 3 30 2 31 1 32
REMARK H PARENT
REMARK Flexibility Score: inf
ROOT
ATOM      1  C   UNL     1      21.865  10.313  35.024  1.00  0.00     0.000 C 
ENDROOT
BRANCH   1   2
ATOM      2  C   UNL     1      22.460  11.725  34.883  1.00  0.00     0.000 C 
BRANCH   2   3
ATOM      3  C   UNL     1      21.422  12.835  35.126  1.00  0.00     0.000 C 
BRANCH   3   4
ATOM      4  C   UNL     1      21.101  13.713  33.898  1.00  0.00     0.000 C 
BRANCH   4   5
ATOM      5  C   UNL     1      21.491  13.109  32.536  1.00  0.00     0.000 C 
BRANCH   5   6
ATOM      6  C   UNL     1      20.508  13.483  31.412  1.00  0.00     0.000 C 
BRANCH   6   7
ATOM      7  C   UNL     1      21.197  13.639  30.048  1.00  0.00     0.000 C 
BRANCH   7   8
ATOM      8  C   UNL     1      22.636  13.097  30.040  1.00  0.00     0.000 C 
BRANCH   8   9
ATOM      9  C   UNL     1      23.464  13.668  28.877  1.00  0.00     0.000 C 
BRANCH   9  10
ATOM     10  C   UNL     1      24.950  13.836  29.241  1.00  0.00     0.000 C 
BRANCH  10  11
ATOM     11  C   UNL     1      25.484  15.231  28.875  1.00  0.00     0.000 C 
BRANCH  11  12
ATOM     12  C   UNL     1      24.390  16.310  28.953  1.00  0.00     0.000 C 
BRANCH  12  13
ATOM     13  C   UNL     1      24.130  16.783  30.392  1.00  0.00     0.006 C 
BRANCH  13  14
ATOM     14  C   UNL     1      22.633  16.871  30.720  1.00  0.00     0.053 C 
BRANCH  14  15
ATOM     15  C   UNL     1      22.158  18.287  30.622  1.00  0.00     0.041 C 
ATOM     16  O   UNL     1      20.939  18.558  30.787  1.00  0.00    -0.550 OA
ATOM     17  O   UNL     1      23.051  19.301  30.300  1.00  0.00    -0.550 OA
ENDBRANCH  14  15
ENDBRANCH  13  14
ENDBRANCH  12  13
ENDBRANCH  11  12
ENDBRANCH  10  11
ENDBRANCH   9  10
ENDBRANCH   8   9
ENDBRANCH   7   8
ENDBRANCH   6   7
ENDBRANCH   5   6
ENDBRANCH   4   5
ENDBRANCH   3   4
ENDBRANCH   2   3
ENDBRANCH   1   2
BRANCH   1  18
ATOM     18  C   UNL     1      20.526  10.158  34.274  1.00  0.00     0.000 C 
BRANCH  18  19
ATOM     19  C   UNL     1      19.289  10.181  35.190  1.00  0.00     0.000 C 
BRANCH  19  20
ATOM     20  C   UNL     1      17.986  10.449  34.425  1.00  0.00     0.000 C 
BRANCH  20  21
ATOM     21  C   UNL     1      18.142  11.627  33.452  1.00  0.00     0.000 C 
BRANCH  21  22
ATOM     22  C   UNL     1      17.940  11.225  31.978  1.00  0.00     0.000 C 
BRANCH  22  23
ATOM     23  C   UNL     1      17.973   9.710  31.696  1.00  0.00     0.000 C 
BRANCH  23  24
ATOM     24  C   UNL     1      18.242   9.375  30.219  1.00  0.00    -0.000 C 
BRANCH  24  25
ATOM     25  C   UNL     1      19.028   8.064  30.038  1.00  0.00    -0.000 C 
BRANCH  25  26
ATOM     26  C   UNL     1      19.784   7.578  31.287  1.00  0.00    -0.000 C 
BRANCH  26  27
ATOM     27  C   UNL     1      19.400   6.150  31.700  1.00  0.00    -0.000 C 
BRANCH  27  28
ATOM     28  C   UNL     1      18.187   6.156  32.638  1.00  0.00    -0.000 C 
BRANCH  28  29
ATOM     29  C   UNL     1      18.623   6.329  34.098  1.00  0.00    -0.000 C 
BRANCH  29  30
ATOM     30  C   UNL     1      20.136   6.555  34.195  1.00  0.00    -0.000 C 
BRANCH  30  31
ATOM     31  C   UNL     1      20.574   6.724  35.654  1.00  0.00    -0.003 C 
ATOM     32  C   UNL     1      19.373   6.722  36.593  1.00  0.00     0.004 C 
ENDBRANCH  30  31
ENDBRANCH  29  30
ENDBRANCH  28  29
ENDBRANCH  27  28
ENDBRANCH  26  27
ENDBRANCH  25  26
ENDBRANCH  24  25
ENDBRANCH  23  24
ENDBRANCH  22  23
ENDBRANCH  21  22
ENDBRANCH  20  21
ENDBRANCH  19  20
ENDBRANCH  18  19
ENDBRANCH   1  18
TORSDOF 28
ENDMDL
MODEL 7
REMARK VINA RESULT:    -3.148      1.486      5.577
REMARK INTER + INTRA:         -12.538
REMARK INTER:                  -8.263
REMARK INTRA:                  -4.275
REMARK UNBOUND:                -4.237
REMARK SMILES CCCCCCCCCCCCCCCCCCCCCCCCCCCCCC(=O)[O-]
REMARK SMILES IDX 16 1 17 2 18 3 19 4 20 5 21 6 22 7 23 8 24 9 25 10 26 11
REMARK SMILES IDX 27 12 28 13 29 14 30 15 31 16 32 17 15 18 14 19 13 20 12 21
REMARK SMILES IDX 11 22 10 23 9 24 8 25 7 26 6 27 5 28 4 29 3 30 2 31 1 32
REMARK H PARENT
REMARK Flexibility Score: inf
ROOT
ATOM      1  C   UNL     1      19.394   7.349  34.926  1.00  0.00     0.000 C 
ENDROOT
BRANCH   1   2
ATOM      2  C   UNL     1      20.395   6.780  33.905  1.00  0.00     0.000 C 
BRANCH   2   3
ATOM      3  C   UNL     1      19.704   6.050  32.739  1.00  0.00     0.000 C 
BRANCH   3   4
ATOM      4  C   UNL     1      20.236   6.408  31.334  1.00  0.00     0.000 C 
BRANCH   4   5
ATOM      5  C   UNL     1      19.195   7.008  30.370  1.00  0.00     0.000 C 
BRANCH   5   6
ATOM      6  C   UNL     1      19.783   8.102  29.462  1.00  0.00     0.000 C 
BRANCH   6   7
ATOM      7  C   UNL     1      20.501   9.208  30.251  1.00  0.00     0.000 C 
BRANCH   7   8
ATOM      8  C   UNL     1      21.431  10.062  29.373  1.00  0.00     0.000 C 
BRANCH   8   9
ATOM      9  C   UNL     1      22.142  11.160  30.180  1.00  0.00     0.000 C 
BRANCH   9  10
ATOM     10  C   UNL     1      22.654  12.306  29.289  1.00  0.00     0.000 C 
BRANCH  10  11
ATOM     11  C   UNL     1      21.702  13.515  29.295  1.00  0.00     0.000 C 
BRANCH  11  12
ATOM     12  C   UNL     1      21.190  13.844  30.707  1.00  0.00     0.000 C 
BRANCH  12  13
ATOM     13  C   UNL     1      21.776  15.154  31.256  1.00  0.00     0.006 C 
BRANCH  13  14
ATOM     14  C   UNL     1      22.557  15.940  30.194  1.00  0.00     0.053 C 
BRANCH  14  15
ATOM     15  C   UNL     1      23.087  17.215  30.770  1.00  0.00     0.041 C 
ATOM     16  O   UNL     1      22.293  18.111  31.161  1.00  0.00    -0.550 OA
ATOM     17  O   UNL     1      24.457  17.436  30.831  1.00  0.00    -0.550 OA
ENDBRANCH  14  15
ENDBRANCH  13  14
ENDBRANCH  12  13
ENDBRANCH  11  12
ENDBRANCH  10  11
ENDBRANCH   9  10
ENDBRANCH   8   9
ENDBRANCH   7   8
ENDBRANCH   6   7
ENDBRANCH   5   6
ENDBRANCH   4   5
ENDBRANCH   3   4
ENDBRANCH   2   3
ENDBRANCH   1   2
BRANCH   1  18
ATOM     18  C   UNL     1      18.124   7.914  34.257  1.00  0.00     0.000 C 
BRANCH  18  19
ATOM     19  C   UNL     1      18.143   9.441  34.069  1.00  0.00     0.000 C 
BRANCH  19  20
ATOM     20  C   UNL     1      18.778   9.870  32.740  1.00  0.00     0.000 C 
BRANCH  20  21
ATOM     21  C   UNL     1      18.088  11.118  32.169  1.00  0.00     0.000 C 
BRANCH  21  22
ATOM     22  C   UNL     1      18.643  12.434  32.750  1.00  0.00     0.000 C 
BRANCH  22  23
ATOM     23  C   UNL     1      17.875  12.997  33.962  1.00  0.00     0.000 C 
BRANCH  23  24
ATOM     24  C   UNL     1      18.541  12.663  35.308  1.00  0.00    -0.000 C 
BRANCH  24  25
ATOM     25  C   UNL     1      19.696  13.619  35.656  1.00  0.00    -0.000 C 
BRANCH  25  26
ATOM     26  C   UNL     1      21.102  12.996  35.582  1.00  0.00    -0.000 C 
BRANCH  26  27
ATOM     27  C   UNL     1      21.635  12.893  34.145  1.00  0.00    -0.000 C 
BRANCH  27  28
ATOM     28  C   UNL     1      22.129  11.473  33.843  1.00  0.00    -0.000 C 
BRANCH  28  29
ATOM     29  C   UNL     1      21.636  10.482  34.904  1.00  0.00    -0.000 C 
BRANCH  29  30
ATOM     30  C   UNL     1      22.788  10.026  35.806  1.00  0.00    -0.000 C 
BRANCH  30  31
ATOM     31  C   UNL     1      24.101  10.707  35.406  1.00  0.00    -0.003 C 
ATOM     32  C   UNL     1      24.498  11.777  36.417  1.00  0.00     0.004 C 
ENDBRANCH  30  31
ENDBRANCH  29  30
ENDBRANCH  28  29
ENDBRANCH  27  28
ENDBRANCH  26  27
ENDBRANCH  25  26
ENDBRANCH  24  25
ENDBRANCH  23  24
ENDBRANCH  22  23
ENDBRANCH  21  22
ENDBRANCH  20  21
ENDBRANCH  19  20
ENDBRANCH  18  19
ENDBRANCH   1  18
TORSDOF 28
ENDMDL
MODEL 8
REMARK VINA RESULT:    -3.101      3.232      8.408
REMARK INTER + INTRA:         -12.415
REMARK INTER:                  -8.365
REMARK INTRA:                  -4.050
REMARK UNBOUND:                -4.237
REMARK SMILES CCCCCCCCCCCCCCCCCCCCCCCCCCCCCC(=O)[O-]
REMARK SMILES IDX 16 1 17 2 18 3 19 4 20 5 21 6 22 7 23 8 24 9 25 10 26 11
REMARK SMILES IDX 27 12 28 13 29 14 30 15 31 16 32 17 15 18 14 19 13 20 12 21
REMARK SMILES IDX 11 22 10 23 9 24 8 25 7 26 6 27 5 28 4 29 3 30 2 31 1 32
REMARK H PARENT
REMARK Flexibility Score: inf
ROOT
ATOM      1  C   UNL     1      21.259  12.556  35.784  1.00  0.00     0.000 C 
ENDROOT
BRANCH   1   2
ATOM      2  C   UNL     1      21.971  11.201  35.624  1.00  0.00     0.000 C 
BRANCH   2   3
ATOM      3  C   UNL     1      22.816  11.121  34.340  1.00  0.00     0.000 C 
BRANCH   3   4
ATOM      4  C   UNL     1      22.117  11.629  33.061  1.00  0.00     0.000 C 
BRANCH   4   5
ATOM      5  C   UNL     1      21.056  10.681  32.470  1.00  0.00     0.000 C 
BRANCH   5   6
ATOM      6  C   UNL     1      21.152  10.557  30.940  1.00  0.00     0.000 C 
BRANCH   6   7
ATOM      7  C   UNL     1      20.096   9.607  30.354  1.00  0.00     0.000 C 
BRANCH   7   8
ATOM      8  C   UNL     1      20.650   8.718  29.228  1.00  0.00     0.000 C 
BRANCH   8   9
ATOM      9  C   UNL     1      20.290   7.237  29.429  1.00  0.00     0.000 C 
BRANCH   9  10
ATOM     10  C   UNL     1      19.192   7.038  30.489  1.00  0.00     0.000 C 
BRANCH  10  11
ATOM     11  C   UNL     1      19.333   5.695  31.225  1.00  0.00     0.000 C 
BRANCH  11  12
ATOM     12  C   UNL     1      19.294   5.864  32.753  1.00  0.00     0.000 C 
BRANCH  12  13
ATOM     13  C   UNL     1      20.619   6.396  33.322  1.00  0.00     0.006 C 
BRANCH  13  14
ATOM     14  C   UNL     1      20.564   6.604  34.842  1.00  0.00     0.053 C 
BRANCH  14  15
ATOM     15  C   UNL     1      19.561   7.659  35.190  1.00  0.00     0.041 C 
ATOM     16  O   UNL     1      19.505   8.724  34.521  1.00  0.00    -0.550 OA
ATOM     17  O   UNL     1      18.719   7.486  36.282  1.00  0.00    -0.550 OA
ENDBRANCH  14  15
ENDBRANCH  13  14
ENDBRANCH  12  13
ENDBRANCH  11  12
ENDBRANCH  10  11
ENDBRANCH   9  10
ENDBRANCH   8   9
ENDBRANCH   7   8
ENDBRANCH   6   7
ENDBRANCH   5   6
ENDBRANCH   4   5
ENDBRANCH   3   4
ENDBRANCH   2   3
ENDBRANCH   1   2
BRANCH   1  18
ATOM     18  C   UNL     1      19.726  12.436  35.660  1.00  0.00     0.000 C 
BRANCH  18  19
ATOM     19  C   UNL     1      19.145  13.103  34.400  1.00  0.00     0.000 C 
BRANCH  19  20
ATOM     20  C   UNL     1      17.875  12.410  33.889  1.00  0.00     0.000 C 
BRANCH  20  21
ATOM     21  C   UNL     1      18.029  11.975  32.424  1.00  0.00     0.000 C 
BRANCH  21  22
ATOM     22  C   UNL     1      17.875  13.142  31.428  1.00  0.00     0.000 C 
BRANCH  22  23
ATOM     23  C   UNL     1      18.461  12.894  30.024  1.00  0.00     0.000 C 
BRANCH  23  24
ATOM     24  C   UNL     1      19.670  13.790  29.706  1.00  0.00    -0.000 C 
BRANCH  24  25
ATOM     25  C   UNL     1      20.409  14.268  30.968  1.00  0.00    -0.000 C 
BRANCH  25  26
ATOM     26  C   UNL     1      21.901  14.586  30.770  1.00  0.00    -0.000 C 
BRANCH  26  27
ATOM     27  C   UNL     1      22.262  16.025  31.166  1.00  0.00    -0.000 C 
BRANCH  27  28
ATOM     28  C   UNL     1      23.311  16.612  30.213  1.00  0.00    -0.000 C 
BRANCH  28  29
ATOM     29  C   UNL     1      22.742  17.805  29.436  1.00  0.00    -0.000 C 
BRANCH  29  30
ATOM     30  C   UNL     1      21.689  18.548  30.267  1.00  0.00    -0.000 C 
BRANCH  30  31
ATOM     31  C   UNL     1      20.390  18.728  29.475  1.00  0.00    -0.003 C 
ATOM     32  C   UNL     1      19.279  17.843  30.030  1.00  0.00     0.004 C 
ENDBRANCH  30  31
ENDBRANCH  29  30
ENDBRANCH  28  29
ENDBRANCH  27  28
ENDBRANCH  26  27
ENDBRANCH  25  26
ENDBRANCH  24  25
ENDBRANCH  23  24
ENDBRANCH  22  23
ENDBRANCH  21  22
ENDBRANCH  20  21
ENDBRANCH  19  20
ENDBRANCH  18  19
ENDBRANCH   1  18
TORSDOF 28
ENDMDL
MODEL 9
REMARK VINA RESULT:    -3.024      2.072      3.362
REMARK INTER + INTRA:         -12.212
REMARK INTER:                  -8.874
REMARK INTRA:                  -3.338
REMARK UNBOUND:                -4.237
REMARK SMILES CCCCCCCCCCCCCCCCCCCCCCCCCCCCCC(=O)[O-]
REMARK SMILES IDX 16 1 17 2 18 3 19 4 20 5 21 6 22 7 23 8 24 9 25 10 26 11
REMARK SMILES IDX 27 12 28 13 29 14 30 15 31 16 32 17 15 18 14 19 13 20 12 21
REMARK SMILES IDX 11 22 10 23 9 24 8 25 7 26 6 27 5 28 4 29 3 30 2 31 1 32
REMARK H PARENT
REMARK Flexibility Score: inf
ROOT
ATOM      1  C   UNL     1      21.703  10.611  35.671  1.00  0.00     0.000 C 
ENDROOT
BRANCH   1   2
ATOM      2  C   UNL     1      22.277  11.083  34.324  1.00  0.00     0.000 C 
BRANCH   2   3
ATOM      3  C   UNL     1      21.188  11.569  33.351  1.00  0.00     0.000 C 
BRANCH   3   4
ATOM      4  C   UNL     1      20.973  13.097  33.317  1.00  0.00     0.000 C 
BRANCH   4   5
ATOM      5  C   UNL     1      20.649  13.686  31.931  1.00  0.00     0.000 C 
BRANCH   5   6
ATOM      6  C   UNL     1      21.866  14.350  31.264  1.00  0.00     0.000 C 
BRANCH   6   7
ATOM      7  C   UNL     1      21.653  14.614  29.766  1.00  0.00     0.000 C 
BRANCH   7   8
ATOM      8  C   UNL     1      22.957  14.540  28.954  1.00  0.00     0.000 C 
BRANCH   8   9
ATOM      9  C   UNL     1      24.100  15.323  29.620  1.00  0.00     0.000 C 
BRANCH   9  10
ATOM     10  C   UNL     1      24.015  16.835  29.342  1.00  0.00     0.000 C 
BRANCH  10  11
ATOM     11  C   UNL     1      23.846  17.654  30.633  1.00  0.00     0.000 C 
BRANCH  11  12
ATOM     12  C   UNL     1      22.711  18.685  30.522  1.00  0.00     0.000 C 
BRANCH  12  13
ATOM     13  C   UNL     1      21.821  18.452  29.291  1.00  0.00     0.006 C 
BRANCH  13  14
ATOM     14  C   UNL     1      20.479  19.190  29.389  1.00  0.00     0.053 C 
BRANCH  14  15
ATOM     15  C   UNL     1      19.465  18.343  30.091  1.00  0.00     0.041 C 
ATOM     16  O   UNL     1      19.505  17.089  29.984  1.00  0.00    -0.550 OA
ATOM     17  O   UNL     1      18.447  18.939  30.825  1.00  0.00    -0.550 OA
ENDBRANCH  14  15
ENDBRANCH  13  14
ENDBRANCH  12  13
ENDBRANCH  11  12
ENDBRANCH  10  11
ENDBRANCH   9  10
ENDBRANCH   8   9
ENDBRANCH   7   8
ENDBRANCH   6   7
ENDBRANCH   5   6
ENDBRANCH   4   5
ENDBRANCH   3   4
ENDBRANCH   2   3
ENDBRANCH   1   2
BRANCH   1  18
ATOM     18  C   UNL     1      20.170  10.445  35.634  1.00  0.00     0.000 C 
BRANCH  18  19
ATOM     19  C   UNL     1      19.652   9.234  36.430  1.00  0.00     0.000 C 
BRANCH  19  20
ATOM     20  C   UNL     1      20.189   7.898  35.901  1.00  0.00     0.000 C 
BRANCH  20  21
ATOM     21  C   UNL     1      19.319   6.722  36.368  1.00  0.00     0.000 C 
BRANCH  21  22
ATOM     22  C   UNL     1      17.970   6.636  35.627  1.00  0.00     0.000 C 
BRANCH  22  23
ATOM     23  C   UNL     1      17.876   5.533  34.555  1.00  0.00     0.000 C 
BRANCH  23  24
ATOM     24  C   UNL     1      17.899   6.082  33.118  1.00  0.00    -0.000 C 
BRANCH  24  25
ATOM     25  C   UNL     1      19.223   5.791  32.389  1.00  0.00    -0.000 C 
BRANCH  25  26
ATOM     26  C   UNL     1      20.237   6.949  32.392  1.00  0.00    -0.000 C 
BRANCH  26  27
ATOM     27  C   UNL     1      19.576   8.322  32.580  1.00  0.00    -0.000 C 
BRANCH  27  28
ATOM     28  C   UNL     1      18.386   8.494  31.627  1.00  0.00    -0.000 C 
BRANCH  28  29
ATOM     29  C   UNL     1      18.842   9.053  30.274  1.00  0.00    -0.000 C 
BRANCH  29  30
ATOM     30  C   UNL     1      19.629  10.355  30.457  1.00  0.00    -0.000 C 
BRANCH  30  31
ATOM     31  C   UNL     1      20.413  10.706  29.188  1.00  0.00    -0.003 C 
ATOM     32  C   UNL     1      21.886  10.950  29.500  1.00  0.00     0.004 C 
ENDBRANCH  30  31
ENDBRANCH  29  30
ENDBRANCH  28  29
ENDBRANCH  27  28
ENDBRANCH  26  27
ENDBRANCH  25  26
ENDBRANCH  24  25
ENDBRANCH  23  24
ENDBRANCH  22  23
ENDBRANCH  21  22
ENDBRANCH  20  21
ENDBRANCH  19  20
ENDBRANCH  18  19
ENDBRANCH   1  18
TORSDOF 28
ENDMDL
