MODEL 1
REMARK VINA RESULT:    -5.850      0.000      0.000
REMARK INTER + INTRA:          -6.650
REMARK INTER:                  -6.534
REMARK INTRA:                  -0.116
REMARK UNBOUND:                -0.116
REMARK SMILES COc1cc2ccc(=O)oc2cc1OC
REMARK SMILES IDX 3 1 13 2 12 3 11 4 5 5 4 6 6 7 7 8 8 9 9 10 10 11 2 12 1 13
REMARK SMILES IDX 14 14 15 15
REMARK H PARENT
REMARK Flexibility Score: inf
ROOT
ATOM      1  C   UNL     1       2.422  52.397   7.609  1.00  0.00     0.161 A 
ATOM      2  C   UNL     1       3.607  51.666   7.797  1.00  0.00     0.164 A 
ATOM      3  C   UNL     1       4.734  51.942   6.997  1.00  0.00     0.098 A 
ATOM      4  C   UNL     1       4.680  52.938   6.019  1.00  0.00     0.142 A 
ATOM      5  C   UNL     1       3.491  53.672   5.830  1.00  0.00     0.022 A 
ATOM      6  C   UNL     1       2.369  53.402   6.621  1.00  0.00     0.062 A 
ATOM      7  C   UNL     1       3.469  54.662   4.842  1.00  0.00     0.019 A 
ATOM      8  C   UNL     1       4.613  54.893   4.078  1.00  0.00     0.094 A 
ATOM      9  C   UNL     1       5.757  54.127   4.322  1.00  0.00     0.336 A 
ATOM     10  O   UNL     1       6.799  54.320   3.644  1.00  0.00    -0.246 OA
ATOM     11  O   UNL     1       5.750  53.191   5.268  1.00  0.00    -0.423 OA
ENDROOT
BRANCH   1  12
ATOM     12  O   UNL     1       1.320  52.096   8.424  1.00  0.00    -0.493 OA
ATOM     13  C   UNL     1       0.574  53.058   9.163  1.00  0.00     0.278 C 
ENDBRANCH   1  12
BRANCH   2  14
ATOM     14  O   UNL     1       3.626  50.674   8.790  1.00  0.00    -0.493 OA
ATOM     15  C   UNL     1       4.296  49.423   8.669  1.00  0.00     0.278 C 
ENDBRANCH   2  14
TORSDOF 2
ENDMDL
MODEL 2
REMARK VINA RESULT:    -5.569     14.681     16.277
REMARK INTER + INTRA:          -6.336
REMARK INTER:                  -6.227
REMARK INTRA:                  -0.109
REMARK UNBOUND:                -0.116
REMARK SMILES COc1cc2ccc(=O)oc2cc1OC
REMARK SMILES IDX 3 1 13 2 12 3 11 4 5 5 4 6 6 7 7 8 8 9 9 10 10 11 2 12 1 13
REMARK SMILES IDX 14 14 15 15
REMARK H PARENT
REMARK Flexibility Score: inf
ROOT
ATOM      1  C   UNL     1      -6.846  61.953   3.563  1.00  0.00     0.161 A 
ATOM      2  C   UNL     1      -5.906  62.847   4.103  1.00  0.00     0.164 A 
ATOM      3  C   UNL     1      -6.295  64.163   4.422  1.00  0.00     0.098 A 
ATOM      4  C   UNL     1      -7.609  64.585   4.205  1.00  0.00     0.142 A 
ATOM      5  C   UNL     1      -8.553  63.689   3.663  1.00  0.00     0.022 A 
ATOM      6  C   UNL     1      -8.172  62.380   3.344  1.00  0.00     0.062 A 
ATOM      7  C   UNL     1      -9.860  64.141   3.457  1.00  0.00     0.019 A 
ATOM      8  C   UNL     1     -10.191  65.455   3.790  1.00  0.00     0.094 A 
ATOM      9  C   UNL     1      -9.203  66.287   4.324  1.00  0.00     0.336 A 
ATOM     10  O   UNL     1      -9.480  67.475   4.632  1.00  0.00    -0.246 OA
ATOM     11  O   UNL     1      -7.966  65.831   4.510  1.00  0.00    -0.423 OA
ENDROOT
BRANCH   1  12
ATOM     12  O   UNL     1      -6.424  60.650   3.257  1.00  0.00    -0.493 OA
ATOM     13  C   UNL     1      -6.985  59.839   2.230  1.00  0.00     0.278 C 
ENDBRANCH   1  12
BRANCH   2  14
ATOM     14  O   UNL     1      -4.595  62.389   4.309  1.00  0.00    -0.493 OA
ATOM     15  C   UNL     1      -4.097  61.895   5.549  1.00  0.00     0.278 C 
ENDBRANCH   2  14
TORSDOF 2
ENDMDL
MODEL 3
REMARK VINA RESULT:    -5.564     13.879     15.665
REMARK INTER + INTRA:          -6.330
REMARK INTER:                  -6.224
REMARK INTRA:                  -0.107
REMARK UNBOUND:                -0.116
REMARK SMILES COc1cc2ccc(=O)oc2cc1OC
REMARK SMILES IDX 3 1 13 2 12 3 11 4 5 5 4 6 6 7 7 8 8 9 9 10 10 11 2 12 1 13
REMARK SMILES IDX 14 14 15 15
REMARK H PARENT
REMARK Flexibility Score: inf
ROOT
ATOM      1  C   UNL     1      -5.877  64.875   5.092  1.00  0.00     0.161 A 
ATOM      2  C   UNL     1      -7.234  64.922   4.728  1.00  0.00     0.164 A 
ATOM      3  C   UNL     1      -7.809  63.839   4.035  1.00  0.00     0.098 A 
ATOM      4  C   UNL     1      -7.040  62.720   3.707  1.00  0.00     0.142 A 
ATOM      5  C   UNL     1      -5.679  62.672   4.071  1.00  0.00     0.022 A 
ATOM      6  C   UNL     1      -5.102  63.745   4.760  1.00  0.00     0.062 A 
ATOM      7  C   UNL     1      -4.936  61.538   3.728  1.00  0.00     0.019 A 
ATOM      8  C   UNL     1      -5.556  60.495   3.040  1.00  0.00     0.094 A 
ATOM      9  C   UNL     1      -6.911  60.611   2.712  1.00  0.00     0.336 A 
ATOM     10  O   UNL     1      -7.489  59.681   2.092  1.00  0.00    -0.246 OA
ATOM     11  O   UNL     1      -7.594  61.702   3.051  1.00  0.00    -0.423 OA
ENDROOT
BRANCH   1  12
ATOM     12  O   UNL     1      -5.336  65.971   5.782  1.00  0.00    -0.493 OA
ATOM     13  C   UNL     1      -4.153  65.925   6.574  1.00  0.00     0.278 C 
ENDBRANCH   1  12
BRANCH   2  14
ATOM     14  O   UNL     1      -7.976  66.061   5.075  1.00  0.00    -0.493 OA
ATOM     15  C   UNL     1      -8.979  66.652   4.255  1.00  0.00     0.278 C 
ENDBRANCH   2  14
TORSDOF 2
ENDMDL
MODEL 4
REMARK VINA RESULT:    -5.322      1.548      4.790
REMARK INTER + INTRA:          -6.060
REMARK INTER:                  -5.951
REMARK INTRA:                  -0.109
REMARK UNBOUND:                -0.116
REMARK SMILES COc1cc2ccc(=O)oc2cc1OC
REMARK SMILES IDX 3 1 13 2 12 3 11 4 5 5 4 6 6 7 7 8 8 9 9 10 10 11 2 12 1 13
REMARK SMILES IDX 14 14 15 15
REMARK H PARENT
REMARK Flexibility Score: inf
ROOT
ATOM      1  C   UNL     1       3.282  54.287   5.231  1.00  0.00     0.161 A 
ATOM      2  C   UNL     1       4.651  53.972   5.241  1.00  0.00     0.164 A 
ATOM      3  C   UNL     1       5.118  52.905   6.034  1.00  0.00     0.098 A 
ATOM      4  C   UNL     1       4.229  52.158   6.810  1.00  0.00     0.142 A 
ATOM      5  C   UNL     1       2.855  52.474   6.801  1.00  0.00     0.022 A 
ATOM      6  C   UNL     1       2.385  53.533   6.015  1.00  0.00     0.062 A 
ATOM      7  C   UNL     1       1.989  51.707   7.588  1.00  0.00     0.019 A 
ATOM      8  C   UNL     1       2.506  50.663   8.355  1.00  0.00     0.094 A 
ATOM      9  C   UNL     1       3.880  50.407   8.314  1.00  0.00     0.336 A 
ATOM     10  O   UNL     1       4.366  49.469   8.998  1.00  0.00    -0.246 OA
ATOM     11  O   UNL     1       4.680  51.152   7.556  1.00  0.00    -0.423 OA
ENDROOT
BRANCH   1  12
ATOM     12  O   UNL     1       2.851  55.356   4.429  1.00  0.00    -0.493 OA
ATOM     13  C   UNL     1       1.493  55.754   4.274  1.00  0.00     0.278 C 
ENDBRANCH   1  12
BRANCH   2  14
ATOM     14  O   UNL     1       5.516  54.743   4.448  1.00  0.00    -0.493 OA
ATOM     15  C   UNL     1       6.509  54.207   3.580  1.00  0.00     0.278 C 
ENDBRANCH   2  14
TORSDOF 2
ENDMDL
MODEL 5
REMARK VINA RESULT:    -5.304     14.094     15.675
REMARK INTER + INTRA:          -6.040
REMARK INTER:                  -5.922
REMARK INTRA:                  -0.118
REMARK UNBOUND:                -0.116
REMARK SMILES COc1cc2ccc(=O)oc2cc1OC
REMARK SMILES IDX 3 1 13 2 12 3 11 4 5 5 4 6 6 7 7 8 8 9 9 10 10 11 2 12 1 13
REMARK SMILES IDX 14 14 15 15
REMARK H PARENT
REMARK Flexibility Score: inf
ROOT
ATOM      1  C   UNL     1      -8.393  64.268   3.902  1.00  0.00     0.161 A 
ATOM      2  C   UNL     1      -7.207  64.274   4.658  1.00  0.00     0.164 A 
ATOM      3  C   UNL     1      -6.319  63.184   4.574  1.00  0.00     0.098 A 
ATOM      4  C   UNL     1      -6.609  62.098   3.745  1.00  0.00     0.142 A 
ATOM      5  C   UNL     1      -7.797  62.091   2.987  1.00  0.00     0.022 A 
ATOM      6  C   UNL     1      -8.684  63.171   3.067  1.00  0.00     0.062 A 
ATOM      7  C   UNL     1      -8.058  60.989   2.166  1.00  0.00     0.019 A 
ATOM      8  C   UNL     1      -7.145  59.936   2.122  1.00  0.00     0.094 A 
ATOM      9  C   UNL     1      -5.986  60.012   2.901  1.00  0.00     0.336 A 
ATOM     10  O   UNL     1      -5.149  59.073   2.875  1.00  0.00    -0.246 OA
ATOM     11  O   UNL     1      -5.762  61.072   3.673  1.00  0.00    -0.423 OA
ENDROOT
BRANCH   1  12
ATOM     12  O   UNL     1      -9.254  65.371   4.010  1.00  0.00    -0.493 OA
ATOM     13  C   UNL     1     -10.643  65.345   3.695  1.00  0.00     0.278 C 
ENDBRANCH   1  12
BRANCH   2  14
ATOM     14  O   UNL     1      -6.948  65.383   5.480  1.00  0.00    -0.493 OA
ATOM     15  C   UNL     1      -6.900  65.340   6.902  1.00  0.00     0.278 C 
ENDBRANCH   2  14
TORSDOF 2
ENDMDL
MODEL 6
REMARK VINA RESULT:    -5.261      1.792      3.171
REMARK INTER + INTRA:          -5.992
REMARK INTER:                  -5.851
REMARK INTRA:                  -0.141
REMARK UNBOUND:                -0.116
REMARK SMILES COc1cc2ccc(=O)oc2cc1OC
REMARK SMILES IDX 3 1 13 2 12 3 11 4 5 5 4 6 6 7 7 8 8 9 9 10 10 11 2 12 1 13
REMARK SMILES IDX 14 14 15 15
REMARK H PARENT
REMARK Flexibility Score: inf
ROOT
ATOM      1  C   UNL     1       3.364  50.516   8.632  1.00  0.00     0.161 A 
ATOM      2  C   UNL     1       2.036  50.943   8.454  1.00  0.00     0.164 A 
ATOM      3  C   UNL     1       1.750  51.968   7.531  1.00  0.00     0.098 A 
ATOM      4  C   UNL     1       2.776  52.562   6.792  1.00  0.00     0.142 A 
ATOM      5  C   UNL     1       4.107  52.134   6.970  1.00  0.00     0.022 A 
ATOM      6  C   UNL     1       4.398  51.116   7.887  1.00  0.00     0.062 A 
ATOM      7  C   UNL     1       5.112  52.748   6.216  1.00  0.00     0.019 A 
ATOM      8  C   UNL     1       4.773  53.758   5.316  1.00  0.00     0.094 A 
ATOM      9  C   UNL     1       3.431  54.131   5.191  1.00  0.00     0.336 A 
ATOM     10  O   UNL     1       3.103  55.040   4.385  1.00  0.00    -0.246 OA
ATOM     11  O   UNL     1       2.495  53.530   5.922  1.00  0.00    -0.423 OA
ENDROOT
BRANCH   1  12
ATOM     12  O   UNL     1       3.613  49.493   9.560  1.00  0.00    -0.493 OA
ATOM     13  C   UNL     1       4.521  49.595  10.652  1.00  0.00     0.278 C 
ENDBRANCH   1  12
BRANCH   2  14
ATOM     14  O   UNL     1       1.031  50.324   9.212  1.00  0.00    -0.493 OA
ATOM     15  C   UNL     1       0.408  50.903  10.355  1.00  0.00     0.278 C 
ENDBRANCH   2  14
TORSDOF 2
ENDMDL
MODEL 7
REMARK VINA RESULT:    -5.180     14.154     15.786
REMARK INTER + INTRA:          -5.901
REMARK INTER:                  -5.783
REMARK INTRA:                  -0.119
REMARK UNBOUND:                -0.116
REMARK SMILES COc1cc2ccc(=O)oc2cc1OC
REMARK SMILES IDX 3 1 13 2 12 3 11 4 5 5 4 6 6 7 7 8 8 9 9 10 10 11 2 12 1 13
REMARK SMILES IDX 14 14 15 15
REMARK H PARENT
REMARK Flexibility Score: inf
ROOT
ATOM      1  C   UNL     1      -5.083  63.100   5.635  1.00  0.00     0.161 A 
ATOM      2  C   UNL     1      -5.081  64.505   5.679  1.00  0.00     0.164 A 
ATOM      3  C   UNL     1      -6.041  65.228   4.945  1.00  0.00     0.098 A 
ATOM      4  C   UNL     1      -6.994  64.559   4.174  1.00  0.00     0.142 A 
ATOM      5  C   UNL     1      -6.996  63.150   4.128  1.00  0.00     0.022 A 
ATOM      6  C   UNL     1      -6.045  62.426   4.856  1.00  0.00     0.062 A 
ATOM      7  C   UNL     1      -7.963  62.509   3.347  1.00  0.00     0.019 A 
ATOM      8  C   UNL     1      -8.889  63.275   2.639  1.00  0.00     0.094 A 
ATOM      9  C   UNL     1      -8.827  64.669   2.732  1.00  0.00     0.336 A 
ATOM     10  O   UNL     1      -9.654  65.379   2.102  1.00  0.00    -0.246 OA
ATOM     11  O   UNL     1      -7.897  65.253   3.483  1.00  0.00    -0.423 OA
ENDROOT
BRANCH   1  12
ATOM     12  O   UNL     1      -4.112  62.411   6.379  1.00  0.00    -0.493 OA
ATOM     13  C   UNL     1      -4.367  61.723   7.600  1.00  0.00     0.278 C 
ENDBRANCH   1  12
BRANCH   2  14
ATOM     14  O   UNL     1      -4.110  65.144   6.466  1.00  0.00    -0.493 OA
ATOM     15  C   UNL     1      -3.982  66.555   6.602  1.00  0.00     0.278 C 
ENDBRANCH   2  14
TORSDOF 2
ENDMDL
