MODEL 1
REMARK VINA RESULT:    -4.835      0.000      0.000
REMARK INTER + INTRA:          -7.522
REMARK INTER:                  -6.530
REMARK INTRA:                  -0.992
REMARK UNBOUND:                -0.992
REMARK SMILES C=CC(C)=CCC=C(C)CCC=C(C)C
REMARK SMILES IDX 8 1 7 2 9 3 10 4 11 5 12 6 14 7 13 8 15 9 6 10 5 11 3 12
REMARK SMILES IDX 4 13 2 14 1 15
REMARK H PARENT
REMARK Flexibility Score: inf
ROOT
ATOM      1  C   UNL     1       4.403   5.822  12.375  1.00  0.00    -0.077 C 
ATOM      2  C   UNL     1       4.001   7.078  12.083  1.00  0.00    -0.024 C 
ATOM      3  C   UNL     1       3.409   4.875  12.999  1.00  0.00     0.039 C 
ENDROOT
BRANCH   1   4
ATOM      4  C   UNL     1       5.826   5.348  12.163  1.00  0.00     0.034 C 
BRANCH   4   5
ATOM      5  C   UNL     1       6.573   5.264  13.498  1.00  0.00     0.032 C 
BRANCH   5   6
ATOM      6  C   UNL     1       7.732   6.228  13.524  1.00  0.00    -0.028 C 
ATOM      7  C   UNL     1       6.405   8.048  14.617  1.00  0.00     0.039 C 
ATOM      8  C   UNL     1       7.679   7.473  14.046  1.00  0.00    -0.080 C 
ATOM      9  C   UNL     1       8.933   8.309  14.037  1.00  0.00     0.039 C 
ENDBRANCH   5   6
ENDBRANCH   4   5
ENDBRANCH   1   4
BRANCH   2  10
ATOM     10  C   UNL     1       4.901   8.124  11.469  1.00  0.00     0.055 C 
BRANCH  10  11
ATOM     11  C   UNL     1       4.112   9.307  10.972  1.00  0.00    -0.020 C 
ATOM     12  C   UNL     1       3.546  10.244  11.761  1.00  0.00    -0.055 C 
ATOM     13  C   UNL     1       3.640  10.184  13.271  1.00  0.00     0.044 C 
BRANCH  12  14
ATOM     14  C   UNL     1       2.756  11.318  11.105  1.00  0.00    -0.005 C 
ATOM     15  C   UNL     1       1.442  11.243  10.894  1.00  0.00     0.009 C 
ENDBRANCH  12  14
ENDBRANCH  10  11
ENDBRANCH   2  10
TORSDOF 6
ENDMDL
MODEL 2
REMARK VINA RESULT:    -4.523      1.306      6.372
REMARK INTER + INTRA:          -7.101
REMARK INTER:                  -6.566
REMARK INTRA:                  -0.536
REMARK UNBOUND:                -0.992
REMARK SMILES C=CC(C)=CCC=C(C)CCC=C(C)C
REMARK SMILES IDX 8 1 7 2 9 3 10 4 11 5 12 6 14 7 13 8 15 9 6 10 5 11 3 12
REMARK SMILES IDX 4 13 2 14 1 15
REMARK H PARENT
REMARK Flexibility Score: inf
ROOT
ATOM      1  C   UNL     1       3.368   9.795  13.799  1.00  0.00    -0.077 C 
ATOM      2  C   UNL     1       3.340   8.457  13.982  1.00  0.00    -0.024 C 
ATOM      3  C   UNL     1       2.928  10.686  14.933  1.00  0.00     0.039 C 
ENDROOT
BRANCH   1   4
ATOM      4  C   UNL     1       3.762  10.433  12.482  1.00  0.00     0.034 C 
BRANCH   4   5
ATOM      5  C   UNL     1       2.847   9.948  11.353  1.00  0.00     0.032 C 
BRANCH   5   6
ATOM      6  C   UNL     1       1.920  11.050  10.906  1.00  0.00    -0.028 C 
ATOM      7  C   UNL     1       0.058  10.315  12.410  1.00  0.00     0.039 C 
ATOM      8  C   UNL     1       0.673  11.244  11.390  1.00  0.00    -0.080 C 
ATOM      9  C   UNL     1      -0.123  12.416  10.876  1.00  0.00     0.039 C 
ENDBRANCH   5   6
ENDBRANCH   4   5
ENDBRANCH   1   4
BRANCH   2  10
ATOM     10  C   UNL     1       3.743   7.458  12.924  1.00  0.00     0.055 C 
BRANCH  10  11
ATOM     11  C   UNL     1       5.241   7.371  12.790  1.00  0.00    -0.020 C 
ATOM     12  C   UNL     1       5.933   6.227  12.605  1.00  0.00    -0.055 C 
ATOM     13  C   UNL     1       5.249   4.879  12.529  1.00  0.00     0.044 C 
BRANCH  12  14
ATOM     14  C   UNL     1       7.415   6.315  12.546  1.00  0.00    -0.005 C 
ATOM     15  C   UNL     1       8.137   7.132  13.313  1.00  0.00     0.009 C 
ENDBRANCH  12  14
ENDBRANCH  10  11
ENDBRANCH   2  10
TORSDOF 6
ENDMDL
MODEL 3
REMARK VINA RESULT:    -4.150      1.403      2.716
REMARK INTER + INTRA:          -6.598
REMARK INTER:                  -7.346
REMARK INTRA:                   0.748
REMARK UNBOUND:                -0.992
REMARK SMILES C=CC(C)=CCC=C(C)CCC=C(C)C
REMARK SMILES IDX 8 1 7 2 9 3 10 4 11 5 12 6 14 7 13 8 15 9 6 10 5 11 3 12
REMARK SMILES IDX 4 13 2 14 1 15
REMARK H PARENT
REMARK Flexibility Score: inf
ROOT
ATOM      1  C   UNL     1       3.975   8.614  13.180  1.00  0.00    -0.077 C 
ATOM      2  C   UNL     1       3.617   9.862  12.806  1.00  0.00    -0.024 C 
ATOM      3  C   UNL     1       3.868   8.241  14.636  1.00  0.00     0.039 C 
ENDROOT
BRANCH   1   4
ATOM      4  C   UNL     1       4.539   7.598  12.207  1.00  0.00     0.034 C 
BRANCH   4   5
ATOM      5  C   UNL     1       4.719   6.239  12.891  1.00  0.00     0.032 C 
BRANCH   5   6
ATOM      6  C   UNL     1       5.900   5.502  12.312  1.00  0.00    -0.028 C 
ATOM      7  C   UNL     1       7.574   6.826  13.621  1.00  0.00     0.039 C 
ATOM      8  C   UNL     1       7.188   5.737  12.649  1.00  0.00    -0.080 C 
ATOM      9  C   UNL     1       8.262   4.891  12.015  1.00  0.00     0.039 C 
ENDBRANCH   5   6
ENDBRANCH   4   5
ENDBRANCH   1   4
BRANCH   2  10
ATOM     10  C   UNL     1       3.689  10.363  11.383  1.00  0.00     0.055 C 
BRANCH  10  11
ATOM     11  C   UNL     1       2.387  10.987  10.952  1.00  0.00    -0.020 C 
ATOM     12  C   UNL     1       1.219  10.874  11.619  1.00  0.00    -0.055 C 
ATOM     13  C   UNL     1       1.099  10.069  12.895  1.00  0.00     0.044 C 
BRANCH  12  14
ATOM     14  C   UNL     1       0.016  11.511  11.023  1.00  0.00    -0.005 C 
ATOM     15  C   UNL     1      -0.125  12.828  10.875  1.00  0.00     0.009 C 
ENDBRANCH  12  14
ENDBRANCH  10  11
ENDBRANCH   2  10
TORSDOF 6
ENDMDL
MODEL 4
REMARK VINA RESULT:    -3.980      1.231      5.212
REMARK INTER + INTRA:          -6.368
REMARK INTER:                  -5.192
REMARK INTRA:                  -1.176
REMARK UNBOUND:                -0.992
REMARK SMILES C=CC(C)=CCC=C(C)CCC=C(C)C
REMARK SMILES IDX 8 1 7 2 9 3 10 4 11 5 12 6 14 7 13 8 15 9 6 10 5 11 3 12
REMARK SMILES IDX 4 13 2 14 1 15
REMARK H PARENT
REMARK Flexibility Score: inf
ROOT
ATOM      1  C   UNL     1       3.527  10.370  11.247  1.00  0.00    -0.077 C 
ATOM      2  C   UNL     1       4.394   9.402  10.875  1.00  0.00    -0.024 C 
ATOM      3  C   UNL     1       3.884  11.805  10.957  1.00  0.00     0.039 C 
ENDROOT
BRANCH   1   4
ATOM      4  C   UNL     1       2.245  10.075  11.999  1.00  0.00     0.034 C 
BRANCH   4   5
ATOM      5  C   UNL     1       2.382  10.467  13.474  1.00  0.00     0.032 C 
BRANCH   5   6
ATOM      6  C   UNL     1       3.735  10.071  14.008  1.00  0.00    -0.028 C 
ATOM      7  C   UNL     1       3.008   7.745  14.583  1.00  0.00     0.039 C 
ATOM      8  C   UNL     1       4.039   8.844  14.487  1.00  0.00    -0.080 C 
ATOM      9  C   UNL     1       5.449   8.583  14.950  1.00  0.00     0.039 C 
ENDBRANCH   5   6
ENDBRANCH   4   5
ENDBRANCH   1   4
BRANCH   2  10
ATOM     10  C   UNL     1       4.161   7.930  11.118  1.00  0.00     0.055 C 
BRANCH  10  11
ATOM     11  C   UNL     1       5.349   7.286  11.783  1.00  0.00    -0.020 C 
ATOM     12  C   UNL     1       5.348   6.058  12.342  1.00  0.00    -0.055 C 
ATOM     13  C   UNL     1       4.108   5.191  12.370  1.00  0.00     0.044 C 
BRANCH  12  14
ATOM     14  C   UNL     1       6.596   5.597  13.004  1.00  0.00    -0.005 C 
ATOM     15  C   UNL     1       7.778   6.193  12.849  1.00  0.00     0.009 C 
ENDBRANCH  12  14
ENDBRANCH  10  11
ENDBRANCH   2  10
TORSDOF 6
ENDMDL
MODEL 5
REMARK VINA RESULT:    -3.493      1.016      3.487
REMARK INTER + INTRA:          -5.710
REMARK INTER:                  -6.670
REMARK INTRA:                   0.960
REMARK UNBOUND:                -0.992
REMARK SMILES C=CC(C)=CCC=C(C)CCC=C(C)C
REMARK SMILES IDX 8 1 7 2 9 3 10 4 11 5 12 6 14 7 13 8 15 9 6 10 5 11 3 12
REMARK SMILES IDX 4 13 2 14 1 15
REMARK H PARENT
REMARK Flexibility Score: inf
ROOT
ATOM      1  C   UNL     1       7.408   7.695  13.880  1.00  0.00    -0.077 C 
ATOM      2  C   UNL     1       6.469   8.309  14.632  1.00  0.00    -0.024 C 
ATOM      3  C   UNL     1       8.859   7.879  14.247  1.00  0.00     0.039 C 
ENDROOT
BRANCH   1   4
ATOM      4  C   UNL     1       7.067   6.884  12.646  1.00  0.00     0.034 C 
BRANCH   4   5
ATOM      5  C   UNL     1       6.986   5.392  12.986  1.00  0.00     0.032 C 
BRANCH   5   6
ATOM      6  C   UNL     1       5.550   4.949  13.107  1.00  0.00    -0.028 C 
ATOM      7  C   UNL     1       4.735   6.565  11.376  1.00  0.00     0.039 C 
ATOM      8  C   UNL     1       4.531   5.448  12.373  1.00  0.00    -0.080 C 
ATOM      9  C   UNL     1       3.152   4.876  12.575  1.00  0.00     0.039 C 
ENDBRANCH   5   6
ENDBRANCH   4   5
ENDBRANCH   1   4
BRANCH   2  10
ATOM     10  C   UNL     1       4.987   8.215  14.363  1.00  0.00     0.055 C 
BRANCH  10  11
ATOM     11  C   UNL     1       4.624   8.855  13.048  1.00  0.00    -0.020 C 
ATOM     12  C   UNL     1       3.672   9.797  12.887  1.00  0.00    -0.055 C 
ATOM     13  C   UNL     1       2.841  10.305  14.045  1.00  0.00     0.044 C 
BRANCH  12  14
ATOM     14  C   UNL     1       3.405  10.284  11.508  1.00  0.00    -0.005 C 
ATOM     15  C   UNL     1       3.610  11.542  11.117  1.00  0.00     0.009 C 
ENDBRANCH  12  14
ENDBRANCH  10  11
ENDBRANCH   2  10
TORSDOF 6
ENDMDL
MODEL 6
REMARK VINA RESULT:    -3.231      1.374      6.001
REMARK INTER + INTRA:          -5.356
REMARK INTER:                  -6.312
REMARK INTRA:                   0.956
REMARK UNBOUND:                -0.992
REMARK SMILES C=CC(C)=CCC=C(C)CCC=C(C)C
REMARK SMILES IDX 8 1 7 2 9 3 10 4 11 5 12 6 14 7 13 8 15 9 6 10 5 11 3 12
REMARK SMILES IDX 4 13 2 14 1 15
REMARK H PARENT
REMARK Flexibility Score: inf
ROOT
ATOM      1  C   UNL     1       4.040   8.322  13.396  1.00  0.00    -0.077 C 
ATOM      2  C   UNL     1       4.592   7.094  13.508  1.00  0.00    -0.024 C 
ATOM      3  C   UNL     1       3.370   8.923  14.605  1.00  0.00     0.039 C 
ENDROOT
BRANCH   1   4
ATOM      4  C   UNL     1       4.010   9.090  12.090  1.00  0.00     0.034 C 
BRANCH   4   5
ATOM      5  C   UNL     1       3.534  10.528  12.320  1.00  0.00     0.032 C 
BRANCH   5   6
ATOM      6  C   UNL     1       2.342  10.842  11.451  1.00  0.00    -0.028 C 
ATOM      7  C   UNL     1       0.684  10.196  13.213  1.00  0.00     0.039 C 
ATOM      8  C   UNL     1       1.055  10.722  11.846  1.00  0.00    -0.080 C 
ATOM      9  C   UNL     1      -0.032  11.113  10.879  1.00  0.00     0.039 C 
ENDBRANCH   5   6
ENDBRANCH   4   5
ENDBRANCH   1   4
BRANCH   2  10
ATOM     10  C   UNL     1       5.279   6.378  12.370  1.00  0.00     0.055 C 
BRANCH  10  11
ATOM     11  C   UNL     1       6.754   6.684  12.337  1.00  0.00    -0.020 C 
ATOM     12  C   UNL     1       7.445   7.256  13.344  1.00  0.00    -0.055 C 
ATOM     13  C   UNL     1       6.780   7.673  14.638  1.00  0.00     0.044 C 
BRANCH  12  14
ATOM     14  C   UNL     1       8.888   7.536  13.123  1.00  0.00    -0.005 C 
ATOM     15  C   UNL     1       9.608   8.352  13.893  1.00  0.00     0.009 C 
ENDBRANCH  12  14
ENDBRANCH  10  11
ENDBRANCH   2  10
TORSDOF 6
ENDMDL
MODEL 7
REMARK VINA RESULT:    -2.750      0.709      5.124
REMARK INTER + INTRA:          -4.707
REMARK INTER:                  -3.879
REMARK INTRA:                  -0.828
REMARK UNBOUND:                -0.992
REMARK SMILES C=CC(C)=CCC=C(C)CCC=C(C)C
REMARK SMILES IDX 8 1 7 2 9 3 10 4 11 5 12 6 14 7 13 8 15 9 6 10 5 11 3 12
REMARK SMILES IDX 4 13 2 14 1 15
REMARK H PARENT
REMARK Flexibility Score: inf
ROOT
ATOM      1  C   UNL     1       4.361   5.668  12.381  1.00  0.00    -0.077 C 
ATOM      2  C   UNL     1       5.317   4.875  12.913  1.00  0.00    -0.024 C 
ATOM      3  C   UNL     1       3.525   5.128  11.249  1.00  0.00     0.039 C 
ENDROOT
BRANCH   1   4
ATOM      4  C   UNL     1       4.139   7.097  12.833  1.00  0.00     0.034 C 
BRANCH   4   5
ATOM      5  C   UNL     1       4.940   8.070  11.961  1.00  0.00     0.032 C 
BRANCH   5   6
ATOM      6  C   UNL     1       4.023   9.047  11.270  1.00  0.00    -0.028 C 
ATOM      7  C   UNL     1       3.643  10.404  13.340  1.00  0.00     0.039 C 
ATOM      8  C   UNL     1       3.453  10.115  11.870  1.00  0.00    -0.080 C 
ATOM      9  C   UNL     1       2.590  11.030  11.039  1.00  0.00     0.039 C 
ENDBRANCH   5   6
ENDBRANCH   4   5
ENDBRANCH   1   4
BRANCH   2  10
ATOM     10  C   UNL     1       6.228   5.301  14.039  1.00  0.00     0.055 C 
BRANCH  10  11
ATOM     11  C   UNL     1       7.420   6.066  13.526  1.00  0.00    -0.020 C 
ATOM     12  C   UNL     1       7.757   7.315  13.910  1.00  0.00    -0.055 C 
ATOM     13  C   UNL     1       6.936   8.096  14.913  1.00  0.00     0.044 C 
BRANCH  12  14
ATOM     14  C   UNL     1       8.938   7.944  13.262  1.00  0.00    -0.005 C 
ATOM     15  C   UNL     1       9.941   8.504  13.939  1.00  0.00     0.009 C 
ENDBRANCH  12  14
ENDBRANCH  10  11
ENDBRANCH   2  10
TORSDOF 6
ENDMDL
MODEL 8
REMARK VINA RESULT:    -2.093      1.561      5.842
REMARK INTER + INTRA:          -3.819
REMARK INTER:                  -3.210
REMARK INTRA:                  -0.610
REMARK UNBOUND:                -0.992
REMARK SMILES C=CC(C)=CCC=C(C)CCC=C(C)C
REMARK SMILES IDX 8 1 7 2 9 3 10 4 11 5 12 6 14 7 13 8 15 9 6 10 5 11 3 12
REMARK SMILES IDX 4 13 2 14 1 15
REMARK H PARENT
REMARK Flexibility Score: inf
ROOT
ATOM      1  C   UNL     1       2.617   9.823  14.173  1.00  0.00    -0.077 C 
ATOM      2  C   UNL     1       3.649   8.959  14.292  1.00  0.00    -0.024 C 
ATOM      3  C   UNL     1       2.749  11.193  14.786  1.00  0.00     0.039 C 
ENDROOT
BRANCH   1   4
ATOM      4  C   UNL     1       1.309   9.447  13.504  1.00  0.00     0.034 C 
BRANCH   4   5
ATOM      5  C   UNL     1       1.371   9.732  12.000  1.00  0.00     0.032 C 
BRANCH   5   6
ATOM      6  C   UNL     1       2.163  10.985  11.725  1.00  0.00    -0.028 C 
ATOM      7  C   UNL     1       4.158   9.733  10.876  1.00  0.00     0.039 C 
ATOM      8  C   UNL     1       3.406  11.003  11.197  1.00  0.00    -0.080 C 
ATOM      9  C   UNL     1       4.058  12.338  10.939  1.00  0.00     0.039 C 
ENDBRANCH   5   6
ENDBRANCH   4   5
ENDBRANCH   1   4
BRANCH   2  10
ATOM     10  C   UNL     1       3.636   7.556  13.735  1.00  0.00     0.055 C 
BRANCH  10  11
ATOM     11  C   UNL     1       5.018   7.110  13.333  1.00  0.00    -0.020 C 
ATOM     12  C   UNL     1       5.311   5.917  12.774  1.00  0.00    -0.055 C 
ATOM     13  C   UNL     1       4.247   4.875  12.504  1.00  0.00     0.044 C 
BRANCH  12  14
ATOM     14  C   UNL     1       6.738   5.618  12.487  1.00  0.00    -0.005 C 
ATOM     15  C   UNL     1       7.588   6.502  11.966  1.00  0.00     0.009 C 
ENDBRANCH  12  14
ENDBRANCH  10  11
ENDBRANCH   2  10
TORSDOF 6
ENDMDL
