MODEL 1
REMARK VINA RESULT:     8.146      0.000      0.000
REMARK INTER + INTRA:          13.462
REMARK INTER:                  13.384
REMARK INTRA:                   0.078
REMARK UNBOUND:                 0.078
REMARK SMILES C[C@@H]1O[C@@H](OC[C@@H]2O[C@@H](Oc3c(-c4ccc(O)c(O)c4)oc4cc(O)cc(O)c4c3=O)[C@H](O)[C@H](O)[C@@H]2O)[C@@H](O)[C@H](O)[C@@H]1O
REMARK SMILES IDX 7 1 36 2 34 3 32 4 9 5 8 6 6 7 5 8 4 9 1 10 2 11 42 12 3 13
REMARK SMILES IDX 40 14 38 15 43 16 41 18 39 20 37 22 35 24 10 26 11 27 12 28
REMARK SMILES IDX 30 29 21 30 29 31 31 32 22 33 27 34 23 35 26 36 24 37 13 38
REMARK SMILES IDX 20 39 14 40 18 41 15 42 16 43 19 44 17 46 28 48 25 50 33 52
REMARK H PARENT 43 17 41 19 39 21 37 23 35 25 19 45 17 47 28 49 25 51 33 53
REMARK Flexibility Score: inf
ROOT
ATOM      1  C   UNL     1       8.397   1.000  19.656  1.00  0.00     0.180 C 
ATOM      2  C   UNL     1       7.032   0.587  19.105  1.00  0.00     0.177 C 
ATOM      3  C   UNL     1       7.092  -0.928  18.835  1.00  0.00     0.180 C 
ATOM      4  C   UNL     1       8.277  -1.264  17.900  1.00  0.00     0.214 C 
ATOM      5  C   UNL     1       9.567  -0.614  18.399  1.00  0.00     0.339 C 
ATOM      6  O   UNL     1       9.406   0.778  18.685  1.00  0.00    -0.332 OA
ENDROOT
BRANCH   1   7
ATOM      7  C   UNL     1       8.428   2.459  20.124  1.00  0.00     0.198 C 
BRANCH   7   8
ATOM      8  O   UNL     1       7.231   3.175  19.772  1.00  0.00    -0.347 OA
BRANCH   8   9
ATOM      9  C   UNL     1       7.390   4.575  19.551  1.00  0.00     0.281 C 
ATOM     10  C   UNL     1       6.789   7.447  20.125  1.00  0.00     0.041 C 
ATOM     11  C   UNL     1       6.192   6.569  19.008  1.00  0.00     0.150 C 
ATOM     12  C   UNL     1       6.876   6.747  17.601  1.00  0.00     0.174 C 
ATOM     13  O   UNL     1       6.119   5.196  19.401  1.00  0.00    -0.344 OA
ATOM     14  C   UNL     1       7.738   5.511  17.232  1.00  0.00     0.179 C 
ATOM     15  C   UNL     1       8.450   5.018  18.489  1.00  0.00     0.202 C 
BRANCH  12  16
ATOM     16  O   UNL     1       7.564   7.972  17.490  1.00  0.00    -0.388 OA
ATOM     17  H   UNL     1       8.514   7.837  17.790  1.00  0.00     0.211 HD
ENDBRANCH  12  16
BRANCH  14  18
ATOM     18  O   UNL     1       8.637   5.756  16.180  1.00  0.00    -0.387 OA
ATOM     19  H   UNL     1       9.486   5.275  16.416  1.00  0.00     0.211 HD
ENDBRANCH  14  18
BRANCH  15  20
ATOM     20  O   UNL     1       9.403   4.010  18.255  1.00  0.00    -0.385 OA
ATOM     21  H   UNL     1       9.866   3.842  19.140  1.00  0.00     0.211 HD
ENDBRANCH  15  20
ENDBRANCH   8   9
ENDBRANCH   7   8
ENDBRANCH   1   7
BRANCH   2  22
ATOM     22  O   UNL     1       6.761   1.290  17.921  1.00  0.00    -0.387 OA
ATOM     23  H   UNL     1       5.790   1.468  17.921  1.00  0.00     0.211 HD
ENDBRANCH   2  22
BRANCH   3  24
ATOM     24  O   UNL     1       5.876  -1.377  18.308  1.00  0.00    -0.387 OA
ATOM     25  H   UNL     1       5.830  -1.140  17.353  1.00  0.00     0.211 HD
ENDBRANCH   3  24
BRANCH   5  26
ATOM     26  O   UNL     1      10.041  -1.313  19.549  1.00  0.00    -0.454 OA
BRANCH  26  27
ATOM     27  C   UNL     1      11.359  -1.796  19.661  1.00  0.00     0.214 A 
ATOM     28  C   UNL     1      11.616  -3.181  19.784  1.00  0.00     0.180 A 
ATOM     29  C   UNL     1      12.429  -0.892  19.659  1.00  0.00     0.239 A 
ATOM     30  O   UNL     1      12.862  -3.599  19.816  1.00  0.00    -0.452 OA
ATOM     31  C   UNL     1      13.756  -1.389  19.707  1.00  0.00     0.111 A 
ATOM     32  O   UNL     1      12.195   0.343  19.575  1.00  0.00    -0.285 OA
ATOM     33  C   UNL     1      13.919  -2.788  19.780  1.00  0.00     0.146 A 
ATOM     34  C   UNL     1      14.912  -0.576  19.711  1.00  0.00     0.134 A 
ATOM     35  C   UNL     1      15.184  -3.357  19.842  1.00  0.00     0.094 A 
ATOM     36  C   UNL     1      16.182  -1.165  19.737  1.00  0.00     0.093 A 
ATOM     37  C   UNL     1      16.319  -2.547  19.790  1.00  0.00     0.123 A 
BRANCH  28  38
ATOM     38  C   UNL     1      10.544  -4.210  19.849  1.00  0.00     0.025 A 
ATOM     39  C   UNL     1       9.191  -3.784  19.824  1.00  0.00     0.062 A 
ATOM     40  C   UNL     1      10.817  -5.587  19.913  1.00  0.00     0.016 A 
ATOM     41  C   UNL     1       8.143  -4.721  19.877  1.00  0.00     0.158 A 
ATOM     42  C   UNL     1       9.774  -6.522  19.936  1.00  0.00     0.051 A 
ATOM     43  C   UNL     1       8.438  -6.089  19.946  1.00  0.00     0.157 A 
BRANCH  41  44
ATOM     44  O   UNL     1       6.806  -4.305  19.838  1.00  0.00    -0.504 OA
ATOM     45  H   UNL     1       6.194  -4.435  20.647  1.00  0.00     0.293 HD
ENDBRANCH  41  44
BRANCH  43  46
ATOM     46  O   UNL     1       7.401  -7.024  20.031  1.00  0.00    -0.504 OA
ATOM     47  H   UNL     1       7.543  -7.961  20.370  1.00  0.00     0.293 HD
ENDBRANCH  43  46
ENDBRANCH  28  38
BRANCH  34  48
ATOM     48  O   UNL     1      14.806   0.817  19.706  1.00  0.00    -0.507 OA
ATOM     49  H   UNL     1      15.195   1.399  20.439  1.00  0.00     0.293 HD
ENDBRANCH  34  48
BRANCH  37  50
ATOM     50  O   UNL     1      17.590  -3.105  19.783  1.00  0.00    -0.508 OA
ATOM     51  H   UNL     1      17.729  -4.099  19.683  1.00  0.00     0.293 HD
ENDBRANCH  37  50
ENDBRANCH  26  27
ENDBRANCH   5  26
BRANCH   4  52
ATOM     52  O   UNL     1       8.017  -0.828  16.588  1.00  0.00    -0.384 OA
ATOM     53  H   UNL     1       8.822  -0.345  16.281  1.00  0.00     0.211 HD
ENDBRANCH   4  52
TORSDOF 16
ENDMDL
