MODEL 1
REMARK VINA RESULT:    -5.318      0.000      0.000
REMARK INTER + INTRA:         -18.975
REMARK INTER:                 -14.022
REMARK INTRA:                  -4.952
REMARK UNBOUND:                -4.952
REMARK SMILES CCCCCCCCCCCCCCCCCCCCCCCCCCCCCC(=O)[O-]
REMARK SMILES IDX 16 1 17 2 18 3 19 4 20 5 21 6 22 7 23 8 24 9 25 10 26 11
REMARK SMILES IDX 27 12 28 13 29 14 30 15 31 16 32 17 15 18 14 19 13 20 12 21
REMARK SMILES IDX 11 22 10 23 9 24 8 25 7 26 6 27 5 28 4 29 3 30 2 31 1 32
REMARK H PARENT
REMARK Flexibility Score: inf
ROOT
ATOM      1  C   UNL     1      20.424  12.795  37.106  1.00  0.00     0.000 C 
ENDROOT
BRANCH   1   2
ATOM      2  C   UNL     1      21.170  11.831  36.172  1.00  0.00     0.000 C 
BRANCH   2   3
ATOM      3  C   UNL     1      20.261  10.748  35.564  1.00  0.00     0.000 C 
BRANCH   3   4
ATOM      4  C   UNL     1      20.164  10.760  34.028  1.00  0.00     0.000 C 
BRANCH   4   5
ATOM      5  C   UNL     1      21.033  11.851  33.376  1.00  0.00     0.000 C 
BRANCH   5   6
ATOM      6  C   UNL     1      20.182  12.977  32.753  1.00  0.00     0.000 C 
BRANCH   6   7
ATOM      7  C   UNL     1      20.999  14.008  31.951  1.00  0.00     0.000 C 
BRANCH   7   8
ATOM      8  C   UNL     1      22.514  13.714  31.899  1.00  0.00     0.000 C 
BRANCH   8   9
ATOM      9  C   UNL     1      23.377  14.713  32.698  1.00  0.00     0.000 C 
BRANCH   9  10
ATOM     10  C   UNL     1      22.696  15.294  33.954  1.00  0.00     0.000 C 
BRANCH  10  11
ATOM     11  C   UNL     1      22.273  16.772  33.840  1.00  0.00     0.000 C 
BRANCH  11  12
ATOM     12  C   UNL     1      21.011  17.123  34.661  1.00  0.00     0.000 C 
BRANCH  12  13
ATOM     13  C   UNL     1      19.699  17.038  33.856  1.00  0.00     0.006 C 
BRANCH  13  14
ATOM     14  C   UNL     1      19.815  17.524  32.400  1.00  0.00     0.053 C 
BRANCH  14  15
ATOM     15  C   UNL     1      19.501  18.983  32.256  1.00  0.00     0.041 C 
ATOM     16  O   UNL     1      19.283  19.692  33.275  1.00  0.00    -0.550 OA
ATOM     17  O   UNL     1      19.487  19.567  30.995  1.00  0.00    -0.550 OA
ENDBRANCH  14  15
ENDBRANCH  13  14
ENDBRANCH  12  13
ENDBRANCH  11  12
ENDBRANCH  10  11
ENDBRANCH   9  10
ENDBRANCH   8   9
ENDBRANCH   7   8
ENDBRANCH   6   7
ENDBRANCH   5   6
ENDBRANCH   4   5
ENDBRANCH   3   4
ENDBRANCH   2   3
ENDBRANCH   1   2
BRANCH   1  18
ATOM     18  C   UNL     1      20.075  14.104  36.377  1.00  0.00     0.000 C 
BRANCH  18  19
ATOM     19  C   UNL     1      18.595  14.176  35.946  1.00  0.00     0.000 C 
BRANCH  19  20
ATOM     20  C   UNL     1      17.669  13.207  36.700  1.00  0.00     0.000 C 
BRANCH  20  21
ATOM     21  C   UNL     1      16.954  12.206  35.777  1.00  0.00     0.000 C 
BRANCH  21  22
ATOM     22  C   UNL     1      16.790  12.717  34.335  1.00  0.00     0.000 C 
BRANCH  22  23
ATOM     23  C   UNL     1      16.726  11.604  33.269  1.00  0.00     0.000 C 
BRANCH  23  24
ATOM     24  C   UNL     1      15.306  11.055  33.057  1.00  0.00    -0.000 C 
BRANCH  24  25
ATOM     25  C   UNL     1      14.315  12.188  32.738  1.00  0.00    -0.000 C 
BRANCH  25  26
ATOM     26  C   UNL     1      13.031  12.110  33.580  1.00  0.00    -0.000 C 
BRANCH  26  27
ATOM     27  C   UNL     1      12.648  13.413  34.310  1.00  0.00    -0.000 C 
BRANCH  27  28
ATOM     28  C   UNL     1      13.652  13.838  35.403  1.00  0.00    -0.000 C 
BRANCH  28  29
ATOM     29  C   UNL     1      13.416  13.107  36.736  1.00  0.00    -0.000 C 
BRANCH  29  30
ATOM     30  C   UNL     1      11.950  12.682  36.935  1.00  0.00    -0.000 C 
BRANCH  30  31
ATOM     31  C   UNL     1      11.701  11.762  38.144  1.00  0.00    -0.003 C 
ATOM     32  C   UNL     1      11.031  10.442  37.762  1.00  0.00     0.004 C 
ENDBRANCH  30  31
ENDBRANCH  29  30
ENDBRANCH  28  29
ENDBRANCH  27  28
ENDBRANCH  26  27
ENDBRANCH  25  26
ENDBRANCH  24  25
ENDBRANCH  23  24
ENDBRANCH  22  23
ENDBRANCH  21  22
ENDBRANCH  20  21
ENDBRANCH  19  20
ENDBRANCH  18  19
ENDBRANCH   1  18
TORSDOF 28
ENDMDL
MODEL 2
REMARK VINA RESULT:    -5.284      1.219      2.951
REMARK INTER + INTRA:         -18.885
REMARK INTER:                 -13.544
REMARK INTRA:                  -5.341
REMARK UNBOUND:                -4.952
REMARK SMILES CCCCCCCCCCCCCCCCCCCCCCCCCCCCCC(=O)[O-]
REMARK SMILES IDX 16 1 17 2 18 3 19 4 20 5 21 6 22 7 23 8 24 9 25 10 26 11
REMARK SMILES IDX 27 12 28 13 29 14 30 15 31 16 32 17 15 18 14 19 13 20 12 21
REMARK SMILES IDX 11 22 10 23 9 24 8 25 7 26 6 27 5 28 4 29 3 30 2 31 1 32
REMARK H PARENT
REMARK Flexibility Score: inf
ROOT
ATOM      1  C   UNL     1      20.821  11.997  34.619  1.00  0.00     0.000 C 
ENDROOT
BRANCH   1   2
ATOM      2  C   UNL     1      20.996  11.862  33.099  1.00  0.00     0.000 C 
BRANCH   2   3
ATOM      3  C   UNL     1      20.376  13.027  32.309  1.00  0.00     0.000 C 
BRANCH   3   4
ATOM      4  C   UNL     1      21.373  14.096  31.827  1.00  0.00     0.000 C 
BRANCH   4   5
ATOM      5  C   UNL     1      22.841  13.716  32.088  1.00  0.00     0.000 C 
BRANCH   5   6
ATOM      6  C   UNL     1      23.502  14.631  33.138  1.00  0.00     0.000 C 
BRANCH   6   7
ATOM      7  C   UNL     1      22.918  16.057  33.183  1.00  0.00     0.000 C 
BRANCH   7   8
ATOM      8  C   UNL     1      23.031  16.745  34.561  1.00  0.00     0.000 C 
BRANCH   8   9
ATOM      9  C   UNL     1      21.714  16.760  35.366  1.00  0.00     0.000 C 
BRANCH   9  10
ATOM     10  C   UNL     1      20.766  15.578  35.075  1.00  0.00     0.000 C 
BRANCH  10  11
ATOM     11  C   UNL     1      19.433  15.964  34.405  1.00  0.00     0.000 C 
BRANCH  11  12
ATOM     12  C   UNL     1      19.385  17.427  33.911  1.00  0.00     0.000 C 
BRANCH  12  13
ATOM     13  C   UNL     1      19.566  17.579  32.388  1.00  0.00     0.006 C 
BRANCH  13  14
ATOM     14  C   UNL     1      19.940  19.000  31.931  1.00  0.00     0.053 C 
BRANCH  14  15
ATOM     15  C   UNL     1      19.016  19.524  30.873  1.00  0.00     0.041 C 
ATOM     16  O   UNL     1      19.443  19.742  29.706  1.00  0.00    -0.550 OA
ATOM     17  O   UNL     1      17.675  19.735  31.166  1.00  0.00    -0.550 OA
ENDBRANCH  14  15
ENDBRANCH  13  14
ENDBRANCH  12  13
ENDBRANCH  11  12
ENDBRANCH  10  11
ENDBRANCH   9  10
ENDBRANCH   8   9
ENDBRANCH   7   8
ENDBRANCH   6   7
ENDBRANCH   5   6
ENDBRANCH   4   5
ENDBRANCH   3   4
ENDBRANCH   2   3
ENDBRANCH   1   2
BRANCH   1  18
ATOM     18  C   UNL     1      19.952  10.855  35.174  1.00  0.00     0.000 C 
BRANCH  18  19
ATOM     19  C   UNL     1      19.126  11.272  36.407  1.00  0.00     0.000 C 
BRANCH  19  20
ATOM     20  C   UNL     1      19.336  12.731  36.845  1.00  0.00     0.000 C 
BRANCH  20  21
ATOM     21  C   UNL     1      18.021  13.487  37.099  1.00  0.00     0.000 C 
BRANCH  21  22
ATOM     22  C   UNL     1      16.809  12.854  36.394  1.00  0.00     0.000 C 
BRANCH  22  23
ATOM     23  C   UNL     1      16.341  13.609  35.134  1.00  0.00     0.000 C 
BRANCH  23  24
ATOM     24  C   UNL     1      17.125  13.216  33.871  1.00  0.00    -0.000 C 
BRANCH  24  25
ATOM     25  C   UNL     1      16.821  11.765  33.459  1.00  0.00    -0.000 C 
BRANCH  25  26
ATOM     26  C   UNL     1      15.314  11.458  33.427  1.00  0.00    -0.000 C 
BRANCH  26  27
ATOM     27  C   UNL     1      14.847  10.374  34.418  1.00  0.00    -0.000 C 
BRANCH  27  28
ATOM     28  C   UNL     1      13.319  10.339  34.636  1.00  0.00    -0.000 C 
BRANCH  28  29
ATOM     29  C   UNL     1      12.930  10.537  36.111  1.00  0.00    -0.000 C 
BRANCH  29  30
ATOM     30  C   UNL     1      13.254  11.949  36.631  1.00  0.00    -0.000 C 
BRANCH  30  31
ATOM     31  C   UNL     1      12.214  13.026  36.271  1.00  0.00    -0.003 C 
ATOM     32  C   UNL     1      12.722  14.018  35.225  1.00  0.00     0.004 C 
ENDBRANCH  30  31
ENDBRANCH  29  30
ENDBRANCH  28  29
ENDBRANCH  27  28
ENDBRANCH  26  27
ENDBRANCH  25  26
ENDBRANCH  24  25
ENDBRANCH  23  24
ENDBRANCH  22  23
ENDBRANCH  21  22
ENDBRANCH  20  21
ENDBRANCH  19  20
ENDBRANCH  18  19
ENDBRANCH   1  18
TORSDOF 28
ENDMDL
MODEL 3
REMARK VINA RESULT:    -5.223      1.924      6.613
REMARK INTER + INTRA:         -18.724
REMARK INTER:                 -13.073
REMARK INTRA:                  -5.651
REMARK UNBOUND:                -4.952
REMARK SMILES CCCCCCCCCCCCCCCCCCCCCCCCCCCCCC(=O)[O-]
REMARK SMILES IDX 16 1 17 2 18 3 19 4 20 5 21 6 22 7 23 8 24 9 25 10 26 11
REMARK SMILES IDX 27 12 28 13 29 14 30 15 31 16 32 17 15 18 14 19 13 20 12 21
REMARK SMILES IDX 11 22 10 23 9 24 8 25 7 26 6 27 5 28 4 29 3 30 2 31 1 32
REMARK H PARENT
REMARK Flexibility Score: inf
ROOT
ATOM      1  C   UNL     1      12.042  12.991  36.545  1.00  0.00     0.000 C 
ENDROOT
BRANCH   1   2
ATOM      2  C   UNL     1      12.734  13.831  35.461  1.00  0.00     0.000 C 
BRANCH   2   3
ATOM      3  C   UNL     1      12.782  13.134  34.090  1.00  0.00     0.000 C 
BRANCH   3   4
ATOM      4  C   UNL     1      14.192  12.782  33.583  1.00  0.00     0.000 C 
BRANCH   4   5
ATOM      5  C   UNL     1      15.302  13.601  34.265  1.00  0.00     0.000 C 
BRANCH   5   6
ATOM      6  C   UNL     1      16.711  13.131  33.849  1.00  0.00     0.000 C 
BRANCH   6   7
ATOM      7  C   UNL     1      16.734  11.756  33.154  1.00  0.00     0.000 C 
BRANCH   7   8
ATOM      8  C   UNL     1      18.137  11.117  33.060  1.00  0.00     0.000 C 
BRANCH   8   9
ATOM      9  C   UNL     1      19.293  12.139  33.031  1.00  0.00     0.000 C 
BRANCH   9  10
ATOM     10  C   UNL     1      20.563  11.699  33.788  1.00  0.00     0.000 C 
BRANCH  10  11
ATOM     11  C   UNL     1      21.707  12.732  33.795  1.00  0.00     0.000 C 
BRANCH  11  12
ATOM     12  C   UNL     1      21.741  13.633  32.540  1.00  0.00     0.000 C 
BRANCH  12  13
ATOM     13  C   UNL     1      22.831  14.721  32.582  1.00  0.00     0.006 C 
BRANCH  13  14
ATOM     14  C   UNL     1      23.411  14.985  33.983  1.00  0.00     0.053 C 
BRANCH  14  15
ATOM     15  C   UNL     1      23.851  16.406  34.163  1.00  0.00     0.041 C 
ATOM     16  O   UNL     1      23.094  17.241  34.728  1.00  0.00    -0.550 OA
ATOM     17  O   UNL     1      25.114  16.801  33.738  1.00  0.00    -0.550 OA
ENDBRANCH  14  15
ENDBRANCH  13  14
ENDBRANCH  12  13
ENDBRANCH  11  12
ENDBRANCH  10  11
ENDBRANCH   9  10
ENDBRANCH   8   9
ENDBRANCH   7   8
ENDBRANCH   6   7
ENDBRANCH   5   6
ENDBRANCH   4   5
ENDBRANCH   3   4
ENDBRANCH   2   3
ENDBRANCH   1   2
BRANCH   1  18
ATOM     18  C   UNL     1      13.075  12.204  37.370  1.00  0.00     0.000 C 
BRANCH  18  19
ATOM     19  C   UNL     1      13.170  10.721  36.958  1.00  0.00     0.000 C 
BRANCH  19  20
ATOM     20  C   UNL     1      14.475  10.347  36.235  1.00  0.00     0.000 C 
BRANCH  20  21
ATOM     21  C   UNL     1      15.687  11.173  36.698  1.00  0.00     0.000 C 
BRANCH  21  22
ATOM     22  C   UNL     1      16.965  10.335  36.873  1.00  0.00     0.000 C 
BRANCH  22  23
ATOM     23  C   UNL     1      18.275  11.127  36.690  1.00  0.00     0.000 C 
BRANCH  23  24
ATOM     24  C   UNL     1      18.161  12.592  37.142  1.00  0.00    -0.000 C 
BRANCH  24  25
ATOM     25  C   UNL     1      19.502  13.109  37.689  1.00  0.00    -0.000 C 
BRANCH  25  26
ATOM     26  C   UNL     1      20.023  14.338  36.925  1.00  0.00    -0.000 C 
BRANCH  26  27
ATOM     27  C   UNL     1      19.214  14.717  35.669  1.00  0.00    -0.000 C 
BRANCH  27  28
ATOM     28  C   UNL     1      19.852  15.844  34.828  1.00  0.00    -0.000 C 
BRANCH  28  29
ATOM     29  C   UNL     1      19.043  16.161  33.559  1.00  0.00    -0.000 C 
BRANCH  29  30
ATOM     30  C   UNL     1      19.823  17.026  32.551  1.00  0.00    -0.000 C 
BRANCH  30  31
ATOM     31  C   UNL     1      20.281  18.393  33.091  1.00  0.00    -0.003 C 
ATOM     32  C   UNL     1      19.113  19.313  33.450  1.00  0.00     0.004 C 
ENDBRANCH  30  31
ENDBRANCH  29  30
ENDBRANCH  28  29
ENDBRANCH  27  28
ENDBRANCH  26  27
ENDBRANCH  25  26
ENDBRANCH  24  25
ENDBRANCH  23  24
ENDBRANCH  22  23
ENDBRANCH  21  22
ENDBRANCH  20  21
ENDBRANCH  19  20
ENDBRANCH  18  19
ENDBRANCH   1  18
TORSDOF 28
ENDMDL
MODEL 4
REMARK VINA RESULT:    -5.193      3.615      8.749
REMARK INTER + INTRA:         -18.644
REMARK INTER:                 -14.146
REMARK INTRA:                  -4.499
REMARK UNBOUND:                -4.952
REMARK SMILES CCCCCCCCCCCCCCCCCCCCCCCCCCCCCC(=O)[O-]
REMARK SMILES IDX 16 1 17 2 18 3 19 4 20 5 21 6 22 7 23 8 24 9 25 10 26 11
REMARK SMILES IDX 27 12 28 13 29 14 30 15 31 16 32 17 15 18 14 19 13 20 12 21
REMARK SMILES IDX 11 22 10 23 9 24 8 25 7 26 6 27 5 28 4 29 3 30 2 31 1 32
REMARK H PARENT
REMARK Flexibility Score: inf
ROOT
ATOM      1  C   UNL     1      18.619  12.233  37.127  1.00  0.00     0.000 C 
ENDROOT
BRANCH   1   2
ATOM      2  C   UNL     1      17.248  12.690  36.605  1.00  0.00     0.000 C 
BRANCH   2   3
ATOM      3  C   UNL     1      17.340  13.589  35.360  1.00  0.00     0.000 C 
BRANCH   3   4
ATOM      4  C   UNL     1      16.637  13.043  34.104  1.00  0.00     0.000 C 
BRANCH   4   5
ATOM      5  C   UNL     1      16.110  11.608  34.281  1.00  0.00     0.000 C 
BRANCH   5   6
ATOM      6  C   UNL     1      15.248  11.153  33.086  1.00  0.00     0.000 C 
BRANCH   6   7
ATOM      7  C   UNL     1      13.731  11.282  33.324  1.00  0.00     0.000 C 
BRANCH   7   8
ATOM      8  C   UNL     1      13.181  12.714  33.145  1.00  0.00     0.000 C 
BRANCH   8   9
ATOM      9  C   UNL     1      12.444  13.264  34.384  1.00  0.00     0.000 C 
BRANCH   9  10
ATOM     10  C   UNL     1      13.359  13.899  35.451  1.00  0.00     0.000 C 
BRANCH  10  11
ATOM     11  C   UNL     1      13.556  13.054  36.725  1.00  0.00     0.000 C 
BRANCH  11  12
ATOM     12  C   UNL     1      12.408  12.056  36.994  1.00  0.00     0.000 C 
BRANCH  12  13
ATOM     13  C   UNL     1      12.795  10.582  36.762  1.00  0.00     0.006 C 
BRANCH  13  14
ATOM     14  C   UNL     1      14.164  10.186  37.345  1.00  0.00     0.053 C 
BRANCH  14  15
ATOM     15  C   UNL     1      14.040   9.394  38.611  1.00  0.00     0.041 C 
ATOM     16  O   UNL     1      13.474   9.892  39.622  1.00  0.00    -0.550 OA
ATOM     17  O   UNL     1      14.518   8.090  38.663  1.00  0.00    -0.550 OA
ENDBRANCH  14  15
ENDBRANCH  13  14
ENDBRANCH  12  13
ENDBRANCH  11  12
ENDBRANCH  10  11
ENDBRANCH   9  10
ENDBRANCH   8   9
ENDBRANCH   7   8
ENDBRANCH   6   7
ENDBRANCH   5   6
ENDBRANCH   4   5
ENDBRANCH   3   4
ENDBRANCH   2   3
ENDBRANCH   1   2
BRANCH   1  18
ATOM     18  C   UNL     1      19.104  10.985  36.369  1.00  0.00     0.000 C 
BRANCH  18  19
ATOM     19  C   UNL     1      20.418  11.222  35.598  1.00  0.00     0.000 C 
BRANCH  19  20
ATOM     20  C   UNL     1      20.484  10.523  34.230  1.00  0.00     0.000 C 
BRANCH  20  21
ATOM     21  C   UNL     1      19.719  11.270  33.125  1.00  0.00     0.000 C 
BRANCH  21  22
ATOM     22  C   UNL     1      20.112  12.753  33.008  1.00  0.00     0.000 C 
BRANCH  22  23
ATOM     23  C   UNL     1      21.594  12.993  32.658  1.00  0.00     0.000 C 
BRANCH  23  24
ATOM     24  C   UNL     1      22.216  14.160  33.443  1.00  0.00    -0.000 C 
BRANCH  24  25
ATOM     25  C   UNL     1      21.128  15.079  34.024  1.00  0.00    -0.000 C 
BRANCH  25  26
ATOM     26  C   UNL     1      20.833  16.293  33.127  1.00  0.00    -0.000 C 
BRANCH  26  27
ATOM     27  C   UNL     1      19.519  17.034  33.442  1.00  0.00    -0.000 C 
BRANCH  27  28
ATOM     28  C   UNL     1      19.708  18.524  33.802  1.00  0.00    -0.000 C 
BRANCH  28  29
ATOM     29  C   UNL     1      19.145  19.466  32.724  1.00  0.00    -0.000 C 
BRANCH  29  30
ATOM     30  C   UNL     1      20.075  19.607  31.505  1.00  0.00    -0.000 C 
BRANCH  30  31
ATOM     31  C   UNL     1      19.352  19.773  30.156  1.00  0.00    -0.003 C 
ATOM     32  C   UNL     1      18.357  18.647  29.871  1.00  0.00     0.004 C 
ENDBRANCH  30  31
ENDBRANCH  29  30
ENDBRANCH  28  29
ENDBRANCH  27  28
ENDBRANCH  26  27
ENDBRANCH  25  26
ENDBRANCH  24  25
ENDBRANCH  23  24
ENDBRANCH  22  23
ENDBRANCH  21  22
ENDBRANCH  20  21
ENDBRANCH  19  20
ENDBRANCH  18  19
ENDBRANCH   1  18
TORSDOF 28
ENDMDL
MODEL 5
REMARK VINA RESULT:    -5.161      3.598      8.570
REMARK INTER + INTRA:         -18.560
REMARK INTER:                 -13.658
REMARK INTRA:                  -4.902
REMARK UNBOUND:                -4.952
REMARK SMILES CCCCCCCCCCCCCCCCCCCCCCCCCCCCCC(=O)[O-]
REMARK SMILES IDX 16 1 17 2 18 3 19 4 20 5 21 6 22 7 23 8 24 9 25 10 26 11
REMARK SMILES IDX 27 12 28 13 29 14 30 15 31 16 32 17 15 18 14 19 13 20 12 21
REMARK SMILES IDX 11 22 10 23 9 24 8 25 7 26 6 27 5 28 4 29 3 30 2 31 1 32
REMARK H PARENT
REMARK Flexibility Score: inf
ROOT
ATOM      1  C   UNL     1      18.845  13.656  37.297  1.00  0.00     0.000 C 
ENDROOT
BRANCH   1   2
ATOM      2  C   UNL     1      18.776  14.481  36.004  1.00  0.00     0.000 C 
BRANCH   2   3
ATOM      3  C   UNL     1      17.690  13.994  35.029  1.00  0.00     0.000 C 
BRANCH   3   4
ATOM      4  C   UNL     1      16.773  12.883  35.572  1.00  0.00     0.000 C 
BRANCH   4   5
ATOM      5  C   UNL     1      16.945  11.543  34.834  1.00  0.00     0.000 C 
BRANCH   5   6
ATOM      6  C   UNL     1      16.271  11.551  33.447  1.00  0.00     0.000 C 
BRANCH   6   7
ATOM      7  C   UNL     1      14.964  10.738  33.381  1.00  0.00     0.000 C 
BRANCH   7   8
ATOM      8  C   UNL     1      13.712  11.577  33.043  1.00  0.00     0.000 C 
BRANCH   8   9
ATOM      9  C   UNL     1      13.726  12.998  33.646  1.00  0.00     0.000 C 
BRANCH   9  10
ATOM     10  C   UNL     1      12.351  13.511  34.123  1.00  0.00     0.000 C 
BRANCH  10  11
ATOM     11  C   UNL     1      12.183  13.595  35.652  1.00  0.00     0.000 C 
BRANCH  11  12
ATOM     12  C   UNL     1      13.432  13.141  36.442  1.00  0.00     0.000 C 
BRANCH  12  13
ATOM     13  C   UNL     1      13.394  11.662  36.874  1.00  0.00     0.006 C 
BRANCH  13  14
ATOM     14  C   UNL     1      11.987  11.038  36.877  1.00  0.00     0.053 C 
BRANCH  14  15
ATOM     15  C   UNL     1      11.322  11.130  38.217  1.00  0.00     0.041 C 
ATOM     16  O   UNL     1      11.417  10.182  39.043  1.00  0.00    -0.550 OA
ATOM     17  O   UNL     1      10.626  12.281  38.568  1.00  0.00    -0.550 OA
ENDBRANCH  14  15
ENDBRANCH  13  14
ENDBRANCH  12  13
ENDBRANCH  11  12
ENDBRANCH  10  11
ENDBRANCH   9  10
ENDBRANCH   8   9
ENDBRANCH   7   8
ENDBRANCH   6   7
ENDBRANCH   5   6
ENDBRANCH   4   5
ENDBRANCH   3   4
ENDBRANCH   2   3
ENDBRANCH   1   2
BRANCH   1  18
ATOM     18  C   UNL     1      20.284  13.184  37.569  1.00  0.00     0.000 C 
BRANCH  18  19
ATOM     19  C   UNL     1      20.449  11.655  37.446  1.00  0.00     0.000 C 
BRANCH  19  20
ATOM     20  C   UNL     1      21.344  11.207  36.279  1.00  0.00     0.000 C 
BRANCH  20  21
ATOM     21  C   UNL     1      20.649  10.229  35.317  1.00  0.00     0.000 C 
BRANCH  21  22
ATOM     22  C   UNL     1      20.324  10.849  33.947  1.00  0.00     0.000 C 
BRANCH  22  23
ATOM     23  C   UNL     1      20.786  12.311  33.785  1.00  0.00     0.000 C 
BRANCH  23  24
ATOM     24  C   UNL     1      20.316  12.947  32.466  1.00  0.00    -0.000 C 
BRANCH  24  25
ATOM     25  C   UNL     1      21.416  13.834  31.857  1.00  0.00    -0.000 C 
BRANCH  25  26
ATOM     26  C   UNL     1      22.761  13.702  32.590  1.00  0.00    -0.000 C 
BRANCH  26  27
ATOM     27  C   UNL     1      23.442  15.037  32.951  1.00  0.00    -0.000 C 
BRANCH  27  28
ATOM     28  C   UNL     1      22.625  15.916  33.923  1.00  0.00    -0.000 C 
BRANCH  28  29
ATOM     29  C   UNL     1      22.353  15.215  35.264  1.00  0.00    -0.000 C 
BRANCH  29  30
ATOM     30  C   UNL     1      22.377  16.183  36.462  1.00  0.00    -0.000 C 
BRANCH  30  31
ATOM     31  C   UNL     1      23.228  15.712  37.656  1.00  0.00    -0.003 C 
ATOM     32  C   UNL     1      22.490  15.819  38.991  1.00  0.00     0.004 C 
ENDBRANCH  30  31
ENDBRANCH  29  30
ENDBRANCH  28  29
ENDBRANCH  27  28
ENDBRANCH  26  27
ENDBRANCH  25  26
ENDBRANCH  24  25
ENDBRANCH  23  24
ENDBRANCH  22  23
ENDBRANCH  21  22
ENDBRANCH  20  21
ENDBRANCH  19  20
ENDBRANCH  18  19
ENDBRANCH   1  18
TORSDOF 28
ENDMDL
MODEL 6
REMARK VINA RESULT:    -5.070      1.553      2.997
REMARK INTER + INTRA:         -18.321
REMARK INTER:                 -13.128
REMARK INTRA:                  -5.194
REMARK UNBOUND:                -4.952
REMARK SMILES CCCCCCCCCCCCCCCCCCCCCCCCCCCCCC(=O)[O-]
REMARK SMILES IDX 16 1 17 2 18 3 19 4 20 5 21 6 22 7 23 8 24 9 25 10 26 11
REMARK SMILES IDX 27 12 28 13 29 14 30 15 31 16 32 17 15 18 14 19 13 20 12 21
REMARK SMILES IDX 11 22 10 23 9 24 8 25 7 26 6 27 5 28 4 29 3 30 2 31 1 32
REMARK H PARENT
REMARK Flexibility Score: inf
ROOT
ATOM      1  C   UNL     1      18.371  14.131  35.954  1.00  0.00     0.000 C 
ENDROOT
BRANCH   1   2
ATOM      2  C   UNL     1      19.183  13.968  37.247  1.00  0.00     0.000 C 
BRANCH   2   3
ATOM      3  C   UNL     1      20.599  13.414  37.010  1.00  0.00     0.000 C 
BRANCH   3   4
ATOM      4  C   UNL     1      20.825  11.967  37.485  1.00  0.00     0.000 C 
BRANCH   4   5
ATOM      5  C   UNL     1      21.161  11.000  36.336  1.00  0.00     0.000 C 
BRANCH   5   6
ATOM      6  C   UNL     1      21.076  11.683  34.956  1.00  0.00     0.000 C 
BRANCH   6   7
ATOM      7  C   UNL     1      19.871  11.233  34.107  1.00  0.00     0.000 C 
BRANCH   7   8
ATOM      8  C   UNL     1      19.494  12.212  32.974  1.00  0.00     0.000 C 
BRANCH   8   9
ATOM      9  C   UNL     1      20.354  13.493  32.937  1.00  0.00     0.000 C 
BRANCH   9  10
ATOM     10  C   UNL     1      21.207  13.663  31.663  1.00  0.00     0.000 C 
BRANCH  10  11
ATOM     11  C   UNL     1      22.652  14.141  31.907  1.00  0.00     0.000 C 
BRANCH  11  12
ATOM     12  C   UNL     1      23.001  14.331  33.400  1.00  0.00     0.000 C 
BRANCH  12  13
ATOM     13  C   UNL     1      23.601  15.712  33.729  1.00  0.00     0.006 C 
BRANCH  13  14
ATOM     14  C   UNL     1      22.604  16.879  33.621  1.00  0.00     0.053 C 
BRANCH  14  15
ATOM     15  C   UNL     1      21.477  16.763  34.603  1.00  0.00     0.041 C 
ATOM     16  O   UNL     1      21.700  16.399  35.789  1.00  0.00    -0.550 OA
ATOM     17  O   UNL     1      20.184  17.094  34.216  1.00  0.00    -0.550 OA
ENDBRANCH  14  15
ENDBRANCH  13  14
ENDBRANCH  12  13
ENDBRANCH  11  12
ENDBRANCH  10  11
ENDBRANCH   9  10
ENDBRANCH   8   9
ENDBRANCH   7   8
ENDBRANCH   6   7
ENDBRANCH   5   6
ENDBRANCH   4   5
ENDBRANCH   3   4
ENDBRANCH   2   3
ENDBRANCH   1   2
BRANCH   1  18
ATOM     18  C   UNL     1      17.147  13.198  35.955  1.00  0.00     0.000 C 
BRANCH  18  19
ATOM     19  C   UNL     1      17.381  11.900  36.755  1.00  0.00     0.000 C 
BRANCH  19  20
ATOM     20  C   UNL     1      16.351  10.792  36.479  1.00  0.00     0.000 C 
BRANCH  20  21
ATOM     21  C   UNL     1      15.730  10.873  35.075  1.00  0.00     0.000 C 
BRANCH  21  22
ATOM     22  C   UNL     1      14.476   9.997  34.912  1.00  0.00     0.000 C 
BRANCH  22  23
ATOM     23  C   UNL     1      13.406  10.586  33.971  1.00  0.00     0.000 C 
BRANCH  23  24
ATOM     24  C   UNL     1      13.997  11.504  32.889  1.00  0.00    -0.000 C 
BRANCH  24  25
ATOM     25  C   UNL     1      13.469  12.942  33.034  1.00  0.00    -0.000 C 
BRANCH  25  26
ATOM     26  C   UNL     1      12.646  13.147  34.317  1.00  0.00    -0.000 C 
BRANCH  26  27
ATOM     27  C   UNL     1      13.395  13.845  35.469  1.00  0.00    -0.000 C 
BRANCH  27  28
ATOM     28  C   UNL     1      13.343  13.078  36.808  1.00  0.00    -0.000 C 
BRANCH  28  29
ATOM     29  C   UNL     1      11.917  12.637  37.179  1.00  0.00    -0.000 C 
BRANCH  29  30
ATOM     30  C   UNL     1      11.778  11.110  37.316  1.00  0.00    -0.000 C 
BRANCH  30  31
ATOM     31  C   UNL     1      12.137  10.549  38.704  1.00  0.00    -0.003 C 
ATOM     32  C   UNL     1      13.498   9.853  38.732  1.00  0.00     0.004 C 
ENDBRANCH  30  31
ENDBRANCH  29  30
ENDBRANCH  28  29
ENDBRANCH  27  28
ENDBRANCH  26  27
ENDBRANCH  25  26
ENDBRANCH  24  25
ENDBRANCH  23  24
ENDBRANCH  22  23
ENDBRANCH  21  22
ENDBRANCH  20  21
ENDBRANCH  19  20
ENDBRANCH  18  19
ENDBRANCH   1  18
TORSDOF 28
ENDMDL
MODEL 7
REMARK VINA RESULT:    -5.064      1.403      2.981
REMARK INTER + INTRA:         -18.305
REMARK INTER:                 -13.683
REMARK INTRA:                  -4.622
REMARK UNBOUND:                -4.952
REMARK SMILES CCCCCCCCCCCCCCCCCCCCCCCCCCCCCC(=O)[O-]
REMARK SMILES IDX 16 1 17 2 18 3 19 4 20 5 21 6 22 7 23 8 24 9 25 10 26 11
REMARK SMILES IDX 27 12 28 13 29 14 30 15 31 16 32 17 15 18 14 19 13 20 12 21
REMARK SMILES IDX 11 22 10 23 9 24 8 25 7 26 6 27 5 28 4 29 3 30 2 31 1 32
REMARK H PARENT
REMARK Flexibility Score: inf
ROOT
ATOM      1  C   UNL     1      17.952  13.010  36.794  1.00  0.00     0.000 C 
ENDROOT
BRANCH   1   2
ATOM      2  C   UNL     1      19.005  14.128  36.814  1.00  0.00     0.000 C 
BRANCH   2   3
ATOM      3  C   UNL     1      20.421  13.623  37.144  1.00  0.00     0.000 C 
BRANCH   3   4
ATOM      4  C   UNL     1      21.234  13.119  35.938  1.00  0.00     0.000 C 
BRANCH   4   5
ATOM      5  C   UNL     1      20.875  11.680  35.526  1.00  0.00     0.000 C 
BRANCH   5   6
ATOM      6  C   UNL     1      20.368  11.602  34.071  1.00  0.00     0.000 C 
BRANCH   6   7
ATOM      7  C   UNL     1      20.128  12.976  33.416  1.00  0.00     0.000 C 
BRANCH   7   8
ATOM      8  C   UNL     1      20.620  13.076  31.955  1.00  0.00     0.000 C 
BRANCH   8   9
ATOM      9  C   UNL     1      21.790  14.063  31.753  1.00  0.00     0.000 C 
BRANCH   9  10
ATOM     10  C   UNL     1      22.944  13.913  32.765  1.00  0.00     0.000 C 
BRANCH  10  11
ATOM     11  C   UNL     1      23.446  15.235  33.379  1.00  0.00     0.000 C 
BRANCH  11  12
ATOM     12  C   UNL     1      22.338  16.061  34.070  1.00  0.00     0.000 C 
BRANCH  12  13
ATOM     13  C   UNL     1      22.379  17.565  33.732  1.00  0.00     0.006 C 
BRANCH  13  14
ATOM     14  C   UNL     1      21.063  18.123  33.162  1.00  0.00     0.053 C 
BRANCH  14  15
ATOM     15  C   UNL     1      19.965  17.102  33.148  1.00  0.00     0.041 C 
ATOM     16  O   UNL     1      19.402  16.757  34.222  1.00  0.00    -0.550 OA
ATOM     17  O   UNL     1      19.539  16.558  31.942  1.00  0.00    -0.550 OA
ENDBRANCH  14  15
ENDBRANCH  13  14
ENDBRANCH  12  13
ENDBRANCH  11  12
ENDBRANCH  10  11
ENDBRANCH   9  10
ENDBRANCH   8   9
ENDBRANCH   7   8
ENDBRANCH   6   7
ENDBRANCH   5   6
ENDBRANCH   4   5
ENDBRANCH   3   4
ENDBRANCH   2   3
ENDBRANCH   1   2
BRANCH   1  18
ATOM     18  C   UNL     1      17.101  13.083  35.514  1.00  0.00     0.000 C 
BRANCH  18  19
ATOM     19  C   UNL     1      16.713  11.694  34.969  1.00  0.00     0.000 C 
BRANCH  19  20
ATOM     20  C   UNL     1      16.171  11.707  33.530  1.00  0.00     0.000 C 
BRANCH  20  21
ATOM     21  C   UNL     1      15.000  10.735  33.310  1.00  0.00     0.000 C 
BRANCH  21  22
ATOM     22  C   UNL     1      13.675  11.443  32.977  1.00  0.00     0.000 C 
BRANCH  22  23
ATOM     23  C   UNL     1      13.639  12.937  33.357  1.00  0.00     0.000 C 
BRANCH  23  24
ATOM     24  C   UNL     1      12.637  13.247  34.481  1.00  0.00    -0.000 C 
BRANCH  24  25
ATOM     25  C   UNL     1      13.365  13.584  35.794  1.00  0.00    -0.000 C 
BRANCH  25  26
ATOM     26  C   UNL     1      13.007  12.620  36.938  1.00  0.00    -0.000 C 
BRANCH  26  27
ATOM     27  C   UNL     1      14.001  11.462  37.151  1.00  0.00    -0.000 C 
BRANCH  27  28
ATOM     28  C   UNL     1      13.524  10.111  36.575  1.00  0.00    -0.000 C 
BRANCH  28  29
ATOM     29  C   UNL     1      12.018  10.102  36.265  1.00  0.00    -0.000 C 
BRANCH  29  30
ATOM     30  C   UNL     1      11.370   8.722  36.483  1.00  0.00    -0.000 C 
BRANCH  30  31
ATOM     31  C   UNL     1       9.943   8.761  37.060  1.00  0.00    -0.003 C 
ATOM     32  C   UNL     1       9.716   9.938  38.009  1.00  0.00     0.004 C 
ENDBRANCH  30  31
ENDBRANCH  29  30
ENDBRANCH  28  29
ENDBRANCH  27  28
ENDBRANCH  26  27
ENDBRANCH  25  26
ENDBRANCH  24  25
ENDBRANCH  23  24
ENDBRANCH  22  23
ENDBRANCH  21  22
ENDBRANCH  20  21
ENDBRANCH  19  20
ENDBRANCH  18  19
ENDBRANCH   1  18
TORSDOF 28
ENDMDL
MODEL 8
REMARK VINA RESULT:    -5.040      2.805      8.292
REMARK INTER + INTRA:         -18.243
REMARK INTER:                 -13.437
REMARK INTRA:                  -4.806
REMARK UNBOUND:                -4.952
REMARK SMILES CCCCCCCCCCCCCCCCCCCCCCCCCCCCCC(=O)[O-]
REMARK SMILES IDX 16 1 17 2 18 3 19 4 20 5 21 6 22 7 23 8 24 9 25 10 26 11
REMARK SMILES IDX 27 12 28 13 29 14 30 15 31 16 32 17 15 18 14 19 13 20 12 21
REMARK SMILES IDX 11 22 10 23 9 24 8 25 7 26 6 27 5 28 4 29 3 30 2 31 1 32
REMARK H PARENT
REMARK Flexibility Score: inf
ROOT
ATOM      1  C   UNL     1      19.777  10.686  33.248  1.00  0.00     0.000 C 
ENDROOT
BRANCH   1   2
ATOM      2  C   UNL     1      20.625  10.942  34.503  1.00  0.00     0.000 C 
BRANCH   2   3
ATOM      3  C   UNL     1      19.799  10.960  35.801  1.00  0.00     0.000 C 
BRANCH   3   4
ATOM      4  C   UNL     1      20.333  11.890  36.906  1.00  0.00     0.000 C 
BRANCH   4   5
ATOM      5  C   UNL     1      19.247  12.800  37.507  1.00  0.00     0.000 C 
BRANCH   5   6
ATOM      6  C   UNL     1      19.271  14.216  36.897  1.00  0.00     0.000 C 
BRANCH   6   7
ATOM      7  C   UNL     1      18.411  14.366  35.627  1.00  0.00     0.000 C 
BRANCH   7   8
ATOM      8  C   UNL     1      17.067  13.605  35.679  1.00  0.00     0.000 C 
BRANCH   8   9
ATOM      9  C   UNL     1      16.575  13.106  34.304  1.00  0.00     0.000 C 
BRANCH   9  10
ATOM     10  C   UNL     1      16.199  11.610  34.257  1.00  0.00     0.000 C 
BRANCH  10  11
ATOM     11  C   UNL     1      15.489  11.158  32.965  1.00  0.00     0.000 C 
BRANCH  11  12
ATOM     12  C   UNL     1      14.036  10.681  33.188  1.00  0.00     0.000 C 
BRANCH  12  13
ATOM     13  C   UNL     1      13.518  10.906  34.622  1.00  0.00     0.006 C 
BRANCH  13  14
ATOM     14  C   UNL     1      12.747  12.224  34.819  1.00  0.00     0.053 C 
BRANCH  14  15
ATOM     15  C   UNL     1      12.774  12.697  36.241  1.00  0.00     0.041 C 
ATOM     16  O   UNL     1      13.843  13.139  36.744  1.00  0.00    -0.550 OA
ATOM     17  O   UNL     1      11.610  12.686  36.998  1.00  0.00    -0.550 OA
ENDBRANCH  14  15
ENDBRANCH  13  14
ENDBRANCH  12  13
ENDBRANCH  11  12
ENDBRANCH  10  11
ENDBRANCH   9  10
ENDBRANCH   8   9
ENDBRANCH   7   8
ENDBRANCH   6   7
ENDBRANCH   5   6
ENDBRANCH   4   5
ENDBRANCH   3   4
ENDBRANCH   2   3
ENDBRANCH   1   2
BRANCH   1  18
ATOM     18  C   UNL     1      19.409  12.010  32.557  1.00  0.00     0.000 C 
BRANCH  18  19
ATOM     19  C   UNL     1      20.300  13.189  33.001  1.00  0.00     0.000 C 
BRANCH  19  20
ATOM     20  C   UNL     1      21.208  13.748  31.893  1.00  0.00     0.000 C 
BRANCH  20  21
ATOM     21  C   UNL     1      22.697  13.767  32.277  1.00  0.00     0.000 C 
BRANCH  21  22
ATOM     22  C   UNL     1      22.935  13.740  33.796  1.00  0.00     0.000 C 
BRANCH  22  23
ATOM     23  C   UNL     1      23.362  15.094  34.398  1.00  0.00     0.000 C 
BRANCH  23  24
ATOM     24  C   UNL     1      22.420  15.583  35.510  1.00  0.00    -0.000 C 
BRANCH  24  25
ATOM     25  C   UNL     1      21.742  16.908  35.119  1.00  0.00    -0.000 C 
BRANCH  25  26
ATOM     26  C   UNL     1      21.337  16.954  33.636  1.00  0.00    -0.000 C 
BRANCH  26  27
ATOM     27  C   UNL     1      19.824  17.097  33.376  1.00  0.00    -0.000 C 
BRANCH  27  28
ATOM     28  C   UNL     1      19.474  17.562  31.946  1.00  0.00    -0.000 C 
BRANCH  28  29
ATOM     29  C   UNL     1      19.202  19.074  31.869  1.00  0.00    -0.000 C 
BRANCH  29  30
ATOM     30  C   UNL     1      20.256  19.911  32.617  1.00  0.00    -0.000 C 
BRANCH  30  31
ATOM     31  C   UNL     1      21.537  20.205  31.815  1.00  0.00    -0.003 C 
ATOM     32  C   UNL     1      22.776  20.343  32.701  1.00  0.00     0.004 C 
ENDBRANCH  30  31
ENDBRANCH  29  30
ENDBRANCH  28  29
ENDBRANCH  27  28
ENDBRANCH  26  27
ENDBRANCH  25  26
ENDBRANCH  24  25
ENDBRANCH  23  24
ENDBRANCH  22  23
ENDBRANCH  21  22
ENDBRANCH  20  21
ENDBRANCH  19  20
ENDBRANCH  18  19
ENDBRANCH   1  18
TORSDOF 28
ENDMDL
MODEL 9
REMARK VINA RESULT:    -5.039      3.785      8.729
REMARK INTER + INTRA:         -18.239
REMARK INTER:                 -12.859
REMARK INTRA:                  -5.380
REMARK UNBOUND:                -4.952
REMARK SMILES CCCCCCCCCCCCCCCCCCCCCCCCCCCCCC(=O)[O-]
REMARK SMILES IDX 16 1 17 2 18 3 19 4 20 5 21 6 22 7 23 8 24 9 25 10 26 11
REMARK SMILES IDX 27 12 28 13 29 14 30 15 31 16 32 17 15 18 14 19 13 20 12 21
REMARK SMILES IDX 11 22 10 23 9 24 8 25 7 26 6 27 5 28 4 29 3 30 2 31 1 32
REMARK H PARENT
REMARK Flexibility Score: inf
ROOT
ATOM      1  C   UNL     1      18.427  14.057  36.798  1.00  0.00     0.000 C 
ENDROOT
BRANCH   1   2
ATOM      2  C   UNL     1      17.521  13.533  35.674  1.00  0.00     0.000 C 
BRANCH   2   3
ATOM      3  C   UNL     1      16.689  12.306  36.085  1.00  0.00     0.000 C 
BRANCH   3   4
ATOM      4  C   UNL     1      16.304  11.359  34.934  1.00  0.00     0.000 C 
BRANCH   4   5
ATOM      5  C   UNL     1      15.204  10.355  35.321  1.00  0.00     0.000 C 
BRANCH   5   6
ATOM      6  C   UNL     1      14.298   9.996  34.125  1.00  0.00     0.000 C 
BRANCH   6   7
ATOM      7  C   UNL     1      14.348  11.017  32.972  1.00  0.00     0.000 C 
BRANCH   7   8
ATOM      8  C   UNL     1      13.188  12.037  32.979  1.00  0.00     0.000 C 
BRANCH   8   9
ATOM      9  C   UNL     1      13.515  13.356  33.712  1.00  0.00     0.000 C 
BRANCH   9  10
ATOM     10  C   UNL     1      12.558  13.705  34.871  1.00  0.00     0.000 C 
BRANCH  10  11
ATOM     11  C   UNL     1      13.063  13.310  36.273  1.00  0.00     0.000 C 
BRANCH  11  12
ATOM     12  C   UNL     1      12.000  12.600  37.141  1.00  0.00     0.000 C 
BRANCH  12  13
ATOM     13  C   UNL     1      12.122  11.064  37.145  1.00  0.00     0.006 C 
BRANCH  13  14
ATOM     14  C   UNL     1      12.970  10.498  38.298  1.00  0.00     0.053 C 
BRANCH  14  15
ATOM     15  C   UNL     1      12.658   9.060  38.587  1.00  0.00     0.041 C 
ATOM     16  O   UNL     1      12.747   8.613  39.763  1.00  0.00    -0.550 OA
ATOM     17  O   UNL     1      12.232   8.223  37.563  1.00  0.00    -0.550 OA
ENDBRANCH  14  15
ENDBRANCH  13  14
ENDBRANCH  12  13
ENDBRANCH  11  12
ENDBRANCH  10  11
ENDBRANCH   9  10
ENDBRANCH   8   9
ENDBRANCH   7   8
ENDBRANCH   6   7
ENDBRANCH   5   6
ENDBRANCH   4   5
ENDBRANCH   3   4
ENDBRANCH   2   3
ENDBRANCH   1   2
BRANCH   1  18
ATOM     18  C   UNL     1      19.879  14.198  36.310  1.00  0.00     0.000 C 
BRANCH  18  19
ATOM     19  C   UNL     1      20.890  13.456  37.208  1.00  0.00     0.000 C 
BRANCH  19  20
ATOM     20  C   UNL     1      21.358  12.102  36.649  1.00  0.00     0.000 C 
BRANCH  20  21
ATOM     21  C   UNL     1      20.304  10.990  36.782  1.00  0.00     0.000 C 
BRANCH  21  22
ATOM     22  C   UNL     1      19.872  10.396  35.430  1.00  0.00     0.000 C 
BRANCH  22  23
ATOM     23  C   UNL     1      20.595  10.999  34.210  1.00  0.00     0.000 C 
BRANCH  23  24
ATOM     24  C   UNL     1      19.660  11.808  33.295  1.00  0.00    -0.000 C 
BRANCH  24  25
ATOM     25  C   UNL     1      20.300  13.148  32.894  1.00  0.00    -0.000 C 
BRANCH  25  26
ATOM     26  C   UNL     1      21.828  13.055  32.739  1.00  0.00    -0.000 C 
BRANCH  26  27
ATOM     27  C   UNL     1      22.639  13.911  33.731  1.00  0.00    -0.000 C 
BRANCH  27  28
ATOM     28  C   UNL     1      23.430  15.060  33.070  1.00  0.00    -0.000 C 
BRANCH  28  29
ATOM     29  C   UNL     1      23.022  16.442  33.609  1.00  0.00    -0.000 C 
BRANCH  29  30
ATOM     30  C   UNL     1      21.628  16.442  34.263  1.00  0.00    -0.000 C 
BRANCH  30  31
ATOM     31  C   UNL     1      20.545  17.205  33.478  1.00  0.00    -0.003 C 
ATOM     32  C   UNL     1      19.139  16.649  33.709  1.00  0.00     0.004 C 
ENDBRANCH  30  31
ENDBRANCH  29  30
ENDBRANCH  28  29
ENDBRANCH  27  28
ENDBRANCH  26  27
ENDBRANCH  25  26
ENDBRANCH  24  25
ENDBRANCH  23  24
ENDBRANCH  22  23
ENDBRANCH  21  22
ENDBRANCH  20  21
ENDBRANCH  19  20
ENDBRANCH  18  19
ENDBRANCH   1  18
TORSDOF 28
ENDMDL
