MODEL 1
REMARK VINA RESULT:    -4.914      0.000      0.000
REMARK INTER + INTRA:         -14.088
REMARK INTER:                 -10.659
REMARK INTRA:                  -3.429
REMARK UNBOUND:                -3.429
REMARK SMILES CCCCCCCCCCCCCCCCCCCCCC(=O)[O-]
REMARK SMILES IDX 12 1 11 2 10 3 9 4 8 5 7 6 6 7 5 8 4 9 3 10 2 11 1 12 13 13
REMARK SMILES IDX 14 14 15 15 16 16 17 17 18 18 19 19 20 20 21 21 22 22 23 23
REMARK SMILES IDX 24 24
REMARK H PARENT
REMARK Flexibility Score: inf
ROOT
ATOM      1  C   UNL     1      14.414  12.111 -21.583  1.00  0.00     0.000 C 
ENDROOT
BRANCH   1   2
ATOM      2  C   UNL     1      14.294  13.477 -20.882  1.00  0.00     0.000 C 
BRANCH   2   3
ATOM      3  C   UNL     1      13.286  14.409 -21.574  1.00  0.00     0.000 C 
BRANCH   3   4
ATOM      4  C   UNL     1      12.883  15.604 -20.693  1.00  0.00    -0.000 C 
BRANCH   4   5
ATOM      5  C   UNL     1      11.352  15.794 -20.637  1.00  0.00    -0.000 C 
BRANCH   5   6
ATOM      6  C   UNL     1      10.877  16.613 -19.424  1.00  0.00    -0.000 C 
BRANCH   6   7
ATOM      7  C   UNL     1       9.703  15.958 -18.684  1.00  0.00    -0.000 C 
BRANCH   7   8
ATOM      8  C   UNL     1       8.379  16.662 -19.019  1.00  0.00    -0.000 C 
BRANCH   8   9
ATOM      9  C   UNL     1       7.711  16.096 -20.283  1.00  0.00    -0.000 C 
BRANCH   9  10
ATOM     10  C   UNL     1       7.715  17.093 -21.452  1.00  0.00    -0.000 C 
BRANCH  10  11
ATOM     11  C   UNL     1       7.893  16.365 -22.790  1.00  0.00    -0.003 C 
ATOM     12  C   UNL     1       9.239  16.703 -23.426  1.00  0.00     0.004 C 
ENDBRANCH  10  11
ENDBRANCH   9  10
ENDBRANCH   8   9
ENDBRANCH   7   8
ENDBRANCH   6   7
ENDBRANCH   5   6
ENDBRANCH   4   5
ENDBRANCH   3   4
ENDBRANCH   2   3
ENDBRANCH   1   2
BRANCH   1  13
ATOM     13  C   UNL     1      13.070  11.372 -21.676  1.00  0.00     0.000 C 
BRANCH  13  14
ATOM     14  C   UNL     1      12.502  11.001 -20.298  1.00  0.00     0.000 C 
BRANCH  14  15
ATOM     15  C   UNL     1      11.101  11.602 -20.105  1.00  0.00     0.000 C 
BRANCH  15  16
ATOM     16  C   UNL     1      11.027  12.582 -18.919  1.00  0.00     0.000 C 
BRANCH  16  17
ATOM     17  C   UNL     1      12.259  12.578 -17.993  1.00  0.00     0.000 C 
BRANCH  17  18
ATOM     18  C   UNL     1      12.628  13.979 -17.481  1.00  0.00     0.000 C 
BRANCH  18  19
ATOM     19  C   UNL     1      14.090  14.023 -17.009  1.00  0.00     0.000 C 
BRANCH  19  20
ATOM     20  C   UNL     1      14.836  15.280 -17.496  1.00  0.00     0.006 C 
BRANCH  20  21
ATOM     21  C   UNL     1      16.264  15.420 -16.947  1.00  0.00     0.053 C 
BRANCH  21  22
ATOM     22  C   UNL     1      17.219  14.482 -17.619  1.00  0.00     0.041 C 
ATOM     23  O   UNL     1      17.879  13.653 -16.937  1.00  0.00    -0.550 OA
ATOM     24  O   UNL     1      17.405  14.545 -18.994  1.00  0.00    -0.550 OA
ENDBRANCH  21  22
ENDBRANCH  20  21
ENDBRANCH  19  20
ENDBRANCH  18  19
ENDBRANCH  17  18
ENDBRANCH  16  17
ENDBRANCH  15  16
ENDBRANCH  14  15
ENDBRANCH  13  14
ENDBRANCH   1  13
TORSDOF 20
ENDMDL
MODEL 2
REMARK VINA RESULT:    -4.913      3.211      6.681
REMARK INTER + INTRA:         -14.086
REMARK INTER:                 -10.850
REMARK INTRA:                  -3.236
REMARK UNBOUND:                -3.429
REMARK SMILES CCCCCCCCCCCCCCCCCCCCCC(=O)[O-]
REMARK SMILES IDX 12 1 11 2 10 3 9 4 8 5 7 6 6 7 5 8 4 9 3 10 2 11 1 12 13 13
REMARK SMILES IDX 14 14 15 15 16 16 17 17 18 18 19 19 20 20 21 21 22 22 23 23
REMARK SMILES IDX 24 24
REMARK H PARENT
REMARK Flexibility Score: inf
ROOT
ATOM      1  C   UNL     1      14.096  12.788 -21.406  1.00  0.00     0.000 C 
ENDROOT
BRANCH   1   2
ATOM      2  C   UNL     1      13.383  14.022 -21.991  1.00  0.00     0.000 C 
BRANCH   2   3
ATOM      3  C   UNL     1      13.114  15.105 -20.935  1.00  0.00     0.000 C 
BRANCH   3   4
ATOM      4  C   UNL     1      14.197  15.149 -19.842  1.00  0.00    -0.000 C 
BRANCH   4   5
ATOM      5  C   UNL     1      13.602  14.980 -18.429  1.00  0.00    -0.000 C 
BRANCH   5   6
ATOM      6  C   UNL     1      13.818  16.202 -17.519  1.00  0.00    -0.000 C 
BRANCH   6   7
ATOM      7  C   UNL     1      14.780  17.234 -18.123  1.00  0.00    -0.000 C 
BRANCH   7   8
ATOM      8  C   UNL     1      16.015  17.425 -17.230  1.00  0.00    -0.000 C 
BRANCH   8   9
ATOM      9  C   UNL     1      16.501  16.109 -16.602  1.00  0.00    -0.000 C 
BRANCH   9  10
ATOM     10  C   UNL     1      17.277  15.230 -17.596  1.00  0.00    -0.000 C 
BRANCH  10  11
ATOM     11  C   UNL     1      17.158  13.747 -17.224  1.00  0.00    -0.003 C 
ATOM     12  C   UNL     1      16.337  13.563 -15.950  1.00  0.00     0.004 C 
ENDBRANCH  10  11
ENDBRANCH   9  10
ENDBRANCH   8   9
ENDBRANCH   7   8
ENDBRANCH   6   7
ENDBRANCH   5   6
ENDBRANCH   4   5
ENDBRANCH   3   4
ENDBRANCH   2   3
ENDBRANCH   1   2
BRANCH   1  13
ATOM     13  C   UNL     1      13.266  11.502 -21.545  1.00  0.00     0.000 C 
BRANCH  13  14
ATOM     14  C   UNL     1      12.663  11.039 -20.210  1.00  0.00     0.000 C 
BRANCH  14  15
ATOM     15  C   UNL     1      11.421  11.869 -19.853  1.00  0.00     0.000 C 
BRANCH  15  16
ATOM     16  C   UNL     1      11.311  12.169 -18.346  1.00  0.00     0.000 C 
BRANCH  16  17
ATOM     17  C   UNL     1      10.416  13.370 -17.986  1.00  0.00     0.000 C 
BRANCH  17  18
ATOM     18  C   UNL     1      10.016  14.208 -19.210  1.00  0.00     0.000 C 
BRANCH  18  19
ATOM     19  C   UNL     1      10.004  15.707 -18.870  1.00  0.00     0.000 C 
BRANCH  19  20
ATOM     20  C   UNL     1       9.319  16.558 -19.956  1.00  0.00     0.006 C 
BRANCH  20  21
ATOM     21  C   UNL     1       7.962  16.012 -20.425  1.00  0.00     0.053 C 
BRANCH  21  22
ATOM     22  C   UNL     1       7.900  15.867 -21.915  1.00  0.00     0.041 C 
ATOM     23  O   UNL     1       8.744  16.453 -22.645  1.00  0.00    -0.550 OA
ATOM     24  O   UNL     1       6.889  15.114 -22.499  1.00  0.00    -0.550 OA
ENDBRANCH  21  22
ENDBRANCH  20  21
ENDBRANCH  19  20
ENDBRANCH  18  19
ENDBRANCH  17  18
ENDBRANCH  16  17
ENDBRANCH  15  16
ENDBRANCH  14  15
ENDBRANCH  13  14
ENDBRANCH   1  13
TORSDOF 20
ENDMDL
MODEL 3
REMARK VINA RESULT:    -4.850      1.078      2.617
REMARK INTER + INTRA:         -13.949
REMARK INTER:                 -10.780
REMARK INTRA:                  -3.169
REMARK UNBOUND:                -3.429
REMARK SMILES CCCCCCCCCCCCCCCCCCCCCC(=O)[O-]
REMARK SMILES IDX 12 1 11 2 10 3 9 4 8 5 7 6 6 7 5 8 4 9 3 10 2 11 1 12 13 13
REMARK SMILES IDX 14 14 15 15 16 16 17 17 18 18 19 19 20 20 21 21 22 22 23 23
REMARK SMILES IDX 24 24
REMARK H PARENT
REMARK Flexibility Score: inf
ROOT
ATOM      1  C   UNL     1      11.839  11.542 -20.243  1.00  0.00     0.000 C 
ENDROOT
BRANCH   1   2
ATOM      2  C   UNL     1      12.040  11.956 -18.773  1.00  0.00     0.000 C 
BRANCH   2   3
ATOM      3  C   UNL     1      10.792  12.619 -18.171  1.00  0.00     0.000 C 
BRANCH   3   4
ATOM      4  C   UNL     1      10.181  13.685 -19.098  1.00  0.00    -0.000 C 
BRANCH   4   5
ATOM      5  C   UNL     1       9.962  15.029 -18.374  1.00  0.00    -0.000 C 
BRANCH   5   6
ATOM      6  C   UNL     1       8.783  15.846 -18.932  1.00  0.00    -0.000 C 
BRANCH   6   7
ATOM      7  C   UNL     1       9.231  16.993 -19.847  1.00  0.00    -0.000 C 
BRANCH   7   8
ATOM      8  C   UNL     1       8.020  17.760 -20.402  1.00  0.00    -0.000 C 
BRANCH   8   9
ATOM      9  C   UNL     1       8.024  17.842 -21.937  1.00  0.00    -0.000 C 
BRANCH   9  10
ATOM     10  C   UNL     1       8.448  16.521 -22.600  1.00  0.00    -0.000 C 
BRANCH  10  11
ATOM     11  C   UNL     1       7.225  15.662 -22.939  1.00  0.00    -0.003 C 
ATOM     12  C   UNL     1       7.022  14.559 -21.904  1.00  0.00     0.004 C 
ENDBRANCH  10  11
ENDBRANCH   9  10
ENDBRANCH   8   9
ENDBRANCH   7   8
ENDBRANCH   6   7
ENDBRANCH   5   6
ENDBRANCH   4   5
ENDBRANCH   3   4
ENDBRANCH   2   3
ENDBRANCH   1   2
BRANCH   1  13
ATOM     13  C   UNL     1      13.166  11.369 -20.997  1.00  0.00     0.000 C 
BRANCH  13  14
ATOM     14  C   UNL     1      14.042  12.630 -20.949  1.00  0.00     0.000 C 
BRANCH  14  15
ATOM     15  C   UNL     1      13.464  13.733 -21.849  1.00  0.00     0.000 C 
BRANCH  15  16
ATOM     16  C   UNL     1      12.971  14.958 -21.056  1.00  0.00     0.000 C 
BRANCH  16  17
ATOM     17  C   UNL     1      13.958  15.488 -19.998  1.00  0.00     0.000 C 
BRANCH  17  18
ATOM     18  C   UNL     1      13.257  16.165 -18.810  1.00  0.00     0.000 C 
BRANCH  18  19
ATOM     19  C   UNL     1      13.516  15.392 -17.507  1.00  0.00     0.000 C 
BRANCH  19  20
ATOM     20  C   UNL     1      14.672  14.382 -17.633  1.00  0.00     0.006 C 
BRANCH  20  21
ATOM     21  C   UNL     1      15.924  14.750 -16.822  1.00  0.00     0.053 C 
BRANCH  21  22
ATOM     22  C   UNL     1      17.183  14.304 -17.499  1.00  0.00     0.041 C 
ATOM     23  O   UNL     1      17.529  14.819 -18.596  1.00  0.00    -0.550 OA
ATOM     24  O   UNL     1      17.955  13.296 -16.938  1.00  0.00    -0.550 OA
ENDBRANCH  21  22
ENDBRANCH  20  21
ENDBRANCH  19  20
ENDBRANCH  18  19
ENDBRANCH  17  18
ENDBRANCH  16  17
ENDBRANCH  15  16
ENDBRANCH  14  15
ENDBRANCH  13  14
ENDBRANCH   1  13
TORSDOF 20
ENDMDL
MODEL 4
REMARK VINA RESULT:    -4.842      1.519      2.727
REMARK INTER + INTRA:         -13.931
REMARK INTER:                  -9.924
REMARK INTRA:                  -4.007
REMARK UNBOUND:                -3.429
REMARK SMILES CCCCCCCCCCCCCCCCCCCCCC(=O)[O-]
REMARK SMILES IDX 12 1 11 2 10 3 9 4 8 5 7 6 6 7 5 8 4 9 3 10 2 11 1 12 13 13
REMARK SMILES IDX 14 14 15 15 16 16 17 17 18 18 19 19 20 20 21 21 22 22 23 23
REMARK SMILES IDX 24 24
REMARK H PARENT
REMARK Flexibility Score: inf
ROOT
ATOM      1  C   UNL     1      12.020  11.673 -19.609  1.00  0.00     0.000 C 
ENDROOT
BRANCH   1   2
ATOM      2  C   UNL     1      12.765  11.465 -20.941  1.00  0.00     0.000 C 
BRANCH   2   3
ATOM      3  C   UNL     1      13.505  12.729 -21.407  1.00  0.00     0.000 C 
BRANCH   3   4
ATOM      4  C   UNL     1      14.203  13.467 -20.251  1.00  0.00    -0.000 C 
BRANCH   4   5
ATOM      5  C   UNL     1      13.775  14.947 -20.164  1.00  0.00    -0.000 C 
BRANCH   5   6
ATOM      6  C   UNL     1      12.801  15.373 -21.278  1.00  0.00    -0.000 C 
BRANCH   6   7
ATOM      7  C   UNL     1      11.992  16.625 -20.917  1.00  0.00    -0.000 C 
BRANCH   7   8
ATOM      8  C   UNL     1      10.510  16.448 -21.284  1.00  0.00    -0.000 C 
BRANCH   8   9
ATOM      9  C   UNL     1       9.563  16.972 -20.192  1.00  0.00    -0.000 C 
BRANCH   9  10
ATOM     10  C   UNL     1       8.154  16.367 -20.290  1.00  0.00    -0.000 C 
BRANCH  10  11
ATOM     11  C   UNL     1       7.827  15.975 -21.736  1.00  0.00    -0.003 C 
ATOM     12  C   UNL     1       7.046  14.664 -21.789  1.00  0.00     0.004 C 
ENDBRANCH  10  11
ENDBRANCH   9  10
ENDBRANCH   8   9
ENDBRANCH   7   8
ENDBRANCH   6   7
ENDBRANCH   5   6
ENDBRANCH   4   5
ENDBRANCH   3   4
ENDBRANCH   2   3
ENDBRANCH   1   2
BRANCH   1  13
ATOM     13  C   UNL     1      10.557  12.099 -19.808  1.00  0.00     0.000 C 
BRANCH  13  14
ATOM     14  C   UNL     1      10.255  13.479 -19.204  1.00  0.00     0.000 C 
BRANCH  14  15
ATOM     15  C   UNL     1      10.945  13.643 -17.842  1.00  0.00     0.000 C 
BRANCH  15  16
ATOM     16  C   UNL     1      10.867  15.082 -17.298  1.00  0.00     0.000 C 
BRANCH  16  17
ATOM     17  C   UNL     1      12.229  15.763 -17.063  1.00  0.00     0.000 C 
BRANCH  17  18
ATOM     18  C   UNL     1      12.194  17.278 -17.319  1.00  0.00     0.000 C 
BRANCH  18  19
ATOM     19  C   UNL     1      13.605  17.822 -17.594  1.00  0.00     0.000 C 
BRANCH  19  20
ATOM     20  C   UNL     1      14.700  17.044 -16.841  1.00  0.00     0.006 C 
BRANCH  20  21
ATOM     21  C   UNL     1      16.022  16.907 -17.614  1.00  0.00     0.053 C 
BRANCH  21  22
ATOM     22  C   UNL     1      16.455  15.478 -17.736  1.00  0.00     0.041 C 
ATOM     23  O   UNL     1      17.314  15.147 -18.596  1.00  0.00    -0.550 OA
ATOM     24  O   UNL     1      15.886  14.507 -16.922  1.00  0.00    -0.550 OA
ENDBRANCH  21  22
ENDBRANCH  20  21
ENDBRANCH  19  20
ENDBRANCH  18  19
ENDBRANCH  17  18
ENDBRANCH  16  17
ENDBRANCH  15  16
ENDBRANCH  14  15
ENDBRANCH  13  14
ENDBRANCH   1  13
TORSDOF 20
ENDMDL
MODEL 5
REMARK VINA RESULT:    -4.841      1.527      3.287
REMARK INTER + INTRA:         -13.929
REMARK INTER:                 -10.189
REMARK INTRA:                  -3.740
REMARK UNBOUND:                -3.429
REMARK SMILES CCCCCCCCCCCCCCCCCCCCCC(=O)[O-]
REMARK SMILES IDX 12 1 11 2 10 3 9 4 8 5 7 6 6 7 5 8 4 9 3 10 2 11 1 12 13 13
REMARK SMILES IDX 14 14 15 15 16 16 17 17 18 18 19 19 20 20 21 21 22 22 23 23
REMARK SMILES IDX 24 24
REMARK H PARENT
REMARK Flexibility Score: inf
ROOT
ATOM      1  C   UNL     1      10.748  11.853 -19.845  1.00  0.00     0.000 C 
ENDROOT
BRANCH   1   2
ATOM      2  C   UNL     1      12.255  11.577 -19.686  1.00  0.00     0.000 C 
BRANCH   2   3
ATOM      3  C   UNL     1      12.984  11.483 -21.035  1.00  0.00     0.000 C 
BRANCH   3   4
ATOM      4  C   UNL     1      13.724  12.782 -21.401  1.00  0.00    -0.000 C 
BRANCH   4   5
ATOM      5  C   UNL     1      14.086  13.616 -20.154  1.00  0.00    -0.000 C 
BRANCH   5   6
ATOM      6  C   UNL     1      13.727  15.106 -20.285  1.00  0.00    -0.000 C 
BRANCH   6   7
ATOM      7  C   UNL     1      12.438  15.343 -21.084  1.00  0.00    -0.000 C 
BRANCH   7   8
ATOM      8  C   UNL     1      11.792  16.683 -20.703  1.00  0.00    -0.000 C 
BRANCH   8   9
ATOM      9  C   UNL     1      10.284  16.721 -21.004  1.00  0.00    -0.000 C 
BRANCH   9  10
ATOM     10  C   UNL     1       9.447  17.128 -19.781  1.00  0.00    -0.000 C 
BRANCH  10  11
ATOM     11  C   UNL     1       8.124  16.354 -19.742  1.00  0.00    -0.003 C 
ATOM     12  C   UNL     1       7.951  15.495 -20.992  1.00  0.00     0.004 C 
ENDBRANCH  10  11
ENDBRANCH   9  10
ENDBRANCH   8   9
ENDBRANCH   7   8
ENDBRANCH   6   7
ENDBRANCH   5   6
ENDBRANCH   4   5
ENDBRANCH   3   4
ENDBRANCH   2   3
ENDBRANCH   1   2
BRANCH   1  13
ATOM     13  C   UNL     1      10.310  13.163 -19.172  1.00  0.00     0.000 C 
BRANCH  13  14
ATOM     14  C   UNL     1      11.060  13.433 -17.859  1.00  0.00     0.000 C 
BRANCH  14  15
ATOM     15  C   UNL     1      11.032  14.929 -17.510  1.00  0.00     0.000 C 
BRANCH  15  16
ATOM     16  C   UNL     1      12.375  15.441 -16.954  1.00  0.00     0.000 C 
BRANCH  16  17
ATOM     17  C   UNL     1      12.302  16.798 -16.227  1.00  0.00     0.000 C 
BRANCH  17  18
ATOM     18  C   UNL     1      13.683  17.331 -15.815  1.00  0.00     0.000 C 
BRANCH  18  19
ATOM     19  C   UNL     1      14.513  17.719 -17.049  1.00  0.00     0.000 C 
BRANCH  19  20
ATOM     20  C   UNL     1      15.992  17.305 -16.925  1.00  0.00     0.006 C 
BRANCH  20  21
ATOM     21  C   UNL     1      16.455  16.288 -17.980  1.00  0.00     0.053 C 
BRANCH  21  22
ATOM     22  C   UNL     1      16.666  14.927 -17.392  1.00  0.00     0.041 C 
ATOM     23  O   UNL     1      17.355  14.070 -18.008  1.00  0.00    -0.550 OA
ATOM     24  O   UNL     1      16.073  14.593 -16.182  1.00  0.00    -0.550 OA
ENDBRANCH  21  22
ENDBRANCH  20  21
ENDBRANCH  19  20
ENDBRANCH  18  19
ENDBRANCH  17  18
ENDBRANCH  16  17
ENDBRANCH  15  16
ENDBRANCH  14  15
ENDBRANCH  13  14
ENDBRANCH   1  13
TORSDOF 20
ENDMDL
MODEL 6
REMARK VINA RESULT:    -4.840      1.960      3.883
REMARK INTER + INTRA:         -13.927
REMARK INTER:                 -10.559
REMARK INTRA:                  -3.367
REMARK UNBOUND:                -3.429
REMARK SMILES CCCCCCCCCCCCCCCCCCCCCC(=O)[O-]
REMARK SMILES IDX 12 1 11 2 10 3 9 4 8 5 7 6 6 7 5 8 4 9 3 10 2 11 1 12 13 13
REMARK SMILES IDX 14 14 15 15 16 16 17 17 18 18 19 19 20 20 21 21 22 22 23 23
REMARK SMILES IDX 24 24
REMARK H PARENT
REMARK Flexibility Score: inf
ROOT
ATOM      1  C   UNL     1      13.392  11.562 -21.616  1.00  0.00     0.000 C 
ENDROOT
BRANCH   1   2
ATOM      2  C   UNL     1      12.681  11.556 -20.249  1.00  0.00     0.000 C 
BRANCH   2   3
ATOM      3  C   UNL     1      11.170  11.311 -20.371  1.00  0.00     0.000 C 
BRANCH   3   4
ATOM      4  C   UNL     1      10.345  12.227 -19.450  1.00  0.00    -0.000 C 
BRANCH   4   5
ATOM      5  C   UNL     1      11.088  12.552 -18.137  1.00  0.00    -0.000 C 
BRANCH   5   6
ATOM      6  C   UNL     1      11.115  14.054 -17.801  1.00  0.00    -0.000 C 
BRANCH   6   7
ATOM      7  C   UNL     1      10.469  14.922 -18.890  1.00  0.00    -0.000 C 
BRANCH   7   8
ATOM      8  C   UNL     1       9.514  15.956 -18.274  1.00  0.00    -0.000 C 
BRANCH   8   9
ATOM      9  C   UNL     1      10.120  16.669 -17.054  1.00  0.00    -0.000 C 
BRANCH   9  10
ATOM     10  C   UNL     1      10.993  17.872 -17.444  1.00  0.00    -0.000 C 
BRANCH  10  11
ATOM     11  C   UNL     1      12.239  17.955 -16.554  1.00  0.00    -0.003 C 
ATOM     12  C   UNL     1      12.392  16.697 -15.702  1.00  0.00     0.004 C 
ENDBRANCH  10  11
ENDBRANCH   9  10
ENDBRANCH   8   9
ENDBRANCH   7   8
ENDBRANCH   6   7
ENDBRANCH   5   6
ENDBRANCH   4   5
ENDBRANCH   3   4
ENDBRANCH   2   3
ENDBRANCH   1   2
BRANCH   1  13
ATOM     13  C   UNL     1      13.869  12.963 -22.029  1.00  0.00     0.000 C 
BRANCH  13  14
ATOM     14  C   UNL     1      13.643  14.013 -20.931  1.00  0.00     0.000 C 
BRANCH  14  15
ATOM     15  C   UNL     1      13.031  15.295 -21.517  1.00  0.00     0.000 C 
BRANCH  15  16
ATOM     16  C   UNL     1      13.435  16.562 -20.740  1.00  0.00     0.000 C 
BRANCH  16  17
ATOM     17  C   UNL     1      13.946  16.313 -19.309  1.00  0.00     0.000 C 
BRANCH  17  18
ATOM     18  C   UNL     1      15.360  16.866 -19.073  1.00  0.00     0.000 C 
BRANCH  18  19
ATOM     19  C   UNL     1      15.544  17.299 -17.610  1.00  0.00     0.000 C 
BRANCH  19  20
ATOM     20  C   UNL     1      16.507  16.382 -16.833  1.00  0.00     0.006 C 
BRANCH  20  21
ATOM     21  C   UNL     1      16.053  14.916 -16.747  1.00  0.00     0.053 C 
BRANCH  21  22
ATOM     22  C   UNL     1      17.002  13.992 -17.446  1.00  0.00     0.041 C 
ATOM     23  O   UNL     1      18.027  13.565 -16.849  1.00  0.00    -0.550 OA
ATOM     24  O   UNL     1      16.774  13.631 -18.767  1.00  0.00    -0.550 OA
ENDBRANCH  21  22
ENDBRANCH  20  21
ENDBRANCH  19  20
ENDBRANCH  18  19
ENDBRANCH  17  18
ENDBRANCH  16  17
ENDBRANCH  15  16
ENDBRANCH  14  15
ENDBRANCH  13  14
ENDBRANCH   1  13
TORSDOF 20
ENDMDL
MODEL 7
REMARK VINA RESULT:    -4.833      1.366      3.003
REMARK INTER + INTRA:         -13.912
REMARK INTER:                 -10.523
REMARK INTRA:                  -3.388
REMARK UNBOUND:                -3.429
REMARK SMILES CCCCCCCCCCCCCCCCCCCCCC(=O)[O-]
REMARK SMILES IDX 12 1 11 2 10 3 9 4 8 5 7 6 6 7 5 8 4 9 3 10 2 11 1 12 13 13
REMARK SMILES IDX 14 14 15 15 16 16 17 17 18 18 19 19 20 20 21 21 22 22 23 23
REMARK SMILES IDX 24 24
REMARK H PARENT
REMARK Flexibility Score: inf
ROOT
ATOM      1  C   UNL     1      13.842  12.952 -21.948  1.00  0.00     0.000 C 
ENDROOT
BRANCH   1   2
ATOM      2  C   UNL     1      13.877  12.114 -20.656  1.00  0.00     0.000 C 
BRANCH   2   3
ATOM      3  C   UNL     1      12.815  11.003 -20.643  1.00  0.00     0.000 C 
BRANCH   3   4
ATOM      4  C   UNL     1      11.512  11.437 -19.949  1.00  0.00    -0.000 C 
BRANCH   4   5
ATOM      5  C   UNL     1      11.765  11.986 -18.529  1.00  0.00    -0.000 C 
BRANCH   5   6
ATOM      6  C   UNL     1      10.802  13.117 -18.126  1.00  0.00    -0.000 C 
BRANCH   6   7
ATOM      7  C   UNL     1      10.028  13.697 -19.318  1.00  0.00    -0.000 C 
BRANCH   7   8
ATOM      8  C   UNL     1       9.839  15.214 -19.166  1.00  0.00    -0.000 C 
BRANCH   8   9
ATOM      9  C   UNL     1       9.985  15.965 -20.500  1.00  0.00    -0.000 C 
BRANCH   9  10
ATOM     10  C   UNL     1       8.679  16.643 -20.944  1.00  0.00    -0.000 C 
BRANCH  10  11
ATOM     11  C   UNL     1       7.472  15.739 -20.666  1.00  0.00    -0.003 C 
ATOM     12  C   UNL     1       7.163  14.848 -21.866  1.00  0.00     0.004 C 
ENDBRANCH  10  11
ENDBRANCH   9  10
ENDBRANCH   8   9
ENDBRANCH   7   8
ENDBRANCH   6   7
ENDBRANCH   5   6
ENDBRANCH   4   5
ENDBRANCH   3   4
ENDBRANCH   2   3
ENDBRANCH   1   2
BRANCH   1  13
ATOM     13  C   UNL     1      13.390  14.400 -21.704  1.00  0.00     0.000 C 
BRANCH  13  14
ATOM     14  C   UNL     1      13.438  14.793 -20.219  1.00  0.00     0.000 C 
BRANCH  14  15
ATOM     15  C   UNL     1      14.007  16.209 -20.046  1.00  0.00     0.000 C 
BRANCH  15  16
ATOM     16  C   UNL     1      14.031  16.671 -18.576  1.00  0.00     0.000 C 
BRANCH  16  17
ATOM     17  C   UNL     1      13.147  15.846 -17.621  1.00  0.00     0.000 C 
BRANCH  17  18
ATOM     18  C   UNL     1      13.848  15.510 -16.296  1.00  0.00     0.000 C 
BRANCH  18  19
ATOM     19  C   UNL     1      14.702  14.240 -16.433  1.00  0.00     0.000 C 
BRANCH  19  20
ATOM     20  C   UNL     1      16.214  14.528 -16.359  1.00  0.00     0.006 C 
BRANCH  20  21
ATOM     21  C   UNL     1      17.076  13.604 -17.234  1.00  0.00     0.053 C 
BRANCH  21  22
ATOM     22  C   UNL     1      17.185  14.105 -18.642  1.00  0.00     0.041 C 
ATOM     23  O   UNL     1      17.278  15.341 -18.870  1.00  0.00    -0.550 OA
ATOM     24  O   UNL     1      17.148  13.210 -19.703  1.00  0.00    -0.550 OA
ENDBRANCH  21  22
ENDBRANCH  20  21
ENDBRANCH  19  20
ENDBRANCH  18  19
ENDBRANCH  17  18
ENDBRANCH  16  17
ENDBRANCH  15  16
ENDBRANCH  14  15
ENDBRANCH  13  14
ENDBRANCH   1  13
TORSDOF 20
ENDMDL
MODEL 8
REMARK VINA RESULT:    -4.769      3.466      6.426
REMARK INTER + INTRA:         -13.773
REMARK INTER:                  -9.842
REMARK INTRA:                  -3.931
REMARK UNBOUND:                -3.429
REMARK SMILES CCCCCCCCCCCCCCCCCCCCCC(=O)[O-]
REMARK SMILES IDX 12 1 11 2 10 3 9 4 8 5 7 6 6 7 5 8 4 9 3 10 2 11 1 12 13 13
REMARK SMILES IDX 14 14 15 15 16 16 17 17 18 18 19 19 20 20 21 21 22 22 23 23
REMARK SMILES IDX 24 24
REMARK H PARENT
REMARK Flexibility Score: inf
ROOT
ATOM      1  C   UNL     1      13.688  15.511 -20.082  1.00  0.00     0.000 C 
ENDROOT
BRANCH   1   2
ATOM      2  C   UNL     1      14.472  16.827 -20.245  1.00  0.00     0.000 C 
BRANCH   2   3
ATOM      3  C   UNL     1      14.416  17.707 -18.987  1.00  0.00     0.000 C 
BRANCH   3   4
ATOM      4  C   UNL     1      12.976  18.053 -18.569  1.00  0.00    -0.000 C 
BRANCH   4   5
ATOM      5  C   UNL     1      12.703  17.713 -17.089  1.00  0.00    -0.000 C 
BRANCH   5   6
ATOM      6  C   UNL     1      13.828  16.899 -16.426  1.00  0.00    -0.000 C 
BRANCH   6   7
ATOM      7  C   UNL     1      13.491  15.407 -16.301  1.00  0.00    -0.000 C 
BRANCH   7   8
ATOM      8  C   UNL     1      14.672  14.535 -16.755  1.00  0.00    -0.000 C 
BRANCH   8   9
ATOM      9  C   UNL     1      16.023  15.259 -16.633  1.00  0.00    -0.000 C 
BRANCH   9  10
ATOM     10  C   UNL     1      17.159  14.518 -17.357  1.00  0.00    -0.000 C 
BRANCH  10  11
ATOM     11  C   UNL     1      17.236  14.940 -18.829  1.00  0.00    -0.003 C 
ATOM     12  C   UNL     1      17.190  13.726 -19.753  1.00  0.00     0.004 C 
ENDBRANCH  10  11
ENDBRANCH   9  10
ENDBRANCH   8   9
ENDBRANCH   7   8
ENDBRANCH   6   7
ENDBRANCH   5   6
ENDBRANCH   4   5
ENDBRANCH   3   4
ENDBRANCH   2   3
ENDBRANCH   1   2
BRANCH   1  13
ATOM     13  C   UNL     1      13.039  15.042 -21.393  1.00  0.00     0.000 C 
BRANCH  13  14
ATOM     14  C   UNL     1      13.464  13.620 -21.789  1.00  0.00     0.000 C 
BRANCH  14  15
ATOM     15  C   UNL     1      13.713  12.756 -20.544  1.00  0.00     0.000 C 
BRANCH  15  16
ATOM     16  C   UNL     1      12.549  11.793 -20.239  1.00  0.00     0.000 C 
BRANCH  16  17
ATOM     17  C   UNL     1      11.873  12.003 -18.870  1.00  0.00     0.000 C 
BRANCH  17  18
ATOM     18  C   UNL     1      10.501  12.688 -18.979  1.00  0.00     0.000 C 
BRANCH  18  19
ATOM     19  C   UNL     1      10.439  13.938 -18.086  1.00  0.00     0.000 C 
BRANCH  19  20
ATOM     20  C   UNL     1      10.148  15.224 -18.882  1.00  0.00     0.006 C 
BRANCH  20  21
ATOM     21  C   UNL     1       9.380  16.296 -18.093  1.00  0.00     0.053 C 
BRANCH  21  22
ATOM     22  C   UNL     1       8.236  16.859 -18.879  1.00  0.00     0.041 C 
ATOM     23  O   UNL     1       7.747  17.979 -18.573  1.00  0.00    -0.550 OA
ATOM     24  O   UNL     1       7.688  16.131 -19.927  1.00  0.00    -0.550 OA
ENDBRANCH  21  22
ENDBRANCH  20  21
ENDBRANCH  19  20
ENDBRANCH  18  19
ENDBRANCH  17  18
ENDBRANCH  16  17
ENDBRANCH  15  16
ENDBRANCH  14  15
ENDBRANCH  13  14
ENDBRANCH   1  13
TORSDOF 20
ENDMDL
MODEL 9
REMARK VINA RESULT:    -4.752      1.616      4.084
REMARK INTER + INTRA:         -13.738
REMARK INTER:                  -9.731
REMARK INTRA:                  -4.007
REMARK UNBOUND:                -3.429
REMARK SMILES CCCCCCCCCCCCCCCCCCCCCC(=O)[O-]
REMARK SMILES IDX 12 1 11 2 10 3 9 4 8 5 7 6 6 7 5 8 4 9 3 10 2 11 1 12 13 13
REMARK SMILES IDX 14 14 15 15 16 16 17 17 18 18 19 19 20 20 21 21 22 22 23 23
REMARK SMILES IDX 24 24
REMARK H PARENT
REMARK Flexibility Score: inf
ROOT
ATOM      1  C   UNL     1      13.768  15.745 -20.182  1.00  0.00     0.000 C 
ENDROOT
BRANCH   1   2
ATOM      2  C   UNL     1      13.048  15.373 -21.491  1.00  0.00     0.000 C 
BRANCH   2   3
ATOM      3  C   UNL     1      12.426  16.592 -22.191  1.00  0.00     0.000 C 
BRANCH   3   4
ATOM      4  C   UNL     1      10.896  16.645 -22.040  1.00  0.00    -0.000 C 
BRANCH   4   5
ATOM      5  C   UNL     1      10.458  17.569 -20.884  1.00  0.00    -0.000 C 
BRANCH   5   6
ATOM      6  C   UNL     1       9.654  16.846 -19.789  1.00  0.00    -0.000 C 
BRANCH   6   7
ATOM      7  C   UNL     1       9.589  15.328 -19.999  1.00  0.00    -0.000 C 
BRANCH   7   8
ATOM      8  C   UNL     1      10.393  14.587 -18.919  1.00  0.00    -0.000 C 
BRANCH   8   9
ATOM      9  C   UNL     1      10.477  13.074 -19.178  1.00  0.00    -0.000 C 
BRANCH   9  10
ATOM     10  C   UNL     1      11.925  12.575 -19.307  1.00  0.00    -0.000 C 
BRANCH  10  11
ATOM     11  C   UNL     1      12.012  11.396 -20.284  1.00  0.00    -0.003 C 
ATOM     12  C   UNL     1      13.172  11.575 -21.261  1.00  0.00     0.004 C 
ENDBRANCH  10  11
ENDBRANCH   9  10
ENDBRANCH   8   9
ENDBRANCH   7   8
ENDBRANCH   6   7
ENDBRANCH   5   6
ENDBRANCH   4   5
ENDBRANCH   3   4
ENDBRANCH   2   3
ENDBRANCH   1   2
BRANCH   1  13
ATOM     13  C   UNL     1      14.461  17.115 -20.254  1.00  0.00     0.000 C 
BRANCH  13  14
ATOM     14  C   UNL     1      14.035  18.055 -19.116  1.00  0.00     0.000 C 
BRANCH  14  15
ATOM     15  C   UNL     1      12.928  17.416 -18.264  1.00  0.00     0.000 C 
BRANCH  15  16
ATOM     16  C   UNL     1      13.083  17.709 -16.760  1.00  0.00     0.000 C 
BRANCH  16  17
ATOM     17  C   UNL     1      13.218  16.462 -15.865  1.00  0.00     0.000 C 
BRANCH  17  18
ATOM     18  C   UNL     1      13.387  15.163 -16.669  1.00  0.00     0.000 C 
BRANCH  18  19
ATOM     19  C   UNL     1      14.758  14.523 -16.396  1.00  0.00     0.000 C 
BRANCH  19  20
ATOM     20  C   UNL     1      15.904  15.551 -16.382  1.00  0.00     0.006 C 
BRANCH  20  21
ATOM     21  C   UNL     1      16.798  15.519 -17.631  1.00  0.00     0.053 C 
BRANCH  21  22
ATOM     22  C   UNL     1      17.215  14.125 -17.987  1.00  0.00     0.041 C 
ATOM     23  O   UNL     1      17.866  13.428 -17.164  1.00  0.00    -0.550 OA
ATOM     24  O   UNL     1      16.914  13.608 -19.240  1.00  0.00    -0.550 OA
ENDBRANCH  21  22
ENDBRANCH  20  21
ENDBRANCH  19  20
ENDBRANCH  18  19
ENDBRANCH  17  18
ENDBRANCH  16  17
ENDBRANCH  15  16
ENDBRANCH  14  15
ENDBRANCH  13  14
ENDBRANCH   1  13
TORSDOF 20
ENDMDL
