MODEL 1
REMARK VINA RESULT:    -6.321      0.000      0.000
REMARK INTER + INTRA:          -6.876
REMARK INTER:                  -6.876
REMARK INTRA:                   0.000
REMARK UNBOUND:                 0.000
REMARK SMILES Cc1cc(O)c2c(c1)C(=O)c1cc(O)cc(O)c1C2=O
REMARK SMILES IDX 1 1 2 2 8 3 7 4 6 5 4 6 3 7 19 8 20 9 18 10 11 11 9 12 10 13
REMARK SMILES IDX 12 14 13 15 15 16 16 17 5 18 17 20 14 22
REMARK H PARENT 5 19 17 21 14 23
REMARK Flexibility Score: inf
ROOT
ATOM      1  C   UNL     1       4.022  26.374  27.808  1.00  0.00     0.044 C 
ATOM      2  C   UNL     1       2.750  25.637  28.111  1.00  0.00    -0.047 A 
ATOM      3  C   UNL     1       1.740  26.255  28.857  1.00  0.00     0.016 A 
ATOM      4  C   UNL     1       0.556  25.564  29.170  1.00  0.00     0.038 A 
ATOM      5  C   UNL     1       0.382  24.233  28.730  1.00  0.00     0.076 A 
ATOM      6  C   UNL     1       1.443  23.586  28.048  1.00  0.00     0.127 A 
ATOM      7  C   UNL     1       2.604  24.299  27.729  1.00  0.00     0.050 A 
ATOM      8  C   UNL     1      -0.937  23.587  28.951  1.00  0.00     0.201 C 
ATOM      9  O   UNL     1      -1.350  22.712  28.144  1.00  0.00    -0.288 OA
ATOM     10  C   UNL     1      -1.844  24.105  30.008  1.00  0.00     0.076 A 
ATOM     11  C   UNL     1      -1.666  25.436  30.448  1.00  0.00     0.041 A 
ATOM     12  C   UNL     1      -0.506  26.223  29.966  1.00  0.00     0.194 C 
ATOM     13  O   UNL     1      -0.410  27.448  30.256  1.00  0.00    -0.289 OA
ATOM     14  C   UNL     1      -2.586  26.006  31.343  1.00  0.00     0.059 A 
ATOM     15  C   UNL     1      -3.670  25.261  31.816  1.00  0.00     0.120 A 
ATOM     16  C   UNL     1      -3.827  23.935  31.416  1.00  0.00     0.093 A 
ATOM     17  C   UNL     1      -2.914  23.338  30.541  1.00  0.00     0.131 A 
ENDROOT
BRANCH   6  18
ATOM     18  O   UNL     1       1.405  22.232  27.701  1.00  0.00    -0.507 OA
ATOM     19  H   UNL     1       0.859  21.544  28.201  1.00  0.00     0.293 HD
ENDBRANCH   6  18
BRANCH  17  20
ATOM     20  O   UNL     1      -3.085  21.982  30.257  1.00  0.00    -0.507 OA
ATOM     21  H   UNL     1      -3.225  21.619  29.324  1.00  0.00     0.293 HD
ENDBRANCH  17  20
BRANCH  15  22
ATOM     22  O   UNL     1      -4.591  25.828  32.694  1.00  0.00    -0.508 OA
ATOM     23  H   UNL     1      -4.458  26.756  33.078  1.00  0.00     0.293 HD
ENDBRANCH  15  22
TORSDOF 3
ENDMDL
MODEL 2
REMARK VINA RESULT:    -6.182      4.335      5.670
REMARK INTER + INTRA:          -6.724
REMARK INTER:                  -6.724
REMARK INTRA:                   0.000
REMARK UNBOUND:                 0.000
REMARK SMILES Cc1cc(O)c2c(c1)C(=O)c1cc(O)cc(O)c1C2=O
REMARK SMILES IDX 1 1 2 2 8 3 7 4 6 5 4 6 3 7 19 8 20 9 18 10 11 11 9 12 10 13
REMARK SMILES IDX 12 14 13 15 15 16 16 17 5 18 17 20 14 22
REMARK H PARENT 5 19 17 21 14 23
REMARK Flexibility Score: inf
ROOT
ATOM      1  C   UNL     1       6.047  30.043  31.793  1.00  0.00     0.044 C 
ATOM      2  C   UNL     1       5.501  28.915  30.966  1.00  0.00    -0.047 A 
ATOM      3  C   UNL     1       4.446  29.143  30.076  1.00  0.00     0.016 A 
ATOM      4  C   UNL     1       3.907  28.089  29.318  1.00  0.00     0.038 A 
ATOM      5  C   UNL     1       4.434  26.785  29.455  1.00  0.00     0.076 A 
ATOM      6  C   UNL     1       5.445  26.546  30.420  1.00  0.00     0.127 A 
ATOM      7  C   UNL     1       5.979  27.614  31.148  1.00  0.00     0.050 A 
ATOM      8  C   UNL     1       3.941  25.729  28.534  1.00  0.00     0.201 C 
ATOM      9  O   UNL     1       4.703  24.780  28.204  1.00  0.00    -0.288 OA
ATOM     10  C   UNL     1       2.628  25.892  27.859  1.00  0.00     0.076 A 
ATOM     11  C   UNL     1       2.103  27.197  27.725  1.00  0.00     0.041 A 
ATOM     12  C   UNL     1       2.786  28.338  28.382  1.00  0.00     0.194 C 
ATOM     13  O   UNL     1       2.394  29.518  28.164  1.00  0.00    -0.289 OA
ATOM     14  C   UNL     1       0.935  27.408  26.975  1.00  0.00     0.059 A 
ATOM     15  C   UNL     1       0.277  26.333  26.370  1.00  0.00     0.120 A 
ATOM     16  C   UNL     1       0.769  25.039  26.532  1.00  0.00     0.093 A 
ATOM     17  C   UNL     1       1.919  24.800  27.292  1.00  0.00     0.131 A 
ENDROOT
BRANCH   6  18
ATOM     18  O   UNL     1       5.921  25.265  30.714  1.00  0.00    -0.507 OA
ATOM     19  H   UNL     1       6.429  24.693  30.054  1.00  0.00     0.293 HD
ENDBRANCH   6  18
BRANCH  17  20
ATOM     20  O   UNL     1       2.299  23.470  27.485  1.00  0.00    -0.507 OA
ATOM     21  H   UNL     1       1.990  22.710  26.896  1.00  0.00     0.293 HD
ENDBRANCH  17  20
BRANCH  15  22
ATOM     22  O   UNL     1      -0.875  26.540  25.615  1.00  0.00    -0.508 OA
ATOM     23  H   UNL     1      -1.785  26.237  25.941  1.00  0.00     0.293 HD
ENDBRANCH  15  22
TORSDOF 3
ENDMDL
MODEL 3
REMARK VINA RESULT:    -6.129      3.138      3.325
REMARK INTER + INTRA:          -6.667
REMARK INTER:                  -6.667
REMARK INTRA:                   0.000
REMARK UNBOUND:                 0.000
REMARK SMILES Cc1cc(O)c2c(c1)C(=O)c1cc(O)cc(O)c1C2=O
REMARK SMILES IDX 1 1 2 2 8 3 7 4 6 5 4 6 3 7 19 8 20 9 18 10 11 11 9 12 10 13
REMARK SMILES IDX 12 14 13 15 15 16 16 17 5 18 17 20 14 22
REMARK H PARENT 5 19 17 21 14 23
REMARK Flexibility Score: inf
ROOT
ATOM      1  C   UNL     1       2.418  28.639  24.070  1.00  0.00     0.044 C 
ATOM      2  C   UNL     1       1.751  27.588  24.909  1.00  0.00    -0.047 A 
ATOM      3  C   UNL     1       0.375  27.652  25.153  1.00  0.00     0.016 A 
ATOM      4  C   UNL     1      -0.255  26.689  25.961  1.00  0.00     0.038 A 
ATOM      5  C   UNL     1       0.507  25.647  26.534  1.00  0.00     0.076 A 
ATOM      6  C   UNL     1       1.913  25.637  26.352  1.00  0.00     0.127 A 
ATOM      7  C   UNL     1       2.515  26.593  25.528  1.00  0.00     0.050 A 
ATOM      8  C   UNL     1      -0.213  24.567  27.258  1.00  0.00     0.201 C 
ATOM      9  O   UNL     1       0.265  23.401  27.281  1.00  0.00    -0.288 OA
ATOM     10  C   UNL     1      -1.578  24.817  27.788  1.00  0.00     0.076 A 
ATOM     11  C   UNL     1      -2.337  25.863  27.214  1.00  0.00     0.041 A 
ATOM     12  C   UNL     1      -1.712  26.767  26.219  1.00  0.00     0.194 C 
ATOM     13  O   UNL     1      -2.417  27.620  25.612  1.00  0.00    -0.289 OA
ATOM     14  C   UNL     1      -3.678  26.042  27.591  1.00  0.00     0.059 A 
ATOM     15  C   UNL     1      -4.265  25.204  28.543  1.00  0.00     0.120 A 
ATOM     16  C   UNL     1      -3.509  24.198  29.141  1.00  0.00     0.093 A 
ATOM     17  C   UNL     1      -2.166  24.011  28.798  1.00  0.00     0.131 A 
ENDROOT
BRANCH   6  18
ATOM     18  O   UNL     1       2.752  24.724  26.997  1.00  0.00    -0.507 OA
ATOM     19  H   UNL     1       2.636  24.444  27.961  1.00  0.00     0.293 HD
ENDBRANCH   6  18
BRANCH  17  20
ATOM     20  O   UNL     1      -1.449  23.043  29.504  1.00  0.00    -0.507 OA
ATOM     21  H   UNL     1      -0.439  22.987  29.508  1.00  0.00     0.293 HD
ENDBRANCH  17  20
BRANCH  15  22
ATOM     22  O   UNL     1      -5.598  25.372  28.910  1.00  0.00    -0.508 OA
ATOM     23  H   UNL     1      -6.227  25.958  28.374  1.00  0.00     0.293 HD
ENDBRANCH  15  22
TORSDOF 3
ENDMDL
MODEL 4
REMARK VINA RESULT:    -6.056      4.747      5.141
REMARK INTER + INTRA:          -6.587
REMARK INTER:                  -6.587
REMARK INTRA:                   0.000
REMARK UNBOUND:                 0.000
REMARK SMILES Cc1cc(O)c2c(c1)C(=O)c1cc(O)cc(O)c1C2=O
REMARK SMILES IDX 1 1 2 2 8 3 7 4 6 5 4 6 3 7 19 8 20 9 18 10 11 11 9 12 10 13
REMARK SMILES IDX 12 14 13 15 15 16 16 17 5 18 17 20 14 22
REMARK H PARENT 5 19 17 21 14 23
REMARK Flexibility Score: inf
ROOT
ATOM      1  C   UNL     1       5.901  27.757  31.063  1.00  0.00     0.044 C 
ATOM      2  C   UNL     1       4.920  27.342  30.005  1.00  0.00    -0.047 A 
ATOM      3  C   UNL     1       3.991  28.262  29.508  1.00  0.00     0.016 A 
ATOM      4  C   UNL     1       3.050  27.877  28.537  1.00  0.00     0.038 A 
ATOM      5  C   UNL     1       3.039  26.548  28.058  1.00  0.00     0.076 A 
ATOM      6  C   UNL     1       3.928  25.601  28.626  1.00  0.00     0.127 A 
ATOM      7  C   UNL     1       4.869  26.012  29.576  1.00  0.00     0.050 A 
ATOM      8  C   UNL     1       2.132  26.217  26.929  1.00  0.00     0.201 C 
ATOM      9  O   UNL     1       2.450  25.310  26.114  1.00  0.00    -0.288 OA
ATOM     10  C   UNL     1       0.950  27.075  26.655  1.00  0.00     0.076 A 
ATOM     11  C   UNL     1       0.963  28.403  27.139  1.00  0.00     0.041 A 
ATOM     12  C   UNL     1       2.065  28.857  28.021  1.00  0.00     0.194 C 
ATOM     13  O   UNL     1       2.148  30.072  28.353  1.00  0.00    -0.289 OA
ATOM     14  C   UNL     1      -0.070  29.286  26.785  1.00  0.00     0.059 A 
ATOM     15  C   UNL     1      -1.122  28.857  25.970  1.00  0.00     0.120 A 
ATOM     16  C   UNL     1      -1.159  27.537  25.524  1.00  0.00     0.093 A 
ATOM     17  C   UNL     1      -0.152  26.632  25.879  1.00  0.00     0.131 A 
ENDROOT
BRANCH   6  18
ATOM     18  O   UNL     1       3.887  24.241  28.308  1.00  0.00    -0.507 OA
ATOM     19  H   UNL     1       3.557  23.885  27.421  1.00  0.00     0.293 HD
ENDBRANCH   6  18
BRANCH  17  20
ATOM     20  O   UNL     1      -0.305  25.306  25.470  1.00  0.00    -0.507 OA
ATOM     21  H   UNL     1       0.330  24.564  25.731  1.00  0.00     0.293 HD
ENDBRANCH  17  20
BRANCH  15  22
ATOM     22  O   UNL     1      -2.141  29.734  25.607  1.00  0.00    -0.508 OA
ATOM     23  H   UNL     1      -1.964  30.719  25.448  1.00  0.00     0.293 HD
ENDBRANCH  15  22
TORSDOF 3
ENDMDL
MODEL 5
REMARK VINA RESULT:    -5.992      2.069      5.382
REMARK INTER + INTRA:          -6.517
REMARK INTER:                  -6.517
REMARK INTRA:                   0.000
REMARK UNBOUND:                 0.000
REMARK SMILES Cc1cc(O)c2c(c1)C(=O)c1cc(O)cc(O)c1C2=O
REMARK SMILES IDX 1 1 2 2 8 3 7 4 6 5 4 6 3 7 19 8 20 9 18 10 11 11 9 12 10 13
REMARK SMILES IDX 12 14 13 15 15 16 16 17 5 18 17 20 14 22
REMARK H PARENT 5 19 17 21 14 23
REMARK Flexibility Score: inf
ROOT
ATOM      1  C   UNL     1      -2.318  24.975  33.891  1.00  0.00     0.044 C 
ATOM      2  C   UNL     1      -1.941  24.711  32.462  1.00  0.00    -0.047 A 
ATOM      3  C   UNL     1      -0.943  25.473  31.847  1.00  0.00     0.016 A 
ATOM      4  C   UNL     1      -0.602  25.254  30.500  1.00  0.00     0.038 A 
ATOM      5  C   UNL     1      -1.274  24.257  29.759  1.00  0.00     0.076 A 
ATOM      6  C   UNL     1      -2.342  23.547  30.364  1.00  0.00     0.127 A 
ATOM      7  C   UNL     1      -2.649  23.768  31.711  1.00  0.00     0.050 A 
ATOM      8  C   UNL     1      -0.788  23.954  28.388  1.00  0.00     0.201 C 
ATOM      9  O   UNL     1      -0.915  22.790  27.921  1.00  0.00    -0.288 OA
ATOM     10  C   UNL     1       0.011  24.964  27.648  1.00  0.00     0.076 A 
ATOM     11  C   UNL     1       0.680  25.962  28.393  1.00  0.00     0.041 A 
ATOM     12  C   UNL     1       0.453  26.070  29.854  1.00  0.00     0.194 C 
ATOM     13  O   UNL     1       1.140  26.875  30.542  1.00  0.00    -0.289 OA
ATOM     14  C   UNL     1       1.554  26.851  27.744  1.00  0.00     0.059 A 
ATOM     15  C   UNL     1       1.756  26.766  26.364  1.00  0.00     0.120 A 
ATOM     16  C   UNL     1       1.068  25.808  25.620  1.00  0.00     0.093 A 
ATOM     17  C   UNL     1       0.177  24.926  26.239  1.00  0.00     0.131 A 
ENDROOT
BRANCH   6  18
ATOM     18  O   UNL     1      -3.145  22.646  29.660  1.00  0.00    -0.507 OA
ATOM     19  H   UNL     1      -2.776  21.919  29.062  1.00  0.00     0.293 HD
ENDBRANCH   6  18
BRANCH  17  20
ATOM     20  O   UNL     1      -0.543  24.056  25.418  1.00  0.00    -0.507 OA
ATOM     21  H   UNL     1      -0.429  24.012  24.414  1.00  0.00     0.293 HD
ENDBRANCH  17  20
BRANCH  15  22
ATOM     22  O   UNL     1       2.632  27.637  25.720  1.00  0.00    -0.508 OA
ATOM     23  H   UNL     1       2.632  28.631  25.917  1.00  0.00     0.293 HD
ENDBRANCH  15  22
TORSDOF 3
ENDMDL
MODEL 6
REMARK VINA RESULT:    -5.982      2.401      3.743
REMARK INTER + INTRA:          -6.506
REMARK INTER:                  -6.506
REMARK INTRA:                   0.000
REMARK UNBOUND:                 0.000
REMARK SMILES Cc1cc(O)c2c(c1)C(=O)c1cc(O)cc(O)c1C2=O
REMARK SMILES IDX 1 1 2 2 8 3 7 4 6 5 4 6 3 7 19 8 20 9 18 10 11 11 9 12 10 13
REMARK SMILES IDX 12 14 13 15 15 16 16 17 5 18 17 20 14 22
REMARK H PARENT 5 19 17 21 14 23
REMARK Flexibility Score: inf
ROOT
ATOM      1  C   UNL     1       3.886  29.135  30.788  1.00  0.00     0.044 C 
ATOM      2  C   UNL     1       3.050  28.320  29.844  1.00  0.00    -0.047 A 
ATOM      3  C   UNL     1       2.024  27.507  30.336  1.00  0.00     0.016 A 
ATOM      4  C   UNL     1       1.254  26.718  29.464  1.00  0.00     0.038 A 
ATOM      5  C   UNL     1       1.518  26.743  28.076  1.00  0.00     0.076 A 
ATOM      6  C   UNL     1       2.613  27.504  27.594  1.00  0.00     0.127 A 
ATOM      7  C   UNL     1       3.352  28.297  28.478  1.00  0.00     0.050 A 
ATOM      8  C   UNL     1       0.592  26.013  27.172  1.00  0.00     0.201 C 
ATOM      9  O   UNL     1       0.406  26.428  25.997  1.00  0.00    -0.288 OA
ATOM     10  C   UNL     1      -0.252  24.915  27.710  1.00  0.00     0.076 A 
ATOM     11  C   UNL     1      -0.511  24.891  29.099  1.00  0.00     0.041 A 
ATOM     12  C   UNL     1       0.172  25.854  29.994  1.00  0.00     0.194 C 
ATOM     13  O   UNL     1      -0.149  25.921  31.213  1.00  0.00    -0.289 OA
ATOM     14  C   UNL     1      -1.413  23.951  29.626  1.00  0.00     0.059 A 
ATOM     15  C   UNL     1      -2.045  23.028  28.788  1.00  0.00     0.120 A 
ATOM     16  C   UNL     1      -1.761  23.022  27.423  1.00  0.00     0.093 A 
ATOM     17  C   UNL     1      -0.852  23.934  26.877  1.00  0.00     0.131 A 
ENDROOT
BRANCH   6  18
ATOM     18  O   UNL     1       3.025  27.474  26.259  1.00  0.00    -0.507 OA
ATOM     19  H   UNL     1       3.896  27.871  25.935  1.00  0.00     0.293 HD
ENDBRANCH   6  18
BRANCH  17  20
ATOM     20  O   UNL     1      -0.550  23.808  25.520  1.00  0.00    -0.507 OA
ATOM     21  H   UNL     1      -0.472  24.594  24.889  1.00  0.00     0.293 HD
ENDBRANCH  17  20
BRANCH  15  22
ATOM     22  O   UNL     1      -2.950  22.103  29.306  1.00  0.00    -0.508 OA
ATOM     23  H   UNL     1      -3.335  22.202  30.238  1.00  0.00     0.293 HD
ENDBRANCH  15  22
TORSDOF 3
ENDMDL
MODEL 7
REMARK VINA RESULT:    -5.916      2.698      6.018
REMARK INTER + INTRA:          -6.435
REMARK INTER:                  -6.435
REMARK INTRA:                   0.000
REMARK UNBOUND:                 0.000
REMARK SMILES Cc1cc(O)c2c(c1)C(=O)c1cc(O)cc(O)c1C2=O
REMARK SMILES IDX 1 1 2 2 8 3 7 4 6 5 4 6 3 7 19 8 20 9 18 10 11 11 9 12 10 13
REMARK SMILES IDX 12 14 13 15 15 16 16 17 5 18 17 20 14 22
REMARK H PARENT 5 19 17 21 14 23
REMARK Flexibility Score: inf
ROOT
ATOM      1  C   UNL     1      -6.175  25.713  29.704  1.00  0.00     0.044 C 
ATOM      2  C   UNL     1      -4.719  25.419  29.489  1.00  0.00    -0.047 A 
ATOM      3  C   UNL     1      -3.998  26.117  28.515  1.00  0.00     0.016 A 
ATOM      4  C   UNL     1      -2.641  25.830  28.285  1.00  0.00     0.038 A 
ATOM      5  C   UNL     1      -1.997  24.828  29.044  1.00  0.00     0.076 A 
ATOM      6  C   UNL     1      -2.754  24.067  29.971  1.00  0.00     0.127 A 
ATOM      7  C   UNL     1      -4.098  24.384  30.197  1.00  0.00     0.050 A 
ATOM      8  C   UNL     1      -0.530  24.655  28.878  1.00  0.00     0.201 C 
ATOM      9  O   UNL     1       0.166  24.246  29.846  1.00  0.00    -0.288 OA
ATOM     10  C   UNL     1       0.135  25.139  27.642  1.00  0.00     0.076 A 
ATOM     11  C   UNL     1      -0.513  26.140  26.883  1.00  0.00     0.041 A 
ATOM     12  C   UNL     1      -1.885  26.569  27.246  1.00  0.00     0.194 C 
ATOM     13  O   UNL     1      -2.419  27.547  26.652  1.00  0.00    -0.289 OA
ATOM     14  C   UNL     1       0.143  26.721  25.786  1.00  0.00     0.059 A 
ATOM     15  C   UNL     1       1.429  26.306  25.428  1.00  0.00     0.120 A 
ATOM     16  C   UNL     1       2.056  25.292  26.149  1.00  0.00     0.093 A 
ATOM     17  C   UNL     1       1.415  24.682  27.233  1.00  0.00     0.131 A 
ENDROOT
BRANCH   6  18
ATOM     18  O   UNL     1      -2.228  22.971  30.659  1.00  0.00    -0.507 OA
ATOM     19  H   UNL     1      -2.784  22.354  31.235  1.00  0.00     0.293 HD
ENDBRANCH   6  18
BRANCH  17  20
ATOM     20  O   UNL     1       2.068  23.612  27.849  1.00  0.00    -0.507 OA
ATOM     21  H   UNL     1       2.891  23.166  27.468  1.00  0.00     0.293 HD
ENDBRANCH  17  20
BRANCH  15  22
ATOM     22  O   UNL     1       2.088  26.890  24.348  1.00  0.00    -0.508 OA
ATOM     23  H   UNL     1       1.824  27.802  23.995  1.00  0.00     0.293 HD
ENDBRANCH  15  22
TORSDOF 3
ENDMDL
MODEL 8
REMARK VINA RESULT:    -5.801      1.694      5.587
REMARK INTER + INTRA:          -6.310
REMARK INTER:                  -6.310
REMARK INTRA:                   0.000
REMARK UNBOUND:                 0.000
REMARK SMILES Cc1cc(O)c2c(c1)C(=O)c1cc(O)cc(O)c1C2=O
REMARK SMILES IDX 1 1 2 2 8 3 7 4 6 5 4 6 3 7 19 8 20 9 18 10 11 11 9 12 10 13
REMARK SMILES IDX 12 14 13 15 15 16 16 17 5 18 17 20 14 22
REMARK H PARENT 5 19 17 21 14 23
REMARK Flexibility Score: inf
ROOT
ATOM      1  C   UNL     1      -4.613  25.446  30.531  1.00  0.00     0.044 C 
ATOM      2  C   UNL     1      -3.235  25.139  30.023  1.00  0.00    -0.047 A 
ATOM      3  C   UNL     1      -2.185  26.033  30.253  1.00  0.00     0.016 A 
ATOM      4  C   UNL     1      -0.896  25.769  29.756  1.00  0.00     0.038 A 
ATOM      5  C   UNL     1      -0.657  24.589  29.017  1.00  0.00     0.076 A 
ATOM      6  C   UNL     1      -1.744  23.729  28.716  1.00  0.00     0.127 A 
ATOM      7  C   UNL     1      -3.013  24.003  29.237  1.00  0.00     0.050 A 
ATOM      8  C   UNL     1       0.743  24.271  28.636  1.00  0.00     0.201 C 
ATOM      9  O   UNL     1       1.102  23.069  28.516  1.00  0.00    -0.288 OA
ATOM     10  C   UNL     1       1.758  25.354  28.583  1.00  0.00     0.076 A 
ATOM     11  C   UNL     1       1.515  26.534  29.322  1.00  0.00     0.041 A 
ATOM     12  C   UNL     1       0.210  26.725  29.999  1.00  0.00     0.194 C 
ATOM     13  O   UNL     1       0.033  27.715  30.762  1.00  0.00    -0.289 OA
ATOM     14  C   UNL     1       2.509  27.523  29.409  1.00  0.00     0.059 A 
ATOM     15  C   UNL     1       3.733  27.356  28.756  1.00  0.00     0.120 A 
ATOM     16  C   UNL     1       3.962  26.212  27.993  1.00  0.00     0.093 A 
ATOM     17  C   UNL     1       2.981  25.222  27.874  1.00  0.00     0.131 A 
ENDROOT
BRANCH   6  18
ATOM     18  O   UNL     1      -1.619  22.619  27.876  1.00  0.00    -0.507 OA
ATOM     19  H   UNL     1      -1.125  21.776  28.135  1.00  0.00     0.293 HD
ENDBRANCH   6  18
BRANCH  17  20
ATOM     20  O   UNL     1       3.248  24.150  27.021  1.00  0.00    -0.507 OA
ATOM     21  H   UNL     1       3.195  23.182  27.307  1.00  0.00     0.293 HD
ENDBRANCH  17  20
BRANCH  15  22
ATOM     22  O   UNL     1       4.726  28.329  28.850  1.00  0.00    -0.508 OA
ATOM     23  H   UNL     1       5.261  28.461  29.700  1.00  0.00     0.293 HD
ENDBRANCH  15  22
TORSDOF 3
ENDMDL
MODEL 9
REMARK VINA RESULT:    -5.747      3.716      4.915
REMARK INTER + INTRA:          -6.251
REMARK INTER:                  -6.251
REMARK INTRA:                   0.000
REMARK UNBOUND:                 0.000
REMARK SMILES Cc1cc(O)c2c(c1)C(=O)c1cc(O)cc(O)c1C2=O
REMARK SMILES IDX 1 1 2 2 8 3 7 4 6 5 4 6 3 7 19 8 20 9 18 10 11 11 9 12 10 13
REMARK SMILES IDX 12 14 13 15 15 16 16 17 5 18 17 20 14 22
REMARK H PARENT 5 19 17 21 14 23
REMARK Flexibility Score: inf
ROOT
ATOM      1  C   UNL     1       2.469  28.962  23.518  1.00  0.00     0.044 C 
ATOM      2  C   UNL     1       1.324  28.567  24.405  1.00  0.00    -0.047 A 
ATOM      3  C   UNL     1       1.355  27.349  25.092  1.00  0.00     0.016 A 
ATOM      4  C   UNL     1       0.276  26.955  25.902  1.00  0.00     0.038 A 
ATOM      5  C   UNL     1      -0.853  27.795  26.024  1.00  0.00     0.076 A 
ATOM      6  C   UNL     1      -0.914  28.987  25.259  1.00  0.00     0.127 A 
ATOM      7  C   UNL     1       0.180  29.368  24.476  1.00  0.00     0.050 A 
ATOM      8  C   UNL     1      -1.906  27.417  27.002  1.00  0.00     0.201 C 
ATOM      9  O   UNL     1      -2.588  28.314  27.566  1.00  0.00    -0.288 OA
ATOM     10  C   UNL     1      -2.026  26.006  27.450  1.00  0.00     0.076 A 
ATOM     11  C   UNL     1      -0.895  25.168  27.324  1.00  0.00     0.041 A 
ATOM     12  C   UNL     1       0.314  25.660  26.622  1.00  0.00     0.194 C 
ATOM     13  O   UNL     1       1.368  24.965  26.615  1.00  0.00    -0.289 OA
ATOM     14  C   UNL     1      -0.923  23.870  27.861  1.00  0.00     0.059 A 
ATOM     15  C   UNL     1      -2.068  23.394  28.506  1.00  0.00     0.120 A 
ATOM     16  C   UNL     1      -3.199  24.203  28.597  1.00  0.00     0.093 A 
ATOM     17  C   UNL     1      -3.203  25.492  28.053  1.00  0.00     0.131 A 
ENDROOT
BRANCH   6  18
ATOM     18  O   UNL     1      -2.050  29.801  25.217  1.00  0.00    -0.507 OA
ATOM     19  H   UNL     1      -2.949  29.488  24.876  1.00  0.00     0.293 HD
ENDBRANCH   6  18
BRANCH  17  20
ATOM     20  O   UNL     1      -4.401  26.209  28.103  1.00  0.00    -0.507 OA
ATOM     21  H   UNL     1      -5.225  25.886  28.591  1.00  0.00     0.293 HD
ENDBRANCH  17  20
BRANCH  15  22
ATOM     22  O   UNL     1      -2.095  22.112  29.050  1.00  0.00    -0.508 OA
ATOM     23  H   UNL     1      -1.249  21.648  29.359  1.00  0.00     0.293 HD
ENDBRANCH  15  22
TORSDOF 3
ENDMDL
