MODEL 1
REMARK VINA RESULT:    -6.556      0.000      0.000
REMARK INTER + INTRA:          -8.226
REMARK INTER:                  -7.897
REMARK INTRA:                  -0.329
REMARK UNBOUND:                -0.329
REMARK SMILES Oc1cc(O)c2c(c1)O[C@H](c1ccc(O)c(O)c1)[C@@H](O)C2
REMARK SMILES IDX 21 1 19 2 10 3 9 4 7 5 8 6 2 7 3 8 4 9 6 10 20 11 11 13
REMARK SMILES IDX 18 14 12 15 16 16 13 17 14 18 17 19 15 21 5 23 1 25
REMARK H PARENT 20 12 17 20 15 22 5 24 1 26
REMARK Flexibility Score: inf
ROOT
ATOM      1  C   UNL     1       9.444  -8.387 -10.687  1.00  0.00     0.079 C 
ATOM      2  C   UNL     1       8.518  -8.403  -9.417  1.00  0.00     0.164 C 
ATOM      3  C   UNL     1       8.385  -6.988  -8.800  1.00  0.00     0.232 C 
ATOM      4  O   UNL     1       9.681  -6.433  -8.612  1.00  0.00    -0.482 OA
ATOM      5  C   UNL     1      10.692  -6.506  -9.564  1.00  0.00     0.131 A 
ATOM      6  C   UNL     1      11.888  -5.835  -9.285  1.00  0.00     0.093 A 
ATOM      7  C   UNL     1      12.892  -5.774 -10.266  1.00  0.00     0.122 A 
ATOM      8  C   UNL     1      12.683  -6.461 -11.485  1.00  0.00     0.092 A 
ATOM      9  C   UNL     1      11.608  -7.332 -11.634  1.00  0.00     0.126 A 
ATOM     10  C   UNL     1      10.601  -7.398 -10.630  1.00  0.00     0.039 A 
ENDROOT
BRANCH   2  11
ATOM     11  O   UNL     1       7.216  -8.832  -9.771  1.00  0.00    -0.389 OA
ATOM     12  H   UNL     1       7.308  -9.297 -10.653  1.00  0.00     0.211 HD
ENDBRANCH   2  11
BRANCH   3  13
ATOM     13  C   UNL     1       7.777  -6.876  -7.414  1.00  0.00    -0.001 A 
ATOM     14  C   UNL     1       7.888  -5.625  -6.772  1.00  0.00     0.057 A 
ATOM     15  C   UNL     1       7.577  -8.018  -6.616  1.00  0.00     0.012 A 
ATOM     16  C   UNL     1       7.850  -5.519  -5.372  1.00  0.00     0.157 A 
ATOM     17  C   UNL     1       7.395  -7.910  -5.236  1.00  0.00     0.050 A 
ATOM     18  C   UNL     1       7.669  -6.704  -4.595  1.00  0.00     0.157 A 
BRANCH  16  19
ATOM     19  O   UNL     1       7.980  -4.261  -4.773  1.00  0.00    -0.504 OA
ATOM     20  H   UNL     1       7.293  -3.912  -4.117  1.00  0.00     0.293 HD
ENDBRANCH  16  19
BRANCH  18  21
ATOM     21  O   UNL     1       7.965  -6.729  -3.233  1.00  0.00    -0.504 OA
ATOM     22  H   UNL     1       7.360  -6.255  -2.558  1.00  0.00     0.293 HD
ENDBRANCH  18  21
ENDBRANCH   3  13
BRANCH   9  23
ATOM     23  O   UNL     1      11.522  -8.118 -12.792  1.00  0.00    -0.507 OA
ATOM     24  H   UNL     1      11.312  -7.729 -13.702  1.00  0.00     0.293 HD
ENDBRANCH   9  23
BRANCH   7  25
ATOM     25  O   UNL     1      14.052  -5.027 -10.065  1.00  0.00    -0.508 OA
ATOM     26  H   UNL     1      14.215  -4.604  -9.159  1.00  0.00     0.293 HD
ENDBRANCH   7  25
TORSDOF 6
ENDMDL
MODEL 2
REMARK VINA RESULT:    -6.380     15.149     18.059
REMARK INTER + INTRA:          -8.014
REMARK INTER:                  -7.621
REMARK INTRA:                  -0.393
REMARK UNBOUND:                -0.329
REMARK SMILES Oc1cc(O)c2c(c1)O[C@H](c1ccc(O)c(O)c1)[C@@H](O)C2
REMARK SMILES IDX 21 1 19 2 10 3 9 4 7 5 8 6 2 7 3 8 4 9 6 10 20 11 11 13
REMARK SMILES IDX 18 14 12 15 16 16 13 17 14 18 17 19 15 21 5 23 1 25
REMARK H PARENT 20 12 17 20 15 22 5 24 1 26
REMARK Flexibility Score: inf
ROOT
ATOM      1  C   UNL     1      14.849   8.412 -17.565  1.00  0.00     0.079 C 
ATOM      2  C   UNL     1      13.489   7.646 -17.743  1.00  0.00     0.164 C 
ATOM      3  C   UNL     1      13.723   6.169 -18.149  1.00  0.00     0.232 C 
ATOM      4  O   UNL     1      14.608   6.122 -19.262  1.00  0.00    -0.482 OA
ATOM      5  C   UNL     1      15.763   6.889 -19.356  1.00  0.00     0.131 A 
ATOM      6  C   UNL     1      16.591   6.674 -20.464  1.00  0.00     0.093 A 
ATOM      7  C   UNL     1      17.829   7.333 -20.541  1.00  0.00     0.122 A 
ATOM      8  C   UNL     1      18.164   8.255 -19.521  1.00  0.00     0.092 A 
ATOM      9  C   UNL     1      17.219   8.645 -18.578  1.00  0.00     0.126 A 
ATOM     10  C   UNL     1      15.962   7.982 -18.513  1.00  0.00     0.039 A 
ENDROOT
BRANCH   2  11
ATOM     11  O   UNL     1      12.773   7.638 -16.521  1.00  0.00    -0.389 OA
ATOM     12  H   UNL     1      13.460   7.541 -15.799  1.00  0.00     0.211 HD
ENDBRANCH   2  11
BRANCH   3  13
ATOM     13  C   UNL     1      12.530   5.375 -18.647  1.00  0.00    -0.001 A 
ATOM     14  C   UNL     1      12.515   3.997 -18.349  1.00  0.00     0.057 A 
ATOM     15  C   UNL     1      11.760   5.829 -19.735  1.00  0.00     0.012 A 
ATOM     16  C   UNL     1      11.795   3.088 -19.142  1.00  0.00     0.157 A 
ATOM     17  C   UNL     1      10.929   4.959 -20.443  1.00  0.00     0.050 A 
ATOM     18  C   UNL     1      11.046   3.584 -20.253  1.00  0.00     0.157 A 
BRANCH  16  19
ATOM     19  O   UNL     1      11.820   1.726 -18.822  1.00  0.00    -0.504 OA
ATOM     20  H   UNL     1      11.184   1.329 -18.142  1.00  0.00     0.293 HD
ENDBRANCH  16  19
BRANCH  18  21
ATOM     21  O   UNL     1      10.605   2.734 -21.266  1.00  0.00    -0.504 OA
ATOM     22  H   UNL     1       9.647   2.376 -21.269  1.00  0.00     0.293 HD
ENDBRANCH  18  21
ENDBRANCH   3  13
BRANCH   9  23
ATOM     23  O   UNL     1      17.534   9.678 -17.684  1.00  0.00    -0.507 OA
ATOM     24  H   UNL     1      16.831  10.174 -17.151  1.00  0.00     0.293 HD
ENDBRANCH   9  23
BRANCH   7  25
ATOM     25  O   UNL     1      18.725   7.065 -21.574  1.00  0.00    -0.508 OA
ATOM     26  H   UNL     1      19.688   7.366 -21.483  1.00  0.00     0.293 HD
ENDBRANCH   7  25
TORSDOF 6
ENDMDL
MODEL 3
REMARK VINA RESULT:    -6.265     10.053     12.622
REMARK INTER + INTRA:          -7.876
REMARK INTER:                  -7.480
REMARK INTRA:                  -0.396
REMARK UNBOUND:                -0.329
REMARK SMILES Oc1cc(O)c2c(c1)O[C@H](c1ccc(O)c(O)c1)[C@@H](O)C2
REMARK SMILES IDX 21 1 19 2 10 3 9 4 7 5 8 6 2 7 3 8 4 9 6 10 20 11 11 13
REMARK SMILES IDX 18 14 12 15 16 16 13 17 14 18 17 19 15 21 5 23 1 25
REMARK H PARENT 20 12 17 20 15 22 5 24 1 26
REMARK Flexibility Score: inf
ROOT
ATOM      1  C   UNL     1      17.231  -2.004 -14.411  1.00  0.00     0.079 C 
ATOM      2  C   UNL     1      16.513  -3.397 -14.531  1.00  0.00     0.164 C 
ATOM      3  C   UNL     1      17.431  -4.446 -15.206  1.00  0.00     0.232 C 
ATOM      4  O   UNL     1      17.946  -3.911 -16.419  1.00  0.00    -0.482 OA
ATOM      5  C   UNL     1      18.441  -2.616 -16.537  1.00  0.00     0.131 A 
ATOM      6  C   UNL     1      19.003  -2.251 -17.765  1.00  0.00     0.093 A 
ATOM      7  C   UNL     1      19.628  -0.999 -17.896  1.00  0.00     0.122 A 
ATOM      8  C   UNL     1      19.601  -0.117 -16.789  1.00  0.00     0.092 A 
ATOM      9  C   UNL     1      18.814  -0.397 -15.677  1.00  0.00     0.126 A 
ATOM     10  C   UNL     1      18.174  -1.662 -15.557  1.00  0.00     0.039 A 
ENDROOT
BRANCH   2  11
ATOM     11  O   UNL     1      16.188  -3.889 -13.244  1.00  0.00    -0.389 OA
ATOM     12  H   UNL     1      15.315  -4.368 -13.343  1.00  0.00     0.211 HD
ENDBRANCH   2  11
BRANCH   3  13
ATOM     13  C   UNL     1      16.799  -5.747 -15.667  1.00  0.00    -0.001 A 
ATOM     14  C   UNL     1      17.668  -6.837 -15.877  1.00  0.00     0.057 A 
ATOM     15  C   UNL     1      15.552  -5.754 -16.322  1.00  0.00     0.012 A 
ATOM     16  C   UNL     1      17.330  -7.880 -16.753  1.00  0.00     0.157 A 
ATOM     17  C   UNL     1      15.144  -6.852 -17.083  1.00  0.00     0.050 A 
ATOM     18  C   UNL     1      16.066  -7.841 -17.418  1.00  0.00     0.157 A 
BRANCH  16  19
ATOM     19  O   UNL     1      18.228  -8.936 -16.946  1.00  0.00    -0.504 OA
ATOM     20  H   UNL     1      19.054  -9.042 -16.371  1.00  0.00     0.293 HD
ENDBRANCH  16  19
BRANCH  18  21
ATOM     21  O   UNL     1      15.812  -8.632 -18.537  1.00  0.00    -0.504 OA
ATOM     22  H   UNL     1      15.335  -8.244 -19.355  1.00  0.00     0.293 HD
ENDBRANCH  18  21
ENDBRANCH   3  13
BRANCH   9  23
ATOM     23  O   UNL     1      18.685   0.573 -14.672  1.00  0.00    -0.507 OA
ATOM     24  H   UNL     1      18.809   1.562 -14.847  1.00  0.00     0.293 HD
ENDBRANCH   9  23
BRANCH   7  25
ATOM     25  O   UNL     1      20.290  -0.643 -19.069  1.00  0.00    -0.508 OA
ATOM     26  H   UNL     1      20.147   0.284 -19.454  1.00  0.00     0.293 HD
ENDBRANCH   7  25
TORSDOF 6
ENDMDL
MODEL 4
REMARK VINA RESULT:    -6.158      7.309     12.250
REMARK INTER + INTRA:          -7.747
REMARK INTER:                  -7.616
REMARK INTRA:                  -0.131
REMARK UNBOUND:                -0.329
REMARK SMILES Oc1cc(O)c2c(c1)O[C@H](c1ccc(O)c(O)c1)[C@@H](O)C2
REMARK SMILES IDX 21 1 19 2 10 3 9 4 7 5 8 6 2 7 3 8 4 9 6 10 20 11 11 13
REMARK SMILES IDX 18 14 12 15 16 16 13 17 14 18 17 19 15 21 5 23 1 25
REMARK H PARENT 20 12 17 20 15 22 5 24 1 26
REMARK Flexibility Score: inf
ROOT
ATOM      1  C   UNL     1      15.812  -5.958 -15.072  1.00  0.00     0.079 C 
ATOM      2  C   UNL     1      16.594  -5.264 -16.245  1.00  0.00     0.164 C 
ATOM      3  C   UNL     1      17.821  -4.480 -15.717  1.00  0.00     0.232 C 
ATOM      4  O   UNL     1      17.412  -3.624 -14.656  1.00  0.00    -0.482 OA
ATOM      5  C   UNL     1      16.556  -4.023 -13.636  1.00  0.00     0.131 A 
ATOM      6  C   UNL     1      16.312  -3.108 -12.606  1.00  0.00     0.093 A 
ATOM      7  C   UNL     1      15.555  -3.507 -11.491  1.00  0.00     0.122 A 
ATOM      8  C   UNL     1      15.002  -4.810 -11.486  1.00  0.00     0.092 A 
ATOM      9  C   UNL     1      15.038  -5.601 -12.629  1.00  0.00     0.126 A 
ATOM     10  C   UNL     1      15.796  -5.185 -13.759  1.00  0.00     0.039 A 
ENDROOT
BRANCH   2  11
ATOM     11  O   UNL     1      17.077  -6.240 -17.151  1.00  0.00    -0.389 OA
ATOM     12  H   UNL     1      17.749  -6.780 -16.643  1.00  0.00     0.211 HD
ENDBRANCH   2  11
BRANCH   3  13
ATOM     13  C   UNL     1      18.507  -3.516 -16.667  1.00  0.00    -0.001 A 
ATOM     14  C   UNL     1      18.562  -2.164 -16.271  1.00  0.00     0.057 A 
ATOM     15  C   UNL     1      18.627  -3.813 -18.039  1.00  0.00     0.012 A 
ATOM     16  C   UNL     1      18.682  -1.132 -17.215  1.00  0.00     0.157 A 
ATOM     17  C   UNL     1      18.889  -2.808 -18.973  1.00  0.00     0.050 A 
ATOM     18  C   UNL     1      18.777  -1.471 -18.600  1.00  0.00     0.157 A 
BRANCH  16  19
ATOM     19  O   UNL     1      18.717   0.198 -16.781  1.00  0.00    -0.504 OA
ATOM     20  H   UNL     1      18.900   0.437 -15.815  1.00  0.00     0.293 HD
ENDBRANCH  16  19
BRANCH  18  21
ATOM     21  O   UNL     1      18.550  -0.522 -19.595  1.00  0.00    -0.504 OA
ATOM     22  H   UNL     1      19.055  -0.565 -20.483  1.00  0.00     0.293 HD
ENDBRANCH  18  21
ENDBRANCH   3  13
BRANCH   9  23
ATOM     23  O   UNL     1      14.341  -6.817 -12.639  1.00  0.00    -0.507 OA
ATOM     24  H   UNL     1      14.691  -7.646 -13.102  1.00  0.00     0.293 HD
ENDBRANCH   9  23
BRANCH   7  25
ATOM     25  O   UNL     1      15.379  -2.659 -10.399  1.00  0.00    -0.508 OA
ATOM     26  H   UNL     1      15.824  -1.749 -10.405  1.00  0.00     0.293 HD
ENDBRANCH   7  25
TORSDOF 6
ENDMDL
MODEL 5
REMARK VINA RESULT:    -6.083     13.030     14.439
REMARK INTER + INTRA:          -7.656
REMARK INTER:                  -7.257
REMARK INTRA:                  -0.399
REMARK UNBOUND:                -0.329
REMARK SMILES Oc1cc(O)c2c(c1)O[C@H](c1ccc(O)c(O)c1)[C@@H](O)C2
REMARK SMILES IDX 21 1 19 2 10 3 9 4 7 5 8 6 2 7 3 8 4 9 6 10 20 11 11 13
REMARK SMILES IDX 18 14 12 15 16 16 13 17 14 18 17 19 15 21 5 23 1 25
REMARK H PARENT 20 12 17 20 15 22 5 24 1 26
REMARK Flexibility Score: inf
ROOT
ATOM      1  C   UNL     1       9.175   6.036 -17.505  1.00  0.00     0.079 C 
ATOM      2  C   UNL     1       7.970   5.382 -16.738  1.00  0.00     0.164 C 
ATOM      3  C   UNL     1       8.162   3.852 -16.589  1.00  0.00     0.232 C 
ATOM      4  O   UNL     1       8.462   3.289 -17.860  1.00  0.00    -0.482 OA
ATOM      5  C   UNL     1       9.364   3.854 -18.755  1.00  0.00     0.131 A 
ATOM      6  C   UNL     1       9.635   3.145 -19.930  1.00  0.00     0.093 A 
ATOM      7  C   UNL     1      10.630   3.610 -20.807  1.00  0.00     0.122 A 
ATOM      8  C   UNL     1      11.277   4.831 -20.499  1.00  0.00     0.092 A 
ATOM      9  C   UNL     1      10.810   5.644 -19.472  1.00  0.00     0.126 A 
ATOM     10  C   UNL     1       9.793   5.170 -18.596  1.00  0.00     0.039 A 
ENDROOT
BRANCH   2  11
ATOM     11  O   UNL     1       7.874   5.923 -15.433  1.00  0.00    -0.389 OA
ATOM     12  H   UNL     1       8.794   5.868 -15.043  1.00  0.00     0.211 HD
ENDBRANCH   2  11
BRANCH   3  13
ATOM     13  C   UNL     1       6.967   3.030 -16.142  1.00  0.00    -0.001 A 
ATOM     14  C   UNL     1       7.199   1.664 -15.874  1.00  0.00     0.057 A 
ATOM     15  C   UNL     1       5.653   3.432 -16.452  1.00  0.00     0.012 A 
ATOM     16  C   UNL     1       6.165   0.719 -15.961  1.00  0.00     0.157 A 
ATOM     17  C   UNL     1       4.591   2.527 -16.402  1.00  0.00     0.050 A 
ATOM     18  C   UNL     1       4.850   1.162 -16.301  1.00  0.00     0.157 A 
BRANCH  16  19
ATOM     19  O   UNL     1       6.441  -0.629 -15.702  1.00  0.00    -0.504 OA
ATOM     20  H   UNL     1       6.044  -1.109 -14.905  1.00  0.00     0.293 HD
ENDBRANCH  16  19
BRANCH  18  21
ATOM     21  O   UNL     1       3.875   0.268 -16.739  1.00  0.00    -0.504 OA
ATOM     22  H   UNL     1       3.926  -0.144 -17.674  1.00  0.00     0.293 HD
ENDBRANCH  18  21
ENDBRANCH   3  13
BRANCH   9  23
ATOM     23  O   UNL     1      11.371   6.917 -19.300  1.00  0.00    -0.507 OA
ATOM     24  H   UNL     1      11.510   7.336 -18.390  1.00  0.00     0.293 HD
ENDBRANCH   9  23
BRANCH   7  25
ATOM     25  O   UNL     1      11.000   2.877 -21.932  1.00  0.00    -0.508 OA
ATOM     26  H   UNL     1      11.274   1.908 -21.821  1.00  0.00     0.293 HD
ENDBRANCH   7  25
TORSDOF 6
ENDMDL
MODEL 6
REMARK VINA RESULT:    -6.066      1.509      2.087
REMARK INTER + INTRA:          -7.636
REMARK INTER:                  -7.244
REMARK INTRA:                  -0.392
REMARK UNBOUND:                -0.329
REMARK SMILES Oc1cc(O)c2c(c1)O[C@H](c1ccc(O)c(O)c1)[C@@H](O)C2
REMARK SMILES IDX 21 1 19 2 10 3 9 4 7 5 8 6 2 7 3 8 4 9 6 10 20 11 11 13
REMARK SMILES IDX 18 14 12 15 16 16 13 17 14 18 17 19 15 21 5 23 1 25
REMARK H PARENT 20 12 17 20 15 22 5 24 1 26
REMARK Flexibility Score: inf
ROOT
ATOM      1  C   UNL     1      11.232  -8.426 -11.558  1.00  0.00     0.079 C 
ATOM      2  C   UNL     1      10.035  -8.459 -10.541  1.00  0.00     0.164 C 
ATOM      3  C   UNL     1       9.571  -7.028 -10.172  1.00  0.00     0.232 C 
ATOM      4  O   UNL     1      10.697  -6.256  -9.775  1.00  0.00    -0.482 OA
ATOM      5  C   UNL     1      11.910  -6.263 -10.454  1.00  0.00     0.131 A 
ATOM      6  C   UNL     1      12.903  -5.384 -10.008  1.00  0.00     0.093 A 
ATOM      7  C   UNL     1      14.100  -5.265 -10.736  1.00  0.00     0.122 A 
ATOM      8  C   UNL     1      14.286  -6.099 -11.863  1.00  0.00     0.092 A 
ATOM      9  C   UNL     1      13.404  -7.141 -12.129  1.00  0.00     0.126 A 
ATOM     10  C   UNL     1      12.200  -7.264 -11.380  1.00  0.00     0.039 A 
ENDROOT
BRANCH   2  11
ATOM     11  O   UNL     1       8.926  -9.125 -11.118  1.00  0.00    -0.389 OA
ATOM     12  H   UNL     1       8.834  -9.989 -10.621  1.00  0.00     0.211 HD
ENDBRANCH   2  11
BRANCH   3  13
ATOM     13  C   UNL     1       8.634  -6.871  -8.989  1.00  0.00    -0.001 A 
ATOM     14  C   UNL     1       7.654  -5.862  -9.083  1.00  0.00     0.057 A 
ATOM     15  C   UNL     1       9.005  -7.320  -7.706  1.00  0.00     0.012 A 
ATOM     16  C   UNL     1       7.095  -5.280  -7.934  1.00  0.00     0.157 A 
ATOM     17  C   UNL     1       8.355  -6.852  -6.563  1.00  0.00     0.050 A 
ATOM     18  C   UNL     1       7.514  -5.746  -6.650  1.00  0.00     0.157 A 
BRANCH  16  19
ATOM     19  O   UNL     1       6.136  -4.269  -8.071  1.00  0.00    -0.504 OA
ATOM     20  H   UNL     1       5.932  -3.625  -7.318  1.00  0.00     0.293 HD
ENDBRANCH  16  19
BRANCH  18  21
ATOM     21  O   UNL     1       7.276  -5.001  -5.496  1.00  0.00    -0.504 OA
ATOM     22  H   UNL     1       7.215  -3.981  -5.536  1.00  0.00     0.293 HD
ENDBRANCH  18  21
ENDBRANCH   3  13
BRANCH   9  23
ATOM     23  O   UNL     1      13.707  -8.046 -13.156  1.00  0.00    -0.507 OA
ATOM     24  H   UNL     1      14.616  -8.086 -13.599  1.00  0.00     0.293 HD
ENDBRANCH   9  23
BRANCH   7  25
ATOM     25  O   UNL     1      15.067  -4.325 -10.383  1.00  0.00    -0.508 OA
ATOM     26  H   UNL     1      15.715  -4.542  -9.635  1.00  0.00     0.293 HD
ENDBRANCH   7  25
TORSDOF 6
ENDMDL
MODEL 7
REMARK VINA RESULT:    -6.013      9.057     13.315
REMARK INTER + INTRA:          -7.572
REMARK INTER:                  -7.176
REMARK INTRA:                  -0.396
REMARK UNBOUND:                -0.329
REMARK SMILES Oc1cc(O)c2c(c1)O[C@H](c1ccc(O)c(O)c1)[C@@H](O)C2
REMARK SMILES IDX 21 1 19 2 10 3 9 4 7 5 8 6 2 7 3 8 4 9 6 10 20 11 11 13
REMARK SMILES IDX 18 14 12 15 16 16 13 17 14 18 17 19 15 21 5 23 1 25
REMARK H PARENT 20 12 17 20 15 22 5 24 1 26
REMARK Flexibility Score: inf
ROOT
ATOM      1  C   UNL     1      15.537  -2.087 -13.173  1.00  0.00     0.079 C 
ATOM      2  C   UNL     1      16.823  -2.430 -14.007  1.00  0.00     0.164 C 
ATOM      3  C   UNL     1      17.496  -1.147 -14.556  1.00  0.00     0.232 C 
ATOM      4  O   UNL     1      16.522  -0.353 -15.222  1.00  0.00    -0.482 OA
ATOM      5  C   UNL     1      15.251  -0.111 -14.713  1.00  0.00     0.131 A 
ATOM      6  C   UNL     1      14.426   0.765 -15.427  1.00  0.00     0.093 A 
ATOM      7  C   UNL     1      13.182   1.138 -14.890  1.00  0.00     0.122 A 
ATOM      8  C   UNL     1      12.775   0.552 -13.668  1.00  0.00     0.092 A 
ATOM      9  C   UNL     1      13.490  -0.506 -13.116  1.00  0.00     0.126 A 
ATOM     10  C   UNL     1      14.743  -0.887 -13.672  1.00  0.00     0.039 A 
ENDROOT
BRANCH   2  11
ATOM     11  O   UNL     1      17.774  -3.085 -13.187  1.00  0.00    -0.389 OA
ATOM     12  H   UNL     1      18.661  -2.953 -13.633  1.00  0.00     0.211 HD
ENDBRANCH   2  11
BRANCH   3  13
ATOM     13  C   UNL     1      18.566  -1.309 -15.620  1.00  0.00    -0.001 A 
ATOM     14  C   UNL     1      19.489  -0.252 -15.760  1.00  0.00     0.057 A 
ATOM     15  C   UNL     1      18.375  -2.174 -16.714  1.00  0.00     0.012 A 
ATOM     16  C   UNL     1      20.165  -0.030 -16.970  1.00  0.00     0.157 A 
ATOM     17  C   UNL     1      19.145  -2.051 -17.873  1.00  0.00     0.050 A 
ATOM     18  C   UNL     1      19.926  -0.915 -18.066  1.00  0.00     0.157 A 
BRANCH  16  19
ATOM     19  O   UNL     1      21.060   1.041 -17.072  1.00  0.00    -0.504 OA
ATOM     20  H   UNL     1      20.866   1.842 -17.660  1.00  0.00     0.293 HD
ENDBRANCH  16  19
BRANCH  18  21
ATOM     21  O   UNL     1      20.278  -0.565 -19.369  1.00  0.00    -0.504 OA
ATOM     22  H   UNL     1      20.223  -1.250 -20.127  1.00  0.00     0.293 HD
ENDBRANCH  18  21
ENDBRANCH   3  13
BRANCH   9  23
ATOM     23  O   UNL     1      12.970  -1.168 -11.995  1.00  0.00    -0.507 OA
ATOM     24  H   UNL     1      12.358  -1.971 -12.068  1.00  0.00     0.293 HD
ENDBRANCH   9  23
BRANCH   7  25
ATOM     25  O   UNL     1      12.381   2.088 -15.521  1.00  0.00    -0.508 OA
ATOM     26  H   UNL     1      12.430   2.184 -16.529  1.00  0.00     0.293 HD
ENDBRANCH   7  25
TORSDOF 6
ENDMDL
MODEL 8
REMARK VINA RESULT:    -5.997      9.183     12.475
REMARK INTER + INTRA:          -7.552
REMARK INTER:                  -7.416
REMARK INTRA:                  -0.136
REMARK UNBOUND:                -0.329
REMARK SMILES Oc1cc(O)c2c(c1)O[C@H](c1ccc(O)c(O)c1)[C@@H](O)C2
REMARK SMILES IDX 21 1 19 2 10 3 9 4 7 5 8 6 2 7 3 8 4 9 6 10 20 11 11 13
REMARK SMILES IDX 18 14 12 15 16 16 13 17 14 18 17 19 15 21 5 23 1 25
REMARK H PARENT 20 12 17 20 15 22 5 24 1 26
REMARK Flexibility Score: inf
ROOT
ATOM      1  C   UNL     1      17.730  -2.005 -15.322  1.00  0.00     0.079 C 
ATOM      2  C   UNL     1      16.963  -3.340 -15.012  1.00  0.00     0.164 C 
ATOM      3  C   UNL     1      17.749  -4.573 -15.525  1.00  0.00     0.232 C 
ATOM      4  O   UNL     1      18.109  -4.369 -16.886  1.00  0.00    -0.482 OA
ATOM      5  C   UNL     1      18.621  -3.171 -17.373  1.00  0.00     0.131 A 
ATOM      6  C   UNL     1      19.020  -3.140 -18.713  1.00  0.00     0.093 A 
ATOM      7  C   UNL     1      19.657  -1.993 -19.219  1.00  0.00     0.122 A 
ATOM      8  C   UNL     1      19.808  -0.876 -18.363  1.00  0.00     0.092 A 
ATOM      9  C   UNL     1      19.172  -0.839 -17.126  1.00  0.00     0.126 A 
ATOM     10  C   UNL     1      18.517  -1.999 -16.626  1.00  0.00     0.039 A 
ENDROOT
BRANCH   2  11
ATOM     11  O   UNL     1      16.802  -3.495 -13.614  1.00  0.00    -0.389 OA
ATOM     12  H   UNL     1      17.140  -4.412 -13.397  1.00  0.00     0.211 HD
ENDBRANCH   2  11
BRANCH   3  13
ATOM     13  C   UNL     1      17.022  -5.904 -15.575  1.00  0.00    -0.001 A 
ATOM     14  C   UNL     1      16.876  -6.500 -16.845  1.00  0.00     0.057 A 
ATOM     15  C   UNL     1      16.125  -6.279 -14.557  1.00  0.00     0.012 A 
ATOM     16  C   UNL     1      15.836  -7.406 -17.109  1.00  0.00     0.157 A 
ATOM     17  C   UNL     1      15.177  -7.283 -14.765  1.00  0.00     0.050 A 
ATOM     18  C   UNL     1      14.931  -7.743 -16.056  1.00  0.00     0.157 A 
BRANCH  16  19
ATOM     19  O   UNL     1      15.716  -7.963 -18.387  1.00  0.00    -0.504 OA
ATOM     20  H   UNL     1      16.343  -8.687 -18.712  1.00  0.00     0.293 HD
ENDBRANCH  16  19
BRANCH  18  21
ATOM     21  O   UNL     1      13.701  -8.343 -16.323  1.00  0.00    -0.504 OA
ATOM     22  H   UNL     1      13.063  -8.588 -15.563  1.00  0.00     0.293 HD
ENDBRANCH  18  21
ENDBRANCH   3  13
BRANCH   9  23
ATOM     23  O   UNL     1      19.209   0.346 -16.377  1.00  0.00    -0.507 OA
ATOM     24  H   UNL     1      18.743   0.443 -15.484  1.00  0.00     0.293 HD
ENDBRANCH   9  23
BRANCH   7  25
ATOM     25  O   UNL     1      20.163  -1.963 -20.517  1.00  0.00    -0.508 OA
ATOM     26  H   UNL     1      19.923  -2.712 -21.157  1.00  0.00     0.293 HD
ENDBRANCH   7  25
TORSDOF 6
ENDMDL
MODEL 9
REMARK VINA RESULT:    -5.916      1.533      6.665
REMARK INTER + INTRA:          -7.455
REMARK INTER:                  -7.359
REMARK INTRA:                  -0.096
REMARK UNBOUND:                -0.329
REMARK SMILES Oc1cc(O)c2c(c1)O[C@H](c1ccc(O)c(O)c1)[C@@H](O)C2
REMARK SMILES IDX 21 1 19 2 10 3 9 4 7 5 8 6 2 7 3 8 4 9 6 10 20 11 11 13
REMARK SMILES IDX 18 14 12 15 16 16 13 17 14 18 17 19 15 21 5 23 1 25
REMARK H PARENT 20 12 17 20 15 22 5 24 1 26
REMARK Flexibility Score: inf
ROOT
ATOM      1  C   UNL     1       8.535  -8.402  -8.842  1.00  0.00     0.079 C 
ATOM      2  C   UNL     1       9.508  -7.984 -10.002  1.00  0.00     0.164 C 
ATOM      3  C   UNL     1      10.803  -7.341  -9.446  1.00  0.00     0.232 C 
ATOM      4  O   UNL     1      10.459  -6.310  -8.527  1.00  0.00    -0.482 OA
ATOM      5  C   UNL     1       9.473  -6.446  -7.556  1.00  0.00     0.131 A 
ATOM      6  C   UNL     1       9.303  -5.386  -6.659  1.00  0.00     0.093 A 
ATOM      7  C   UNL     1       8.407  -5.525  -5.585  1.00  0.00     0.122 A 
ATOM      8  C   UNL     1       7.649  -6.717  -5.493  1.00  0.00     0.092 A 
ATOM      9  C   UNL     1       7.643  -7.637  -6.537  1.00  0.00     0.126 A 
ATOM     10  C   UNL     1       8.545  -7.483  -7.627  1.00  0.00     0.039 A 
ENDROOT
BRANCH   2  11
ATOM     11  O   UNL     1       9.893  -9.125 -10.748  1.00  0.00    -0.389 OA
ATOM     12  H   UNL     1      10.513  -8.793 -11.460  1.00  0.00     0.211 HD
ENDBRANCH   2  11
BRANCH   3  13
ATOM     13  C   UNL     1      11.709  -6.616 -10.424  1.00  0.00    -0.001 A 
ATOM     14  C   UNL     1      12.332  -7.403 -11.415  1.00  0.00     0.057 A 
ATOM     15  C   UNL     1      12.296  -5.381 -10.089  1.00  0.00     0.012 A 
ATOM     16  C   UNL     1      13.531  -6.996 -12.021  1.00  0.00     0.157 A 
ATOM     17  C   UNL     1      13.408  -4.899 -10.784  1.00  0.00     0.050 A 
ATOM     18  C   UNL     1      14.109  -5.747 -11.639  1.00  0.00     0.157 A 
BRANCH  16  19
ATOM     19  O   UNL     1      14.125  -7.814 -12.990  1.00  0.00    -0.504 OA
ATOM     20  H   UNL     1      13.883  -7.739 -13.969  1.00  0.00     0.293 HD
ENDBRANCH  16  19
BRANCH  18  21
ATOM     21  O   UNL     1      15.439  -5.446 -11.926  1.00  0.00    -0.504 OA
ATOM     22  H   UNL     1      16.082  -5.156 -11.185  1.00  0.00     0.293 HD
ENDBRANCH  18  21
ENDBRANCH   3  13
BRANCH   9  23
ATOM     23  O   UNL     1       6.759  -8.723  -6.483  1.00  0.00    -0.507 OA
ATOM     24  H   UNL     1       6.556  -9.304  -7.286  1.00  0.00     0.293 HD
ENDBRANCH   9  23
BRANCH   7  25
ATOM     25  O   UNL     1       8.289  -4.535  -4.612  1.00  0.00    -0.508 OA
ATOM     26  H   UNL     1       7.886  -4.772  -3.713  1.00  0.00     0.293 HD
ENDBRANCH   7  25
TORSDOF 6
ENDMDL
