MODEL 1
REMARK VINA RESULT:    -4.640      0.000      0.000
REMARK INTER + INTRA:         -13.487
REMARK INTER:                 -10.608
REMARK INTRA:                  -2.879
REMARK UNBOUND:                -2.879
REMARK SMILES CCCCCCCCCCCCCCCCCCCCCCCC(=O)[O-]
REMARK SMILES IDX 13 1 14 2 15 3 16 4 17 5 18 6 19 7 20 8 21 9 22 10 23 11
REMARK SMILES IDX 24 12 25 13 26 14 12 15 11 16 10 17 9 18 8 19 7 20 6 21 5 22
REMARK SMILES IDX 4 23 3 24 2 25 1 26
REMARK H PARENT
REMARK Flexibility Score: inf
ROOT
ATOM      1  C   UNL     1      10.885  -4.066  -0.333  1.00  0.00     0.000 C 
ENDROOT
BRANCH   1   2
ATOM      2  C   UNL     1       9.409  -3.975   0.086  1.00  0.00     0.000 C 
BRANCH   2   3
ATOM      3  C   UNL     1       8.464  -4.565  -0.977  1.00  0.00     0.000 C 
BRANCH   3   4
ATOM      4  C   UNL     1       9.061  -5.790  -1.689  1.00  0.00     0.000 C 
BRANCH   4   5
ATOM      5  C   UNL     1       8.316  -6.145  -2.988  1.00  0.00     0.000 C 
BRANCH   5   6
ATOM      6  C   UNL     1       7.283  -5.074  -3.399  1.00  0.00     0.000 C 
BRANCH   6   7
ATOM      7  C   UNL     1       6.928  -5.088  -4.899  1.00  0.00     0.000 C 
BRANCH   7   8
ATOM      8  C   UNL     1       8.051  -5.573  -5.836  1.00  0.00     0.000 C 
BRANCH   8   9
ATOM      9  C   UNL     1       8.997  -4.466  -6.340  1.00  0.00     0.000 C 
BRANCH   9  10
ATOM     10  C   UNL     1      10.321  -5.018  -6.889  1.00  0.00     0.006 C 
BRANCH  10  11
ATOM     11  C   UNL     1      10.625  -6.398  -6.298  1.00  0.00     0.053 C 
BRANCH  11  12
ATOM     12  C   UNL     1      11.409  -7.224  -7.270  1.00  0.00     0.041 C 
ATOM     13  O   UNL     1      12.613  -6.948  -7.513  1.00  0.00    -0.550 OA
ATOM     14  O   UNL     1      10.801  -8.288  -7.922  1.00  0.00    -0.550 OA
ENDBRANCH  11  12
ENDBRANCH  10  11
ENDBRANCH   9  10
ENDBRANCH   8   9
ENDBRANCH   7   8
ENDBRANCH   6   7
ENDBRANCH   5   6
ENDBRANCH   4   5
ENDBRANCH   3   4
ENDBRANCH   2   3
ENDBRANCH   1   2
BRANCH   1  15
ATOM     15  C   UNL     1      11.769  -3.036   0.391  1.00  0.00     0.000 C 
BRANCH  15  16
ATOM     16  C   UNL     1      10.974  -1.797   0.838  1.00  0.00     0.000 C 
BRANCH  16  17
ATOM     17  C   UNL     1      11.572  -0.490   0.289  1.00  0.00     0.000 C 
BRANCH  17  18
ATOM     18  C   UNL     1      12.899  -0.717  -0.465  1.00  0.00    -0.000 C 
BRANCH  18  19
ATOM     19  C   UNL     1      14.145  -0.272   0.325  1.00  0.00    -0.000 C 
BRANCH  19  20
ATOM     20  C   UNL     1      15.324  -1.260   0.282  1.00  0.00    -0.000 C 
BRANCH  20  21
ATOM     21  C   UNL     1      15.467  -2.066   1.581  1.00  0.00    -0.000 C 
BRANCH  21  22
ATOM     22  C   UNL     1      14.819  -1.334   2.763  1.00  0.00    -0.000 C 
BRANCH  22  23
ATOM     23  C   UNL     1      13.678  -2.167   3.363  1.00  0.00    -0.000 C 
BRANCH  23  24
ATOM     24  C   UNL     1      12.675  -1.320   4.163  1.00  0.00    -0.000 C 
BRANCH  24  25
ATOM     25  C   UNL     1      12.703   0.178   3.792  1.00  0.00    -0.003 C 
ATOM     26  C   UNL     1      11.316   0.815   3.861  1.00  0.00     0.004 C 
ENDBRANCH  24  25
ENDBRANCH  23  24
ENDBRANCH  22  23
ENDBRANCH  21  22
ENDBRANCH  20  21
ENDBRANCH  19  20
ENDBRANCH  18  19
ENDBRANCH  17  18
ENDBRANCH  16  17
ENDBRANCH  15  16
ENDBRANCH   1  15
TORSDOF 22
ENDMDL
MODEL 2
REMARK VINA RESULT:    -4.640      3.726      6.458
REMARK INTER + INTRA:         -13.486
REMARK INTER:                 -10.378
REMARK INTRA:                  -3.108
REMARK UNBOUND:                -2.879
REMARK SMILES CCCCCCCCCCCCCCCCCCCCCCCC(=O)[O-]
REMARK SMILES IDX 13 1 14 2 15 3 16 4 17 5 18 6 19 7 20 8 21 9 22 10 23 11
REMARK SMILES IDX 24 12 25 13 26 14 12 15 11 16 10 17 9 18 8 19 7 20 6 21 5 22
REMARK SMILES IDX 4 23 3 24 2 25 1 26
REMARK H PARENT
REMARK Flexibility Score: inf
ROOT
ATOM      1  C   UNL     1      15.845   0.069   2.571  1.00  0.00     0.000 C 
ENDROOT
BRANCH   1   2
ATOM      2  C   UNL     1      16.692  -1.078   3.147  1.00  0.00     0.000 C 
BRANCH   2   3
ATOM      3  C   UNL     1      15.901  -2.396   3.238  1.00  0.00     0.000 C 
BRANCH   3   4
ATOM      4  C   UNL     1      14.399  -2.173   3.478  1.00  0.00     0.000 C 
BRANCH   4   5
ATOM      5  C   UNL     1      13.516  -3.092   2.614  1.00  0.00     0.000 C 
BRANCH   5   6
ATOM      6  C   UNL     1      14.337  -4.049   1.723  1.00  0.00     0.000 C 
BRANCH   6   7
ATOM      7  C   UNL     1      13.494  -5.139   1.033  1.00  0.00     0.000 C 
BRANCH   7   8
ATOM      8  C   UNL     1      14.028  -6.577   1.182  1.00  0.00     0.000 C 
BRANCH   8   9
ATOM      9  C   UNL     1      13.186  -7.657   0.476  1.00  0.00     0.000 C 
BRANCH   9  10
ATOM     10  C   UNL     1      11.759  -7.759   1.035  1.00  0.00     0.006 C 
BRANCH  10  11
ATOM     11  C   UNL     1      10.760  -8.100  -0.075  1.00  0.00     0.053 C 
BRANCH  11  12
ATOM     12  C   UNL     1      10.478  -6.894  -0.916  1.00  0.00     0.041 C 
ATOM     13  O   UNL     1      10.714  -6.912  -2.153  1.00  0.00    -0.550 OA
ATOM     14  O   UNL     1       9.973  -5.743  -0.328  1.00  0.00    -0.550 OA
ENDBRANCH  11  12
ENDBRANCH  10  11
ENDBRANCH   9  10
ENDBRANCH   8   9
ENDBRANCH   7   8
ENDBRANCH   6   7
ENDBRANCH   5   6
ENDBRANCH   4   5
ENDBRANCH   3   4
ENDBRANCH   2   3
ENDBRANCH   1   2
BRANCH   1  15
ATOM     15  C   UNL     1      16.530   0.771   1.386  1.00  0.00     0.000 C 
BRANCH  15  16
ATOM     16  C   UNL     1      17.109  -0.229   0.369  1.00  0.00     0.000 C 
BRANCH  16  17
ATOM     17  C   UNL     1      16.019  -1.104  -0.274  1.00  0.00     0.000 C 
BRANCH  17  18
ATOM     18  C   UNL     1      15.249  -0.366  -1.389  1.00  0.00    -0.000 C 
BRANCH  18  19
ATOM     19  C   UNL     1      13.718  -0.493  -1.274  1.00  0.00    -0.000 C 
BRANCH  19  20
ATOM     20  C   UNL     1      13.154  -0.259   0.137  1.00  0.00    -0.000 C 
BRANCH  20  21
ATOM     21  C   UNL     1      11.673  -0.646   0.254  1.00  0.00    -0.000 C 
BRANCH  21  22
ATOM     22  C   UNL     1      10.842   0.506   0.833  1.00  0.00    -0.000 C 
BRANCH  22  23
ATOM     23  C   UNL     1      10.037   0.040   2.054  1.00  0.00    -0.000 C 
BRANCH  23  24
ATOM     24  C   UNL     1      10.926  -0.499   3.187  1.00  0.00    -0.000 C 
BRANCH  24  25
ATOM     25  C   UNL     1      11.938   0.539   3.720  1.00  0.00    -0.003 C 
ATOM     26  C   UNL     1      11.339   1.413   4.822  1.00  0.00     0.004 C 
ENDBRANCH  24  25
ENDBRANCH  23  24
ENDBRANCH  22  23
ENDBRANCH  21  22
ENDBRANCH  20  21
ENDBRANCH  19  20
ENDBRANCH  18  19
ENDBRANCH  17  18
ENDBRANCH  16  17
ENDBRANCH  15  16
ENDBRANCH   1  15
TORSDOF 22
ENDMDL
MODEL 3
REMARK VINA RESULT:    -4.627      4.940      7.117
REMARK INTER + INTRA:         -13.456
REMARK INTER:                 -10.119
REMARK INTRA:                  -3.337
REMARK UNBOUND:                -2.879
REMARK SMILES CCCCCCCCCCCCCCCCCCCCCCCC(=O)[O-]
REMARK SMILES IDX 13 1 14 2 15 3 16 4 17 5 18 6 19 7 20 8 21 9 22 10 23 11
REMARK SMILES IDX 24 12 25 13 26 14 12 15 11 16 10 17 9 18 8 19 7 20 6 21 5 22
REMARK SMILES IDX 4 23 3 24 2 25 1 26
REMARK H PARENT
REMARK Flexibility Score: inf
ROOT
ATOM      1  C   UNL     1      13.405  -6.048   1.043  1.00  0.00     0.000 C 
ENDROOT
BRANCH   1   2
ATOM      2  C   UNL     1      12.992  -7.451   0.571  1.00  0.00     0.000 C 
BRANCH   2   3
ATOM      3  C   UNL     1      12.089  -7.405  -0.675  1.00  0.00     0.000 C 
BRANCH   3   4
ATOM      4  C   UNL     1      11.639  -5.978  -1.029  1.00  0.00     0.000 C 
BRANCH   4   5
ATOM      5  C   UNL     1      10.179  -5.699  -0.630  1.00  0.00     0.000 C 
BRANCH   5   6
ATOM      6  C   UNL     1       9.927  -4.220  -0.269  1.00  0.00     0.000 C 
BRANCH   6   7
ATOM      7  C   UNL     1      11.215  -3.399  -0.059  1.00  0.00     0.000 C 
BRANCH   7   8
ATOM      8  C   UNL     1      11.041  -2.093   0.739  1.00  0.00     0.000 C 
BRANCH   8   9
ATOM      9  C   UNL     1      11.708  -0.855   0.109  1.00  0.00     0.000 C 
BRANCH   9  10
ATOM     10  C   UNL     1      11.473   0.426   0.922  1.00  0.00     0.006 C 
BRANCH  10  11
ATOM     11  C   UNL     1      12.320   0.429   2.198  1.00  0.00     0.053 C 
BRANCH  11  12
ATOM     12  C   UNL     1      11.444   0.482   3.410  1.00  0.00     0.041 C 
ATOM     13  O   UNL     1      11.952   0.538   4.561  1.00  0.00    -0.550 OA
ATOM     14  O   UNL     1      10.063   0.450   3.268  1.00  0.00    -0.550 OA
ENDBRANCH  11  12
ENDBRANCH  10  11
ENDBRANCH   9  10
ENDBRANCH   8   9
ENDBRANCH   7   8
ENDBRANCH   6   7
ENDBRANCH   5   6
ENDBRANCH   4   5
ENDBRANCH   3   4
ENDBRANCH   2   3
ENDBRANCH   1   2
BRANCH   1  15
ATOM     15  C   UNL     1      14.917  -5.933   1.302  1.00  0.00     0.000 C 
BRANCH  15  16
ATOM     16  C   UNL     1      15.344  -4.495   1.646  1.00  0.00     0.000 C 
BRANCH  16  17
ATOM     17  C   UNL     1      14.138  -3.579   1.920  1.00  0.00     0.000 C 
BRANCH  17  18
ATOM     18  C   UNL     1      14.464  -2.458   2.929  1.00  0.00    -0.000 C 
BRANCH  18  19
ATOM     19  C   UNL     1      15.966  -2.332   3.252  1.00  0.00    -0.000 C 
BRANCH  19  20
ATOM     20  C   UNL     1      16.416  -0.929   3.692  1.00  0.00    -0.000 C 
BRANCH  20  21
ATOM     21  C   UNL     1      15.724   0.190   2.900  1.00  0.00    -0.000 C 
BRANCH  21  22
ATOM     22  C   UNL     1      16.749   1.085   2.192  1.00  0.00    -0.000 C 
BRANCH  22  23
ATOM     23  C   UNL     1      16.653   0.926   0.668  1.00  0.00    -0.000 C 
BRANCH  23  24
ATOM     24  C   UNL     1      17.001  -0.494   0.192  1.00  0.00    -0.000 C 
BRANCH  24  25
ATOM     25  C   UNL     1      15.837  -1.201  -0.535  1.00  0.00    -0.003 C 
ATOM     26  C   UNL     1      15.044  -0.241  -1.421  1.00  0.00     0.004 C 
ENDBRANCH  24  25
ENDBRANCH  23  24
ENDBRANCH  22  23
ENDBRANCH  21  22
ENDBRANCH  20  21
ENDBRANCH  19  20
ENDBRANCH  18  19
ENDBRANCH  17  18
ENDBRANCH  16  17
ENDBRANCH  15  16
ENDBRANCH   1  15
TORSDOF 22
ENDMDL
MODEL 4
REMARK VINA RESULT:    -4.610      4.036      6.997
REMARK INTER + INTRA:         -13.418
REMARK INTER:                  -9.976
REMARK INTRA:                  -3.442
REMARK UNBOUND:                -2.879
REMARK SMILES CCCCCCCCCCCCCCCCCCCCCCCC(=O)[O-]
REMARK SMILES IDX 13 1 14 2 15 3 16 4 17 5 18 6 19 7 20 8 21 9 22 10 23 11
REMARK SMILES IDX 24 12 25 13 26 14 12 15 11 16 10 17 9 18 8 19 7 20 6 21 5 22
REMARK SMILES IDX 4 23 3 24 2 25 1 26
REMARK H PARENT
REMARK Flexibility Score: inf
ROOT
ATOM      1  C   UNL     1      11.992   0.892   4.548  1.00  0.00     0.000 C 
ENDROOT
BRANCH   1   2
ATOM      2  C   UNL     1      12.460  -0.571   4.610  1.00  0.00     0.000 C 
BRANCH   2   3
ATOM      3  C   UNL     1      13.932  -0.730   4.190  1.00  0.00     0.000 C 
BRANCH   3   4
ATOM      4  C   UNL     1      14.382  -2.199   4.146  1.00  0.00     0.000 C 
BRANCH   4   5
ATOM      5  C   UNL     1      15.904  -2.350   3.966  1.00  0.00     0.000 C 
BRANCH   5   6
ATOM      6  C   UNL     1      16.281  -3.416   2.915  1.00  0.00     0.000 C 
BRANCH   6   7
ATOM      7  C   UNL     1      15.162  -3.716   1.898  1.00  0.00     0.000 C 
BRANCH   7   8
ATOM      8  C   UNL     1      14.969  -5.205   1.551  1.00  0.00     0.000 C 
BRANCH   8   9
ATOM      9  C   UNL     1      13.587  -5.561   0.969  1.00  0.00     0.000 C 
BRANCH   9  10
ATOM     10  C   UNL     1      13.154  -6.996   1.300  1.00  0.00     0.006 C 
BRANCH  10  11
ATOM     11  C   UNL     1      12.769  -7.759   0.029  1.00  0.00     0.053 C 
BRANCH  11  12
ATOM     12  C   UNL     1      11.719  -7.012  -0.734  1.00  0.00     0.041 C 
ATOM     13  O   UNL     1      11.940  -6.631  -1.914  1.00  0.00    -0.550 OA
ATOM     14  O   UNL     1      10.503  -6.719  -0.133  1.00  0.00    -0.550 OA
ENDBRANCH  11  12
ENDBRANCH  10  11
ENDBRANCH   9  10
ENDBRANCH   8   9
ENDBRANCH   7   8
ENDBRANCH   6   7
ENDBRANCH   5   6
ENDBRANCH   4   5
ENDBRANCH   3   4
ENDBRANCH   2   3
ENDBRANCH   1   2
BRANCH   1  15
ATOM     15  C   UNL     1      10.593   1.039   3.928  1.00  0.00     0.000 C 
BRANCH  15  16
ATOM     16  C   UNL     1      10.521   0.461   2.503  1.00  0.00     0.000 C 
BRANCH  16  17
ATOM     17  C   UNL     1       9.365  -0.541   2.337  1.00  0.00     0.000 C 
BRANCH  17  18
ATOM     18  C   UNL     1       9.852  -1.940   1.907  1.00  0.00    -0.000 C 
BRANCH  18  19
ATOM     19  C   UNL     1      11.373  -2.021   1.667  1.00  0.00    -0.000 C 
BRANCH  19  20
ATOM     20  C   UNL     1      11.782  -2.309   0.213  1.00  0.00    -0.000 C 
BRANCH  20  21
ATOM     21  C   UNL     1      12.712  -1.231  -0.364  1.00  0.00    -0.000 C 
BRANCH  21  22
ATOM     22  C   UNL     1      13.665  -0.689   0.708  1.00  0.00    -0.000 C 
BRANCH  22  23
ATOM     23  C   UNL     1      14.870   0.012   0.064  1.00  0.00    -0.000 C 
BRANCH  23  24
ATOM     24  C   UNL     1      16.217  -0.563   0.533  1.00  0.00    -0.000 C 
BRANCH  24  25
ATOM     25  C   UNL     1      16.985   0.374   1.490  1.00  0.00    -0.003 C 
ATOM     26  C   UNL     1      18.447   0.546   1.077  1.00  0.00     0.004 C 
ENDBRANCH  24  25
ENDBRANCH  23  24
ENDBRANCH  22  23
ENDBRANCH  21  22
ENDBRANCH  20  21
ENDBRANCH  19  20
ENDBRANCH  18  19
ENDBRANCH  17  18
ENDBRANCH  16  17
ENDBRANCH  15  16
ENDBRANCH   1  15
TORSDOF 22
ENDMDL
MODEL 5
REMARK VINA RESULT:    -4.508      2.562      4.101
REMARK INTER + INTRA:         -13.186
REMARK INTER:                 -10.198
REMARK INTRA:                  -2.988
REMARK UNBOUND:                -2.879
REMARK SMILES CCCCCCCCCCCCCCCCCCCCCCCC(=O)[O-]
REMARK SMILES IDX 13 1 14 2 15 3 16 4 17 5 18 6 19 7 20 8 21 9 22 10 23 11
REMARK SMILES IDX 24 12 25 13 26 14 12 15 11 16 10 17 9 18 8 19 7 20 6 21 5 22
REMARK SMILES IDX 4 23 3 24 2 25 1 26
REMARK H PARENT
REMARK Flexibility Score: inf
ROOT
ATOM      1  C   UNL     1      11.027  -3.544  -0.120  1.00  0.00     0.000 C 
ENDROOT
BRANCH   1   2
ATOM      2  C   UNL     1       9.591  -4.080  -0.237  1.00  0.00     0.000 C 
BRANCH   2   3
ATOM      3  C   UNL     1       9.555  -5.595  -0.506  1.00  0.00     0.000 C 
BRANCH   3   4
ATOM      4  C   UNL     1      10.937  -6.170  -0.857  1.00  0.00     0.000 C 
BRANCH   4   5
ATOM      5  C   UNL     1      10.916  -7.037  -2.129  1.00  0.00     0.000 C 
BRANCH   5   6
ATOM      6  C   UNL     1       9.488  -7.435  -2.559  1.00  0.00     0.000 C 
BRANCH   6   7
ATOM      7  C   UNL     1       9.237  -7.324  -4.076  1.00  0.00     0.000 C 
BRANCH   7   8
ATOM      8  C   UNL     1       8.364  -6.133  -4.514  1.00  0.00     0.000 C 
BRANCH   8   9
ATOM      9  C   UNL     1       7.398  -5.606  -3.435  1.00  0.00     0.000 C 
BRANCH   9  10
ATOM     10  C   UNL     1       6.710  -4.295  -3.841  1.00  0.00     0.006 C 
BRANCH  10  11
ATOM     11  C   UNL     1       5.187  -4.448  -3.824  1.00  0.00     0.053 C 
BRANCH  11  12
ATOM     12  C   UNL     1       4.739  -5.367  -4.917  1.00  0.00     0.041 C 
ATOM     13  O   UNL     1       4.059  -6.393  -4.648  1.00  0.00    -0.550 OA
ATOM     14  O   UNL     1       5.091  -5.101  -6.234  1.00  0.00    -0.550 OA
ENDBRANCH  11  12
ENDBRANCH  10  11
ENDBRANCH   9  10
ENDBRANCH   8   9
ENDBRANCH   7   8
ENDBRANCH   6   7
ENDBRANCH   5   6
ENDBRANCH   4   5
ENDBRANCH   3   4
ENDBRANCH   2   3
ENDBRANCH   1   2
BRANCH   1  15
ATOM     15  C   UNL     1      11.087  -2.151   0.529  1.00  0.00     0.000 C 
BRANCH  15  16
ATOM     16  C   UNL     1      10.023  -1.972   1.627  1.00  0.00     0.000 C 
BRANCH  16  17
ATOM     17  C   UNL     1      10.083  -0.578   2.275  1.00  0.00     0.000 C 
BRANCH  17  18
ATOM     18  C   UNL     1      11.420   0.143   2.007  1.00  0.00    -0.000 C 
BRANCH  18  19
ATOM     19  C   UNL     1      12.265   0.373   3.275  1.00  0.00    -0.000 C 
BRANCH  19  20
ATOM     20  C   UNL     1      12.467  -0.874   4.152  1.00  0.00    -0.000 C 
BRANCH  20  21
ATOM     21  C   UNL     1      13.786  -1.601   3.852  1.00  0.00    -0.000 C 
BRANCH  21  22
ATOM     22  C   UNL     1      13.548  -2.857   3.005  1.00  0.00    -0.000 C 
BRANCH  22  23
ATOM     23  C   UNL     1      14.451  -2.858   1.762  1.00  0.00    -0.000 C 
BRANCH  23  24
ATOM     24  C   UNL     1      15.056  -1.476   1.462  1.00  0.00    -0.000 C 
BRANCH  24  25
ATOM     25  C   UNL     1      14.504  -0.831   0.173  1.00  0.00    -0.003 C 
ATOM     26  C   UNL     1      15.619  -0.427  -0.792  1.00  0.00     0.004 C 
ENDBRANCH  24  25
ENDBRANCH  23  24
ENDBRANCH  22  23
ENDBRANCH  21  22
ENDBRANCH  20  21
ENDBRANCH  19  20
ENDBRANCH  18  19
ENDBRANCH  17  18
ENDBRANCH  16  17
ENDBRANCH  15  16
ENDBRANCH   1  15
TORSDOF 22
ENDMDL
MODEL 6
REMARK VINA RESULT:    -4.507      5.318      7.184
REMARK INTER + INTRA:         -13.183
REMARK INTER:                  -9.703
REMARK INTRA:                  -3.480
REMARK UNBOUND:                -2.879
REMARK SMILES CCCCCCCCCCCCCCCCCCCCCCCC(=O)[O-]
REMARK SMILES IDX 13 1 14 2 15 3 16 4 17 5 18 6 19 7 20 8 21 9 22 10 23 11
REMARK SMILES IDX 24 12 25 13 26 14 12 15 11 16 10 17 9 18 8 19 7 20 6 21 5 22
REMARK SMILES IDX 4 23 3 24 2 25 1 26
REMARK H PARENT
REMARK Flexibility Score: inf
ROOT
ATOM      1  C   UNL     1      11.134   0.266   3.472  1.00  0.00     0.000 C 
ENDROOT
BRANCH   1   2
ATOM      2  C   UNL     1      12.232   0.337   4.545  1.00  0.00     0.000 C 
BRANCH   2   3
ATOM      3  C   UNL     1      13.605  -0.097   4.003  1.00  0.00     0.000 C 
BRANCH   3   4
ATOM      4  C   UNL     1      13.728  -1.621   3.846  1.00  0.00     0.000 C 
BRANCH   4   5
ATOM      5  C   UNL     1      14.961  -2.197   4.567  1.00  0.00     0.000 C 
BRANCH   5   6
ATOM      6  C   UNL     1      16.000  -2.792   3.593  1.00  0.00     0.000 C 
BRANCH   6   7
ATOM      7  C   UNL     1      15.558  -2.774   2.117  1.00  0.00     0.000 C 
BRANCH   7   8
ATOM      8  C   UNL     1      15.126  -4.136   1.542  1.00  0.00     0.000 C 
BRANCH   8   9
ATOM      9  C   UNL     1      13.604  -4.374   1.512  1.00  0.00     0.000 C 
BRANCH   9  10
ATOM     10  C   UNL     1      13.230  -5.786   1.037  1.00  0.00     0.006 C 
BRANCH  10  11
ATOM     11  C   UNL     1      14.418  -6.742   1.175  1.00  0.00     0.053 C 
BRANCH  11  12
ATOM     12  C   UNL     1      13.960  -8.164   1.091  1.00  0.00     0.041 C 
ATOM     13  O   UNL     1      13.313  -8.566   0.088  1.00  0.00    -0.550 OA
ATOM     14  O   UNL     1      14.231  -9.042   2.133  1.00  0.00    -0.550 OA
ENDBRANCH  11  12
ENDBRANCH  10  11
ENDBRANCH   9  10
ENDBRANCH   8   9
ENDBRANCH   7   8
ENDBRANCH   6   7
ENDBRANCH   5   6
ENDBRANCH   4   5
ENDBRANCH   3   4
ENDBRANCH   2   3
ENDBRANCH   1   2
BRANCH   1  15
ATOM     15  C   UNL     1      11.516   1.020   2.186  1.00  0.00     0.000 C 
BRANCH  15  16
ATOM     16  C   UNL     1      10.849   0.418   0.936  1.00  0.00     0.000 C 
BRANCH  16  17
ATOM     17  C   UNL     1      11.738  -0.634   0.251  1.00  0.00     0.000 C 
BRANCH  17  18
ATOM     18  C   UNL     1      13.238  -0.279   0.322  1.00  0.00    -0.000 C 
BRANCH  18  19
ATOM     19  C   UNL     1      14.028  -0.671  -0.942  1.00  0.00    -0.000 C 
BRANCH  19  20
ATOM     20  C   UNL     1      15.532  -0.354  -0.887  1.00  0.00    -0.000 C 
BRANCH  20  21
ATOM     21  C   UNL     1      15.950   0.304   0.437  1.00  0.00    -0.000 C 
BRANCH  21  22
ATOM     22  C   UNL     1      17.468   0.230   0.638  1.00  0.00    -0.000 C 
BRANCH  22  23
ATOM     23  C   UNL     1      17.910   1.131   1.801  1.00  0.00    -0.000 C 
BRANCH  23  24
ATOM     24  C   UNL     1      16.810   1.326   2.857  1.00  0.00    -0.000 C 
BRANCH  24  25
ATOM     25  C   UNL     1      17.171   0.733   4.237  1.00  0.00    -0.003 C 
ATOM     26  C   UNL     1      16.827   1.686   5.381  1.00  0.00     0.004 C 
ENDBRANCH  24  25
ENDBRANCH  23  24
ENDBRANCH  22  23
ENDBRANCH  21  22
ENDBRANCH  20  21
ENDBRANCH  19  20
ENDBRANCH  18  19
ENDBRANCH  17  18
ENDBRANCH  16  17
ENDBRANCH  15  16
ENDBRANCH   1  15
TORSDOF 22
ENDMDL
MODEL 7
REMARK VINA RESULT:    -4.409      1.690      3.647
REMARK INTER + INTRA:         -12.958
REMARK INTER:                  -9.675
REMARK INTRA:                  -3.283
REMARK UNBOUND:                -2.879
REMARK SMILES CCCCCCCCCCCCCCCCCCCCCCCC(=O)[O-]
REMARK SMILES IDX 13 1 14 2 15 3 16 4 17 5 18 6 19 7 20 8 21 9 22 10 23 11
REMARK SMILES IDX 24 12 25 13 26 14 12 15 11 16 10 17 9 18 8 19 7 20 6 21 5 22
REMARK SMILES IDX 4 23 3 24 2 25 1 26
REMARK H PARENT
REMARK Flexibility Score: inf
ROOT
ATOM      1  C   UNL     1      12.278  -1.947   0.007  1.00  0.00     0.000 C 
ENDROOT
BRANCH   1   2
ATOM      2  C   UNL     1      11.485  -3.090   0.661  1.00  0.00     0.000 C 
BRANCH   2   3
ATOM      3  C   UNL     1      10.295  -3.542  -0.205  1.00  0.00     0.000 C 
BRANCH   3   4
ATOM      4  C   UNL     1      10.230  -5.068  -0.375  1.00  0.00     0.000 C 
BRANCH   4   5
ATOM      5  C   UNL     1      11.615  -5.701  -0.600  1.00  0.00     0.000 C 
BRANCH   5   6
ATOM      6  C   UNL     1      11.671  -6.591  -1.860  1.00  0.00     0.000 C 
BRANCH   6   7
ATOM      7  C   UNL     1      10.969  -7.953  -1.696  1.00  0.00     0.000 C 
BRANCH   7   8
ATOM      8  C   UNL     1       9.679  -8.134  -2.519  1.00  0.00     0.000 C 
BRANCH   8   9
ATOM      9  C   UNL     1       9.198  -6.869  -3.256  1.00  0.00     0.000 C 
BRANCH   9  10
ATOM     10  C   UNL     1       8.941  -7.112  -4.750  1.00  0.00     0.006 C 
BRANCH  10  11
ATOM     11  C   UNL     1      10.158  -7.758  -5.417  1.00  0.00     0.053 C 
BRANCH  11  12
ATOM     12  C   UNL     1      11.160  -6.716  -5.805  1.00  0.00     0.041 C 
ATOM     13  O   UNL     1      10.852  -5.813  -6.627  1.00  0.00    -0.550 OA
ATOM     14  O   UNL     1      12.442  -6.755  -5.274  1.00  0.00    -0.550 OA
ENDBRANCH  11  12
ENDBRANCH  10  11
ENDBRANCH   9  10
ENDBRANCH   8   9
ENDBRANCH   7   8
ENDBRANCH   6   7
ENDBRANCH   5   6
ENDBRANCH   4   5
ENDBRANCH   3   4
ENDBRANCH   2   3
ENDBRANCH   1   2
BRANCH   1  15
ATOM     15  C   UNL     1      11.631  -0.571   0.238  1.00  0.00     0.000 C 
BRANCH  15  16
ATOM     16  C   UNL     1      12.396   0.266   1.279  1.00  0.00     0.000 C 
BRANCH  16  17
ATOM     17  C   UNL     1      11.581   0.483   2.566  1.00  0.00     0.000 C 
BRANCH  17  18
ATOM     18  C   UNL     1      11.664  -0.720   3.528  1.00  0.00    -0.000 C 
BRANCH  18  19
ATOM     19  C   UNL     1      13.100  -1.063   3.969  1.00  0.00    -0.000 C 
BRANCH  19  20
ATOM     20  C   UNL     1      13.647  -2.388   3.411  1.00  0.00    -0.000 C 
BRANCH  20  21
ATOM     21  C   UNL     1      14.966  -2.208   2.646  1.00  0.00    -0.000 C 
BRANCH  21  22
ATOM     22  C   UNL     1      15.692  -0.930   3.084  1.00  0.00    -0.000 C 
BRANCH  22  23
ATOM     23  C   UNL     1      16.245  -0.171   1.869  1.00  0.00    -0.000 C 
BRANCH  23  24
ATOM     24  C   UNL     1      15.902  -0.851   0.533  1.00  0.00    -0.000 C 
BRANCH  24  25
ATOM     25  C   UNL     1      15.611   0.148  -0.608  1.00  0.00    -0.003 C 
ATOM     26  C   UNL     1      15.088  -0.548  -1.864  1.00  0.00     0.004 C 
ENDBRANCH  24  25
ENDBRANCH  23  24
ENDBRANCH  22  23
ENDBRANCH  21  22
ENDBRANCH  20  21
ENDBRANCH  19  20
ENDBRANCH  18  19
ENDBRANCH  17  18
ENDBRANCH  16  17
ENDBRANCH  15  16
ENDBRANCH   1  15
TORSDOF 22
ENDMDL
MODEL 8
REMARK VINA RESULT:    -4.386      1.907      3.682
REMARK INTER + INTRA:         -12.906
REMARK INTER:                 -10.315
REMARK INTRA:                  -2.591
REMARK UNBOUND:                -2.879
REMARK SMILES CCCCCCCCCCCCCCCCCCCCCCCC(=O)[O-]
REMARK SMILES IDX 13 1 14 2 15 3 16 4 17 5 18 6 19 7 20 8 21 9 22 10 23 11
REMARK SMILES IDX 24 12 25 13 26 14 12 15 11 16 10 17 9 18 8 19 7 20 6 21 5 22
REMARK SMILES IDX 4 23 3 24 2 25 1 26
REMARK H PARENT
REMARK Flexibility Score: inf
ROOT
ATOM      1  C   UNL     1      11.286  -3.156   0.093  1.00  0.00     0.000 C 
ENDROOT
BRANCH   1   2
ATOM      2  C   UNL     1       9.951  -3.868  -0.181  1.00  0.00     0.000 C 
BRANCH   2   3
ATOM      3  C   UNL     1      10.150  -5.338  -0.591  1.00  0.00     0.000 C 
BRANCH   3   4
ATOM      4  C   UNL     1      11.630  -5.752  -0.624  1.00  0.00     0.000 C 
BRANCH   4   5
ATOM      5  C   UNL     1      11.873  -7.026  -1.452  1.00  0.00     0.000 C 
BRANCH   5   6
ATOM      6  C   UNL     1      11.113  -7.022  -2.796  1.00  0.00     0.000 C 
BRANCH   6   7
ATOM      7  C   UNL     1      10.391  -8.348  -3.110  1.00  0.00     0.000 C 
BRANCH   7   8
ATOM      8  C   UNL     1       8.902  -8.214  -3.482  1.00  0.00     0.000 C 
BRANCH   8   9
ATOM      9  C   UNL     1       8.276  -6.841  -3.171  1.00  0.00     0.000 C 
BRANCH   9  10
ATOM     10  C   UNL     1       7.367  -6.331  -4.298  1.00  0.00     0.006 C 
BRANCH  10  11
ATOM     11  C   UNL     1       7.789  -4.930  -4.750  1.00  0.00     0.053 C 
BRANCH  11  12
ATOM     12  C   UNL     1       8.203  -4.944  -6.188  1.00  0.00     0.041 C 
ATOM     13  O   UNL     1       7.385  -5.287  -7.082  1.00  0.00    -0.550 OA
ATOM     14  O   UNL     1       9.501  -4.598  -6.539  1.00  0.00    -0.550 OA
ENDBRANCH  11  12
ENDBRANCH  10  11
ENDBRANCH   9  10
ENDBRANCH   8   9
ENDBRANCH   7   8
ENDBRANCH   6   7
ENDBRANCH   5   6
ENDBRANCH   4   5
ENDBRANCH   3   4
ENDBRANCH   2   3
ENDBRANCH   1   2
BRANCH   1  15
ATOM     15  C   UNL     1      11.129  -1.949   1.033  1.00  0.00     0.000 C 
BRANCH  15  16
ATOM     16  C   UNL     1       9.774  -1.950   1.765  1.00  0.00     0.000 C 
BRANCH  16  17
ATOM     17  C   UNL     1       9.450  -0.586   2.396  1.00  0.00     0.000 C 
BRANCH  17  18
ATOM     18  C   UNL     1      10.670   0.359   2.424  1.00  0.00    -0.000 C 
BRANCH  18  19
ATOM     19  C   UNL     1      10.954   0.964   3.812  1.00  0.00    -0.000 C 
BRANCH  19  20
ATOM     20  C   UNL     1      12.128   0.320   4.570  1.00  0.00    -0.000 C 
BRANCH  20  21
ATOM     21  C   UNL     1      13.200  -0.247   3.627  1.00  0.00    -0.000 C 
BRANCH  21  22
ATOM     22  C   UNL     1      13.350  -1.763   3.806  1.00  0.00    -0.000 C 
BRANCH  22  23
ATOM     23  C   UNL     1      14.717  -2.241   3.294  1.00  0.00    -0.000 C 
BRANCH  23  24
ATOM     24  C   UNL     1      14.694  -2.636   1.808  1.00  0.00    -0.000 C 
BRANCH  24  25
ATOM     25  C   UNL     1      15.419  -1.625   0.893  1.00  0.00    -0.003 C 
ATOM     26  C   UNL     1      14.443  -0.688   0.184  1.00  0.00     0.004 C 
ENDBRANCH  24  25
ENDBRANCH  23  24
ENDBRANCH  22  23
ENDBRANCH  21  22
ENDBRANCH  20  21
ENDBRANCH  19  20
ENDBRANCH  18  19
ENDBRANCH  17  18
ENDBRANCH  16  17
ENDBRANCH  15  16
ENDBRANCH   1  15
TORSDOF 22
ENDMDL
MODEL 9
REMARK VINA RESULT:    -4.339      1.129      2.913
REMARK INTER + INTRA:         -12.798
REMARK INTER:                 -10.484
REMARK INTRA:                  -2.314
REMARK UNBOUND:                -2.879
REMARK SMILES CCCCCCCCCCCCCCCCCCCCCCCC(=O)[O-]
REMARK SMILES IDX 13 1 14 2 15 3 16 4 17 5 18 6 19 7 20 8 21 9 22 10 23 11
REMARK SMILES IDX 24 12 25 13 26 14 12 15 11 16 10 17 9 18 8 19 7 20 6 21 5 22
REMARK SMILES IDX 4 23 3 24 2 25 1 26
REMARK H PARENT
REMARK Flexibility Score: inf
ROOT
ATOM      1  C   UNL     1      11.694  -3.049   0.455  1.00  0.00     0.000 C 
ENDROOT
BRANCH   1   2
ATOM      2  C   UNL     1      10.582  -3.831  -0.262  1.00  0.00     0.000 C 
BRANCH   2   3
ATOM      3  C   UNL     1      11.018  -5.261  -0.627  1.00  0.00     0.000 C 
BRANCH   3   4
ATOM      4  C   UNL     1       9.841  -6.147  -1.067  1.00  0.00     0.000 C 
BRANCH   4   5
ATOM      5  C   UNL     1       8.646  -5.331  -1.590  1.00  0.00     0.000 C 
BRANCH   5   6
ATOM      6  C   UNL     1       7.890  -6.039  -2.735  1.00  0.00     0.000 C 
BRANCH   6   7
ATOM      7  C   UNL     1       7.804  -5.214  -4.034  1.00  0.00     0.000 C 
BRANCH   7   8
ATOM      8  C   UNL     1       8.604  -5.775  -5.225  1.00  0.00     0.000 C 
BRANCH   8   9
ATOM      9  C   UNL     1       9.608  -6.887  -4.866  1.00  0.00     0.000 C 
BRANCH   9  10
ATOM     10  C   UNL     1      10.645  -7.133  -5.971  1.00  0.00     0.006 C 
BRANCH  10  11
ATOM     11  C   UNL     1      10.141  -6.613  -7.320  1.00  0.00     0.053 C 
BRANCH  11  12
ATOM     12  C   UNL     1      10.855  -7.293  -8.445  1.00  0.00     0.041 C 
ATOM     13  O   UNL     1      10.406  -7.223  -9.620  1.00  0.00    -0.550 OA
ATOM     14  O   UNL     1      12.009  -8.024  -8.193  1.00  0.00    -0.550 OA
ENDBRANCH  11  12
ENDBRANCH  10  11
ENDBRANCH   9  10
ENDBRANCH   8   9
ENDBRANCH   7   8
ENDBRANCH   6   7
ENDBRANCH   5   6
ENDBRANCH   4   5
ENDBRANCH   3   4
ENDBRANCH   2   3
ENDBRANCH   1   2
BRANCH   1  15
ATOM     15  C   UNL     1      11.683  -1.551   0.105  1.00  0.00     0.000 C 
BRANCH  15  16
ATOM     16  C   UNL     1      10.916  -0.714   1.143  1.00  0.00     0.000 C 
BRANCH  16  17
ATOM     17  C   UNL     1      11.778   0.413   1.738  1.00  0.00     0.000 C 
BRANCH  17  18
ATOM     18  C   UNL     1      11.481   0.659   3.232  1.00  0.00    -0.000 C 
BRANCH  18  19
ATOM     19  C   UNL     1      12.575   0.126   4.178  1.00  0.00    -0.000 C 
BRANCH  19  20
ATOM     20  C   UNL     1      12.774  -1.399   4.139  1.00  0.00    -0.000 C 
BRANCH  20  21
ATOM     21  C   UNL     1      14.251  -1.798   4.000  1.00  0.00    -0.000 C 
BRANCH  21  22
ATOM     22  C   UNL     1      14.582  -2.208   2.560  1.00  0.00    -0.000 C 
BRANCH  22  23
ATOM     23  C   UNL     1      15.678  -1.307   1.973  1.00  0.00    -0.000 C 
BRANCH  23  24
ATOM     24  C   UNL     1      15.191  -0.481   0.770  1.00  0.00    -0.000 C 
BRANCH  24  25
ATOM     25  C   UNL     1      15.884  -0.862  -0.556  1.00  0.00    -0.003 C 
ATOM     26  C   UNL     1      15.088  -0.397  -1.775  1.00  0.00     0.004 C 
ENDBRANCH  24  25
ENDBRANCH  23  24
ENDBRANCH  22  23
ENDBRANCH  21  22
ENDBRANCH  20  21
ENDBRANCH  19  20
ENDBRANCH  18  19
ENDBRANCH  17  18
ENDBRANCH  16  17
ENDBRANCH  15  16
ENDBRANCH   1  15
TORSDOF 22
ENDMDL
