MODEL 1
REMARK VINA RESULT:    -4.060      0.000      0.000
REMARK INTER + INTRA:          -6.827
REMARK INTER:                  -6.196
REMARK INTRA:                  -0.630
REMARK UNBOUND:                -0.630
REMARK SMILES CCCCCCCCCC=CC(=O)[O-]
REMARK SMILES IDX 7 1 8 2 9 3 10 4 11 5 12 6 13 7 14 8 6 9 5 10 4 11 3 12 2 13
REMARK SMILES IDX 1 14
REMARK H PARENT
REMARK Flexibility Score: inf
ROOT
ATOM      1  C   UNL     1     206.554 196.192 225.907  1.00  0.00     0.000 C 
ENDROOT
BRANCH   1   2
ATOM      2  C   UNL     1     207.003 195.040 224.990  1.00  0.00     0.004 C 
BRANCH   2   3
ATOM      3  C   UNL     1     208.250 195.407 224.171  1.00  0.00     0.027 C 
BRANCH   3   4
ATOM      4  C   UNL     1     209.195 196.298 224.935  1.00  0.00    -0.025 C 
ATOM      5  C   UNL     1     210.198 197.020 224.410  1.00  0.00     0.020 C 
BRANCH   5   6
ATOM      6  C   UNL     1     210.545 197.136 222.979  1.00  0.00     0.064 C 
ATOM      7  O   UNL     1     210.208 198.175 222.353  1.00  0.00    -0.545 OA
ATOM      8  O   UNL     1     211.200 196.122 222.290  1.00  0.00    -0.545 OA
ENDBRANCH   5   6
ENDBRANCH   3   4
ENDBRANCH   2   3
ENDBRANCH   1   2
BRANCH   1   9
ATOM      9  C   UNL     1     205.103 196.627 225.647  1.00  0.00     0.000 C 
BRANCH   9  10
ATOM     10  C   UNL     1     204.780 196.738 224.147  1.00  0.00     0.000 C 
BRANCH  10  11
ATOM     11  C   UNL     1     203.878 195.597 223.651  1.00  0.00    -0.000 C 
BRANCH  11  12
ATOM     12  C   UNL     1     203.352 194.718 224.799  1.00  0.00    -0.000 C 
BRANCH  12  13
ATOM     13  C   UNL     1     202.135 193.875 224.386  1.00  0.00    -0.003 C 
ATOM     14  C   UNL     1     200.857 194.275 225.124  1.00  0.00     0.004 C 
ENDBRANCH  12  13
ENDBRANCH  11  12
ENDBRANCH  10  11
ENDBRANCH   9  10
ENDBRANCH   1   9
TORSDOF 9
ENDMDL
MODEL 2
REMARK VINA RESULT:    -4.053      4.227      6.159
REMARK INTER + INTRA:          -6.815
REMARK INTER:                  -5.221
REMARK INTRA:                  -1.595
REMARK UNBOUND:                -0.630
REMARK SMILES CCCCCCCCCC=CC(=O)[O-]
REMARK SMILES IDX 7 1 8 2 9 3 10 4 11 5 12 6 13 7 14 8 6 9 5 10 4 11 3 12 2 13
REMARK SMILES IDX 1 14
REMARK H PARENT
REMARK Flexibility Score: inf
ROOT
ATOM      1  C   UNL     1     205.053 196.637 225.771  1.00  0.00     0.000 C 
ENDROOT
BRANCH   1   2
ATOM      2  C   UNL     1     204.862 196.798 224.252  1.00  0.00     0.004 C 
BRANCH   2   3
ATOM      3  C   UNL     1     204.001 195.672 223.658  1.00  0.00     0.027 C 
BRANCH   3   4
ATOM      4  C   UNL     1     203.251 194.905 224.715  1.00  0.00    -0.025 C 
ATOM      5  C   UNL     1     202.327 193.956 224.496  1.00  0.00     0.020 C 
BRANCH   5   6
ATOM      6  C   UNL     1     201.897 193.431 223.183  1.00  0.00     0.064 C 
ATOM      7  O   UNL     1     202.399 192.355 222.764  1.00  0.00    -0.545 OA
ATOM      8  O   UNL     1     200.984 194.102 222.379  1.00  0.00    -0.545 OA
ENDBRANCH   5   6
ENDBRANCH   3   4
ENDBRANCH   2   3
ENDBRANCH   1   2
BRANCH   1   9
ATOM      9  C   UNL     1     206.515 196.366 226.160  1.00  0.00     0.000 C 
BRANCH   9  10
ATOM     10  C   UNL     1     206.714 194.967 226.769  1.00  0.00     0.000 C 
BRANCH  10  11
ATOM     11  C   UNL     1     207.144 193.924 225.724  1.00  0.00    -0.000 C 
BRANCH  11  12
ATOM     12  C   UNL     1     206.146 192.758 225.609  1.00  0.00    -0.000 C 
BRANCH  12  13
ATOM     13  C   UNL     1     205.873 192.359 224.150  1.00  0.00    -0.003 C 
ATOM     14  C   UNL     1     206.669 193.196 223.147  1.00  0.00     0.004 C 
ENDBRANCH  12  13
ENDBRANCH  11  12
ENDBRANCH  10  11
ENDBRANCH   9  10
ENDBRANCH   1   9
TORSDOF 9
ENDMDL
MODEL 3
REMARK VINA RESULT:    -4.018      1.391      2.722
REMARK INTER + INTRA:          -6.763
REMARK INTER:                  -6.012
REMARK INTRA:                  -0.751
REMARK UNBOUND:                -0.630
REMARK SMILES CCCCCCCCCC=CC(=O)[O-]
REMARK SMILES IDX 7 1 8 2 9 3 10 4 11 5 12 6 13 7 14 8 6 9 5 10 4 11 3 12 2 13
REMARK SMILES IDX 1 14
REMARK H PARENT
REMARK Flexibility Score: inf
ROOT
ATOM      1  C   UNL     1     208.770 195.660 224.611  1.00  0.00     0.000 C 
ENDROOT
BRANCH   1   2
ATOM      2  C   UNL     1     209.229 196.857 225.462  1.00  0.00     0.004 C 
BRANCH   2   3
ATOM      3  C   UNL     1     210.418 197.594 224.825  1.00  0.00     0.027 C 
BRANCH   3   4
ATOM      4  C   UNL     1     210.315 197.658 223.323  1.00  0.00    -0.025 C 
ATOM      5  C   UNL     1     211.278 197.322 222.451  1.00  0.00     0.020 C 
BRANCH   5   6
ATOM      6  C   UNL     1     212.609 196.770 222.777  1.00  0.00     0.064 C 
ATOM      7  O   UNL     1     212.757 195.521 222.814  1.00  0.00    -0.545 OA
ATOM      8  O   UNL     1     213.695 197.582 223.079  1.00  0.00    -0.545 OA
ENDBRANCH   5   6
ENDBRANCH   3   4
ENDBRANCH   2   3
ENDBRANCH   1   2
BRANCH   1   9
ATOM      9  C   UNL     1     207.297 195.291 224.851  1.00  0.00     0.000 C 
BRANCH   9  10
ATOM     10  C   UNL     1     206.639 196.163 225.934  1.00  0.00     0.000 C 
BRANCH  10  11
ATOM     11  C   UNL     1     205.209 196.586 225.564  1.00  0.00    -0.000 C 
BRANCH  11  12
ATOM     12  C   UNL     1     204.977 196.616 224.043  1.00  0.00    -0.000 C 
BRANCH  12  13
ATOM     13  C   UNL     1     203.983 195.539 223.578  1.00  0.00    -0.003 C 
ATOM     14  C   UNL     1     203.245 194.871 224.739  1.00  0.00     0.004 C 
ENDBRANCH  12  13
ENDBRANCH  11  12
ENDBRANCH  10  11
ENDBRANCH   9  10
ENDBRANCH   1   9
TORSDOF 9
ENDMDL
MODEL 4
REMARK VINA RESULT:    -4.001      4.244      6.879
REMARK INTER + INTRA:          -6.736
REMARK INTER:                  -5.585
REMARK INTRA:                  -1.152
REMARK UNBOUND:                -0.630
REMARK SMILES CCCCCCCCCC=CC(=O)[O-]
REMARK SMILES IDX 7 1 8 2 9 3 10 4 11 5 12 6 13 7 14 8 6 9 5 10 4 11 3 12 2 13
REMARK SMILES IDX 1 14
REMARK H PARENT
REMARK Flexibility Score: inf
ROOT
ATOM      1  C   UNL     1     204.013 195.606 223.702  1.00  0.00     0.000 C 
ENDROOT
BRANCH   1   2
ATOM      2  C   UNL     1     203.212 194.999 224.867  1.00  0.00     0.004 C 
BRANCH   2   3
ATOM      3  C   UNL     1     202.521 193.686 224.469  1.00  0.00     0.027 C 
BRANCH   3   4
ATOM      4  C   UNL     1     201.019 193.812 224.447  1.00  0.00    -0.025 C 
ATOM      5  C   UNL     1     200.244 193.838 223.351  1.00  0.00     0.020 C 
BRANCH   5   6
ATOM      6  C   UNL     1     200.694 193.693 221.951  1.00  0.00     0.064 C 
ATOM      7  O   UNL     1     201.307 194.648 221.407  1.00  0.00    -0.545 OA
ATOM      8  O   UNL     1     200.432 192.553 221.203  1.00  0.00    -0.545 OA
ENDBRANCH   5   6
ENDBRANCH   3   4
ENDBRANCH   2   3
ENDBRANCH   1   2
BRANCH   1   9
ATOM      9  C   UNL     1     204.861 196.815 224.130  1.00  0.00     0.000 C 
BRANCH   9  10
ATOM     10  C   UNL     1     205.119 196.846 225.646  1.00  0.00     0.000 C 
BRANCH  10  11
ATOM     11  C   UNL     1     206.528 196.356 226.016  1.00  0.00    -0.000 C 
BRANCH  11  12
ATOM     12  C   UNL     1     206.536 194.899 226.511  1.00  0.00    -0.000 C 
BRANCH  12  13
ATOM     13  C   UNL     1     206.947 193.907 225.412  1.00  0.00    -0.003 C 
ATOM     14  C   UNL     1     206.033 192.683 225.344  1.00  0.00     0.004 C 
ENDBRANCH  12  13
ENDBRANCH  11  12
ENDBRANCH  10  11
ENDBRANCH   9  10
ENDBRANCH   1   9
TORSDOF 9
ENDMDL
MODEL 5
REMARK VINA RESULT:    -3.997      1.930      3.076
REMARK INTER + INTRA:          -6.731
REMARK INTER:                  -5.572
REMARK INTRA:                  -1.159
REMARK UNBOUND:                -0.630
REMARK SMILES CCCCCCCCCC=CC(=O)[O-]
REMARK SMILES IDX 7 1 8 2 9 3 10 4 11 5 12 6 13 7 14 8 6 9 5 10 4 11 3 12 2 13
REMARK SMILES IDX 1 14
REMARK H PARENT
REMARK Flexibility Score: inf
ROOT
ATOM      1  C   UNL     1     204.783 196.225 223.802  1.00  0.00     0.000 C 
ENDROOT
BRANCH   1   2
ATOM      2  C   UNL     1     204.435 196.234 225.302  1.00  0.00     0.004 C 
BRANCH   2   3
ATOM      3  C   UNL     1     205.574 196.817 226.154  1.00  0.00     0.027 C 
BRANCH   3   4
ATOM      4  C   UNL     1     206.441 195.746 226.762  1.00  0.00    -0.025 C 
ATOM      5  C   UNL     1     207.697 195.442 226.394  1.00  0.00     0.020 C 
BRANCH   5   6
ATOM      6  C   UNL     1     208.503 196.128 225.364  1.00  0.00     0.064 C 
ATOM      7  O   UNL     1     208.360 195.795 224.158  1.00  0.00    -0.545 OA
ATOM      8  O   UNL     1     209.438 197.104 225.682  1.00  0.00    -0.545 OA
ENDBRANCH   5   6
ENDBRANCH   3   4
ENDBRANCH   2   3
ENDBRANCH   1   2
BRANCH   1   9
ATOM      9  C   UNL     1     204.741 194.815 223.192  1.00  0.00     0.000 C 
BRANCH   9  10
ATOM     10  C   UNL     1     204.451 193.727 224.240  1.00  0.00     0.000 C 
BRANCH  10  11
ATOM     11  C   UNL     1     203.117 193.005 223.988  1.00  0.00    -0.000 C 
BRANCH  11  12
ATOM     12  C   UNL     1     201.908 193.802 224.509  1.00  0.00    -0.000 C 
BRANCH  12  13
ATOM     13  C   UNL     1     200.780 193.905 223.470  1.00  0.00    -0.003 C 
ATOM     14  C   UNL     1     201.274 194.376 222.101  1.00  0.00     0.004 C 
ENDBRANCH  12  13
ENDBRANCH  11  12
ENDBRANCH  10  11
ENDBRANCH   9  10
ENDBRANCH   1   9
TORSDOF 9
ENDMDL
MODEL 6
REMARK VINA RESULT:    -3.975      1.235      1.857
REMARK INTER + INTRA:          -6.698
REMARK INTER:                  -5.471
REMARK INTRA:                  -1.227
REMARK UNBOUND:                -0.630
REMARK SMILES CCCCCCCCCC=CC(=O)[O-]
REMARK SMILES IDX 7 1 8 2 9 3 10 4 11 5 12 6 13 7 14 8 6 9 5 10 4 11 3 12 2 13
REMARK SMILES IDX 1 14
REMARK H PARENT
REMARK Flexibility Score: inf
ROOT
ATOM      1  C   UNL     1     206.708 194.799 226.397  1.00  0.00     0.000 C 
ENDROOT
BRANCH   1   2
ATOM      2  C   UNL     1     207.764 194.100 225.521  1.00  0.00     0.004 C 
BRANCH   2   3
ATOM      3  C   UNL     1     207.878 194.745 224.131  1.00  0.00     0.027 C 
BRANCH   3   4
ATOM      4  C   UNL     1     209.240 194.547 223.518  1.00  0.00    -0.025 C 
ATOM      5  C   UNL     1     210.163 195.502 223.317  1.00  0.00     0.020 C 
BRANCH   5   6
ATOM      6  C   UNL     1     210.057 196.924 223.704  1.00  0.00     0.064 C 
ATOM      7  O   UNL     1     210.042 197.801 222.801  1.00  0.00    -0.545 OA
ATOM      8  O   UNL     1     210.009 197.329 225.032  1.00  0.00    -0.545 OA
ENDBRANCH   5   6
ENDBRANCH   3   4
ENDBRANCH   2   3
ENDBRANCH   1   2
BRANCH   1   9
ATOM      9  C   UNL     1     206.488 196.268 226.002  1.00  0.00     0.000 C 
BRANCH   9  10
ATOM     10  C   UNL     1     205.021 196.572 225.655  1.00  0.00     0.000 C 
BRANCH  10  11
ATOM     11  C   UNL     1     204.795 196.749 224.145  1.00  0.00    -0.000 C 
BRANCH  11  12
ATOM     12  C   UNL     1     203.937 195.623 223.541  1.00  0.00    -0.000 C 
BRANCH  12  13
ATOM     13  C   UNL     1     203.453 194.619 224.599  1.00  0.00    -0.003 C 
ATOM     14  C   UNL     1     204.004 193.210 224.375  1.00  0.00     0.004 C 
ENDBRANCH  12  13
ENDBRANCH  11  12
ENDBRANCH  10  11
ENDBRANCH   9  10
ENDBRANCH   1   9
TORSDOF 9
ENDMDL
MODEL 7
REMARK VINA RESULT:    -3.947      2.630      3.158
REMARK INTER + INTRA:          -6.655
REMARK INTER:                  -5.325
REMARK INTRA:                  -1.329
REMARK UNBOUND:                -0.630
REMARK SMILES CCCCCCCCCC=CC(=O)[O-]
REMARK SMILES IDX 7 1 8 2 9 3 10 4 11 5 12 6 13 7 14 8 6 9 5 10 4 11 3 12 2 13
REMARK SMILES IDX 1 14
REMARK H PARENT
REMARK Flexibility Score: inf
ROOT
ATOM      1  C   UNL     1     204.257 196.057 225.343  1.00  0.00     0.000 C 
ENDROOT
BRANCH   1   2
ATOM      2  C   UNL     1     205.326 196.855 226.112  1.00  0.00     0.004 C 
BRANCH   2   3
ATOM      3  C   UNL     1     206.704 196.177 226.053  1.00  0.00     0.027 C 
BRANCH   3   4
ATOM      4  C   UNL     1     206.660 194.747 226.527  1.00  0.00    -0.025 C 
ATOM      5  C   UNL     1     207.224 193.694 225.913  1.00  0.00     0.020 C 
BRANCH   5   6
ATOM      6  C   UNL     1     208.045 193.726 224.685  1.00  0.00     0.064 C 
ATOM      7  O   UNL     1     209.298 193.667 224.790  1.00  0.00    -0.545 OA
ATOM      8  O   UNL     1     207.485 193.854 223.421  1.00  0.00    -0.545 OA
ENDBRANCH   5   6
ENDBRANCH   3   4
ENDBRANCH   2   3
ENDBRANCH   1   2
BRANCH   1   9
ATOM      9  C   UNL     1     204.446 196.126 223.819  1.00  0.00     0.000 C 
BRANCH   9  10
ATOM     10  C   UNL     1     204.131 194.791 223.123  1.00  0.00     0.000 C 
BRANCH  10  11
ATOM     11  C   UNL     1     203.970 193.631 224.119  1.00  0.00    -0.000 C 
BRANCH  11  12
ATOM     12  C   UNL     1     202.595 192.949 224.013  1.00  0.00    -0.000 C 
BRANCH  12  13
ATOM     13  C   UNL     1     201.443 193.960 223.895  1.00  0.00    -0.003 C 
ATOM     14  C   UNL     1     200.751 194.230 225.231  1.00  0.00     0.004 C 
ENDBRANCH  12  13
ENDBRANCH  11  12
ENDBRANCH  10  11
ENDBRANCH   9  10
ENDBRANCH   1   9
TORSDOF 9
ENDMDL
MODEL 8
REMARK VINA RESULT:    -3.928      3.413      6.392
REMARK INTER + INTRA:          -6.626
REMARK INTER:                  -5.489
REMARK INTRA:                  -1.137
REMARK UNBOUND:                -0.630
REMARK SMILES CCCCCCCCCC=CC(=O)[O-]
REMARK SMILES IDX 7 1 8 2 9 3 10 4 11 5 12 6 13 7 14 8 6 9 5 10 4 11 3 12 2 13
REMARK SMILES IDX 1 14
REMARK H PARENT
REMARK Flexibility Score: inf
ROOT
ATOM      1  C   UNL     1     206.748 194.959 226.543  1.00  0.00     0.000 C 
ENDROOT
BRANCH   1   2
ATOM      2  C   UNL     1     206.590 196.393 226.005  1.00  0.00     0.004 C 
BRANCH   2   3
ATOM      3  C   UNL     1     205.116 196.760 225.770  1.00  0.00     0.027 C 
BRANCH   3   4
ATOM      4  C   UNL     1     204.717 196.631 224.323  1.00  0.00    -0.025 C 
ATOM      5  C   UNL     1     203.979 195.643 223.792  1.00  0.00     0.020 C 
BRANCH   5   6
ATOM      6  C   UNL     1     203.361 194.516 224.521  1.00  0.00     0.064 C 
ATOM      7  O   UNL     1     204.043 193.479 224.730  1.00  0.00    -0.545 OA
ATOM      8  O   UNL     1     202.041 194.548 224.954  1.00  0.00    -0.545 OA
ENDBRANCH   5   6
ENDBRANCH   3   4
ENDBRANCH   2   3
ENDBRANCH   1   2
BRANCH   1   9
ATOM      9  C   UNL     1     207.498 194.038 225.567  1.00  0.00     0.000 C 
BRANCH   9  10
ATOM     10  C   UNL     1     207.732 194.697 224.197  1.00  0.00     0.000 C 
BRANCH  10  11
ATOM     11  C   UNL     1     208.989 194.163 223.492  1.00  0.00    -0.000 C 
BRANCH  11  12
ATOM     12  C   UNL     1     210.150 195.173 223.508  1.00  0.00    -0.000 C 
BRANCH  12  13
ATOM     13  C   UNL     1     209.687 196.595 223.862  1.00  0.00    -0.003 C 
ATOM     14  C   UNL     1     210.272 197.658 222.931  1.00  0.00     0.004 C 
ENDBRANCH  12  13
ENDBRANCH  11  12
ENDBRANCH  10  11
ENDBRANCH   9  10
ENDBRANCH   1   9
TORSDOF 9
ENDMDL
MODEL 9
REMARK VINA RESULT:    -3.901     13.532     15.117
REMARK INTER + INTRA:          -6.584
REMARK INTER:                  -5.520
REMARK INTRA:                  -1.064
REMARK UNBOUND:                -0.630
REMARK SMILES CCCCCCCCCC=CC(=O)[O-]
REMARK SMILES IDX 7 1 8 2 9 3 10 4 11 5 12 6 13 7 14 8 6 9 5 10 4 11 3 12 2 13
REMARK SMILES IDX 1 14
REMARK H PARENT
REMARK Flexibility Score: inf
ROOT
ATOM      1  C   UNL     1     217.632 205.139 222.902  1.00  0.00     0.000 C 
ENDROOT
BRANCH   1   2
ATOM      2  C   UNL     1     218.249 206.539 223.069  1.00  0.00     0.004 C 
BRANCH   2   3
ATOM      3  C   UNL     1     218.674 207.145 221.722  1.00  0.00     0.027 C 
BRANCH   3   4
ATOM      4  C   UNL     1     217.561 207.124 220.707  1.00  0.00    -0.025 C 
ATOM      5  C   UNL     1     217.512 206.358 219.605  1.00  0.00     0.020 C 
BRANCH   5   6
ATOM      6  C   UNL     1     218.504 205.345 219.192  1.00  0.00     0.064 C 
ATOM      7  O   UNL     1     219.607 205.729 218.723  1.00  0.00    -0.545 OA
ATOM      8  O   UNL     1     218.248 203.982 219.270  1.00  0.00    -0.545 OA
ENDBRANCH   5   6
ENDBRANCH   3   4
ENDBRANCH   2   3
ENDBRANCH   1   2
BRANCH   1   9
ATOM      9  C   UNL     1     217.522 204.377 224.233  1.00  0.00     0.000 C 
BRANCH   9  10
ATOM     10  C   UNL     1     217.800 205.274 225.451  1.00  0.00     0.000 C 
BRANCH  10  11
ATOM     11  C   UNL     1     216.581 205.404 226.379  1.00  0.00    -0.000 C 
BRANCH  11  12
ATOM     12  C   UNL     1     215.712 206.630 226.045  1.00  0.00    -0.000 C 
BRANCH  12  13
ATOM     13  C   UNL     1     214.510 206.274 225.156  1.00  0.00    -0.003 C 
ATOM     14  C   UNL     1     214.527 207.004 223.813  1.00  0.00     0.004 C 
ENDBRANCH  12  13
ENDBRANCH  11  12
ENDBRANCH  10  11
ENDBRANCH   9  10
ENDBRANCH   1   9
TORSDOF 9
ENDMDL
