MODEL 1
REMARK VINA RESULT:    -3.803      0.000      0.000
REMARK INTER + INTRA:          -4.511
REMARK INTER:                  -4.470
REMARK INTRA:                  -0.040
REMARK UNBOUND:                -0.040
REMARK SMILES O=C([O-])CCC(=O)[O-]
REMARK SMILES IDX 4 1 2 2 1 3 3 4 5 5 6 6 7 7 8 8
REMARK H PARENT
REMARK Flexibility Score: inf
ROOT
ATOM      1  C   UNL     1      13.669  20.200  -0.378  1.00  0.00     0.059 C 
ENDROOT
BRANCH   1   2
ATOM      2  C   UNL     1      14.933  20.912  -0.752  1.00  0.00     0.042 C 
ATOM      3  O   UNL     1      15.963  20.792  -0.037  1.00  0.00    -0.550 OA
ATOM      4  O   UNL     1      14.960  21.739  -1.867  1.00  0.00    -0.550 OA
ENDBRANCH   1   2
BRANCH   1   5
ATOM      5  C   UNL     1      13.956  18.912   0.402  1.00  0.00     0.059 C 
BRANCH   5   6
ATOM      6  C   UNL     1      12.816  17.945   0.309  1.00  0.00     0.042 C 
ATOM      7  O   UNL     1      11.887  18.136  -0.519  1.00  0.00    -0.550 OA
ATOM      8  O   UNL     1      12.759  16.854   1.168  1.00  0.00    -0.550 OA
ENDBRANCH   5   6
ENDBRANCH   1   5
TORSDOF 3
ENDMDL
MODEL 2
REMARK VINA RESULT:    -3.776      0.143      4.272
REMARK INTER + INTRA:          -4.479
REMARK INTER:                  -4.440
REMARK INTRA:                  -0.038
REMARK UNBOUND:                -0.040
REMARK SMILES O=C([O-])CCC(=O)[O-]
REMARK SMILES IDX 4 1 2 2 1 3 3 4 5 5 6 6 7 7 8 8
REMARK H PARENT
REMARK Flexibility Score: inf
ROOT
ATOM      1  C   UNL     1      14.021  18.962   0.360  1.00  0.00     0.059 C 
ENDROOT
BRANCH   1   2
ATOM      2  C   UNL     1      12.875  17.996   0.357  1.00  0.00     0.042 C 
ATOM      3  O   UNL     1      12.876  17.011   1.141  1.00  0.00    -0.550 OA
ATOM      4  O   UNL     1      11.829  18.163  -0.540  1.00  0.00    -0.550 OA
ENDBRANCH   1   2
BRANCH   1   5
ATOM      5  C   UNL     1      13.680  20.243  -0.408  1.00  0.00     0.059 C 
BRANCH   5   6
ATOM      6  C   UNL     1      14.915  20.955  -0.869  1.00  0.00     0.042 C 
ATOM      7  O   UNL     1      16.008  20.782  -0.269  1.00  0.00    -0.550 OA
ATOM      8  O   UNL     1      14.848  21.841  -1.937  1.00  0.00    -0.550 OA
ENDBRANCH   5   6
ENDBRANCH   1   5
TORSDOF 3
ENDMDL
MODEL 3
REMARK VINA RESULT:    -3.770      0.120      1.622
REMARK INTER + INTRA:          -4.471
REMARK INTER:                  -4.435
REMARK INTRA:                  -0.036
REMARK UNBOUND:                -0.040
REMARK SMILES O=C([O-])CCC(=O)[O-]
REMARK SMILES IDX 4 1 2 2 1 3 3 4 5 5 6 6 7 7 8 8
REMARK H PARENT
REMARK Flexibility Score: inf
ROOT
ATOM      1  C   UNL     1      13.728  20.236  -0.391  1.00  0.00     0.059 C 
ENDROOT
BRANCH   1   2
ATOM      2  C   UNL     1      14.990  20.949  -0.771  1.00  0.00     0.042 C 
ATOM      3  O   UNL     1      15.007  21.717  -1.769  1.00  0.00    -0.550 OA
ATOM      4  O   UNL     1      16.154  20.734  -0.046  1.00  0.00    -0.550 OA
ENDBRANCH   1   2
BRANCH   1   5
ATOM      5  C   UNL     1      14.019  18.946   0.383  1.00  0.00     0.059 C 
BRANCH   5   6
ATOM      6  C   UNL     1      12.858  18.001   0.338  1.00  0.00     0.042 C 
ATOM      7  O   UNL     1      12.811  17.016   1.119  1.00  0.00    -0.550 OA
ATOM      8  O   UNL     1      11.846  18.189  -0.596  1.00  0.00    -0.550 OA
ENDBRANCH   5   6
ENDBRANCH   1   5
TORSDOF 3
ENDMDL
MODEL 4
REMARK VINA RESULT:    -2.905      9.787     11.415
REMARK INTER + INTRA:          -3.454
REMARK INTER:                  -3.415
REMARK INTRA:                  -0.039
REMARK UNBOUND:                -0.040
REMARK SMILES O=C([O-])CCC(=O)[O-]
REMARK SMILES IDX 4 1 2 2 1 3 3 4 5 5 6 6 7 7 8 8
REMARK H PARENT
REMARK Flexibility Score: inf
ROOT
ATOM      1  C   UNL     1      14.225  13.004   8.236  1.00  0.00     0.059 C 
ENDROOT
BRANCH   1   2
ATOM      2  C   UNL     1      15.217  13.584   7.274  1.00  0.00     0.042 C 
ATOM      3  O   UNL     1      15.742  12.856   6.391  1.00  0.00    -0.550 OA
ATOM      4  O   UNL     1      15.590  14.917   7.382  1.00  0.00    -0.550 OA
ENDBRANCH   1   2
BRANCH   1   5
ATOM      5  C   UNL     1      14.493  13.467   9.672  1.00  0.00     0.059 C 
BRANCH   5   6
ATOM      6  C   UNL     1      14.115  12.416  10.670  1.00  0.00     0.042 C 
ATOM      7  O   UNL     1      14.555  11.243  10.554  1.00  0.00    -0.550 OA
ATOM      8  O   UNL     1      13.242  12.725  11.707  1.00  0.00    -0.550 OA
ENDBRANCH   5   6
ENDBRANCH   1   5
TORSDOF 3
ENDMDL
MODEL 5
REMARK VINA RESULT:    -2.862      9.872     11.990
REMARK INTER + INTRA:          -3.404
REMARK INTER:                  -3.367
REMARK INTRA:                  -0.037
REMARK UNBOUND:                -0.040
REMARK SMILES O=C([O-])CCC(=O)[O-]
REMARK SMILES IDX 4 1 2 2 1 3 3 4 5 5 6 6 7 7 8 8
REMARK H PARENT
REMARK Flexibility Score: inf
ROOT
ATOM      1  C   UNL     1      14.011  12.592   9.190  1.00  0.00     0.059 C 
ENDROOT
BRANCH   1   2
ATOM      2  C   UNL     1      14.083  12.072  10.593  1.00  0.00     0.042 C 
ATOM      3  O   UNL     1      14.822  11.090  10.868  1.00  0.00    -0.550 OA
ATOM      4  O   UNL     1      13.302  12.647  11.587  1.00  0.00    -0.550 OA
ENDBRANCH   1   2
BRANCH   1   5
ATOM      5  C   UNL     1      14.979  13.758   8.970  1.00  0.00     0.059 C 
BRANCH   5   6
ATOM      6  C   UNL     1      15.320  13.927   7.521  1.00  0.00     0.042 C 
ATOM      7  O   UNL     1      15.014  13.034   6.689  1.00  0.00    -0.550 OA
ATOM      8  O   UNL     1      16.012  15.055   7.097  1.00  0.00    -0.550 OA
ENDBRANCH   5   6
ENDBRANCH   1   5
TORSDOF 3
ENDMDL
MODEL 6
REMARK VINA RESULT:    -2.678     10.519     12.251
REMARK INTER + INTRA:          -3.188
REMARK INTER:                  -3.070
REMARK INTRA:                  -0.118
REMARK UNBOUND:                -0.040
REMARK SMILES O=C([O-])CCC(=O)[O-]
REMARK SMILES IDX 4 1 2 2 1 3 3 4 5 5 6 6 7 7 8 8
REMARK H PARENT
REMARK Flexibility Score: inf
ROOT
ATOM      1  C   UNL     1      14.778  13.730   9.372  1.00  0.00     0.059 C 
ENDROOT
BRANCH   1   2
ATOM      2  C   UNL     1      14.416  13.098   8.062  1.00  0.00     0.042 C 
ATOM      3  O   UNL     1      13.369  12.405   7.961  1.00  0.00    -0.550 OA
ATOM      4  O   UNL     1      15.257  13.242   6.967  1.00  0.00    -0.550 OA
ENDBRANCH   1   2
BRANCH   1   5
ATOM      5  C   UNL     1      15.508  12.745  10.291  1.00  0.00     0.059 C 
BRANCH   5   6
ATOM      6  C   UNL     1      14.604  12.212  11.360  1.00  0.00     0.042 C 
ATOM      7  O   UNL     1      13.391  12.549  11.390  1.00  0.00    -0.550 OA
ATOM      8  O   UNL     1      15.112  11.376  12.346  1.00  0.00    -0.550 OA
ENDBRANCH   5   6
ENDBRANCH   1   5
TORSDOF 3
ENDMDL
MODEL 7
REMARK VINA RESULT:    -2.617      9.380     10.727
REMARK INTER + INTRA:          -3.117
REMARK INTER:                  -3.016
REMARK INTRA:                  -0.100
REMARK UNBOUND:                -0.040
REMARK SMILES O=C([O-])CCC(=O)[O-]
REMARK SMILES IDX 4 1 2 2 1 3 3 4 5 5 6 6 7 7 8 8
REMARK H PARENT
REMARK Flexibility Score: inf
ROOT
ATOM      1  C   UNL     1      16.287  13.734   8.817  1.00  0.00     0.059 C 
ENDROOT
BRANCH   1   2
ATOM      2  C   UNL     1      16.259  14.099   7.364  1.00  0.00     0.042 C 
ATOM      3  O   UNL     1      16.145  15.303   7.015  1.00  0.00    -0.550 OA
ATOM      4  O   UNL     1      16.318  13.104   6.398  1.00  0.00    -0.550 OA
ENDBRANCH   1   2
BRANCH   1   5
ATOM      5  C   UNL     1      14.903  13.870   9.460  1.00  0.00     0.059 C 
BRANCH   5   6
ATOM      6  C   UNL     1      14.097  12.617   9.301  1.00  0.00     0.042 C 
ATOM      7  O   UNL     1      14.048  11.772  10.232  1.00  0.00    -0.550 OA
ATOM      8  O   UNL     1      13.431  12.366   8.107  1.00  0.00    -0.550 OA
ENDBRANCH   5   6
ENDBRANCH   1   5
TORSDOF 3
ENDMDL
MODEL 8
REMARK VINA RESULT:    -2.606     11.136     13.101
REMARK INTER + INTRA:          -3.103
REMARK INTER:                  -3.036
REMARK INTRA:                  -0.067
REMARK UNBOUND:                -0.040
REMARK SMILES O=C([O-])CCC(=O)[O-]
REMARK SMILES IDX 4 1 2 2 1 3 3 4 5 5 6 6 7 7 8 8
REMARK H PARENT
REMARK Flexibility Score: inf
ROOT
ATOM      1  C   UNL     1      13.898  12.055  10.992  1.00  0.00     0.059 C 
ENDROOT
BRANCH   1   2
ATOM      2  C   UNL     1      13.702  12.758  12.300  1.00  0.00     0.042 C 
ATOM      3  O   UNL     1      12.578  12.738  12.868  1.00  0.00    -0.550 OA
ATOM      4  O   UNL     1      14.750  13.469  12.870  1.00  0.00    -0.550 OA
ENDBRANCH   1   2
BRANCH   1   5
ATOM      5  C   UNL     1      15.071  12.646  10.203  1.00  0.00     0.059 C 
BRANCH   5   6
ATOM      6  C   UNL     1      14.600  13.414   9.006  1.00  0.00     0.042 C 
ATOM      7  O   UNL     1      15.050  14.566   8.774  1.00  0.00    -0.550 OA
ATOM      8  O   UNL     1      13.632  12.871   8.169  1.00  0.00    -0.550 OA
ENDBRANCH   5   6
ENDBRANCH   1   5
TORSDOF 3
ENDMDL
MODEL 9
REMARK VINA RESULT:    -2.563      9.141     11.198
REMARK INTER + INTRA:          -3.052
REMARK INTER:                  -2.971
REMARK INTRA:                  -0.082
REMARK UNBOUND:                -0.040
REMARK SMILES O=C([O-])CCC(=O)[O-]
REMARK SMILES IDX 4 1 2 2 1 3 3 4 5 5 6 6 7 7 8 8
REMARK H PARENT
REMARK Flexibility Score: inf
ROOT
ATOM      1  C   UNL     1      15.196  13.849   9.628  1.00  0.00     0.059 C 
ENDROOT
BRANCH   1   2
ATOM      2  C   UNL     1      14.203  12.780   9.291  1.00  0.00     0.042 C 
ATOM      3  O   UNL     1      13.673  12.744   8.150  1.00  0.00    -0.550 OA
ATOM      4  O   UNL     1      13.833  11.849  10.253  1.00  0.00    -0.550 OA
ENDBRANCH   1   2
BRANCH   1   5
ATOM      5  C   UNL     1      16.059  14.219   8.417  1.00  0.00     0.059 C 
BRANCH   5   6
ATOM      6  C   UNL     1      15.870  15.652   8.021  1.00  0.00     0.042 C 
ATOM      7  O   UNL     1      16.326  16.073   6.927  1.00  0.00    -0.550 OA
ATOM      8  O   UNL     1      15.225  16.531   8.883  1.00  0.00    -0.550 OA
ENDBRANCH   5   6
ENDBRANCH   1   5
TORSDOF 3
ENDMDL
