MODEL 1
REMARK VINA RESULT:    -2.925      0.000      0.000
REMARK INTER + INTRA:          -3.704
REMARK INTER:                  -3.609
REMARK INTRA:                  -0.095
REMARK UNBOUND:                -0.095
REMARK SMILES CCCCCC(=O)[O-]
REMARK SMILES IDX 4 1 5 2 6 3 7 4 8 5 3 6 2 7 1 8
REMARK H PARENT
REMARK Flexibility Score: inf
ROOT
ATOM      1  C   UNL     1      54.085  18.318  85.701  1.00  0.00     0.006 C 
ENDROOT
BRANCH   1   2
ATOM      2  C   UNL     1      52.812  18.508  84.870  1.00  0.00     0.053 C 
BRANCH   2   3
ATOM      3  C   UNL     1      51.652  18.837  85.756  1.00  0.00     0.041 C 
ATOM      4  O   UNL     1      51.785  19.667  86.692  1.00  0.00    -0.550 OA
ATOM      5  O   UNL     1      50.409  18.264  85.515  1.00  0.00    -0.550 OA
ENDBRANCH   2   3
ENDBRANCH   1   2
BRANCH   1   6
ATOM      6  C   UNL     1      55.330  18.302  84.802  1.00  0.00     0.000 C 
BRANCH   6   7
ATOM      7  C   UNL     1      56.125  16.993  84.917  1.00  0.00    -0.003 C 
ATOM      8  C   UNL     1      55.900  16.279  86.250  1.00  0.00     0.004 C 
ENDBRANCH   6   7
ENDBRANCH   1   6
TORSDOF 4
ENDMDL
MODEL 2
REMARK VINA RESULT:    -2.836      0.487      1.162
REMARK INTER + INTRA:          -3.595
REMARK INTER:                  -3.528
REMARK INTRA:                  -0.066
REMARK UNBOUND:                -0.095
REMARK SMILES CCCCCC(=O)[O-]
REMARK SMILES IDX 4 1 5 2 6 3 7 4 8 5 3 6 2 7 1 8
REMARK H PARENT
REMARK Flexibility Score: inf
ROOT
ATOM      1  C   UNL     1      53.917  18.233  85.396  1.00  0.00     0.006 C 
ENDROOT
BRANCH   1   2
ATOM      2  C   UNL     1      52.899  19.248  84.866  1.00  0.00     0.053 C 
BRANCH   2   3
ATOM      3  C   UNL     1      51.600  19.117  85.595  1.00  0.00     0.041 C 
ATOM      4  O   UNL     1      50.897  18.083  85.455  1.00  0.00    -0.550 OA
ATOM      5  O   UNL     1      51.189  20.117  86.468  1.00  0.00    -0.550 OA
ENDBRANCH   2   3
ENDBRANCH   1   2
BRANCH   1   6
ATOM      6  C   UNL     1      55.294  18.445  84.749  1.00  0.00     0.000 C 
BRANCH   6   7
ATOM      7  C   UNL     1      56.116  17.151  84.670  1.00  0.00    -0.003 C 
ATOM      8  C   UNL     1      56.077  16.345  85.968  1.00  0.00     0.004 C 
ENDBRANCH   6   7
ENDBRANCH   1   6
TORSDOF 4
ENDMDL
MODEL 3
REMARK VINA RESULT:    -2.796      1.004      1.196
REMARK INTER + INTRA:          -3.545
REMARK INTER:                  -3.331
REMARK INTRA:                  -0.214
REMARK UNBOUND:                -0.095
REMARK SMILES CCCCCC(=O)[O-]
REMARK SMILES IDX 4 1 5 2 6 3 7 4 8 5 3 6 2 7 1 8
REMARK H PARENT
REMARK Flexibility Score: inf
ROOT
ATOM      1  C   UNL     1      55.099  18.600  85.190  1.00  0.00     0.006 C 
ENDROOT
BRANCH   1   2
ATOM      2  C   UNL     1      53.632  18.500  84.761  1.00  0.00     0.053 C 
BRANCH   2   3
ATOM      3  C   UNL     1      52.727  18.698  85.935  1.00  0.00     0.041 C 
ATOM      4  O   UNL     1      53.209  18.851  87.087  1.00  0.00    -0.550 OA
ATOM      5  O   UNL     1      51.351  18.764  85.750  1.00  0.00    -0.550 OA
ENDBRANCH   2   3
ENDBRANCH   1   2
BRANCH   1   6
ATOM      6  C   UNL     1      55.883  17.351  84.761  1.00  0.00     0.000 C 
BRANCH   6   7
ATOM      7  C   UNL     1      55.981  16.302  85.879  1.00  0.00    -0.003 C 
ATOM      8  C   UNL     1      56.125  16.927  87.266  1.00  0.00     0.004 C 
ENDBRANCH   6   7
ENDBRANCH   1   6
TORSDOF 4
ENDMDL
MODEL 4
REMARK VINA RESULT:    -2.751     14.509     15.986
REMARK INTER + INTRA:          -3.489
REMARK INTER:                  -3.276
REMARK INTRA:                  -0.213
REMARK UNBOUND:                -0.095
REMARK SMILES CCCCCC(=O)[O-]
REMARK SMILES IDX 4 1 5 2 6 3 7 4 8 5 3 6 2 7 1 8
REMARK H PARENT
REMARK Flexibility Score: inf
ROOT
ATOM      1  C   UNL     1      38.815  21.560  80.456  1.00  0.00     0.006 C 
ENDROOT
BRANCH   1   2
ATOM      2  C   UNL     1      37.481  20.844  80.222  1.00  0.00     0.053 C 
BRANCH   2   3
ATOM      3  C   UNL     1      37.445  19.546  80.965  1.00  0.00     0.041 C 
ATOM      4  O   UNL     1      37.342  19.537  82.219  1.00  0.00    -0.550 OA
ATOM      5  O   UNL     1      37.473  18.345  80.267  1.00  0.00    -0.550 OA
ENDBRANCH   2   3
ENDBRANCH   1   2
BRANCH   1   6
ATOM      6  C   UNL     1      39.583  21.734  79.138  1.00  0.00     0.000 C 
BRANCH   6   7
ATOM      7  C   UNL     1      40.358  20.471  78.735  1.00  0.00    -0.003 C 
ATOM      8  C   UNL     1      41.114  19.842  79.904  1.00  0.00     0.004 C 
ENDBRANCH   6   7
ENDBRANCH   1   6
TORSDOF 4
ENDMDL
MODEL 5
REMARK VINA RESULT:    -2.727     15.332     16.524
REMARK INTER + INTRA:          -3.459
REMARK INTER:                  -3.372
REMARK INTRA:                  -0.087
REMARK UNBOUND:                -0.095
REMARK SMILES CCCCCC(=O)[O-]
REMARK SMILES IDX 4 1 5 2 6 3 7 4 8 5 3 6 2 7 1 8
REMARK H PARENT
REMARK Flexibility Score: inf
ROOT
ATOM      1  C   UNL     1      45.629  31.331  91.478  1.00  0.00     0.006 C 
ENDROOT
BRANCH   1   2
ATOM      2  C   UNL     1      44.172  30.871  91.589  1.00  0.00     0.053 C 
BRANCH   2   3
ATOM      3  C   UNL     1      43.782  30.706  93.024  1.00  0.00     0.041 C 
ATOM      4  O   UNL     1      43.779  31.699  93.797  1.00  0.00    -0.550 OA
ATOM      5  O   UNL     1      43.373  29.464  93.495  1.00  0.00    -0.550 OA
ENDBRANCH   2   3
ENDBRANCH   1   2
BRANCH   1   6
ATOM      6  C   UNL     1      46.019  31.571  90.012  1.00  0.00     0.000 C 
BRANCH   6   7
ATOM      7  C   UNL     1      47.514  31.334  89.751  1.00  0.00    -0.003 C 
ATOM      8  C   UNL     1      48.244  30.765  90.967  1.00  0.00     0.004 C 
ENDBRANCH   6   7
ENDBRANCH   1   6
TORSDOF 4
ENDMDL
MODEL 6
REMARK VINA RESULT:    -2.708      2.843      4.569
REMARK INTER + INTRA:          -3.436
REMARK INTER:                  -3.347
REMARK INTRA:                  -0.089
REMARK UNBOUND:                -0.095
REMARK SMILES CCCCCC(=O)[O-]
REMARK SMILES IDX 4 1 5 2 6 3 7 4 8 5 3 6 2 7 1 8
REMARK H PARENT
REMARK Flexibility Score: inf
ROOT
ATOM      1  C   UNL     1      53.855  18.894  85.673  1.00  0.00     0.006 C 
ENDROOT
BRANCH   1   2
ATOM      2  C   UNL     1      54.445  17.763  86.520  1.00  0.00     0.053 C 
BRANCH   2   3
ATOM      3  C   UNL     1      55.490  17.020  85.750  1.00  0.00     0.041 C 
ATOM      4  O   UNL     1      55.836  17.417  84.607  1.00  0.00    -0.550 OA
ATOM      5  O   UNL     1      56.120  15.919  86.316  1.00  0.00    -0.550 OA
ENDBRANCH   2   3
ENDBRANCH   1   2
BRANCH   1   6
ATOM      6  C   UNL     1      52.467  18.513  85.137  1.00  0.00     0.000 C 
BRANCH   6   7
ATOM      7  C   UNL     1      51.328  19.209  85.897  1.00  0.00    -0.003 C 
ATOM      8  C   UNL     1      49.966  18.565  85.642  1.00  0.00     0.004 C 
ENDBRANCH   6   7
ENDBRANCH   1   6
TORSDOF 4
ENDMDL
MODEL 7
REMARK VINA RESULT:    -2.701     14.857     15.799
REMARK INTER + INTRA:          -3.427
REMARK INTER:                  -3.320
REMARK INTRA:                  -0.107
REMARK UNBOUND:                -0.095
REMARK SMILES CCCCCC(=O)[O-]
REMARK SMILES IDX 4 1 5 2 6 3 7 4 8 5 3 6 2 7 1 8
REMARK H PARENT
REMARK Flexibility Score: inf
ROOT
ATOM      1  C   UNL     1      40.174  19.584  79.879  1.00  0.00     0.006 C 
ENDROOT
BRANCH   1   2
ATOM      2  C   UNL     1      38.843  20.266  80.213  1.00  0.00     0.053 C 
BRANCH   2   3
ATOM      3  C   UNL     1      37.873  19.275  80.775  1.00  0.00     0.041 C 
ATOM      4  O   UNL     1      37.605  18.222  80.141  1.00  0.00    -0.550 OA
ATOM      5  O   UNL     1      37.303  19.491  82.023  1.00  0.00    -0.550 OA
ENDBRANCH   2   3
ENDBRANCH   1   2
BRANCH   1   6
ATOM      6  C   UNL     1      41.104  20.540  79.117  1.00  0.00     0.000 C 
BRANCH   6   7
ATOM      7  C   UNL     1      40.336  21.539  78.240  1.00  0.00    -0.003 C 
ATOM      8  C   UNL     1      40.713  21.443  76.763  1.00  0.00     0.004 C 
ENDBRANCH   6   7
ENDBRANCH   1   6
TORSDOF 4
ENDMDL
MODEL 8
REMARK VINA RESULT:    -2.667     15.000     16.549
REMARK INTER + INTRA:          -3.386
REMARK INTER:                  -3.212
REMARK INTRA:                  -0.175
REMARK UNBOUND:                -0.095
REMARK SMILES CCCCCC(=O)[O-]
REMARK SMILES IDX 4 1 5 2 6 3 7 4 8 5 3 6 2 7 1 8
REMARK H PARENT
REMARK Flexibility Score: inf
ROOT
ATOM      1  C   UNL     1      44.703  31.110  91.023  1.00  0.00     0.006 C 
ENDROOT
BRANCH   1   2
ATOM      2  C   UNL     1      46.087  31.487  90.483  1.00  0.00     0.053 C 
BRANCH   2   3
ATOM      3  C   UNL     1      47.132  30.570  91.033  1.00  0.00     0.041 C 
ATOM      4  O   UNL     1      48.310  30.981  91.202  1.00  0.00    -0.550 OA
ATOM      5  O   UNL     1      46.794  29.275  91.406  1.00  0.00    -0.550 OA
ENDBRANCH   2   3
ENDBRANCH   1   2
BRANCH   1   6
ATOM      6  C   UNL     1      44.499  31.660  92.443  1.00  0.00     0.000 C 
BRANCH   6   7
ATOM      7  C   UNL     1      43.818  30.648  93.375  1.00  0.00    -0.003 C 
ATOM      8  C   UNL     1      42.951  29.639  92.623  1.00  0.00     0.004 C 
ENDBRANCH   6   7
ENDBRANCH   1   6
TORSDOF 4
ENDMDL
MODEL 9
REMARK VINA RESULT:    -2.657     13.286     15.095
REMARK INTER + INTRA:          -3.374
REMARK INTER:                  -3.226
REMARK INTRA:                  -0.148
REMARK UNBOUND:                -0.095
REMARK SMILES CCCCCC(=O)[O-]
REMARK SMILES IDX 4 1 5 2 6 3 7 4 8 5 3 6 2 7 1 8
REMARK H PARENT
REMARK Flexibility Score: inf
ROOT
ATOM      1  C   UNL     1      39.568  21.149  79.702  1.00  0.00     0.006 C 
ENDROOT
BRANCH   1   2
ATOM      2  C   UNL     1      40.586  20.263  78.976  1.00  0.00     0.053 C 
BRANCH   2   3
ATOM      3  C   UNL     1      41.945  20.422  79.581  1.00  0.00     0.041 C 
ATOM      4  O   UNL     1      42.964  20.015  78.965  1.00  0.00    -0.550 OA
ATOM      5  O   UNL     1      42.091  21.066  80.804  1.00  0.00    -0.550 OA
ENDBRANCH   2   3
ENDBRANCH   1   2
BRANCH   1   6
ATOM      6  C   UNL     1      38.403  20.311  80.249  1.00  0.00     0.000 C 
BRANCH   6   7
ATOM      7  C   UNL     1      38.780  18.837  80.456  1.00  0.00    -0.003 C 
ATOM      8  C   UNL     1      37.653  17.878  80.074  1.00  0.00     0.004 C 
ENDBRANCH   6   7
ENDBRANCH   1   6
TORSDOF 4
ENDMDL
