MODEL 1
REMARK VINA RESULT:    -4.201      0.000      0.000
REMARK INTER + INTRA:          -8.772
REMARK INTER:                  -7.147
REMARK INTRA:                  -1.625
REMARK UNBOUND:                -1.625
REMARK SMILES CCCCCCCCCCCCCC(=O)[O-]
REMARK SMILES IDX 8 1 9 2 10 3 11 4 12 5 13 6 14 7 15 8 16 9 7 10 6 11 5 12
REMARK SMILES IDX 4 13 3 14 2 15 1 16
REMARK H PARENT
REMARK Flexibility Score: inf
ROOT
ATOM      1  C   UNL     1     -10.576   2.929  19.481  1.00  0.00     0.000 C 
ENDROOT
BRANCH   1   2
ATOM      2  C   UNL     1     -11.041   3.866  18.355  1.00  0.00     0.000 C 
BRANCH   2   3
ATOM      3  C   UNL     1     -12.445   3.514  17.836  1.00  0.00     0.000 C 
BRANCH   3   4
ATOM      4  C   UNL     1     -12.436   2.992  16.389  1.00  0.00     0.000 C 
BRANCH   4   5
ATOM      5  C   UNL     1     -11.823   1.589  16.200  1.00  0.00     0.006 C 
BRANCH   5   6
ATOM      6  C   UNL     1     -10.458   1.577  15.494  1.00  0.00     0.053 C 
BRANCH   6   7
ATOM      7  C   UNL     1     -10.459   0.691  14.286  1.00  0.00     0.041 C 
ATOM      8  O   UNL     1     -11.545   0.250  13.825  1.00  0.00    -0.550 OA
ATOM      9  O   UNL     1      -9.260   0.327  13.688  1.00  0.00    -0.550 OA
ENDBRANCH   6   7
ENDBRANCH   5   6
ENDBRANCH   4   5
ENDBRANCH   3   4
ENDBRANCH   2   3
ENDBRANCH   1   2
BRANCH   1  10
ATOM     10  C   UNL     1      -9.150   2.393  19.258  1.00  0.00     0.000 C 
BRANCH  10  11
ATOM     11  C   UNL     1      -9.111   0.861  19.129  1.00  0.00    -0.000 C 
BRANCH  11  12
ATOM     12  C   UNL     1     -10.494   0.217  19.327  1.00  0.00    -0.000 C 
BRANCH  12  13
ATOM     13  C   UNL     1     -10.503  -0.825  20.456  1.00  0.00    -0.000 C 
BRANCH  13  14
ATOM     14  C   UNL     1      -9.180  -0.853  21.242  1.00  0.00    -0.000 C 
BRANCH  14  15
ATOM     15  C   UNL     1      -9.366  -0.482  22.722  1.00  0.00    -0.003 C 
ATOM     16  C   UNL     1      -9.732   0.989  22.919  1.00  0.00     0.004 C 
ENDBRANCH  14  15
ENDBRANCH  13  14
ENDBRANCH  12  13
ENDBRANCH  11  12
ENDBRANCH  10  11
ENDBRANCH   1  10
TORSDOF 12
ENDMDL
MODEL 2
REMARK VINA RESULT:    -4.113      2.392      3.048
REMARK INTER + INTRA:          -8.623
REMARK INTER:                  -7.040
REMARK INTRA:                  -1.583
REMARK UNBOUND:                -1.625
REMARK SMILES CCCCCCCCCCCCCC(=O)[O-]
REMARK SMILES IDX 8 1 9 2 10 3 11 4 12 5 13 6 14 7 15 8 16 9 7 10 6 11 5 12
REMARK SMILES IDX 4 13 3 14 2 15 1 16
REMARK H PARENT
REMARK Flexibility Score: inf
ROOT
ATOM      1  C   UNL     1      -9.755   2.664  19.878  1.00  0.00     0.000 C 
ENDROOT
BRANCH   1   2
ATOM      2  C   UNL     1      -8.872   2.052  18.778  1.00  0.00     0.000 C 
BRANCH   2   3
ATOM      3  C   UNL     1      -8.935   2.844  17.462  1.00  0.00     0.000 C 
BRANCH   3   4
ATOM      4  C   UNL     1      -9.613   2.062  16.323  1.00  0.00     0.000 C 
BRANCH   4   5
ATOM      5  C   UNL     1     -10.759   2.806  15.607  1.00  0.00     0.006 C 
BRANCH   5   6
ATOM      6  C   UNL     1     -12.126   2.694  16.301  1.00  0.00     0.053 C 
BRANCH   6   7
ATOM      7  C   UNL     1     -12.506   3.964  16.998  1.00  0.00     0.041 C 
ATOM      8  O   UNL     1     -13.339   3.944  17.943  1.00  0.00    -0.550 OA
ATOM      9  O   UNL     1     -11.966   5.175  16.584  1.00  0.00    -0.550 OA
ENDBRANCH   6   7
ENDBRANCH   5   6
ENDBRANCH   4   5
ENDBRANCH   3   4
ENDBRANCH   2   3
ENDBRANCH   1   2
BRANCH   1  10
ATOM     10  C   UNL     1     -11.132   1.984  19.982  1.00  0.00     0.000 C 
BRANCH  10  11
ATOM     11  C   UNL     1     -11.170   0.621  19.271  1.00  0.00    -0.000 C 
BRANCH  11  12
ATOM     12  C   UNL     1     -11.176  -0.559  20.259  1.00  0.00    -0.000 C 
BRANCH  12  13
ATOM     13  C   UNL     1      -9.843  -1.323  20.274  1.00  0.00    -0.000 C 
BRANCH  13  14
ATOM     14  C   UNL     1      -9.018  -1.044  21.543  1.00  0.00    -0.000 C 
BRANCH  14  15
ATOM     15  C   UNL     1      -9.746  -0.113  22.526  1.00  0.00    -0.003 C 
ATOM     16  C   UNL     1      -9.225  -0.244  23.957  1.00  0.00     0.004 C 
ENDBRANCH  14  15
ENDBRANCH  13  14
ENDBRANCH  12  13
ENDBRANCH  11  12
ENDBRANCH  10  11
ENDBRANCH   1  10
TORSDOF 12
ENDMDL
MODEL 3
REMARK VINA RESULT:    -4.107      1.478      1.886
REMARK INTER + INTRA:          -8.613
REMARK INTER:                  -7.505
REMARK INTRA:                  -1.108
REMARK UNBOUND:                -1.625
REMARK SMILES CCCCCCCCCCCCCC(=O)[O-]
REMARK SMILES IDX 8 1 9 2 10 3 11 4 12 5 13 6 14 7 15 8 16 9 7 10 6 11 5 12
REMARK SMILES IDX 4 13 3 14 2 15 1 16
REMARK H PARENT
REMARK Flexibility Score: inf
ROOT
ATOM      1  C   UNL     1     -11.392   3.128  18.892  1.00  0.00     0.000 C 
ENDROOT
BRANCH   1   2
ATOM      2  C   UNL     1     -11.265   2.730  17.413  1.00  0.00     0.000 C 
BRANCH   2   3
ATOM      3  C   UNL     1      -9.981   3.274  16.764  1.00  0.00     0.000 C 
BRANCH   3   4
ATOM      4  C   UNL     1      -9.562   2.486  15.510  1.00  0.00     0.000 C 
BRANCH   4   5
ATOM      5  C   UNL     1      -9.924   0.987  15.525  1.00  0.00     0.006 C 
BRANCH   5   6
ATOM      6  C   UNL     1     -10.470   0.447  14.193  1.00  0.00     0.053 C 
BRANCH   6   7
ATOM      7  C   UNL     1     -11.959   0.287  14.222  1.00  0.00     0.041 C 
ATOM      8  O   UNL     1     -12.605   0.551  15.270  1.00  0.00    -0.550 OA
ATOM      9  O   UNL     1     -12.631  -0.185  13.101  1.00  0.00    -0.550 OA
ENDBRANCH   6   7
ENDBRANCH   5   6
ENDBRANCH   4   5
ENDBRANCH   3   4
ENDBRANCH   2   3
ENDBRANCH   1   2
BRANCH   1  10
ATOM     10  C   UNL     1     -11.389   1.913  19.837  1.00  0.00     0.000 C 
BRANCH  10  11
ATOM     11  C   UNL     1     -11.021   0.607  19.114  1.00  0.00    -0.000 C 
BRANCH  11  12
ATOM     12  C   UNL     1     -11.338  -0.642  19.956  1.00  0.00    -0.000 C 
BRANCH  12  13
ATOM     13  C   UNL     1     -10.093  -1.502  20.225  1.00  0.00    -0.000 C 
BRANCH  13  14
ATOM     14  C   UNL     1      -9.024  -0.753  21.039  1.00  0.00    -0.000 C 
BRANCH  14  15
ATOM     15  C   UNL     1      -9.409  -0.601  22.519  1.00  0.00    -0.003 C 
ATOM     16  C   UNL     1      -9.619   0.856  22.928  1.00  0.00     0.004 C 
ENDBRANCH  14  15
ENDBRANCH  13  14
ENDBRANCH  12  13
ENDBRANCH  11  12
ENDBRANCH  10  11
ENDBRANCH   1  10
TORSDOF 12
ENDMDL
MODEL 4
REMARK VINA RESULT:    -4.082      3.339      6.105
REMARK INTER + INTRA:          -8.571
REMARK INTER:                  -6.944
REMARK INTRA:                  -1.627
REMARK UNBOUND:                -1.625
REMARK SMILES CCCCCCCCCCCCCC(=O)[O-]
REMARK SMILES IDX 8 1 9 2 10 3 11 4 12 5 13 6 14 7 15 8 16 9 7 10 6 11 5 12
REMARK SMILES IDX 4 13 3 14 2 15 1 16
REMARK H PARENT
REMARK Flexibility Score: inf
ROOT
ATOM      1  C   UNL     1     -11.453   3.375  19.535  1.00  0.00     0.000 C 
ENDROOT
BRANCH   1   2
ATOM      2  C   UNL     1      -9.938   3.148  19.663  1.00  0.00     0.000 C 
BRANCH   2   3
ATOM      3  C   UNL     1      -9.529   1.702  19.336  1.00  0.00     0.000 C 
BRANCH   3   4
ATOM      4  C   UNL     1     -10.732   0.750  19.217  1.00  0.00     0.000 C 
BRANCH   4   5
ATOM      5  C   UNL     1     -10.606  -0.570  20.005  1.00  0.00     0.006 C 
BRANCH   5   6
ATOM      6  C   UNL     1      -9.259  -0.762  20.720  1.00  0.00     0.053 C 
BRANCH   6   7
ATOM      7  C   UNL     1      -9.353  -0.457  22.183  1.00  0.00     0.041 C 
ATOM      8  O   UNL     1      -8.520  -0.952  22.988  1.00  0.00    -0.550 OA
ATOM      9  O   UNL     1     -10.378   0.347  22.663  1.00  0.00    -0.550 OA
ENDBRANCH   6   7
ENDBRANCH   5   6
ENDBRANCH   4   5
ENDBRANCH   3   4
ENDBRANCH   2   3
ENDBRANCH   1   2
BRANCH   1  10
ATOM     10  C   UNL     1     -11.818   4.308  18.367  1.00  0.00     0.000 C 
BRANCH  10  11
ATOM     11  C   UNL     1     -12.813   3.664  17.388  1.00  0.00    -0.000 C 
BRANCH  11  12
ATOM     12  C   UNL     1     -12.123   2.737  16.371  1.00  0.00    -0.000 C 
BRANCH  12  13
ATOM     13  C   UNL     1     -10.862   3.368  15.761  1.00  0.00    -0.000 C 
BRANCH  13  14
ATOM     14  C   UNL     1      -9.631   2.451  15.876  1.00  0.00    -0.000 C 
BRANCH  14  15
ATOM     15  C   UNL     1      -9.957   0.984  15.557  1.00  0.00    -0.003 C 
ATOM     16  C   UNL     1      -9.845   0.666  14.066  1.00  0.00     0.004 C 
ENDBRANCH  14  15
ENDBRANCH  13  14
ENDBRANCH  12  13
ENDBRANCH  11  12
ENDBRANCH  10  11
ENDBRANCH   1  10
TORSDOF 12
ENDMDL
MODEL 5
REMARK VINA RESULT:    -4.061      1.548      2.544
REMARK INTER + INTRA:          -8.535
REMARK INTER:                  -6.339
REMARK INTRA:                  -2.196
REMARK UNBOUND:                -1.625
REMARK SMILES CCCCCCCCCCCCCC(=O)[O-]
REMARK SMILES IDX 8 1 9 2 10 3 11 4 12 5 13 6 14 7 15 8 16 9 7 10 6 11 5 12
REMARK SMILES IDX 4 13 3 14 2 15 1 16
REMARK H PARENT
REMARK Flexibility Score: inf
ROOT
ATOM      1  C   UNL     1     -11.599   4.883  18.595  1.00  0.00     0.000 C 
ENDROOT
BRANCH   1   2
ATOM      2  C   UNL     1     -12.497   3.685  18.247  1.00  0.00     0.000 C 
BRANCH   2   3
ATOM      3  C   UNL     1     -12.505   3.372  16.741  1.00  0.00     0.000 C 
BRANCH   3   4
ATOM      4  C   UNL     1     -11.209   3.802  16.032  1.00  0.00     0.000 C 
BRANCH   4   5
ATOM      5  C   UNL     1     -10.279   2.648  15.606  1.00  0.00     0.006 C 
BRANCH   5   6
ATOM      6  C   UNL     1     -10.942   1.262  15.597  1.00  0.00     0.053 C 
BRANCH   6   7
ATOM      7  C   UNL     1     -10.743   0.553  14.293  1.00  0.00     0.041 C 
ATOM      8  O   UNL     1      -9.603   0.520  13.757  1.00  0.00    -0.550 OA
ATOM      9  O   UNL     1     -11.821  -0.044  13.652  1.00  0.00    -0.550 OA
ENDBRANCH   6   7
ENDBRANCH   5   6
ENDBRANCH   4   5
ENDBRANCH   3   4
ENDBRANCH   2   3
ENDBRANCH   1   2
BRANCH   1  10
ATOM     10  C   UNL     1     -10.491   4.523  19.601  1.00  0.00     0.000 C 
BRANCH  10  11
ATOM     11  C   UNL     1      -9.087   4.590  18.979  1.00  0.00    -0.000 C 
BRANCH  11  12
ATOM     12  C   UNL     1      -8.468   3.196  18.770  1.00  0.00    -0.000 C 
BRANCH  12  13
ATOM     13  C   UNL     1      -9.095   2.131  19.681  1.00  0.00    -0.000 C 
BRANCH  13  14
ATOM     14  C   UNL     1      -9.573   0.893  18.900  1.00  0.00    -0.000 C 
BRANCH  14  15
ATOM     15  C   UNL     1     -11.007   0.483  19.267  1.00  0.00    -0.003 C 
ATOM     16  C   UNL     1     -11.437   1.003  20.639  1.00  0.00     0.004 C 
ENDBRANCH  14  15
ENDBRANCH  13  14
ENDBRANCH  12  13
ENDBRANCH  11  12
ENDBRANCH  10  11
ENDBRANCH   1  10
TORSDOF 12
ENDMDL
MODEL 6
REMARK VINA RESULT:    -4.027      2.820      5.752
REMARK INTER + INTRA:          -8.478
REMARK INTER:                  -7.032
REMARK INTRA:                  -1.445
REMARK UNBOUND:                -1.625
REMARK SMILES CCCCCCCCCCCCCC(=O)[O-]
REMARK SMILES IDX 8 1 9 2 10 3 11 4 12 5 13 6 14 7 15 8 16 9 7 10 6 11 5 12
REMARK SMILES IDX 4 13 3 14 2 15 1 16
REMARK H PARENT
REMARK Flexibility Score: inf
ROOT
ATOM      1  C   UNL     1      -9.025   3.606  17.812  1.00  0.00     0.000 C 
ENDROOT
BRANCH   1   2
ATOM      2  C   UNL     1      -8.776   2.511  18.862  1.00  0.00     0.000 C 
BRANCH   2   3
ATOM      3  C   UNL     1      -9.167   2.955  20.282  1.00  0.00     0.000 C 
BRANCH   3   4
ATOM      4  C   UNL     1     -10.425   2.242  20.808  1.00  0.00     0.000 C 
BRANCH   4   5
ATOM      5  C   UNL     1     -11.014   1.170  19.868  1.00  0.00     0.006 C 
BRANCH   5   6
ATOM      6  C   UNL     1     -10.939  -0.267  20.410  1.00  0.00     0.053 C 
BRANCH   6   7
ATOM      7  C   UNL     1      -9.527  -0.696  20.668  1.00  0.00     0.041 C 
ATOM      8  O   UNL     1      -9.150  -0.963  21.839  1.00  0.00    -0.550 OA
ATOM      9  O   UNL     1      -8.619  -0.769  19.620  1.00  0.00    -0.550 OA
ENDBRANCH   6   7
ENDBRANCH   5   6
ENDBRANCH   4   5
ENDBRANCH   3   4
ENDBRANCH   2   3
ENDBRANCH   1   2
BRANCH   1  10
ATOM     10  C   UNL     1      -9.472   3.036  16.454  1.00  0.00     0.000 C 
BRANCH  10  11
ATOM     11  C   UNL     1     -10.869   3.528  16.042  1.00  0.00    -0.000 C 
BRANCH  11  12
ATOM     12  C   UNL     1     -11.992   2.610  16.556  1.00  0.00    -0.000 C 
BRANCH  12  13
ATOM     13  C   UNL     1     -11.749   1.132  16.212  1.00  0.00    -0.000 C 
BRANCH  13  14
ATOM     14  C   UNL     1     -12.534   0.679  14.968  1.00  0.00    -0.000 C 
BRANCH  14  15
ATOM     15  C   UNL     1     -11.619   0.134  13.860  1.00  0.00    -0.003 C 
ATOM     16  C   UNL     1     -10.137   0.364  14.153  1.00  0.00     0.004 C 
ENDBRANCH  14  15
ENDBRANCH  13  14
ENDBRANCH  12  13
ENDBRANCH  11  12
ENDBRANCH  10  11
ENDBRANCH   1  10
TORSDOF 12
ENDMDL
MODEL 7
REMARK VINA RESULT:    -4.021      2.178      3.754
REMARK INTER + INTRA:          -8.466
REMARK INTER:                  -7.251
REMARK INTRA:                  -1.215
REMARK UNBOUND:                -1.625
REMARK SMILES CCCCCCCCCCCCCC(=O)[O-]
REMARK SMILES IDX 8 1 9 2 10 3 11 4 12 5 13 6 14 7 15 8 16 9 7 10 6 11 5 12
REMARK SMILES IDX 4 13 3 14 2 15 1 16
REMARK H PARENT
REMARK Flexibility Score: inf
ROOT
ATOM      1  C   UNL     1     -11.897   3.229  18.712  1.00  0.00     0.000 C 
ENDROOT
BRANCH   1   2
ATOM      2  C   UNL     1     -11.592   2.466  17.413  1.00  0.00     0.000 C 
BRANCH   2   3
ATOM      3  C   UNL     1     -10.914   3.351  16.354  1.00  0.00     0.000 C 
BRANCH   3   4
ATOM      4  C   UNL     1      -9.824   2.609  15.560  1.00  0.00     0.000 C 
BRANCH   4   5
ATOM      5  C   UNL     1      -9.974   1.074  15.514  1.00  0.00     0.006 C 
BRANCH   5   6
ATOM      6  C   UNL     1     -10.389   0.514  14.144  1.00  0.00     0.053 C 
BRANCH   6   7
ATOM      7  C   UNL     1     -11.821   0.076  14.127  1.00  0.00     0.041 C 
ATOM      8  O   UNL     1     -12.690   0.727  14.766  1.00  0.00    -0.550 OA
ATOM      9  O   UNL     1     -12.193  -1.068  13.434  1.00  0.00    -0.550 OA
ENDBRANCH   6   7
ENDBRANCH   5   6
ENDBRANCH   4   5
ENDBRANCH   3   4
ENDBRANCH   2   3
ENDBRANCH   1   2
BRANCH   1  10
ATOM     10  C   UNL     1     -10.634   3.513  19.545  1.00  0.00     0.000 C 
BRANCH  10  11
ATOM     11  C   UNL     1      -9.856   2.232  19.890  1.00  0.00    -0.000 C 
BRANCH  11  12
ATOM     12  C   UNL     1      -8.567   2.085  19.063  1.00  0.00    -0.000 C 
BRANCH  12  13
ATOM     13  C   UNL     1      -7.929   3.440  18.720  1.00  0.00    -0.000 C 
BRANCH  13  14
ATOM     14  C   UNL     1      -6.391   3.388  18.732  1.00  0.00    -0.000 C 
BRANCH  14  15
ATOM     15  C   UNL     1      -5.766   4.619  19.408  1.00  0.00    -0.003 C 
ATOM     16  C   UNL     1      -4.445   5.037  18.763  1.00  0.00     0.004 C 
ENDBRANCH  14  15
ENDBRANCH  13  14
ENDBRANCH  12  13
ENDBRANCH  11  12
ENDBRANCH  10  11
ENDBRANCH   1  10
TORSDOF 12
ENDMDL
MODEL 8
REMARK VINA RESULT:    -3.955      3.327      6.231
REMARK INTER + INTRA:          -8.354
REMARK INTER:                  -6.440
REMARK INTRA:                  -1.914
REMARK UNBOUND:                -1.625
REMARK SMILES CCCCCCCCCCCCCC(=O)[O-]
REMARK SMILES IDX 8 1 9 2 10 3 11 4 12 5 13 6 14 7 15 8 16 9 7 10 6 11 5 12
REMARK SMILES IDX 4 13 3 14 2 15 1 16
REMARK H PARENT
REMARK Flexibility Score: inf
ROOT
ATOM      1  C   UNL     1      -8.766   1.790  19.082  1.00  0.00     0.000 C 
ENDROOT
BRANCH   1   2
ATOM      2  C   UNL     1      -9.267   0.416  18.607  1.00  0.00     0.000 C 
BRANCH   2   3
ATOM      3  C   UNL     1      -9.229  -0.643  19.721  1.00  0.00     0.000 C 
BRANCH   3   4
ATOM      4  C   UNL     1     -10.630  -1.106  20.158  1.00  0.00     0.000 C 
BRANCH   4   5
ATOM      5  C   UNL     1     -11.337  -0.190  21.178  1.00  0.00     0.006 C 
BRANCH   5   6
ATOM      6  C   UNL     1     -10.431   0.330  22.306  1.00  0.00     0.053 C 
BRANCH   6   7
ATOM      7  C   UNL     1     -10.532   1.816  22.467  1.00  0.00     0.041 C 
ATOM      8  O   UNL     1      -9.499   2.533  22.389  1.00  0.00    -0.550 OA
ATOM      9  O   UNL     1     -11.760   2.406  22.735  1.00  0.00    -0.550 OA
ENDBRANCH   6   7
ENDBRANCH   5   6
ENDBRANCH   4   5
ENDBRANCH   3   4
ENDBRANCH   2   3
ENDBRANCH   1   2
BRANCH   1  10
ATOM     10  C   UNL     1      -9.770   2.920  18.796  1.00  0.00     0.000 C 
BRANCH  10  11
ATOM     11  C   UNL     1     -11.212   2.405  18.652  1.00  0.00    -0.000 C 
BRANCH  11  12
ATOM     12  C   UNL     1     -12.093   3.346  17.812  1.00  0.00    -0.000 C 
BRANCH  12  13
ATOM     13  C   UNL     1     -12.254   2.865  16.362  1.00  0.00    -0.000 C 
BRANCH  13  14
ATOM     14  C   UNL     1     -12.029   1.349  16.216  1.00  0.00    -0.000 C 
BRANCH  14  15
ATOM     15  C   UNL     1     -10.987   1.010  15.137  1.00  0.00    -0.003 C 
ATOM     16  C   UNL     1      -9.735   1.880  15.232  1.00  0.00     0.004 C 
ENDBRANCH  14  15
ENDBRANCH  13  14
ENDBRANCH  12  13
ENDBRANCH  11  12
ENDBRANCH  10  11
ENDBRANCH   1  10
TORSDOF 12
ENDMDL
MODEL 9
REMARK VINA RESULT:    -3.836      2.823      5.594
REMARK INTER + INTRA:          -8.152
REMARK INTER:                  -6.500
REMARK INTRA:                  -1.651
REMARK UNBOUND:                -1.625
REMARK SMILES CCCCCCCCCCCCCC(=O)[O-]
REMARK SMILES IDX 8 1 9 2 10 3 11 4 12 5 13 6 14 7 15 8 16 9 7 10 6 11 5 12
REMARK SMILES IDX 4 13 3 14 2 15 1 16
REMARK H PARENT
REMARK Flexibility Score: inf
ROOT
ATOM      1  C   UNL     1     -11.755   2.793  20.182  1.00  0.00     0.000 C 
ENDROOT
BRANCH   1   2
ATOM      2  C   UNL     1     -10.377   2.430  20.758  1.00  0.00     0.000 C 
BRANCH   2   3
ATOM      3  C   UNL     1      -9.219   2.953  19.892  1.00  0.00     0.000 C 
BRANCH   3   4
ATOM      4  C   UNL     1      -8.962   2.086  18.647  1.00  0.00     0.000 C 
BRANCH   4   5
ATOM      5  C   UNL     1      -9.593   0.678  18.684  1.00  0.00     0.006 C 
BRANCH   5   6
ATOM      6  C   UNL     1      -8.713  -0.400  19.335  1.00  0.00     0.053 C 
BRANCH   6   7
ATOM      7  C   UNL     1      -9.434  -1.129  20.427  1.00  0.00     0.041 C 
ATOM      8  O   UNL     1      -9.075  -0.990  21.627  1.00  0.00    -0.550 OA
ATOM      9  O   UNL     1     -10.482  -1.986  20.119  1.00  0.00    -0.550 OA
ENDBRANCH   6   7
ENDBRANCH   5   6
ENDBRANCH   4   5
ENDBRANCH   3   4
ENDBRANCH   2   3
ENDBRANCH   1   2
BRANCH   1  10
ATOM     10  C   UNL     1     -11.790   4.204  19.568  1.00  0.00     0.000 C 
BRANCH  10  11
ATOM     11  C   UNL     1     -12.416   4.220  18.164  1.00  0.00    -0.000 C 
BRANCH  11  12
ATOM     12  C   UNL     1     -11.401   4.595  17.070  1.00  0.00    -0.000 C 
BRANCH  12  13
ATOM     13  C   UNL     1     -11.236   3.488  16.017  1.00  0.00    -0.000 C 
BRANCH  13  14
ATOM     14  C   UNL     1     -12.109   2.256  16.315  1.00  0.00    -0.000 C 
BRANCH  14  15
ATOM     15  C   UNL     1     -11.766   1.060  15.413  1.00  0.00    -0.003 C 
ATOM     16  C   UNL     1     -10.304   1.057  14.967  1.00  0.00     0.004 C 
ENDBRANCH  14  15
ENDBRANCH  13  14
ENDBRANCH  12  13
ENDBRANCH  11  12
ENDBRANCH  10  11
ENDBRANCH   1  10
TORSDOF 12
ENDMDL
