MODEL 1
REMARK VINA RESULT:    -4.761      0.000      0.000
REMARK INTER + INTRA:          -6.101
REMARK INTER:                  -5.457
REMARK INTRA:                  -0.644
REMARK UNBOUND:                -0.644
REMARK SMILES C=C(C)[C@H]1CC[C@@]2(C(=O)[O-])CC[C@]3(C)[C@H](CC[C@H]4[C@@]5(C)CC[C@@H](O)C(C)(C)[C@H]5CC[C@@]43C)[C@@H]12
REMARK SMILES IDX 7 1 6 2 33 3 11 4 5 5 15 6 4 7 12 8 16 9 13 10 17 11 31 12
REMARK SMILES IDX 14 13 18 14 30 15 32 16 19 17 29 18 21 19 20 20 28 21 22 22
REMARK SMILES IDX 25 23 23 24 26 25 27 26 8 27 9 28 10 29 2 30 3 31 1 32 24 33
REMARK H PARENT 24 34
REMARK Flexibility Score: inf
ROOT
ATOM      1  C   UNL     1      42.852  20.059  -4.999  1.00  0.00     0.014 C 
ATOM      2  C   UNL     1      43.747  20.820  -3.979  1.00  0.00     0.014 C 
ATOM      3  C   UNL     1      42.037  19.070  -4.087  1.00  0.00     0.012 C 
ATOM      4  C   UNL     1      43.720  19.409  -6.125  1.00  0.00     0.014 C 
ATOM      5  C   UNL     1      43.062  20.714  -2.609  1.00  0.00     0.009 C 
ATOM      6  C   UNL     1      42.904  17.783  -3.805  1.00  0.00     0.000 C 
ATOM      7  C   UNL     1      41.739  19.993  -2.872  1.00  0.00     0.018 C 
ATOM      8  C   UNL     1      44.311  18.017  -5.822  1.00  0.00     0.008 C 
ATOM      9  C   UNL     1      42.423  16.802  -2.713  1.00  0.00     0.005 C 
ATOM     10  C   UNL     1      43.296  17.032  -5.154  1.00  0.00    -0.024 C 
ATOM     11  C   UNL     1      43.509  15.747  -2.347  1.00  0.00     0.005 C 
ATOM     12  C   UNL     1      43.926  15.547  -4.863  1.00  0.00    -0.024 C 
ATOM     13  C   UNL     1      42.067  16.889  -6.117  1.00  0.00     0.012 C 
ATOM     14  C   UNL     1      44.602  15.568  -3.449  1.00  0.00     0.002 C 
ATOM     15  C   UNL     1      44.971  15.090  -5.935  1.00  0.00     0.008 C 
ATOM     16  C   UNL     1      42.797  14.450  -4.890  1.00  0.00     0.012 C 
ATOM     17  C   UNL     1      45.783  14.533  -3.141  1.00  0.00    -0.026 C 
ATOM     18  C   UNL     1      46.432  15.360  -5.560  1.00  0.00     0.005 C 
ATOM     19  C   UNL     1      45.310  13.048  -2.941  1.00  0.00     0.010 C 
ATOM     20  C   UNL     1      46.389  14.995  -1.768  1.00  0.00     0.012 C 
ATOM     21  C   UNL     1      46.924  14.644  -4.252  1.00  0.00     0.003 C 
ATOM     22  C   UNL     1      45.494  12.093  -4.135  1.00  0.00     0.033 C 
ATOM     23  C   UNL     1      47.798  13.323  -4.469  1.00  0.00    -0.006 C 
ATOM     24  C   UNL     1      46.916  12.049  -4.738  1.00  0.00     0.120 C 
ATOM     25  C   UNL     1      48.658  13.042  -3.199  1.00  0.00     0.014 C 
ATOM     26  C   UNL     1      48.855  13.517  -5.600  1.00  0.00     0.014 C 
ENDROOT
BRANCH   1  27
ATOM     27  C   UNL     1      41.921  21.052  -5.696  1.00  0.00     0.048 C 
ATOM     28  O   UNL     1      42.273  22.248  -5.878  1.00  0.00    -0.550 OA
ATOM     29  O   UNL     1      40.624  20.680  -6.032  1.00  0.00    -0.550 OA
ENDBRANCH   1  27
BRANCH   7  30
ATOM     30  C   UNL     1      40.989  19.408  -1.679  1.00  0.00    -0.077 C 
ATOM     31  C   UNL     1      39.575  18.917  -1.868  1.00  0.00     0.039 C 
ATOM     32  C   UNL     1      41.487  19.428  -0.428  1.00  0.00     0.008 C 
ENDBRANCH   7  30
BRANCH  24  33
ATOM     33  O   UNL     1      46.844  11.712  -6.104  1.00  0.00    -0.393 OA
ATOM     34  H   UNL     1      45.965  11.289  -6.269  1.00  0.00     0.210 HD
ENDBRANCH  24  33
TORSDOF 3
ENDMDL
MODEL 2
REMARK VINA RESULT:    -4.679      1.816      3.033
REMARK INTER + INTRA:          -6.007
REMARK INTER:                  -5.553
REMARK INTRA:                  -0.454
REMARK UNBOUND:                -0.644
REMARK SMILES C=C(C)[C@H]1CC[C@@]2(C(=O)[O-])CC[C@]3(C)[C@H](CC[C@H]4[C@@]5(C)CC[C@@H](O)C(C)(C)[C@H]5CC[C@@]43C)[C@@H]12
REMARK SMILES IDX 7 1 6 2 33 3 11 4 5 5 15 6 4 7 12 8 16 9 13 10 17 11 31 12
REMARK SMILES IDX 14 13 18 14 30 15 32 16 19 17 29 18 21 19 20 20 28 21 22 22
REMARK SMILES IDX 25 23 23 24 26 25 27 26 8 27 9 28 10 29 2 30 3 31 1 32 24 33
REMARK H PARENT 24 34
REMARK Flexibility Score: inf
ROOT
ATOM      1  C   UNL     1      42.201  19.106  -2.745  1.00  0.00     0.014 C 
ATOM      2  C   UNL     1      41.286  18.474  -1.657  1.00  0.00     0.014 C 
ATOM      3  C   UNL     1      41.766  18.352  -4.055  1.00  0.00     0.012 C 
ATOM      4  C   UNL     1      43.708  18.987  -2.344  1.00  0.00     0.014 C 
ATOM      5  C   UNL     1      40.060  17.897  -2.376  1.00  0.00     0.009 C 
ATOM      6  C   UNL     1      42.524  16.972  -4.141  1.00  0.00     0.000 C 
ATOM      7  C   UNL     1      40.227  18.293  -3.845  1.00  0.00     0.018 C 
ATOM      8  C   UNL     1      44.418  17.668  -2.716  1.00  0.00     0.008 C 
ATOM      9  C   UNL     1      42.052  15.942  -5.192  1.00  0.00     0.005 C 
ATOM     10  C   UNL     1      44.105  17.170  -4.165  1.00  0.00    -0.024 C 
ATOM     11  C   UNL     1      42.691  14.539  -4.972  1.00  0.00     0.005 C 
ATOM     12  C   UNL     1      44.886  15.784  -4.559  1.00  0.00    -0.024 C 
ATOM     13  C   UNL     1      44.533  18.303  -5.161  1.00  0.00     0.012 C 
ATOM     14  C   UNL     1      43.996  14.573  -4.114  1.00  0.00     0.002 C 
ATOM     15  C   UNL     1      46.304  15.658  -3.906  1.00  0.00     0.008 C 
ATOM     16  C   UNL     1      45.137  15.711  -6.111  1.00  0.00     0.012 C 
ATOM     17  C   UNL     1      44.698  13.170  -3.801  1.00  0.00    -0.026 C 
ATOM     18  C   UNL     1      46.338  14.853  -2.602  1.00  0.00     0.005 C 
ATOM     19  C   UNL     1      45.195  12.394  -5.073  1.00  0.00     0.010 C 
ATOM     20  C   UNL     1      43.578  12.284  -3.149  1.00  0.00     0.012 C 
ATOM     21  C   UNL     1      45.869  13.361  -2.732  1.00  0.00     0.003 C 
ATOM     22  C   UNL     1      46.698  12.478  -5.397  1.00  0.00     0.033 C 
ATOM     23  C   UNL     1      47.035  12.269  -2.794  1.00  0.00    -0.006 C 
ATOM     24  C   UNL     1      47.649  12.117  -4.234  1.00  0.00     0.120 C 
ATOM     25  C   UNL     1      46.479  10.875  -2.368  1.00  0.00     0.014 C 
ATOM     26  C   UNL     1      48.149  12.563  -1.742  1.00  0.00     0.014 C 
ENDROOT
BRANCH   1  27
ATOM     27  C   UNL     1      41.904  20.602  -2.852  1.00  0.00     0.048 C 
ATOM     28  O   UNL     1      42.112  21.227  -3.926  1.00  0.00    -0.550 OA
ATOM     29  O   UNL     1      41.513  21.322  -1.728  1.00  0.00    -0.550 OA
ENDBRANCH   1  27
BRANCH   7  30
ATOM     30  C   UNL     1      39.376  17.572  -4.885  1.00  0.00    -0.077 C 
ATOM     31  C   UNL     1      38.889  16.174  -4.597  1.00  0.00     0.039 C 
ATOM     32  C   UNL     1      39.146  18.078  -6.112  1.00  0.00     0.008 C 
ENDBRANCH   7  30
BRANCH  24  33
ATOM     33  O   UNL     1      48.869  12.805  -4.385  1.00  0.00    -0.393 OA
ATOM     34  H   UNL     1      49.565  12.306  -3.891  1.00  0.00     0.210 HD
ENDBRANCH  24  33
TORSDOF 3
ENDMDL
MODEL 3
REMARK VINA RESULT:    -4.478      1.763      2.703
REMARK INTER + INTRA:          -5.777
REMARK INTER:                  -5.146
REMARK INTRA:                  -0.631
REMARK UNBOUND:                -0.644
REMARK SMILES C=C(C)[C@H]1CC[C@@]2(C(=O)[O-])CC[C@]3(C)[C@H](CC[C@H]4[C@@]5(C)CC[C@@H](O)C(C)(C)[C@H]5CC[C@@]43C)[C@@H]12
REMARK SMILES IDX 7 1 6 2 33 3 11 4 5 5 15 6 4 7 12 8 16 9 13 10 17 11 31 12
REMARK SMILES IDX 14 13 18 14 30 15 32 16 19 17 29 18 21 19 20 20 28 21 22 22
REMARK SMILES IDX 25 23 23 24 26 25 27 26 8 27 9 28 10 29 2 30 3 31 1 32 24 33
REMARK H PARENT 24 34
REMARK Flexibility Score: inf
ROOT
ATOM      1  C   UNL     1      42.521  18.084  -3.352  1.00  0.00     0.014 C 
ATOM      2  C   UNL     1      42.583  18.087  -1.797  1.00  0.00     0.014 C 
ATOM      3  C   UNL     1      41.821  16.712  -3.675  1.00  0.00     0.012 C 
ATOM      4  C   UNL     1      43.942  18.300  -3.967  1.00  0.00     0.014 C 
ATOM      5  C   UNL     1      41.488  17.133  -1.299  1.00  0.00     0.009 C 
ATOM      6  C   UNL     1      42.898  15.560  -3.662  1.00  0.00     0.000 C 
ATOM      7  C   UNL     1      40.744  16.677  -2.555  1.00  0.00     0.018 C 
ATOM      8  C   UNL     1      44.815  17.041  -4.141  1.00  0.00     0.008 C 
ATOM      9  C   UNL     1      42.403  14.097  -3.679  1.00  0.00     0.005 C 
ATOM     10  C   UNL     1      44.046  15.816  -4.736  1.00  0.00    -0.024 C 
ATOM     11  C   UNL     1      43.545  13.083  -3.374  1.00  0.00     0.005 C 
ATOM     12  C   UNL     1      44.991  14.493  -4.943  1.00  0.00    -0.024 C 
ATOM     13  C   UNL     1      43.457  16.250  -6.123  1.00  0.00     0.012 C 
ATOM     14  C   UNL     1      44.975  13.663  -3.614  1.00  0.00     0.002 C 
ATOM     15  C   UNL     1      46.469  14.835  -5.329  1.00  0.00     0.008 C 
ATOM     16  C   UNL     1      44.449  13.604  -6.125  1.00  0.00     0.012 C 
ATOM     17  C   UNL     1      46.214  12.705  -3.285  1.00  0.00    -0.026 C 
ATOM     18  C   UNL     1      47.446  14.871  -4.149  1.00  0.00     0.005 C 
ATOM     19  C   UNL     1      46.271  11.396  -4.153  1.00  0.00     0.010 C 
ATOM     20  C   UNL     1      45.998  12.244  -1.801  1.00  0.00     0.012 C 
ATOM     21  C   UNL     1      47.584  13.521  -3.360  1.00  0.00     0.003 C 
ATOM     22  C   UNL     1      47.254  11.388  -5.337  1.00  0.00     0.033 C 
ATOM     23  C   UNL     1      48.881  12.649  -3.696  1.00  0.00    -0.006 C 
ATOM     24  C   UNL     1      48.710  11.780  -4.996  1.00  0.00     0.120 C 
ATOM     25  C   UNL     1      49.188  11.678  -2.515  1.00  0.00     0.014 C 
ATOM     26  C   UNL     1      50.160  13.540  -3.788  1.00  0.00     0.014 C 
ENDROOT
BRANCH   1  27
ATOM     27  C   UNL     1      41.665  19.258  -3.828  1.00  0.00     0.048 C 
ATOM     28  O   UNL     1      41.184  19.277  -4.992  1.00  0.00    -0.550 OA
ATOM     29  O   UNL     1      41.506  20.382  -3.023  1.00  0.00    -0.550 OA
ENDBRANCH   1  27
BRANCH   7  30
ATOM     30  C   UNL     1      39.840  15.453  -2.451  1.00  0.00    -0.077 C 
ATOM     31  C   UNL     1      39.065  15.006  -3.666  1.00  0.00     0.039 C 
ATOM     32  C   UNL     1      39.599  14.826  -1.285  1.00  0.00     0.008 C 
ENDBRANCH   7  30
BRANCH  24  33
ATOM     33  O   UNL     1      49.326  12.354  -6.124  1.00  0.00    -0.393 OA
ATOM     34  H   UNL     1      48.615  12.636  -6.751  1.00  0.00     0.210 HD
ENDBRANCH  24  33
TORSDOF 3
ENDMDL
MODEL 4
REMARK VINA RESULT:    -4.468      1.625      7.806
REMARK INTER + INTRA:          -5.765
REMARK INTER:                  -5.108
REMARK INTRA:                  -0.656
REMARK UNBOUND:                -0.644
REMARK SMILES C=C(C)[C@H]1CC[C@@]2(C(=O)[O-])CC[C@]3(C)[C@H](CC[C@H]4[C@@]5(C)CC[C@@H](O)C(C)(C)[C@H]5CC[C@@]43C)[C@@H]12
REMARK SMILES IDX 7 1 6 2 33 3 11 4 5 5 15 6 4 7 12 8 16 9 13 10 17 11 31 12
REMARK SMILES IDX 14 13 18 14 30 15 32 16 19 17 29 18 21 19 20 20 28 21 22 22
REMARK SMILES IDX 25 23 23 24 26 25 27 26 8 27 9 28 10 29 2 30 3 31 1 32 24 33
REMARK H PARENT 24 34
REMARK Flexibility Score: inf
ROOT
ATOM      1  C   UNL     1      45.862  12.985  -3.330  1.00  0.00     0.014 C 
ATOM      2  C   UNL     1      46.589  13.376  -2.012  1.00  0.00     0.014 C 
ATOM      3  C   UNL     1      46.370  14.069  -4.350  1.00  0.00     0.012 C 
ATOM      4  C   UNL     1      44.316  12.909  -3.112  1.00  0.00     0.014 C 
ATOM      5  C   UNL     1      47.831  14.187  -2.403  1.00  0.00     0.009 C 
ATOM      6  C   UNL     1      45.505  15.378  -4.196  1.00  0.00     0.000 C 
ATOM      7  C   UNL     1      47.865  14.165  -3.933  1.00  0.00     0.018 C 
ATOM      8  C   UNL     1      43.536  14.233  -3.242  1.00  0.00     0.008 C 
ATOM      9  C   UNL     1      45.996  16.666  -4.895  1.00  0.00     0.005 C 
ATOM     10  C   UNL     1      43.961  15.098  -4.474  1.00  0.00    -0.024 C 
ATOM     11  C   UNL     1      45.213  17.928  -4.427  1.00  0.00     0.005 C 
ATOM     12  C   UNL     1      43.106  16.489  -4.617  1.00  0.00    -0.024 C 
ATOM     13  C   UNL     1      43.751  14.230  -5.762  1.00  0.00     0.012 C 
ATOM     14  C   UNL     1      43.829  17.600  -3.780  1.00  0.00     0.002 C 
ATOM     15  C   UNL     1      41.620  16.361  -4.144  1.00  0.00     0.008 C 
ATOM     16  C   UNL     1      43.024  16.936  -6.125  1.00  0.00     0.012 C 
ATOM     17  C   UNL     1      42.972  18.834  -3.230  1.00  0.00    -0.026 C 
ATOM     18  C   UNL     1      41.368  16.808  -2.700  1.00  0.00     0.005 C 
ATOM     19  C   UNL     1      42.552  19.875  -4.329  1.00  0.00     0.010 C 
ATOM     20  C   UNL     1      43.927  19.593  -2.243  1.00  0.00     0.012 C 
ATOM     21  C   UNL     1      41.711  18.311  -2.401  1.00  0.00     0.003 C 
ATOM     22  C   UNL     1      41.108  19.785  -4.857  1.00  0.00     0.033 C 
ATOM     23  C   UNL     1      40.466  19.311  -2.348  1.00  0.00    -0.006 C 
ATOM     24  C   UNL     1      40.004  19.784  -3.775  1.00  0.00     0.120 C 
ATOM     25  C   UNL     1      40.842  20.584  -1.528  1.00  0.00     0.014 C 
ATOM     26  C   UNL     1      39.272  18.696  -1.553  1.00  0.00     0.014 C 
ENDROOT
BRANCH   1  27
ATOM     27  C   UNL     1      46.303  11.585  -3.757  1.00  0.00     0.048 C 
ATOM     28  O   UNL     1      47.023  10.876  -3.003  1.00  0.00    -0.550 OA
ATOM     29  O   UNL     1      46.017  11.118  -5.035  1.00  0.00    -0.550 OA
ENDBRANCH   1  27
BRANCH   7  30
ATOM     30  C   UNL     1      48.758  15.174  -4.648  1.00  0.00    -0.077 C 
ATOM     31  C   UNL     1      49.016  15.011  -6.125  1.00  0.00     0.039 C 
ATOM     32  C   UNL     1      49.436  16.136  -3.993  1.00  0.00     0.008 C 
ENDBRANCH   7  30
BRANCH  24  33
ATOM     33  O   UNL     1      38.876  19.084  -4.246  1.00  0.00    -0.393 OA
ATOM     34  H   UNL     1      39.104  18.122  -4.275  1.00  0.00     0.210 HD
ENDBRANCH  24  33
TORSDOF 3
ENDMDL
MODEL 5
REMARK VINA RESULT:    -3.937      1.950      3.843
REMARK INTER + INTRA:          -5.157
REMARK INTER:                  -4.478
REMARK INTRA:                  -0.679
REMARK UNBOUND:                -0.644
REMARK SMILES C=C(C)[C@H]1CC[C@@]2(C(=O)[O-])CC[C@]3(C)[C@H](CC[C@H]4[C@@]5(C)CC[C@@H](O)C(C)(C)[C@H]5CC[C@@]43C)[C@@H]12
REMARK SMILES IDX 7 1 6 2 33 3 11 4 5 5 15 6 4 7 12 8 16 9 13 10 17 11 31 12
REMARK SMILES IDX 14 13 18 14 30 15 32 16 19 17 29 18 21 19 20 20 28 21 22 22
REMARK SMILES IDX 25 23 23 24 26 25 27 26 8 27 9 28 10 29 2 30 3 31 1 32 24 33
REMARK H PARENT 24 34
REMARK Flexibility Score: inf
ROOT
ATOM      1  C   UNL     1      41.040  19.169  -1.833  1.00  0.00     0.014 C 
ATOM      2  C   UNL     1      39.710  18.363  -1.829  1.00  0.00     0.014 C 
ATOM      3  C   UNL     1      41.339  19.351  -3.367  1.00  0.00     0.012 C 
ATOM      4  C   UNL     1      42.138  18.438  -0.994  1.00  0.00     0.014 C 
ATOM      5  C   UNL     1      39.025  18.612  -3.179  1.00  0.00     0.009 C 
ATOM      6  C   UNL     1      42.058  18.059  -3.916  1.00  0.00     0.000 C 
ATOM      7  C   UNL     1      39.906  19.635  -3.898  1.00  0.00     0.018 C 
ATOM      8  C   UNL     1      42.958  17.356  -1.726  1.00  0.00     0.008 C 
ATOM      9  C   UNL     1      42.198  17.895  -5.446  1.00  0.00     0.005 C 
ATOM     10  C   UNL     1      43.430  17.781  -3.156  1.00  0.00    -0.024 C 
ATOM     11  C   UNL     1      42.658  16.462  -5.847  1.00  0.00     0.005 C 
ATOM     12  C   UNL     1      44.324  16.634  -3.913  1.00  0.00    -0.024 C 
ATOM     13  C   UNL     1      44.285  19.086  -3.007  1.00  0.00     0.012 C 
ATOM     14  C   UNL     1      43.349  15.680  -4.684  1.00  0.00     0.002 C 
ATOM     15  C   UNL     1      45.217  15.795  -2.939  1.00  0.00     0.008 C 
ATOM     16  C   UNL     1      45.327  17.296  -4.930  1.00  0.00     0.012 C 
ATOM     17  C   UNL     1      43.817  14.181  -4.993  1.00  0.00    -0.026 C 
ATOM     18  C   UNL     1      44.599  14.467  -2.490  1.00  0.00     0.005 C 
ATOM     19  C   UNL     1      44.902  14.059  -6.123  1.00  0.00     0.010 C 
ATOM     20  C   UNL     1      42.536  13.449  -5.526  1.00  0.00     0.012 C 
ATOM     21  C   UNL     1      44.283  13.456  -3.649  1.00  0.00     0.003 C 
ATOM     22  C   UNL     1      46.360  13.864  -5.670  1.00  0.00     0.033 C 
ATOM     23  C   UNL     1      45.336  12.269  -3.843  1.00  0.00    -0.006 C 
ATOM     24  C   UNL     1      46.598  12.705  -4.675  1.00  0.00     0.120 C 
ATOM     25  C   UNL     1      44.663  11.080  -4.594  1.00  0.00     0.014 C 
ATOM     26  C   UNL     1      45.761  11.652  -2.473  1.00  0.00     0.014 C 
ENDROOT
BRANCH   1  27
ATOM     27  C   UNL     1      40.815  20.522  -1.157  1.00  0.00     0.048 C 
ATOM     28  O   UNL     1      41.722  21.397  -1.144  1.00  0.00    -0.550 OA
ATOM     29  O   UNL     1      39.648  20.763  -0.441  1.00  0.00    -0.550 OA
ENDBRANCH   1  27
BRANCH   7  30
ATOM     30  C   UNL     1      39.710  19.824  -5.399  1.00  0.00    -0.077 C 
ATOM     31  C   UNL     1      40.357  21.004  -6.082  1.00  0.00     0.039 C 
ATOM     32  C   UNL     1      38.875  19.057  -6.125  1.00  0.00     0.008 C 
ENDBRANCH   7  30
BRANCH  24  33
ATOM     33  O   UNL     1      47.715  12.993  -3.867  1.00  0.00    -0.393 OA
ATOM     34  H   UNL     1      47.801  13.976  -3.803  1.00  0.00     0.210 HD
ENDBRANCH  24  33
TORSDOF 3
ENDMDL
MODEL 6
REMARK VINA RESULT:    -2.889      1.901      7.621
REMARK INTER + INTRA:          -3.956
REMARK INTER:                  -3.362
REMARK INTRA:                  -0.594
REMARK UNBOUND:                -0.644
REMARK SMILES C=C(C)[C@H]1CC[C@@]2(C(=O)[O-])CC[C@]3(C)[C@H](CC[C@H]4[C@@]5(C)CC[C@@H](O)C(C)(C)[C@H]5CC[C@@]43C)[C@@H]12
REMARK SMILES IDX 7 1 6 2 33 3 11 4 5 5 15 6 4 7 12 8 16 9 13 10 17 11 31 12
REMARK SMILES IDX 14 13 18 14 30 15 32 16 19 17 29 18 21 19 20 20 28 21 22 22
REMARK SMILES IDX 25 23 23 24 26 25 27 26 8 27 9 28 10 29 2 30 3 31 1 32 24 33
REMARK H PARENT 24 34
REMARK Flexibility Score: inf
ROOT
ATOM      1  C   UNL     1      45.303  12.868  -4.758  1.00  0.00     0.014 C 
ATOM      2  C   UNL     1      44.662  12.495  -6.125  1.00  0.00     0.014 C 
ATOM      3  C   UNL     1      44.077  12.842  -3.772  1.00  0.00     0.012 C 
ATOM      4  C   UNL     1      46.084  14.219  -4.858  1.00  0.00     0.014 C 
ATOM      5  C   UNL     1      43.361  11.738  -5.823  1.00  0.00     0.009 C 
ATOM      6  C   UNL     1      43.313  14.219  -3.851  1.00  0.00     0.000 C 
ATOM      7  C   UNL     1      43.321  11.591  -4.300  1.00  0.00     0.018 C 
ATOM      8  C   UNL     1      45.259  15.507  -4.661  1.00  0.00     0.008 C 
ATOM      9  C   UNL     1      41.924  14.324  -3.183  1.00  0.00     0.005 C 
ATOM     10  C   UNL     1      44.259  15.440  -3.460  1.00  0.00    -0.024 C 
ATOM     11  C   UNL     1      41.173  15.628  -3.583  1.00  0.00     0.005 C 
ATOM     12  C   UNL     1      43.409  16.824  -3.243  1.00  0.00    -0.024 C 
ATOM     13  C   UNL     1      45.090  15.138  -2.165  1.00  0.00     0.012 C 
ATOM     14  C   UNL     1      42.115  16.751  -4.125  1.00  0.00     0.002 C 
ATOM     15  C   UNL     1      44.215  18.116  -3.603  1.00  0.00     0.008 C 
ATOM     16  C   UNL     1      43.005  16.995  -1.730  1.00  0.00     0.012 C 
ATOM     17  C   UNL     1      41.425  18.114  -4.601  1.00  0.00    -0.026 C 
ATOM     18  C   UNL     1      43.975  18.646  -5.021  1.00  0.00     0.005 C 
ATOM     19  C   UNL     1      40.660  18.885  -3.466  1.00  0.00     0.010 C 
ATOM     20  C   UNL     1      40.343  17.683  -5.652  1.00  0.00     0.012 C 
ATOM     21  C   UNL     1      42.490  19.050  -5.335  1.00  0.00     0.003 C 
ATOM     22  C   UNL     1      41.385  20.087  -2.831  1.00  0.00     0.033 C 
ATOM     23  C   UNL     1      42.171  20.615  -5.287  1.00  0.00    -0.006 C 
ATOM     24  C   UNL     1      41.921  21.141  -3.826  1.00  0.00     0.120 C 
ATOM     25  C   UNL     1      40.892  20.921  -6.125  1.00  0.00     0.014 C 
ATOM     26  C   UNL     1      43.287  21.447  -5.994  1.00  0.00     0.014 C 
ENDROOT
BRANCH   1  27
ATOM     27  C   UNL     1      46.334  11.806  -4.374  1.00  0.00     0.048 C 
ATOM     28  O   UNL     1      46.786  11.004  -5.235  1.00  0.00    -0.550 OA
ATOM     29  O   UNL     1      46.700  11.631  -3.044  1.00  0.00    -0.550 OA
ENDBRANCH   1  27
BRANCH   7  30
ATOM     30  C   UNL     1      41.996  11.211  -3.649  1.00  0.00    -0.077 C 
ATOM     31  C   UNL     1      40.719  11.354  -4.440  1.00  0.00     0.039 C 
ATOM     32  C   UNL     1      41.895  10.875  -2.349  1.00  0.00     0.008 C 
ENDBRANCH   7  30
BRANCH  24  33
ATOM     33  O   UNL     1      43.045  21.786  -3.276  1.00  0.00    -0.393 OA
ATOM     34  H   UNL     1      42.752  22.276  -2.468  1.00  0.00     0.210 HD
ENDBRANCH  24  33
TORSDOF 3
ENDMDL
MODEL 7
REMARK VINA RESULT:    -2.741      1.750      7.673
REMARK INTER + INTRA:          -3.785
REMARK INTER:                  -3.213
REMARK INTRA:                  -0.572
REMARK UNBOUND:                -0.644
REMARK SMILES C=C(C)[C@H]1CC[C@@]2(C(=O)[O-])CC[C@]3(C)[C@H](CC[C@H]4[C@@]5(C)CC[C@@H](O)C(C)(C)[C@H]5CC[C@@]43C)[C@@H]12
REMARK SMILES IDX 7 1 6 2 33 3 11 4 5 5 15 6 4 7 12 8 16 9 13 10 17 11 31 12
REMARK SMILES IDX 14 13 18 14 30 15 32 16 19 17 29 18 21 19 20 20 28 21 22 22
REMARK SMILES IDX 25 23 23 24 26 25 27 26 8 27 9 28 10 29 2 30 3 31 1 32 24 33
REMARK H PARENT 24 34
REMARK Flexibility Score: inf
ROOT
ATOM      1  C   UNL     1      47.302  14.364  -4.638  1.00  0.00     0.014 C 
ATOM      2  C   UNL     1      47.068  13.969  -6.124  1.00  0.00     0.014 C 
ATOM      3  C   UNL     1      46.104  13.668  -3.894  1.00  0.00     0.012 C 
ATOM      4  C   UNL     1      47.408  15.916  -4.484  1.00  0.00     0.014 C 
ATOM      5  C   UNL     1      46.212  12.695  -6.125  1.00  0.00     0.009 C 
ATOM      6  C   UNL     1      44.824  14.585  -3.992  1.00  0.00     0.000 C 
ATOM      7  C   UNL     1      46.054  12.312  -4.652  1.00  0.00     0.018 C 
ATOM      8  C   UNL     1      46.079  16.685  -4.330  1.00  0.00     0.008 C 
ATOM      9  C   UNL     1      43.462  13.985  -3.577  1.00  0.00     0.005 C 
ATOM     10  C   UNL     1      45.074  16.015  -3.337  1.00  0.00    -0.024 C 
ATOM     11  C   UNL     1      42.266  14.892  -3.994  1.00  0.00     0.005 C 
ATOM     12  C   UNL     1      43.677  16.855  -3.160  1.00  0.00    -0.024 C 
ATOM     13  C   UNL     1      45.785  15.899  -1.944  1.00  0.00     0.012 C 
ATOM     14  C   UNL     1      42.671  16.376  -4.262  1.00  0.00     0.002 C 
ATOM     15  C   UNL     1      43.865  18.406  -3.260  1.00  0.00     0.008 C 
ATOM     16  C   UNL     1      43.056  16.604  -1.735  1.00  0.00     0.012 C 
ATOM     17  C   UNL     1      41.513  17.373  -4.738  1.00  0.00    -0.026 C 
ATOM     18  C   UNL     1      43.592  18.995  -4.649  1.00  0.00     0.005 C 
ATOM     19  C   UNL     1      40.351  17.561  -3.697  1.00  0.00     0.010 C 
ATOM     20  C   UNL     1      40.874  16.691  -5.998  1.00  0.00     0.012 C 
ATOM     21  C   UNL     1      42.134  18.773  -5.188  1.00  0.00     0.003 C 
ATOM     22  C   UNL     1      40.382  18.843  -2.844  1.00  0.00     0.033 C 
ATOM     23  C   UNL     1      41.150  20.027  -5.067  1.00  0.00    -0.006 C 
ATOM     24  C   UNL     1      40.513  20.164  -3.635  1.00  0.00     0.120 C 
ATOM     25  C   UNL     1      39.983  19.886  -6.091  1.00  0.00     0.014 C 
ATOM     26  C   UNL     1      41.858  21.352  -5.490  1.00  0.00     0.014 C 
ENDROOT
BRANCH   1  27
ATOM     27  C   UNL     1      48.641  13.795  -4.167  1.00  0.00     0.048 C 
ATOM     28  O   UNL     1      48.842  13.539  -2.950  1.00  0.00    -0.550 OA
ATOM     29  O   UNL     1      49.701  13.665  -5.058  1.00  0.00    -0.550 OA
ENDBRANCH   1  27
BRANCH   7  30
ATOM     30  C   UNL     1      44.965  11.310  -4.283  1.00  0.00    -0.077 C 
ATOM     31  C   UNL     1      43.963  10.893  -5.330  1.00  0.00     0.039 C 
ATOM     32  C   UNL     1      44.775  10.876  -3.022  1.00  0.00     0.008 C 
ENDBRANCH   7  30
BRANCH  24  33
ATOM     33  O   UNL     1      41.156  21.133  -2.841  1.00  0.00    -0.393 OA
ATOM     34  H   UNL     1      40.610  21.273  -2.027  1.00  0.00     0.210 HD
ENDBRANCH  24  33
TORSDOF 3
ENDMDL
