MODEL 1
REMARK VINA RESULT:    -5.313      0.000      0.000
REMARK INTER + INTRA:          -5.468
REMARK INTER:                  -5.468
REMARK INTRA:                   0.000
REMARK UNBOUND:                 0.000
REMARK SMILES Nc1ncnc2nc[nH]c12
REMARK SMILES IDX 8 1 7 2 6 3 5 4 4 5 3 6 2 7 10 8 9 9 1 11
REMARK H PARENT 9 10 1 12 1 13
REMARK Flexibility Score: inf
ROOT
ATOM      1  C   UNL     1     129.020 116.475 130.876  1.00  0.00     0.199 A 
ATOM      2  N   UNL     1     128.095 117.166 131.598  1.00  0.00    -0.217 NA
ATOM      3  C   UNL     1     127.936 118.281 130.866  1.00  0.00     0.182 A 
ATOM      4  N   UNL     1     127.112 119.319 131.144  1.00  0.00    -0.215 NA
ATOM      5  C   UNL     1     127.087 120.373 130.274  1.00  0.00     0.226 A 
ATOM      6  N   UNL     1     127.879 120.371 129.154  1.00  0.00    -0.217 NA
ATOM      7  C   UNL     1     128.711 119.324 128.871  1.00  0.00     0.152 A 
ATOM      8  C   UNL     1     128.725 118.257 129.767  1.00  0.00     0.127 A 
ATOM      9  N   UNL     1     129.425 117.117 129.751  1.00  0.00    -0.340 N 
ATOM     10  H   UNL     1     130.121 116.787 129.046  1.00  0.00     0.168 HD
ENDROOT
BRANCH   7  11
ATOM     11  N   UNL     1     129.526 119.343 127.699  1.00  0.00    -0.382 N 
ATOM     12  H   UNL     1     129.978 120.222 127.365  1.00  0.00     0.158 HD
ATOM     13  H   UNL     1     129.681 118.464 127.157  1.00  0.00     0.158 HD
ENDBRANCH   7  11
TORSDOF 1
ENDMDL
MODEL 2
REMARK VINA RESULT:    -5.251      0.913      2.995
REMARK INTER + INTRA:          -5.404
REMARK INTER:                  -5.404
REMARK INTRA:                   0.000
REMARK UNBOUND:                 0.000
REMARK SMILES Nc1ncnc2nc[nH]c12
REMARK SMILES IDX 8 1 7 2 6 3 5 4 4 5 3 6 2 7 10 8 9 9 1 11
REMARK H PARENT 9 10 1 12 1 13
REMARK Flexibility Score: inf
ROOT
ATOM      1  C   UNL     1     128.404 120.095 128.606  1.00  0.00     0.199 A 
ATOM      2  N   UNL     1     127.680 120.387 129.721  1.00  0.00    -0.217 NA
ATOM      3  C   UNL     1     127.858 119.289 130.474  1.00  0.00     0.182 A 
ATOM      4  N   UNL     1     127.343 119.061 131.705  1.00  0.00    -0.215 NA
ATOM      5  C   UNL     1     127.638 117.875 132.318  1.00  0.00     0.226 A 
ATOM      6  N   UNL     1     128.435 116.948 131.695  1.00  0.00    -0.217 NA
ATOM      7  C   UNL     1     128.955 117.176 130.452  1.00  0.00     0.152 A 
ATOM      8  C   UNL     1     128.646 118.389 129.841  1.00  0.00     0.127 A 
ATOM      9  N   UNL     1     129.006 118.879 128.649  1.00  0.00    -0.340 N 
ATOM     10  H   UNL     1     129.608 118.441 127.917  1.00  0.00     0.168 HD
ENDROOT
BRANCH   7  11
ATOM     11  N   UNL     1     129.782 116.196 129.823  1.00  0.00    -0.382 N 
ATOM     12  H   UNL     1     130.342 115.517 130.383  1.00  0.00     0.158 HD
ATOM     13  H   UNL     1     129.835 116.149 128.781  1.00  0.00     0.158 HD
ENDBRANCH   7  11
TORSDOF 1
ENDMDL
MODEL 3
REMARK VINA RESULT:    -5.225     10.733     10.825
REMARK INTER + INTRA:          -5.378
REMARK INTER:                  -5.378
REMARK INTRA:                   0.000
REMARK UNBOUND:                 0.000
REMARK SMILES Nc1ncnc2nc[nH]c12
REMARK SMILES IDX 8 1 7 2 6 3 5 4 4 5 3 6 2 7 10 8 9 9 1 11
REMARK H PARENT 9 10 1 12 1 13
REMARK Flexibility Score: inf
ROOT
ATOM      1  C   UNL     1     122.193 125.114 123.399  1.00  0.00     0.199 A 
ATOM      2  N   UNL     1     121.886 125.629 124.621  1.00  0.00    -0.217 NA
ATOM      3  C   UNL     1     122.990 126.336 124.918  1.00  0.00     0.182 A 
ATOM      4  N   UNL     1     123.208 127.058 126.043  1.00  0.00    -0.215 NA
ATOM      5  C   UNL     1     124.401 127.714 126.166  1.00  0.00     0.226 A 
ATOM      6  N   UNL     1     125.344 127.638 125.173  1.00  0.00    -0.217 NA
ATOM      7  C   UNL     1     125.126 126.909 124.037  1.00  0.00     0.152 A 
ATOM      8  C   UNL     1     123.906 126.247 123.926  1.00  0.00     0.127 A 
ATOM      9  N   UNL     1     123.421 125.474 122.947  1.00  0.00    -0.340 N 
ATOM     10  H   UNL     1     123.871 125.204 122.045  1.00  0.00     0.168 HD
ENDROOT
BRANCH   7  11
ATOM     11  N   UNL     1     126.122 126.844 123.017  1.00  0.00    -0.382 N 
ATOM     12  H   UNL     1     126.514 125.932 122.697  1.00  0.00     0.158 HD
ATOM     13  H   UNL     1     126.473 127.722 122.573  1.00  0.00     0.158 HD
ENDBRANCH   7  11
TORSDOF 1
ENDMDL
MODEL 4
REMARK VINA RESULT:    -5.219      9.914     10.664
REMARK INTER + INTRA:          -5.371
REMARK INTER:                  -5.371
REMARK INTRA:                   0.000
REMARK UNBOUND:                 0.000
REMARK SMILES Nc1ncnc2nc[nH]c12
REMARK SMILES IDX 8 1 7 2 6 3 5 4 4 5 3 6 2 7 10 8 9 9 1 11
REMARK H PARENT 9 10 1 12 1 13
REMARK Flexibility Score: inf
ROOT
ATOM      1  C   UNL     1     125.510 127.589 124.822  1.00  0.00     0.199 A 
ATOM      2  N   UNL     1     124.964 127.187 126.002  1.00  0.00    -0.217 NA
ATOM      3  C   UNL     1     123.949 126.406 125.596  1.00  0.00     0.182 A 
ATOM      4  N   UNL     1     123.071 125.745 126.387  1.00  0.00    -0.215 NA
ATOM      5  C   UNL     1     122.100 124.995 125.785  1.00  0.00     0.226 A 
ATOM      6  N   UNL     1     122.024 124.920 124.418  1.00  0.00    -0.217 NA
ATOM      7  C   UNL     1     122.908 125.587 123.617  1.00  0.00     0.152 A 
ATOM      8  C   UNL     1     123.893 126.347 124.245  1.00  0.00     0.127 A 
ATOM      9  N   UNL     1     124.877 127.093 123.730  1.00  0.00    -0.340 N 
ATOM     10  H   UNL     1     125.113 127.260 122.727  1.00  0.00     0.168 HD
ENDROOT
BRANCH   7  11
ATOM     11  N   UNL     1     122.810 125.495 122.196  1.00  0.00    -0.382 N 
ATOM     12  H   UNL     1     122.255 126.185 121.643  1.00  0.00     0.158 HD
ATOM     13  H   UNL     1     123.300 124.726 121.687  1.00  0.00     0.158 HD
ENDBRANCH   7  11
TORSDOF 1
ENDMDL
MODEL 5
REMARK VINA RESULT:    -5.095      1.578      3.397
REMARK INTER + INTRA:          -5.244
REMARK INTER:                  -5.244
REMARK INTRA:                   0.000
REMARK UNBOUND:                 0.000
REMARK SMILES Nc1ncnc2nc[nH]c12
REMARK SMILES IDX 8 1 7 2 6 3 5 4 4 5 3 6 2 7 10 8 9 9 1 11
REMARK H PARENT 9 10 1 12 1 13
REMARK Flexibility Score: inf
ROOT
ATOM      1  C   UNL     1     128.606 119.983 128.385  1.00  0.00     0.199 A 
ATOM      2  N   UNL     1     128.947 119.058 129.324  1.00  0.00    -0.217 NA
ATOM      3  C   UNL     1     127.867 119.049 130.122  1.00  0.00     0.182 A 
ATOM      4  N   UNL     1     127.686 118.290 131.229  1.00  0.00    -0.215 NA
ATOM      5  C   UNL     1     126.511 118.421 131.916  1.00  0.00     0.226 A 
ATOM      6  N   UNL     1     125.549 119.300 131.489  1.00  0.00    -0.217 NA
ATOM      7  C   UNL     1     125.730 120.068 130.373  1.00  0.00     0.152 A 
ATOM      8  C   UNL     1     126.931 119.923 129.684  1.00  0.00     0.127 A 
ATOM      9  N   UNL     1     127.379 120.530 128.579  1.00  0.00    -0.340 N 
ATOM     10  H   UNL     1     126.906 121.254 127.994  1.00  0.00     0.168 HD
ENDROOT
BRANCH   7  11
ATOM     11  N   UNL     1     124.714 120.977 129.948  1.00  0.00    -0.382 N 
ATOM     12  H   UNL     1     124.189 121.565 130.632  1.00  0.00     0.158 HD
ATOM     13  H   UNL     1     124.483 121.065 128.933  1.00  0.00     0.158 HD
ENDBRANCH   7  11
TORSDOF 1
ENDMDL
MODEL 6
REMARK VINA RESULT:    -5.010      2.013      3.416
REMARK INTER + INTRA:          -5.156
REMARK INTER:                  -5.156
REMARK INTRA:                   0.000
REMARK UNBOUND:                 0.000
REMARK SMILES Nc1ncnc2nc[nH]c12
REMARK SMILES IDX 8 1 7 2 6 3 5 4 4 5 3 6 2 7 10 8 9 9 1 11
REMARK H PARENT 9 10 1 12 1 13
REMARK Flexibility Score: inf
ROOT
ATOM      1  C   UNL     1     125.485 118.586 132.826  1.00  0.00     0.199 A 
ATOM      2  N   UNL     1     126.734 118.221 132.424  1.00  0.00    -0.217 NA
ATOM      3  C   UNL     1     126.877 118.910 131.279  1.00  0.00     0.182 A 
ATOM      4  N   UNL     1     127.959 118.905 130.464  1.00  0.00    -0.215 NA
ATOM      5  C   UNL     1     127.919 119.676 129.335  1.00  0.00     0.226 A 
ATOM      6  N   UNL     1     126.810 120.429 129.045  1.00  0.00    -0.217 NA
ATOM      7  C   UNL     1     125.717 120.435 129.866  1.00  0.00     0.152 A 
ATOM      8  C   UNL     1     125.774 119.645 131.012  1.00  0.00     0.127 A 
ATOM      9  N   UNL     1     124.872 119.456 131.983  1.00  0.00    -0.340 N 
ATOM     10  H   UNL     1     123.920 119.872 132.081  1.00  0.00     0.168 HD
ENDROOT
BRANCH   7  11
ATOM     11  N   UNL     1     124.574 121.228 129.544  1.00  0.00    -0.382 N 
ATOM     12  H   UNL     1     123.677 120.790 129.239  1.00  0.00     0.158 HD
ATOM     13  H   UNL     1     124.624 122.268 129.612  1.00  0.00     0.158 HD
ENDBRANCH   7  11
TORSDOF 1
ENDMDL
MODEL 7
REMARK VINA RESULT:    -4.985      9.355     10.121
REMARK INTER + INTRA:          -5.131
REMARK INTER:                  -5.131
REMARK INTRA:                   0.000
REMARK UNBOUND:                 0.000
REMARK SMILES Nc1ncnc2nc[nH]c12
REMARK SMILES IDX 8 1 7 2 6 3 5 4 4 5 3 6 2 7 10 8 9 9 1 11
REMARK H PARENT 9 10 1 12 1 13
REMARK Flexibility Score: inf
ROOT
ATOM      1  C   UNL     1     122.134 124.614 126.595  1.00  0.00     0.199 A 
ATOM      2  N   UNL     1     123.125 125.382 127.125  1.00  0.00    -0.217 NA
ATOM      3  C   UNL     1     123.732 125.863 126.027  1.00  0.00     0.182 A 
ATOM      4  N   UNL     1     124.800 126.696 125.993  1.00  0.00    -0.215 NA
ATOM      5  C   UNL     1     125.280 127.079 124.772  1.00  0.00     0.226 A 
ATOM      6  N   UNL     1     124.691 126.627 123.619  1.00  0.00    -0.217 NA
ATOM      7  C   UNL     1     123.614 125.787 123.650  1.00  0.00     0.152 A 
ATOM      8  C   UNL     1     123.136 125.406 124.902  1.00  0.00     0.127 A 
ATOM      9  N   UNL     1     122.115 124.608 125.238  1.00  0.00    -0.340 N 
ATOM     10  H   UNL     1     121.453 124.096 124.613  1.00  0.00     0.168 HD
ENDROOT
BRANCH   7  11
ATOM     11  N   UNL     1     123.017 125.329 122.436  1.00  0.00    -0.382 N 
ATOM     12  H   UNL     1     122.060 125.632 122.153  1.00  0.00     0.158 HD
ATOM     13  H   UNL     1     123.540 124.677 121.811  1.00  0.00     0.158 HD
ENDBRANCH   7  11
TORSDOF 1
ENDMDL
MODEL 8
REMARK VINA RESULT:    -4.910      2.139      4.573
REMARK INTER + INTRA:          -5.053
REMARK INTER:                  -5.053
REMARK INTRA:                   0.000
REMARK UNBOUND:                 0.000
REMARK SMILES Nc1ncnc2nc[nH]c12
REMARK SMILES IDX 8 1 7 2 6 3 5 4 4 5 3 6 2 7 10 8 9 9 1 11
REMARK H PARENT 9 10 1 12 1 13
REMARK Flexibility Score: inf
ROOT
ATOM      1  C   UNL     1     125.634 120.703 129.375  1.00  0.00     0.199 A 
ATOM      2  N   UNL     1     126.867 120.127 129.424  1.00  0.00    -0.217 NA
ATOM      3  C   UNL     1     126.827 119.466 130.592  1.00  0.00     0.182 A 
ATOM      4  N   UNL     1     127.816 118.713 131.129  1.00  0.00    -0.215 NA
ATOM      5  C   UNL     1     127.588 118.113 132.336  1.00  0.00     0.226 A 
ATOM      6  N   UNL     1     126.387 118.275 132.978  1.00  0.00    -0.217 NA
ATOM      7  C   UNL     1     125.386 119.034 132.438  1.00  0.00     0.152 A 
ATOM      8  C   UNL     1     125.634 119.638 131.208  1.00  0.00     0.127 A 
ATOM      9  N   UNL     1     124.857 120.423 130.452  1.00  0.00    -0.340 N 
ATOM     10  H   UNL     1     123.883 120.750 130.635  1.00  0.00     0.168 HD
ENDROOT
BRANCH   7  11
ATOM     11  N   UNL     1     124.144 119.188 133.124  1.00  0.00    -0.382 N 
ATOM     12  H   UNL     1     124.100 119.586 134.088  1.00  0.00     0.158 HD
ATOM     13  H   UNL     1     123.253 118.900 132.662  1.00  0.00     0.158 HD
ENDBRANCH   7  11
TORSDOF 1
ENDMDL
MODEL 9
REMARK VINA RESULT:    -4.860     10.744     11.200
REMARK INTER + INTRA:          -5.002
REMARK INTER:                  -5.002
REMARK INTRA:                   0.000
REMARK UNBOUND:                 0.000
REMARK SMILES Nc1ncnc2nc[nH]c12
REMARK SMILES IDX 8 1 7 2 6 3 5 4 4 5 3 6 2 7 10 8 9 9 1 11
REMARK H PARENT 9 10 1 12 1 13
REMARK Flexibility Score: inf
ROOT
ATOM      1  C   UNL     1     123.423 128.748 126.989  1.00  0.00     0.199 A 
ATOM      2  N   UNL     1     122.423 127.825 127.034  1.00  0.00    -0.217 NA
ATOM      3  C   UNL     1     122.685 127.068 125.956  1.00  0.00     0.182 A 
ATOM      4  N   UNL     1     121.979 125.992 125.534  1.00  0.00    -0.215 NA
ATOM      5  C   UNL     1     122.403 125.344 124.407  1.00  0.00     0.226 A 
ATOM      6  N   UNL     1     123.513 125.780 123.729  1.00  0.00    -0.217 NA
ATOM      7  C   UNL     1     124.226 126.866 124.152  1.00  0.00     0.152 A 
ATOM      8  C   UNL     1     123.782 127.515 125.302  1.00  0.00     0.127 A 
ATOM      9  N   UNL     1     124.270 128.584 125.941  1.00  0.00    -0.340 N 
ATOM     10  H   UNL     1     125.105 129.164 125.702  1.00  0.00     0.168 HD
ENDROOT
BRANCH   7  11
ATOM     11  N   UNL     1     125.378 127.302 123.430  1.00  0.00    -0.382 N 
ATOM     12  H   UNL     1     126.063 126.621 123.036  1.00  0.00     0.158 HD
ATOM     13  H   UNL     1     125.550 128.322 123.287  1.00  0.00     0.158 HD
ENDBRANCH   7  11
TORSDOF 1
ENDMDL
