MODEL 1
REMARK VINA RESULT:    -5.185      0.000      0.000
REMARK INTER + INTRA:          -7.533
REMARK INTER:                  -7.003
REMARK INTRA:                  -0.530
REMARK UNBOUND:                -0.530
REMARK SMILES CC(=O)CCC=C(C)CCC=C(C)C
REMARK SMILES IDX 7 1 6 2 8 3 9 4 10 5 11 6 13 7 12 8 14 9 5 10 4 11 2 12 3 13
REMARK SMILES IDX 1 14
REMARK H PARENT
REMARK Flexibility Score: inf
ROOT
ATOM      1  C   UNL     1     -26.219   0.632  -2.642  1.00  0.00    -0.077 C 
ATOM      2  C   UNL     1     -25.814   0.125  -1.457  1.00  0.00    -0.028 C 
ATOM      3  C   UNL     1     -25.547   1.840  -3.253  1.00  0.00     0.039 C 
ENDROOT
BRANCH   1   4
ATOM      4  C   UNL     1     -27.372  -0.024  -3.374  1.00  0.00     0.034 C 
BRANCH   4   5
ATOM      5  C   UNL     1     -26.905  -1.205  -4.238  1.00  0.00     0.032 C 
BRANCH   5   6
ATOM      6  C   UNL     1     -26.673  -0.794  -5.673  1.00  0.00    -0.028 C 
ATOM      7  C   UNL     1     -27.258  -0.430  -8.049  1.00  0.00     0.039 C 
ATOM      8  C   UNL     1     -27.592  -0.903  -6.658  1.00  0.00    -0.080 C 
ATOM      9  C   UNL     1     -28.939  -1.544  -6.433  1.00  0.00     0.039 C 
ENDBRANCH   5   6
ENDBRANCH   4   5
ENDBRANCH   1   4
BRANCH   2  10
ATOM     10  C   UNL     1     -24.671   0.706  -0.660  1.00  0.00     0.035 C 
BRANCH  10  11
ATOM     11  C   UNL     1     -23.416  -0.164  -0.774  1.00  0.00     0.079 C 
BRANCH  11  12
ATOM     12  C   UNL     1     -22.568  -0.041   0.465  1.00  0.00     0.130 C 
ATOM     13  O   UNL     1     -22.564  -0.947   1.283  1.00  0.00    -0.300 OA
ATOM     14  C   UNL     1     -21.734   1.179   0.724  1.00  0.00     0.087 C 
ENDBRANCH  11  12
ENDBRANCH  10  11
ENDBRANCH   2  10
TORSDOF 6
ENDMDL
MODEL 2
REMARK VINA RESULT:    -5.123      2.931      5.104
REMARK INTER + INTRA:          -7.449
REMARK INTER:                  -6.537
REMARK INTRA:                  -0.913
REMARK UNBOUND:                -0.530
REMARK SMILES CC(=O)CCC=C(C)CCC=C(C)C
REMARK SMILES IDX 7 1 6 2 8 3 9 4 10 5 11 6 13 7 12 8 14 9 5 10 4 11 2 12 3 13
REMARK SMILES IDX 1 14
REMARK H PARENT
REMARK Flexibility Score: inf
ROOT
ATOM      1  C   UNL     1     -24.863   0.939  -2.613  1.00  0.00    -0.077 C 
ATOM      2  C   UNL     1     -23.606   0.623  -2.233  1.00  0.00    -0.028 C 
ATOM      3  C   UNL     1     -26.059   0.178  -2.086  1.00  0.00     0.039 C 
ENDROOT
BRANCH   1   4
ATOM      4  C   UNL     1     -25.081   2.078  -3.588  1.00  0.00     0.034 C 
BRANCH   4   5
ATOM      5  C   UNL     1     -25.781   3.274  -2.925  1.00  0.00     0.032 C 
BRANCH   5   6
ATOM      6  C   UNL     1     -25.027   3.763  -1.711  1.00  0.00    -0.028 C 
ATOM      7  C   UNL     1     -24.528   5.256   0.197  1.00  0.00     0.039 C 
ATOM      8  C   UNL     1     -25.334   4.884  -1.020  1.00  0.00    -0.080 C 
ATOM      9  C   UNL     1     -26.429   5.823  -1.459  1.00  0.00     0.039 C 
ENDBRANCH   5   6
ENDBRANCH   4   5
ENDBRANCH   1   4
BRANCH   2  10
ATOM     10  C   UNL     1     -23.293  -0.489  -1.262  1.00  0.00     0.035 C 
BRANCH  10  11
ATOM     11  C   UNL     1     -22.664   0.057   0.024  1.00  0.00     0.079 C 
BRANCH  11  12
ATOM     12  C   UNL     1     -23.668   0.068   1.146  1.00  0.00     0.130 C 
ATOM     13  O   UNL     1     -23.680  -0.849   1.952  1.00  0.00    -0.300 OA
ATOM     14  C   UNL     1     -24.668   1.178   1.290  1.00  0.00     0.087 C 
ENDBRANCH  11  12
ENDBRANCH  10  11
ENDBRANCH   2  10
TORSDOF 6
ENDMDL
MODEL 3
REMARK VINA RESULT:    -5.039      3.065      6.795
REMARK INTER + INTRA:          -7.336
REMARK INTER:                  -6.376
REMARK INTRA:                  -0.960
REMARK UNBOUND:                -0.530
REMARK SMILES CC(=O)CCC=C(C)CCC=C(C)C
REMARK SMILES IDX 7 1 6 2 8 3 9 4 10 5 11 6 13 7 12 8 14 9 5 10 4 11 2 12 3 13
REMARK SMILES IDX 1 14
REMARK H PARENT
REMARK Flexibility Score: inf
ROOT
ATOM      1  C   UNL     1     -26.479   0.420  -3.269  1.00  0.00    -0.077 C 
ATOM      2  C   UNL     1     -26.285  -0.070  -4.513  1.00  0.00    -0.028 C 
ATOM      3  C   UNL     1     -27.311  -0.326  -2.250  1.00  0.00     0.039 C 
ENDROOT
BRANCH   1   4
ATOM      4  C   UNL     1     -25.852   1.744  -2.885  1.00  0.00     0.034 C 
BRANCH   4   5
ATOM      5  C   UNL     1     -24.318   1.666  -2.859  1.00  0.00     0.032 C 
BRANCH   5   6
ATOM      6  C   UNL     1     -23.803   1.179  -1.525  1.00  0.00    -0.028 C 
ATOM      7  C   UNL     1     -22.799  -0.425   0.068  1.00  0.00     0.039 C 
ATOM      8  C   UNL     1     -23.316  -0.062  -1.299  1.00  0.00    -0.080 C 
ATOM      9  C   UNL     1     -23.324  -1.134  -2.361  1.00  0.00     0.039 C 
ENDBRANCH   5   6
ENDBRANCH   4   5
ENDBRANCH   1   4
BRANCH   2  10
ATOM     10  C   UNL     1     -26.863  -1.383  -4.982  1.00  0.00     0.035 C 
BRANCH  10  11
ATOM     11  C   UNL     1     -28.155  -1.168  -5.776  1.00  0.00     0.079 C 
BRANCH  11  12
ATOM     12  C   UNL     1     -27.927  -1.419  -7.243  1.00  0.00     0.130 C 
ATOM     13  O   UNL     1     -28.316  -2.464  -7.742  1.00  0.00    -0.300 OA
ATOM     14  C   UNL     1     -27.219  -0.417  -8.108  1.00  0.00     0.087 C 
ENDBRANCH  11  12
ENDBRANCH  10  11
ENDBRANCH   2  10
TORSDOF 6
ENDMDL
MODEL 4
REMARK VINA RESULT:    -5.027      3.346      6.578
REMARK INTER + INTRA:          -7.319
REMARK INTER:                  -6.318
REMARK INTRA:                  -1.001
REMARK UNBOUND:                -0.530
REMARK SMILES CC(=O)CCC=C(C)CCC=C(C)C
REMARK SMILES IDX 7 1 6 2 8 3 9 4 10 5 11 6 13 7 12 8 14 9 5 10 4 11 2 12 3 13
REMARK SMILES IDX 1 14
REMARK H PARENT
REMARK Flexibility Score: inf
ROOT
ATOM      1  C   UNL     1     -26.940  -0.479  -2.967  1.00  0.00    -0.077 C 
ATOM      2  C   UNL     1     -26.218  -1.187  -3.864  1.00  0.00    -0.028 C 
ATOM      3  C   UNL     1     -28.278   0.121  -3.331  1.00  0.00     0.039 C 
ENDROOT
BRANCH   1   4
ATOM      4  C   UNL     1     -26.395  -0.281  -1.567  1.00  0.00     0.034 C 
BRANCH   4   5
ATOM      5  C   UNL     1     -24.985   0.328  -1.581  1.00  0.00     0.032 C 
BRANCH   5   6
ATOM      6  C   UNL     1     -25.001   1.790  -1.202  1.00  0.00    -0.028 C 
ATOM      7  C   UNL     1     -25.053   4.232  -1.592  1.00  0.00     0.039 C 
ATOM      8  C   UNL     1     -25.005   2.810  -2.089  1.00  0.00    -0.080 C 
ATOM      9  C   UNL     1     -24.900   2.582  -3.576  1.00  0.00     0.039 C 
ENDBRANCH   5   6
ENDBRANCH   4   5
ENDBRANCH   1   4
BRANCH   2  10
ATOM     10  C   UNL     1     -26.683  -1.441  -5.278  1.00  0.00     0.035 C 
BRANCH  10  11
ATOM     11  C   UNL     1     -27.105  -2.901  -5.469  1.00  0.00     0.079 C 
BRANCH  11  12
ATOM     12  C   UNL     1     -28.423  -2.984  -6.193  1.00  0.00     0.130 C 
ATOM     13  O   UNL     1     -28.832  -4.069  -6.576  1.00  0.00    -0.300 OA
ATOM     14  C   UNL     1     -29.242  -1.757  -6.469  1.00  0.00     0.087 C 
ENDBRANCH  11  12
ENDBRANCH  10  11
ENDBRANCH   2  10
TORSDOF 6
ENDMDL
MODEL 5
REMARK VINA RESULT:    -5.020      3.316      7.312
REMARK INTER + INTRA:          -7.311
REMARK INTER:                  -6.629
REMARK INTRA:                  -0.682
REMARK UNBOUND:                -0.530
REMARK SMILES CC(=O)CCC=C(C)CCC=C(C)C
REMARK SMILES IDX 7 1 6 2 8 3 9 4 10 5 11 6 13 7 12 8 14 9 5 10 4 11 2 12 3 13
REMARK SMILES IDX 1 14
REMARK H PARENT
REMARK Flexibility Score: inf
ROOT
ATOM      1  C   UNL     1     -26.688  -1.121  -3.204  1.00  0.00    -0.077 C 
ATOM      2  C   UNL     1     -27.407  -0.545  -4.192  1.00  0.00    -0.028 C 
ATOM      3  C   UNL     1     -25.898  -2.388  -3.440  1.00  0.00     0.039 C 
ENDROOT
BRANCH   1   4
ATOM      4  C   UNL     1     -26.672  -0.486  -1.828  1.00  0.00     0.034 C 
BRANCH   4   5
ATOM      5  C   UNL     1     -25.656   0.663  -1.740  1.00  0.00     0.032 C 
BRANCH   5   6
ATOM      6  C   UNL     1     -24.343   0.207  -1.149  1.00  0.00    -0.028 C 
ATOM      7  C   UNL     1     -22.676  -0.190   0.634  1.00  0.00     0.039 C 
ATOM      8  C   UNL     1     -24.004   0.333   0.153  1.00  0.00    -0.080 C 
ATOM      9  C   UNL     1     -24.891   1.038   1.149  1.00  0.00     0.039 C 
ENDBRANCH   5   6
ENDBRANCH   4   5
ENDBRANCH   1   4
BRANCH   2  10
ATOM     10  C   UNL     1     -27.475  -1.102  -5.593  1.00  0.00     0.035 C 
BRANCH  10  11
ATOM     11  C   UNL     1     -28.905  -1.513  -5.957  1.00  0.00     0.079 C 
BRANCH  11  12
ATOM     12  C   UNL     1     -28.926  -2.893  -6.560  1.00  0.00     0.130 C 
ATOM     13  O   UNL     1     -29.597  -3.104  -7.558  1.00  0.00    -0.300 OA
ATOM     14  C   UNL     1     -28.146  -4.023  -5.954  1.00  0.00     0.087 C 
ENDBRANCH  11  12
ENDBRANCH  10  11
ENDBRANCH   2  10
TORSDOF 6
ENDMDL
MODEL 6
REMARK VINA RESULT:    -5.017      1.727      2.579
REMARK INTER + INTRA:          -7.306
REMARK INTER:                  -6.393
REMARK INTRA:                  -0.913
REMARK UNBOUND:                -0.530
REMARK SMILES CC(=O)CCC=C(C)CCC=C(C)C
REMARK SMILES IDX 7 1 6 2 8 3 9 4 10 5 11 6 13 7 12 8 14 9 5 10 4 11 2 12 3 13
REMARK SMILES IDX 1 14
REMARK H PARENT
REMARK Flexibility Score: inf
ROOT
ATOM      1  C   UNL     1     -26.695   0.195  -2.426  1.00  0.00    -0.077 C 
ATOM      2  C   UNL     1     -25.725   1.130  -2.528  1.00  0.00    -0.028 C 
ATOM      3  C   UNL     1     -26.989  -0.495  -1.114  1.00  0.00     0.039 C 
ENDROOT
BRANCH   1   4
ATOM      4  C   UNL     1     -27.506  -0.170  -3.653  1.00  0.00     0.034 C 
BRANCH   4   5
ATOM      5  C   UNL     1     -26.613  -0.638  -4.812  1.00  0.00     0.032 C 
BRANCH   5   6
ATOM      6  C   UNL     1     -27.009  -2.009  -5.308  1.00  0.00    -0.028 C 
ATOM      7  C   UNL     1     -27.129  -4.479  -5.287  1.00  0.00     0.039 C 
ATOM      8  C   UNL     1     -26.646  -3.170  -4.719  1.00  0.00    -0.080 C 
ATOM      9  C   UNL     1     -25.714  -3.213  -3.533  1.00  0.00     0.039 C 
ENDBRANCH   5   6
ENDBRANCH   4   5
ENDBRANCH   1   4
BRANCH   2  10
ATOM     10  C   UNL     1     -24.872   1.563  -1.360  1.00  0.00     0.035 C 
BRANCH  10  11
ATOM     11  C   UNL     1     -23.401   1.203  -1.585  1.00  0.00     0.079 C 
BRANCH  11  12
ATOM     12  C   UNL     1     -23.107  -0.184  -1.076  1.00  0.00     0.130 C 
ATOM     13  O   UNL     1     -23.175  -1.132  -1.842  1.00  0.00    -0.300 OA
ATOM     14  C   UNL     1     -22.744  -0.430   0.359  1.00  0.00     0.087 C 
ENDBRANCH  11  12
ENDBRANCH  10  11
ENDBRANCH   2  10
TORSDOF 6
ENDMDL
MODEL 7
REMARK VINA RESULT:    -4.984      1.828      2.131
REMARK INTER + INTRA:          -7.261
REMARK INTER:                  -6.538
REMARK INTRA:                  -0.723
REMARK UNBOUND:                -0.530
REMARK SMILES CC(=O)CCC=C(C)CCC=C(C)C
REMARK SMILES IDX 7 1 6 2 8 3 9 4 10 5 11 6 13 7 12 8 14 9 5 10 4 11 2 12 3 13
REMARK SMILES IDX 1 14
REMARK H PARENT
REMARK Flexibility Score: inf
ROOT
ATOM      1  C   UNL     1     -26.455  -0.184  -2.235  1.00  0.00    -0.077 C 
ATOM      2  C   UNL     1     -25.146   0.059  -2.465  1.00  0.00    -0.028 C 
ATOM      3  C   UNL     1     -26.967  -0.494  -0.847  1.00  0.00     0.039 C 
ENDROOT
BRANCH   1   4
ATOM      4  C   UNL     1     -27.432  -0.146  -3.393  1.00  0.00     0.034 C 
BRANCH   4   5
ATOM      5  C   UNL     1     -27.192  -1.296  -4.383  1.00  0.00     0.032 C 
BRANCH   5   6
ATOM      6  C   UNL     1     -26.838  -0.787  -5.760  1.00  0.00    -0.028 C 
ATOM      7  C   UNL     1     -27.211  -0.274  -8.151  1.00  0.00     0.039 C 
ATOM      8  C   UNL     1     -27.661  -0.845  -6.831  1.00  0.00    -0.080 C 
ATOM      9  C   UNL     1     -29.009  -1.519  -6.774  1.00  0.00     0.039 C 
ENDBRANCH   5   6
ENDBRANCH   4   5
ENDBRANCH   1   4
BRANCH   2  10
ATOM     10  C   UNL     1     -24.103   0.050  -1.374  1.00  0.00     0.035 C 
BRANCH  10  11
ATOM     11  C   UNL     1     -23.568   1.460  -1.107  1.00  0.00     0.079 C 
BRANCH  11  12
ATOM     12  C   UNL     1     -24.420   2.168  -0.086  1.00  0.00     0.130 C 
ATOM     13  O   UNL     1     -24.898   3.259  -0.354  1.00  0.00    -0.300 OA
ATOM     14  C   UNL     1     -24.686   1.567   1.263  1.00  0.00     0.087 C 
ENDBRANCH  11  12
ENDBRANCH  10  11
ENDBRANCH   2  10
TORSDOF 6
ENDMDL
MODEL 8
REMARK VINA RESULT:    -4.930      2.958      6.691
REMARK INTER + INTRA:          -7.189
REMARK INTER:                  -6.141
REMARK INTRA:                  -1.048
REMARK UNBOUND:                -0.530
REMARK SMILES CC(=O)CCC=C(C)CCC=C(C)C
REMARK SMILES IDX 7 1 6 2 8 3 9 4 10 5 11 6 13 7 12 8 14 9 5 10 4 11 2 12 3 13
REMARK SMILES IDX 1 14
REMARK H PARENT
REMARK Flexibility Score: inf
ROOT
ATOM      1  C   UNL     1     -25.541   1.506  -3.580  1.00  0.00    -0.077 C 
ATOM      2  C   UNL     1     -26.589   0.776  -3.139  1.00  0.00    -0.028 C 
ATOM      3  C   UNL     1     -24.669   1.023  -4.716  1.00  0.00     0.039 C 
ENDROOT
BRANCH   1   4
ATOM      4  C   UNL     1     -25.233   2.836  -2.923  1.00  0.00     0.034 C 
BRANCH   4   5
ATOM      5  C   UNL     1     -24.010   2.748  -1.998  1.00  0.00     0.032 C 
BRANCH   5   6
ATOM      6  C   UNL     1     -24.384   2.267  -0.616  1.00  0.00    -0.028 C 
ATOM      7  C   UNL     1     -24.471   0.693   1.290  1.00  0.00     0.039 C 
ATOM      8  C   UNL     1     -24.071   1.050  -0.118  1.00  0.00    -0.080 C 
ATOM      9  C   UNL     1     -23.380  -0.004  -0.948  1.00  0.00     0.039 C 
ENDBRANCH   5   6
ENDBRANCH   4   5
ENDBRANCH   1   4
BRANCH   2  10
ATOM     10  C   UNL     1     -26.976  -0.556  -3.735  1.00  0.00     0.035 C 
BRANCH  10  11
ATOM     11  C   UNL     1     -28.354  -0.486  -4.401  1.00  0.00     0.079 C 
BRANCH  11  12
ATOM     12  C   UNL     1     -28.321  -1.128  -5.763  1.00  0.00     0.130 C 
ATOM     13  O   UNL     1     -29.285  -1.772  -6.148  1.00  0.00    -0.300 OA
ATOM     14  C   UNL     1     -27.122  -1.006  -6.656  1.00  0.00     0.087 C 
ENDBRANCH  11  12
ENDBRANCH  10  11
ENDBRANCH   2  10
TORSDOF 6
ENDMDL
MODEL 9
REMARK VINA RESULT:    -4.925      3.020      6.175
REMARK INTER + INTRA:          -7.183
REMARK INTER:                  -5.823
REMARK INTRA:                  -1.360
REMARK UNBOUND:                -0.530
REMARK SMILES CC(=O)CCC=C(C)CCC=C(C)C
REMARK SMILES IDX 7 1 6 2 8 3 9 4 10 5 11 6 13 7 12 8 14 9 5 10 4 11 2 12 3 13
REMARK SMILES IDX 1 14
REMARK H PARENT
REMARK Flexibility Score: inf
ROOT
ATOM      1  C   UNL     1     -24.711   0.381   0.225  1.00  0.00    -0.077 C 
ATOM      2  C   UNL     1     -25.870   0.266  -0.460  1.00  0.00    -0.028 C 
ATOM      3  C   UNL     1     -23.405  -0.117  -0.349  1.00  0.00     0.039 C 
ENDROOT
BRANCH   1   4
ATOM      4  C   UNL     1     -24.721   1.022   1.598  1.00  0.00     0.034 C 
BRANCH   4   5
ATOM      5  C   UNL     1     -23.952   2.352   1.614  1.00  0.00     0.032 C 
BRANCH   5   6
ATOM      6  C   UNL     1     -24.685   3.434   0.856  1.00  0.00    -0.028 C 
ATOM      7  C   UNL     1     -25.124   4.990  -1.016  1.00  0.00     0.039 C 
ATOM      8  C   UNL     1     -24.293   3.932  -0.337  1.00  0.00    -0.080 C 
ATOM      9  C   UNL     1     -23.006   3.508  -1.000  1.00  0.00     0.039 C 
ENDBRANCH   5   6
ENDBRANCH   4   5
ENDBRANCH   1   4
BRANCH   2  10
ATOM     10  C   UNL     1     -25.957  -0.351  -1.835  1.00  0.00     0.035 C 
BRANCH  10  11
ATOM     11  C   UNL     1     -26.237   0.711  -2.903  1.00  0.00     0.079 C 
BRANCH  11  12
ATOM     12  C   UNL     1     -24.967   1.102  -3.612  1.00  0.00     0.130 C 
ATOM     13  O   UNL     1     -24.087   0.270  -3.773  1.00  0.00    -0.300 OA
ATOM     14  C   UNL     1     -24.750   2.499  -4.115  1.00  0.00     0.087 C 
ENDBRANCH  11  12
ENDBRANCH  10  11
ENDBRANCH   2  10
TORSDOF 6
ENDMDL
