MODEL 1
REMARK VINA RESULT:    -5.448      0.000      0.000
REMARK INTER + INTRA:          -6.987
REMARK INTER:                  -6.563
REMARK INTRA:                  -0.424
REMARK UNBOUND:                -0.424
REMARK SMILES O=c1c(O)c(-c2ccc(O)cc2O)oc2cc(O)cc(O)c12
REMARK SMILES IDX 5 1 3 2 2 3 1 4 22 5 20 6 19 7 17 8 16 9 15 10 14 11 6 12
REMARK SMILES IDX 8 13 7 14 9 15 11 16 12 17 10 18 13 20 4 22 21 24 18 26
REMARK H PARENT 10 19 13 21 4 23 21 25 18 27
REMARK Flexibility Score: inf
ROOT
ATOM      1  C   UNL     1      14.977  28.758  33.021  1.00  0.00     0.184 A 
ATOM      2  C   UNL     1      13.606  29.021  32.878  1.00  0.00     0.208 A 
ATOM      3  C   UNL     1      12.688  28.274  33.633  1.00  0.00     0.238 A 
ATOM      4  O   UNL     1      11.458  28.476  33.462  1.00  0.00    -0.285 OA
ATOM      5  C   UNL     1      13.157  27.286  34.533  1.00  0.00     0.111 A 
ATOM      6  C   UNL     1      12.319  26.497  35.378  1.00  0.00     0.134 A 
ATOM      7  C   UNL     1      12.880  25.460  36.132  1.00  0.00     0.093 A 
ATOM      8  C   UNL     1      14.258  25.225  36.123  1.00  0.00     0.123 A 
ATOM      9  C   UNL     1      15.091  26.028  35.347  1.00  0.00     0.094 A 
ATOM     10  C   UNL     1      14.556  27.047  34.556  1.00  0.00     0.146 A 
ATOM     11  O   UNL     1      15.384  27.781  33.822  1.00  0.00    -0.451 OA
ENDROOT
BRANCH   1  12
ATOM     12  C   UNL     1      15.996  29.520  32.268  1.00  0.00     0.063 A 
ATOM     13  C   UNL     1      17.283  31.567  32.004  1.00  0.00     0.047 A 
ATOM     14  C   UNL     1      16.329  30.816  32.694  1.00  0.00     0.020 A 
ATOM     15  C   UNL     1      17.906  31.038  30.870  1.00  0.00     0.119 A 
ATOM     16  C   UNL     1      17.563  29.756  30.422  1.00  0.00     0.093 A 
ATOM     17  C   UNL     1      16.603  28.999  31.107  1.00  0.00     0.130 A 
BRANCH  15  18
ATOM     18  O   UNL     1      18.858  31.797  30.193  1.00  0.00    -0.508 OA
ATOM     19  H   UNL     1      18.889  31.827  29.180  1.00  0.00     0.293 HD
ENDBRANCH  15  18
BRANCH  17  20
ATOM     20  O   UNL     1      16.236  27.743  30.623  1.00  0.00    -0.507 OA
ATOM     21  H   UNL     1      15.298  27.378  30.747  1.00  0.00     0.293 HD
ENDBRANCH  17  20
ENDBRANCH   1  12
BRANCH   2  22
ATOM     22  O   UNL     1      13.171  29.989  31.969  1.00  0.00    -0.502 OA
ATOM     23  H   UNL     1      12.422  30.638  32.183  1.00  0.00     0.293 HD
ENDBRANCH   2  22
BRANCH   6  24
ATOM     24  O   UNL     1      10.946  26.707  35.531  1.00  0.00    -0.507 OA
ATOM     25  H   UNL     1      10.470  27.573  35.324  1.00  0.00     0.293 HD
ENDBRANCH   6  24
BRANCH   8  26
ATOM     26  O   UNL     1      14.810  24.201  36.889  1.00  0.00    -0.508 OA
ATOM     27  H   UNL     1      14.250  23.422  37.214  1.00  0.00     0.293 HD
ENDBRANCH   8  26
TORSDOF 6
ENDMDL
MODEL 2
REMARK VINA RESULT:    -5.281      7.970     10.965
REMARK INTER + INTRA:          -6.786
REMARK INTER:                  -6.369
REMARK INTRA:                  -0.418
REMARK UNBOUND:                -0.424
REMARK SMILES O=c1c(O)c(-c2ccc(O)cc2O)oc2cc(O)cc(O)c12
REMARK SMILES IDX 5 1 3 2 2 3 1 4 22 5 20 6 19 7 17 8 16 9 15 10 14 11 6 12
REMARK SMILES IDX 8 13 7 14 9 15 11 16 12 17 10 18 13 20 4 22 21 24 18 26
REMARK H PARENT 10 19 13 21 4 23 21 25 18 27
REMARK Flexibility Score: inf
ROOT
ATOM      1  C   UNL     1      21.105  26.244  40.032  1.00  0.00     0.184 A 
ATOM      2  C   UNL     1      22.032  25.214  40.257  1.00  0.00     0.208 A 
ATOM      3  C   UNL     1      22.639  24.593  39.154  1.00  0.00     0.238 A 
ATOM      4  O   UNL     1      23.428  23.634  39.359  1.00  0.00    -0.285 OA
ATOM      5  C   UNL     1      22.323  25.023  37.842  1.00  0.00     0.111 A 
ATOM      6  C   UNL     1      22.908  24.493  36.653  1.00  0.00     0.134 A 
ATOM      7  C   UNL     1      22.425  24.902  35.404  1.00  0.00     0.093 A 
ATOM      8  C   UNL     1      21.424  25.872  35.301  1.00  0.00     0.123 A 
ATOM      9  C   UNL     1      20.889  26.439  36.455  1.00  0.00     0.094 A 
ATOM     10  C   UNL     1      21.324  26.024  37.716  1.00  0.00     0.146 A 
ATOM     11  O   UNL     1      20.779  26.582  38.790  1.00  0.00    -0.451 OA
ENDROOT
BRANCH   1  12
ATOM     12  C   UNL     1      20.444  26.951  41.150  1.00  0.00     0.063 A 
ATOM     13  C   UNL     1      20.563  28.624  42.909  1.00  0.00     0.047 A 
ATOM     14  C   UNL     1      21.155  27.941  41.845  1.00  0.00     0.020 A 
ATOM     15  C   UNL     1      19.258  28.317  43.302  1.00  0.00     0.119 A 
ATOM     16  C   UNL     1      18.548  27.313  42.631  1.00  0.00     0.093 A 
ATOM     17  C   UNL     1      19.137  26.620  41.565  1.00  0.00     0.130 A 
BRANCH  15  18
ATOM     18  O   UNL     1      18.679  29.009  44.364  1.00  0.00    -0.508 OA
ATOM     19  H   UNL     1      19.211  29.250  45.192  1.00  0.00     0.293 HD
ENDBRANCH  15  18
BRANCH  17  20
ATOM     20  O   UNL     1      18.438  25.589  40.936  1.00  0.00    -0.507 OA
ATOM     21  H   UNL     1      17.755  25.028  41.434  1.00  0.00     0.293 HD
ENDBRANCH  17  20
ENDBRANCH   1  12
BRANCH   2  22
ATOM     22  O   UNL     1      22.311  24.797  41.561  1.00  0.00    -0.502 OA
ATOM     23  H   UNL     1      21.713  24.153  42.066  1.00  0.00     0.293 HD
ENDBRANCH   2  22
BRANCH   6  24
ATOM     24  O   UNL     1      23.974  23.588  36.643  1.00  0.00    -0.507 OA
ATOM     25  H   UNL     1      23.910  22.622  36.928  1.00  0.00     0.293 HD
ENDBRANCH   6  24
BRANCH   8  26
ATOM     26  O   UNL     1      20.961  26.286  34.054  1.00  0.00    -0.508 OA
ATOM     27  H   UNL     1      21.022  27.254  33.762  1.00  0.00     0.293 HD
ENDBRANCH   8  26
TORSDOF 6
ENDMDL
MODEL 3
REMARK VINA RESULT:    -5.253      1.753      7.112
REMARK INTER + INTRA:          -6.752
REMARK INTER:                  -6.348
REMARK INTRA:                  -0.404
REMARK UNBOUND:                -0.424
REMARK SMILES O=c1c(O)c(-c2ccc(O)cc2O)oc2cc(O)cc(O)c12
REMARK SMILES IDX 5 1 3 2 2 3 1 4 22 5 20 6 19 7 17 8 16 9 15 10 14 11 6 12
REMARK SMILES IDX 8 13 7 14 9 15 11 16 12 17 10 18 13 20 4 22 21 24 18 26
REMARK H PARENT 10 19 13 21 4 23 21 25 18 27
REMARK Flexibility Score: inf
ROOT
ATOM      1  C   UNL     1      15.763  29.620  32.672  1.00  0.00     0.184 A 
ATOM      2  C   UNL     1      16.474  29.315  31.501  1.00  0.00     0.208 A 
ATOM      3  C   UNL     1      17.356  30.271  30.972  1.00  0.00     0.238 A 
ATOM      4  O   UNL     1      17.949  30.014  29.892  1.00  0.00    -0.285 OA
ATOM      5  C   UNL     1      17.525  31.512  31.632  1.00  0.00     0.111 A 
ATOM      6  C   UNL     1      18.422  32.539  31.209  1.00  0.00     0.134 A 
ATOM      7  C   UNL     1      18.413  33.777  31.863  1.00  0.00     0.093 A 
ATOM      8  C   UNL     1      17.587  34.003  32.967  1.00  0.00     0.123 A 
ATOM      9  C   UNL     1      16.752  32.986  33.425  1.00  0.00     0.094 A 
ATOM     10  C   UNL     1      16.712  31.753  32.771  1.00  0.00     0.146 A 
ATOM     11  O   UNL     1      15.893  30.816  33.233  1.00  0.00    -0.451 OA
ENDROOT
BRANCH   1  12
ATOM     12  C   UNL     1      14.833  28.651  33.290  1.00  0.00     0.063 A 
ATOM     13  C   UNL     1      14.470  26.838  34.869  1.00  0.00     0.047 A 
ATOM     14  C   UNL     1      15.319  27.770  34.269  1.00  0.00     0.020 A 
ATOM     15  C   UNL     1      13.127  26.764  34.489  1.00  0.00     0.119 A 
ATOM     16  C   UNL     1      12.637  27.622  33.495  1.00  0.00     0.093 A 
ATOM     17  C   UNL     1      13.485  28.557  32.885  1.00  0.00     0.130 A 
BRANCH  15  18
ATOM     18  O   UNL     1      12.290  25.832  35.099  1.00  0.00    -0.508 OA
ATOM     19  H   UNL     1      11.281  25.901  35.031  1.00  0.00     0.293 HD
ENDBRANCH  15  18
BRANCH  17  20
ATOM     20  O   UNL     1      12.998  29.372  31.863  1.00  0.00    -0.507 OA
ATOM     21  H   UNL     1      13.578  29.647  31.079  1.00  0.00     0.293 HD
ENDBRANCH  17  20
ENDBRANCH   1  12
BRANCH   2  22
ATOM     22  O   UNL     1      16.272  28.090  30.860  1.00  0.00    -0.502 OA
ATOM     23  H   UNL     1      15.466  27.505  31.046  1.00  0.00     0.293 HD
ENDBRANCH   2  22
BRANCH   6  24
ATOM     24  O   UNL     1      19.352  32.387  30.176  1.00  0.00    -0.507 OA
ATOM     25  H   UNL     1      20.183  31.816  30.230  1.00  0.00     0.293 HD
ENDBRANCH   6  24
BRANCH   8  26
ATOM     26  O   UNL     1      17.596  35.232  33.623  1.00  0.00    -0.508 OA
ATOM     27  H   UNL     1      17.275  35.324  34.579  1.00  0.00     0.293 HD
ENDBRANCH   8  26
TORSDOF 6
ENDMDL
MODEL 4
REMARK VINA RESULT:    -5.243      9.844     12.662
REMARK INTER + INTRA:          -6.739
REMARK INTER:                  -6.409
REMARK INTRA:                  -0.330
REMARK UNBOUND:                -0.424
REMARK SMILES O=c1c(O)c(-c2ccc(O)cc2O)oc2cc(O)cc(O)c12
REMARK SMILES IDX 5 1 3 2 2 3 1 4 22 5 20 6 19 7 17 8 16 9 15 10 14 11 6 12
REMARK SMILES IDX 8 13 7 14 9 15 11 16 12 17 10 18 13 20 4 22 21 24 18 26
REMARK H PARENT 10 19 13 21 4 23 21 25 18 27
REMARK Flexibility Score: inf
ROOT
ATOM      1  C   UNL     1      20.368  28.167  42.675  1.00  0.00     0.184 A 
ATOM      2  C   UNL     1      21.135  27.171  43.300  1.00  0.00     0.208 A 
ATOM      3  C   UNL     1      22.528  27.171  43.117  1.00  0.00     0.238 A 
ATOM      4  O   UNL     1      23.205  26.245  43.634  1.00  0.00    -0.285 OA
ATOM      5  C   UNL     1      23.133  28.177  42.325  1.00  0.00     0.111 A 
ATOM      6  C   UNL     1      24.538  28.297  42.104  1.00  0.00     0.134 A 
ATOM      7  C   UNL     1      25.015  29.252  41.199  1.00  0.00     0.093 A 
ATOM      8  C   UNL     1      24.143  30.135  40.556  1.00  0.00     0.123 A 
ATOM      9  C   UNL     1      22.776  30.064  40.810  1.00  0.00     0.094 A 
ATOM     10  C   UNL     1      22.266  29.098  41.681  1.00  0.00     0.146 A 
ATOM     11  O   UNL     1      20.955  29.058  41.886  1.00  0.00    -0.451 OA
ENDROOT
BRANCH   1  12
ATOM     12  C   UNL     1      18.900  28.233  42.841  1.00  0.00     0.063 A 
ATOM     13  C   UNL     1      16.969  29.345  43.816  1.00  0.00     0.047 A 
ATOM     14  C   UNL     1      18.351  29.255  43.633  1.00  0.00     0.020 A 
ATOM     15  C   UNL     1      16.120  28.407  43.223  1.00  0.00     0.119 A 
ATOM     16  C   UNL     1      16.659  27.369  42.451  1.00  0.00     0.093 A 
ATOM     17  C   UNL     1      18.045  27.270  42.267  1.00  0.00     0.130 A 
BRANCH  15  18
ATOM     18  O   UNL     1      14.743  28.511  43.411  1.00  0.00    -0.508 OA
ATOM     19  H   UNL     1      14.218  27.787  43.887  1.00  0.00     0.293 HD
ENDBRANCH  15  18
BRANCH  17  20
ATOM     20  O   UNL     1      18.574  26.205  41.537  1.00  0.00    -0.507 OA
ATOM     21  H   UNL     1      19.574  26.084  41.420  1.00  0.00     0.293 HD
ENDBRANCH  17  20
ENDBRANCH   1  12
BRANCH   2  22
ATOM     22  O   UNL     1      20.510  26.180  44.060  1.00  0.00    -0.502 OA
ATOM     23  H   UNL     1      20.809  25.944  44.999  1.00  0.00     0.293 HD
ENDBRANCH   2  22
BRANCH   6  24
ATOM     24  O   UNL     1      25.501  27.528  42.764  1.00  0.00    -0.507 OA
ATOM     25  H   UNL     1      26.368  27.215  42.352  1.00  0.00     0.293 HD
ENDBRANCH   6  24
BRANCH   8  26
ATOM     26  O   UNL     1      24.628  31.093  39.669  1.00  0.00    -0.508 OA
ATOM     27  H   UNL     1      24.806  30.872  38.696  1.00  0.00     0.293 HD
ENDBRANCH   8  26
TORSDOF 6
ENDMDL
MODEL 5
REMARK VINA RESULT:    -5.242      8.680     10.495
REMARK INTER + INTRA:          -6.739
REMARK INTER:                  -6.313
REMARK INTRA:                  -0.426
REMARK UNBOUND:                -0.424
REMARK SMILES O=c1c(O)c(-c2ccc(O)cc2O)oc2cc(O)cc(O)c12
REMARK SMILES IDX 5 1 3 2 2 3 1 4 22 5 20 6 19 7 17 8 16 9 15 10 14 11 6 12
REMARK SMILES IDX 8 13 7 14 9 15 11 16 12 17 10 18 13 20 4 22 21 24 18 26
REMARK H PARENT 10 19 13 21 4 23 21 25 18 27
REMARK Flexibility Score: inf
ROOT
ATOM      1  C   UNL     1      21.080  26.257  40.602  1.00  0.00     0.184 A 
ATOM      2  C   UNL     1      21.785  27.056  41.516  1.00  0.00     0.208 A 
ATOM      3  C   UNL     1      21.072  27.728  42.522  1.00  0.00     0.238 A 
ATOM      4  O   UNL     1      21.702  28.486  43.305  1.00  0.00    -0.285 OA
ATOM      5  C   UNL     1      19.667  27.576  42.609  1.00  0.00     0.111 A 
ATOM      6  C   UNL     1      18.848  28.178  43.613  1.00  0.00     0.134 A 
ATOM      7  C   UNL     1      17.456  28.066  43.525  1.00  0.00     0.093 A 
ATOM      8  C   UNL     1      16.854  27.319  42.509  1.00  0.00     0.123 A 
ATOM      9  C   UNL     1      17.648  26.679  41.560  1.00  0.00     0.094 A 
ATOM     10  C   UNL     1      19.039  26.802  41.599  1.00  0.00     0.146 A 
ATOM     11  O   UNL     1      19.756  26.185  40.668  1.00  0.00    -0.451 OA
ENDROOT
BRANCH   1  12
ATOM     12  C   UNL     1      21.772  25.509  39.530  1.00  0.00     0.063 A 
ATOM     13  C   UNL     1      23.141  23.610  38.874  1.00  0.00     0.047 A 
ATOM     14  C   UNL     1      22.471  24.337  39.860  1.00  0.00     0.020 A 
ATOM     15  C   UNL     1      23.133  24.052  37.548  1.00  0.00     0.119 A 
ATOM     16  C   UNL     1      22.459  25.233  37.212  1.00  0.00     0.093 A 
ATOM     17  C   UNL     1      21.789  25.971  38.198  1.00  0.00     0.130 A 
BRANCH  15  18
ATOM     18  O   UNL     1      23.802  23.314  36.574  1.00  0.00    -0.508 OA
ATOM     19  H   UNL     1      24.751  23.539  36.298  1.00  0.00     0.293 HD
ENDBRANCH  15  18
BRANCH  17  20
ATOM     20  O   UNL     1      21.162  27.171  37.860  1.00  0.00    -0.507 OA
ATOM     21  H   UNL     1      21.493  27.746  37.093  1.00  0.00     0.293 HD
ENDBRANCH  17  20
ENDBRANCH   1  12
BRANCH   2  22
ATOM     22  O   UNL     1      23.169  27.202  41.395  1.00  0.00    -0.502 OA
ATOM     23  H   UNL     1      23.789  26.413  41.260  1.00  0.00     0.293 HD
ENDBRANCH   2  22
BRANCH   6  24
ATOM     24  O   UNL     1      19.350  28.868  44.720  1.00  0.00    -0.507 OA
ATOM     25  H   UNL     1      20.040  28.502  45.360  1.00  0.00     0.293 HD
ENDBRANCH   6  24
BRANCH   8  26
ATOM     26  O   UNL     1      15.468  27.199  42.439  1.00  0.00    -0.508 OA
ATOM     27  H   UNL     1      15.025  26.336  42.145  1.00  0.00     0.293 HD
ENDBRANCH   8  26
TORSDOF 6
ENDMDL
MODEL 6
REMARK VINA RESULT:    -5.241      8.699     10.754
REMARK INTER + INTRA:          -6.737
REMARK INTER:                  -6.444
REMARK INTRA:                  -0.294
REMARK UNBOUND:                -0.424
REMARK SMILES O=c1c(O)c(-c2ccc(O)cc2O)oc2cc(O)cc(O)c12
REMARK SMILES IDX 5 1 3 2 2 3 1 4 22 5 20 6 19 7 17 8 16 9 15 10 14 11 6 12
REMARK SMILES IDX 8 13 7 14 9 15 11 16 12 17 10 18 13 20 4 22 21 24 18 26
REMARK H PARENT 10 19 13 21 4 23 21 25 18 27
REMARK Flexibility Score: inf
ROOT
ATOM      1  C   UNL     1      19.822  27.434  42.578  1.00  0.00     0.184 A 
ATOM      2  C   UNL     1      18.910  28.055  43.445  1.00  0.00     0.208 A 
ATOM      3  C   UNL     1      17.535  27.867  43.234  1.00  0.00     0.238 A 
ATOM      4  O   UNL     1      16.720  28.470  43.980  1.00  0.00    -0.285 OA
ATOM      5  C   UNL     1      17.093  27.046  42.167  1.00  0.00     0.111 A 
ATOM      6  C   UNL     1      15.725  26.753  41.884  1.00  0.00     0.134 A 
ATOM      7  C   UNL     1      15.398  26.036  40.727  1.00  0.00     0.093 A 
ATOM      8  C   UNL     1      16.393  25.544  39.878  1.00  0.00     0.123 A 
ATOM      9  C   UNL     1      17.734  25.774  40.178  1.00  0.00     0.094 A 
ATOM     10  C   UNL     1      18.090  26.518  41.306  1.00  0.00     0.146 A 
ATOM     11  O   UNL     1      19.379  26.724  41.548  1.00  0.00    -0.451 OA
ENDROOT
BRANCH   1  12
ATOM     12  C   UNL     1      21.283  27.578  42.756  1.00  0.00     0.063 A 
ATOM     13  C   UNL     1      23.226  29.035  42.886  1.00  0.00     0.047 A 
ATOM     14  C   UNL     1      21.849  28.862  42.727  1.00  0.00     0.020 A 
ATOM     15  C   UNL     1      24.057  27.925  43.062  1.00  0.00     0.119 A 
ATOM     16  C   UNL     1      23.506  26.637  43.068  1.00  0.00     0.093 A 
ATOM     17  C   UNL     1      22.125  26.456  42.904  1.00  0.00     0.130 A 
BRANCH  15  18
ATOM     18  O   UNL     1      25.428  28.112  43.223  1.00  0.00    -0.508 OA
ATOM     19  H   UNL     1      26.037  27.352  43.505  1.00  0.00     0.293 HD
ENDBRANCH  15  18
BRANCH  17  20
ATOM     20  O   UNL     1      21.594  25.166  42.863  1.00  0.00    -0.507 OA
ATOM     21  H   UNL     1      20.609  25.001  42.688  1.00  0.00     0.293 HD
ENDBRANCH  17  20
ENDBRANCH   1  12
BRANCH   2  22
ATOM     22  O   UNL     1      19.374  28.875  44.477  1.00  0.00    -0.502 OA
ATOM     23  H   UNL     1      20.356  29.088  44.603  1.00  0.00     0.293 HD
ENDBRANCH   2  22
BRANCH   6  24
ATOM     24  O   UNL     1      14.661  27.118  42.714  1.00  0.00    -0.507 OA
ATOM     25  H   UNL     1      14.194  26.496  43.358  1.00  0.00     0.293 HD
ENDBRANCH   6  24
BRANCH   8  26
ATOM     26  O   UNL     1      16.060  24.817  38.738  1.00  0.00    -0.508 OA
ATOM     27  H   UNL     1      15.294  24.153  38.738  1.00  0.00     0.293 HD
ENDBRANCH   8  26
TORSDOF 6
ENDMDL
MODEL 7
REMARK VINA RESULT:    -5.135      6.679      9.787
REMARK INTER + INTRA:          -6.610
REMARK INTER:                  -6.201
REMARK INTRA:                  -0.410
REMARK UNBOUND:                -0.424
REMARK SMILES O=c1c(O)c(-c2ccc(O)cc2O)oc2cc(O)cc(O)c12
REMARK SMILES IDX 5 1 3 2 2 3 1 4 22 5 20 6 19 7 17 8 16 9 15 10 14 11 6 12
REMARK SMILES IDX 8 13 7 14 9 15 11 16 12 17 10 18 13 20 4 22 21 24 18 26
REMARK H PARENT 10 19 13 21 4 23 21 25 18 27
REMARK Flexibility Score: inf
ROOT
ATOM      1  C   UNL     1      17.016  25.937  40.599  1.00  0.00     0.184 A 
ATOM      2  C   UNL     1      16.181  26.754  41.376  1.00  0.00     0.208 A 
ATOM      3  C   UNL     1      16.749  27.527  42.402  1.00  0.00     0.238 A 
ATOM      4  O   UNL     1      15.990  28.217  43.131  1.00  0.00    -0.285 OA
ATOM      5  C   UNL     1      18.147  27.483  42.623  1.00  0.00     0.111 A 
ATOM      6  C   UNL     1      18.837  28.254  43.607  1.00  0.00     0.134 A 
ATOM      7  C   UNL     1      20.202  28.034  43.825  1.00  0.00     0.093 A 
ATOM      8  C   UNL     1      20.917  27.118  43.049  1.00  0.00     0.123 A 
ATOM      9  C   UNL     1      20.266  26.404  42.047  1.00  0.00     0.094 A 
ATOM     10  C   UNL     1      18.897  26.575  41.830  1.00  0.00     0.146 A 
ATOM     11  O   UNL     1      18.313  25.865  40.871  1.00  0.00    -0.451 OA
ENDROOT
BRANCH   1  12
ATOM     12  C   UNL     1      16.483  25.112  39.493  1.00  0.00     0.063 A 
ATOM     13  C   UNL     1      15.906  24.918  37.139  1.00  0.00     0.047 A 
ATOM     14  C   UNL     1      16.409  25.666  38.206  1.00  0.00     0.020 A 
ATOM     15  C   UNL     1      15.457  23.611  37.349  1.00  0.00     0.119 A 
ATOM     16  C   UNL     1      15.504  23.057  38.634  1.00  0.00     0.093 A 
ATOM     17  C   UNL     1      16.003  23.804  39.710  1.00  0.00     0.130 A 
BRANCH  15  18
ATOM     18  O   UNL     1      14.961  22.875  36.275  1.00  0.00    -0.508 OA
ATOM     19  H   UNL     1      15.051  21.866  36.238  1.00  0.00     0.293 HD
ENDBRANCH  15  18
BRANCH  17  20
ATOM     20  O   UNL     1      16.000  23.258  40.995  1.00  0.00    -0.507 OA
ATOM     21  H   UNL     1      15.303  23.520  41.682  1.00  0.00     0.293 HD
ENDBRANCH  17  20
ENDBRANCH   1  12
BRANCH   2  22
ATOM     22  O   UNL     1      14.802  26.764  41.149  1.00  0.00    -0.502 OA
ATOM     23  H   UNL     1      14.226  25.939  41.267  1.00  0.00     0.293 HD
ENDBRANCH   2  22
BRANCH   6  24
ATOM     24  O   UNL     1      18.237  29.259  44.372  1.00  0.00    -0.507 OA
ATOM     25  H   UNL     1      18.698  30.105  44.673  1.00  0.00     0.293 HD
ENDBRANCH   6  24
BRANCH   8  26
ATOM     26  O   UNL     1      22.279  26.917  43.262  1.00  0.00    -0.508 OA
ATOM     27  H   UNL     1      22.903  26.671  42.502  1.00  0.00     0.293 HD
ENDBRANCH   8  26
TORSDOF 6
ENDMDL
MODEL 8
REMARK VINA RESULT:    -5.082     10.582     13.359
REMARK INTER + INTRA:          -6.546
REMARK INTER:                  -6.305
REMARK INTRA:                  -0.241
REMARK UNBOUND:                -0.424
REMARK SMILES O=c1c(O)c(-c2ccc(O)cc2O)oc2cc(O)cc(O)c12
REMARK SMILES IDX 5 1 3 2 2 3 1 4 22 5 20 6 19 7 17 8 16 9 15 10 14 11 6 12
REMARK SMILES IDX 8 13 7 14 9 15 11 16 12 17 10 18 13 20 4 22 21 24 18 26
REMARK H PARENT 10 19 13 21 4 23 21 25 18 27
REMARK Flexibility Score: inf
ROOT
ATOM      1  C   UNL     1      21.578  27.456  42.365  1.00  0.00     0.184 A 
ATOM      2  C   UNL     1      22.502  26.402  42.282  1.00  0.00     0.208 A 
ATOM      3  C   UNL     1      23.874  26.695  42.338  1.00  0.00     0.238 A 
ATOM      4  O   UNL     1      24.699  25.753  42.209  1.00  0.00    -0.285 OA
ATOM      5  C   UNL     1      24.301  28.036  42.494  1.00  0.00     0.111 A 
ATOM      6  C   UNL     1      25.665  28.444  42.604  1.00  0.00     0.134 A 
ATOM      7  C   UNL     1      25.977  29.809  42.624  1.00  0.00     0.093 A 
ATOM      8  C   UNL     1      24.972  30.779  42.605  1.00  0.00     0.123 A 
ATOM      9  C   UNL     1      23.636  30.389  42.558  1.00  0.00     0.094 A 
ATOM     10  C   UNL     1      23.294  29.036  42.500  1.00  0.00     0.146 A 
ATOM     11  O   UNL     1      22.008  28.709  42.445  1.00  0.00    -0.451 OA
ENDROOT
BRANCH   1  12
ATOM     12  C   UNL     1      20.120  27.214  42.329  1.00  0.00     0.063 A 
ATOM     13  C   UNL     1      18.202  26.256  41.182  1.00  0.00     0.047 A 
ATOM     14  C   UNL     1      19.576  26.498  41.251  1.00  0.00     0.020 A 
ATOM     15  C   UNL     1      17.353  26.738  42.181  1.00  0.00     0.119 A 
ATOM     16  C   UNL     1      17.882  27.474  43.249  1.00  0.00     0.093 A 
ATOM     17  C   UNL     1      19.260  27.725  43.322  1.00  0.00     0.130 A 
BRANCH  15  18
ATOM     18  O   UNL     1      15.985  26.485  42.102  1.00  0.00    -0.508 OA
ATOM     19  H   UNL     1      15.312  27.238  42.011  1.00  0.00     0.293 HD
ENDBRANCH  15  18
BRANCH  17  20
ATOM     20  O   UNL     1      19.769  28.501  44.364  1.00  0.00    -0.507 OA
ATOM     21  H   UNL     1      19.163  29.049  44.965  1.00  0.00     0.293 HD
ENDBRANCH  17  20
ENDBRANCH   1  12
BRANCH   2  22
ATOM     22  O   UNL     1      22.053  25.090  42.110  1.00  0.00    -0.502 OA
ATOM     23  H   UNL     1      22.065  24.626  41.209  1.00  0.00     0.293 HD
ENDBRANCH   2  22
BRANCH   6  24
ATOM     24  O   UNL     1      26.738  27.557  42.722  1.00  0.00    -0.507 OA
ATOM     25  H   UNL     1      27.684  27.757  42.432  1.00  0.00     0.293 HD
ENDBRANCH   6  24
BRANCH   8  26
ATOM     26  O   UNL     1      25.291  32.135  42.641  1.00  0.00    -0.508 OA
ATOM     27  H   UNL     1      26.186  32.459  42.989  1.00  0.00     0.293 HD
ENDBRANCH   8  26
TORSDOF 6
ENDMDL
MODEL 9
REMARK VINA RESULT:    -4.962      9.615     11.209
REMARK INTER + INTRA:          -6.402
REMARK INTER:                  -6.010
REMARK INTRA:                  -0.392
REMARK UNBOUND:                -0.424
REMARK SMILES O=c1c(O)c(-c2ccc(O)cc2O)oc2cc(O)cc(O)c12
REMARK SMILES IDX 5 1 3 2 2 3 1 4 22 5 20 6 19 7 17 8 16 9 15 10 14 11 6 12
REMARK SMILES IDX 8 13 7 14 9 15 11 16 12 17 10 18 13 20 4 22 21 24 18 26
REMARK H PARENT 10 19 13 21 4 23 21 25 18 27
REMARK Flexibility Score: inf
ROOT
ATOM      1  C   UNL     1      21.026  27.248  41.935  1.00  0.00     0.184 A 
ATOM      2  C   UNL     1      20.267  26.224  41.347  1.00  0.00     0.208 A 
ATOM      3  C   UNL     1      18.872  26.234  41.507  1.00  0.00     0.238 A 
ATOM      4  O   UNL     1      18.201  25.285  41.024  1.00  0.00    -0.285 OA
ATOM      5  C   UNL     1      18.256  27.279  42.238  1.00  0.00     0.111 A 
ATOM      6  C   UNL     1      16.847  27.412  42.430  1.00  0.00     0.134 A 
ATOM      7  C   UNL     1      16.358  28.411  43.280  1.00  0.00     0.093 A 
ATOM      8  C   UNL     1      17.221  29.323  43.893  1.00  0.00     0.123 A 
ATOM      9  C   UNL     1      18.592  29.238  43.665  1.00  0.00     0.094 A 
ATOM     10  C   UNL     1      19.114  28.229  42.851  1.00  0.00     0.146 A 
ATOM     11  O   UNL     1      20.428  28.177  42.670  1.00  0.00    -0.451 OA
ENDROOT
BRANCH   1  12
ATOM     12  C   UNL     1      22.497  27.304  41.789  1.00  0.00     0.063 A 
ATOM     13  C   UNL     1      24.433  28.141  40.580  1.00  0.00     0.047 A 
ATOM     14  C   UNL     1      23.049  28.070  40.750  1.00  0.00     0.020 A 
ATOM     15  C   UNL     1      25.283  27.437  41.437  1.00  0.00     0.119 A 
ATOM     16  C   UNL     1      24.742  26.650  42.462  1.00  0.00     0.093 A 
ATOM     17  C   UNL     1      23.353  26.570  42.636  1.00  0.00     0.130 A 
BRANCH  15  18
ATOM     18  O   UNL     1      26.662  27.520  41.258  1.00  0.00    -0.508 OA
ATOM     19  H   UNL     1      27.134  28.415  41.189  1.00  0.00     0.293 HD
ENDBRANCH  15  18
BRANCH  17  20
ATOM     20  O   UNL     1      22.824  25.745  43.629  1.00  0.00    -0.507 OA
ATOM     21  H   UNL     1      23.421  25.194  44.236  1.00  0.00     0.293 HD
ENDBRANCH  17  20
ENDBRANCH   1  12
BRANCH   2  22
ATOM     22  O   UNL     1      20.903  25.195  40.647  1.00  0.00    -0.502 OA
ATOM     23  H   UNL     1      21.770  25.337  40.142  1.00  0.00     0.293 HD
ENDBRANCH   2  22
BRANCH   6  24
ATOM     24  O   UNL     1      15.894  26.613  41.793  1.00  0.00    -0.507 OA
ATOM     25  H   UNL     1      15.991  25.621  41.631  1.00  0.00     0.293 HD
ENDBRANCH   6  24
BRANCH   8  26
ATOM     26  O   UNL     1      16.724  30.324  44.724  1.00  0.00    -0.508 OA
ATOM     27  H   UNL     1      17.290  30.731  45.460  1.00  0.00     0.293 HD
ENDBRANCH   8  26
TORSDOF 6
ENDMDL
