MODEL 1
REMARK VINA RESULT:    -4.504      0.000      0.000
REMARK INTER + INTRA:          -6.012
REMARK INTER:                  -6.083
REMARK INTRA:                   0.071
REMARK UNBOUND:                 0.071
REMARK SMILES C=C(C)[C@@H]1CC[C@@H](C)C2=C(C1)[C@H](C)CC2
REMARK SMILES IDX 10 1 9 2 15 3 14 4 12 5 13 6 7 7 8 8 6 9 11 11 4 12 5 13
REMARK SMILES IDX 2 15 1 16 3 17
REMARK H PARENT
REMARK Flexibility Score: 80.00
ROOT
ATOM      1  C   UNL     1       1.943  12.959   4.094  1.00  0.00    -0.067 C 
ATOM      2  C   UNL     1       2.127  13.549   2.913  1.00  0.00    -0.068 C 
ATOM      3  C   UNL     1       3.559  13.935   2.715  1.00  0.00     0.032 C 
ATOM      4  C   UNL     1       4.297  13.324   3.907  1.00  0.00     0.012 C 
ATOM      5  C   UNL     1       3.208  12.863   4.888  1.00  0.00     0.012 C 
ATOM      6  C   UNL     1       3.144  13.762   6.128  1.00  0.00     0.012 C 
ENDROOT
BRANCH   2   7
ATOM      7  C   UNL     1       1.000  13.849   1.935  1.00  0.00     0.012 C 
ATOM      8  C   UNL     1       1.524  14.418   0.607  1.00  0.00     0.012 C 
BRANCH   7   9
ATOM      9  C   UNL     1      -0.021  14.825   2.565  1.00  0.00     0.008 CG0
ATOM     10  G   UNL     1      -1.014  14.132   3.513  1.00  0.00     0.000 G0
ENDBRANCH   7   9
ENDBRANCH   2   7
BRANCH   1  11
ATOM     11  C   UNL     1       0.613  12.467   4.605  1.00  0.00     0.039 C 
BRANCH  11  12
ATOM     12  C   UNL     1      -0.371  13.635   4.835  1.00  0.00     0.018 C 
BRANCH  12  13
ATOM     13  C   UNL     1      -1.017  14.127   3.520  1.00  0.00     0.009 CG0
ATOM     14  G   UNL     1      -0.034  14.829   2.568  1.00  0.00     0.000 G0
ENDBRANCH  12  13
BRANCH  12  15
ATOM     15  C   UNL     1      -1.452  13.229   5.830  1.00  0.00    -0.077 C 
ATOM     16  C   UNL     1      -2.469  14.058   6.127  1.00  0.00     0.008 C 
ATOM     17  C   UNL     1      -1.403  11.878   6.495  1.00  0.00     0.039 C 
ENDBRANCH  12  15
ENDBRANCH  11  12
ENDBRANCH   1  11
TORSDOF 1
ENDMDL
MODEL 2
REMARK VINA RESULT:    -4.470      1.611      3.754
REMARK INTER + INTRA:          -5.967
REMARK INTER:                  -6.033
REMARK INTRA:                   0.067
REMARK UNBOUND:                 0.071
REMARK SMILES C=C(C)[C@@H]1CC[C@@H](C)C2=C(C1)[C@H](C)CC2
REMARK SMILES IDX 10 1 9 2 15 3 14 4 12 5 13 6 7 7 8 8 6 9 11 11 4 12 5 13
REMARK SMILES IDX 2 15 1 16 3 17
REMARK H PARENT
REMARK Flexibility Score: 80.00
ROOT
ATOM      1  C   UNL     1       1.644  14.703   1.311  1.00  0.00    -0.067 C 
ATOM      2  C   UNL     1       0.377  14.917   0.959  1.00  0.00    -0.068 C 
ATOM      3  C   UNL     1       0.272  16.009  -0.059  1.00  0.00     0.032 C 
ATOM      4  C   UNL     1       1.719  16.335  -0.433  1.00  0.00     0.012 C 
ATOM      5  C   UNL     1       2.596  15.617   0.605  1.00  0.00     0.012 C 
ATOM      6  C   UNL     1       3.236  16.605   1.588  1.00  0.00     0.012 C 
ENDROOT
BRANCH   2   7
ATOM      7  C   UNL     1      -0.806  14.186   1.578  1.00  0.00     0.012 C 
ATOM      8  C   UNL     1      -2.132  14.545   0.889  1.00  0.00     0.012 C 
BRANCH   7   9
ATOM      9  C   UNL     1      -0.897  14.484   3.093  1.00  0.00     0.008 CG0
ATOM     10  G   UNL     1       0.084  13.650   3.933  1.00  0.00     0.000 G0
ENDBRANCH   7   9
ENDBRANCH   2   7
BRANCH   1  11
ATOM     11  C   UNL     1       2.087  13.683   2.330  1.00  0.00     0.039 C 
BRANCH  11  12
ATOM     12  C   UNL     1       1.567  14.031   3.742  1.00  0.00     0.018 C 
BRANCH  12  13
ATOM     13  C   UNL     1       0.083  13.644   3.933  1.00  0.00     0.009 CG0
ATOM     14  G   UNL     1      -0.893  14.487   3.097  1.00  0.00     0.000 G0
ENDBRANCH  12  13
BRANCH  12  15
ATOM     15  C   UNL     1       2.426  13.356   4.804  1.00  0.00    -0.077 C 
ATOM     16  C   UNL     1       3.554  12.702   4.471  1.00  0.00     0.008 C 
ATOM     17  C   UNL     1       2.028  13.417   6.255  1.00  0.00     0.039 C 
ENDBRANCH  12  15
ENDBRANCH  11  12
ENDBRANCH   1  11
TORSDOF 1
ENDMDL
MODEL 3
REMARK VINA RESULT:    -4.166      2.250      3.669
REMARK INTER + INTRA:          -5.556
REMARK INTER:                  -5.665
REMARK INTRA:                   0.108
REMARK UNBOUND:                 0.071
REMARK SMILES C=C(C)[C@@H]1CC[C@@H](C)C2=C(C1)[C@H](C)CC2
REMARK SMILES IDX 10 1 9 2 15 3 14 4 12 5 13 6 7 7 8 8 6 9 11 11 4 12 5 13
REMARK SMILES IDX 2 15 1 16 3 17
REMARK H PARENT
REMARK Flexibility Score: 80.00
ROOT
ATOM      1  C   UNL     1       2.361  13.670   2.274  1.00  0.00    -0.067 C 
ATOM      2  C   UNL     1       3.116  14.764   2.372  1.00  0.00    -0.068 C 
ATOM      3  C   UNL     1       3.944  14.743   3.618  1.00  0.00     0.032 C 
ATOM      4  C   UNL     1       3.720  13.353   4.214  1.00  0.00     0.012 C 
ATOM      5  C   UNL     1       2.543  12.744   3.436  1.00  0.00     0.012 C 
ATOM      6  C   UNL     1       1.270  12.681   4.288  1.00  0.00     0.012 C 
ENDROOT
BRANCH   2   7
ATOM      7  C   UNL     1       3.074  15.911   1.372  1.00  0.00     0.012 C 
ATOM      8  C   UNL     1       4.134  16.981   1.675  1.00  0.00     0.012 C 
BRANCH   7   9
ATOM      9  C   UNL     1       1.666  16.551   1.339  1.00  0.00     0.008 CG0
ATOM     10  G   UNL     1       0.653  15.743   0.511  1.00  0.00     0.000 G0
ENDBRANCH   7   9
ENDBRANCH   2   7
BRANCH   1  11
ATOM     11  C   UNL     1       1.401  13.393   1.145  1.00  0.00     0.039 C 
BRANCH  11  12
ATOM     12  C   UNL     1       0.240  14.411   1.128  1.00  0.00     0.018 C 
BRANCH  12  13
ATOM     13  C   UNL     1       0.652  15.762   0.501  1.00  0.00     0.009 CG0
ATOM     14  G   UNL     1       1.656  16.562   1.349  1.00  0.00     0.000 G0
ENDBRANCH  12  13
BRANCH  12  15
ATOM     15  C   UNL     1      -0.960  13.834   0.386  1.00  0.00    -0.077 C 
ATOM     16  C   UNL     1      -2.214  14.050   0.822  1.00  0.00     0.008 C 
ATOM     17  C   UNL     1      -0.760  13.012  -0.860  1.00  0.00     0.039 C 
ENDBRANCH  12  15
ENDBRANCH  11  12
ENDBRANCH   1  11
TORSDOF 1
ENDMDL
MODEL 4
REMARK VINA RESULT:    -4.103      1.404      4.401
REMARK INTER + INTRA:          -5.471
REMARK INTER:                  -5.560
REMARK INTRA:                   0.089
REMARK UNBOUND:                 0.071
REMARK SMILES C=C(C)[C@@H]1CC[C@@H](C)C2=C(C1)[C@H](C)CC2
REMARK SMILES IDX 10 1 9 2 15 3 14 4 12 5 13 6 7 7 8 8 6 9 11 11 4 12 5 13
REMARK SMILES IDX 2 15 1 16 3 17
REMARK H PARENT
REMARK Flexibility Score: 80.00
ROOT
ATOM      1  C   UNL     1       1.962  14.103   3.425  1.00  0.00    -0.067 C 
ATOM      2  C   UNL     1       0.777  13.897   4.001  1.00  0.00    -0.068 C 
ATOM      3  C   UNL     1       0.889  12.946   5.151  1.00  0.00     0.032 C 
ATOM      4  C   UNL     1       2.391  12.718   5.324  1.00  0.00     0.012 C 
ATOM      5  C   UNL     1       3.057  13.320   4.078  1.00  0.00     0.012 C 
ATOM      6  C   UNL     1       3.587  12.232   3.136  1.00  0.00     0.012 C 
ENDROOT
BRANCH   2   7
ATOM      7  C   UNL     1      -0.523  14.504   3.494  1.00  0.00     0.012 C 
ATOM      8  C   UNL     1      -1.706  14.196   4.426  1.00  0.00     0.012 C 
BRANCH   7   9
ATOM      9  C   UNL     1      -0.833  14.007   2.062  1.00  0.00     0.008 CG0
ATOM     10  G   UNL     1      -0.049  14.765   0.977  1.00  0.00     0.000 G0
ENDBRANCH   7   9
ENDBRANCH   2   7
BRANCH   1  11
ATOM     11  C   UNL     1       2.188  14.993   2.230  1.00  0.00     0.039 C 
BRANCH  11  12
ATOM     12  C   UNL     1       1.469  14.449   0.976  1.00  0.00     0.018 C 
BRANCH  12  13
ATOM     13  C   UNL     1      -0.043  14.766   0.982  1.00  0.00     0.009 CG0
ATOM     14  G   UNL     1      -0.834  14.010   2.061  1.00  0.00     0.000 G0
ENDBRANCH  12  13
BRANCH  12  15
ATOM     15  C   UNL     1       2.117  15.004  -0.288  1.00  0.00    -0.077 C 
ATOM     16  C   UNL     1       2.919  16.082  -0.240  1.00  0.00     0.008 C 
ATOM     17  C   UNL     1       1.873  14.343  -1.619  1.00  0.00     0.039 C 
ENDBRANCH  12  15
ENDBRANCH  11  12
ENDBRANCH   1  11
TORSDOF 1
ENDMDL
MODEL 5
REMARK VINA RESULT:    -4.099      1.578      3.364
REMARK INTER + INTRA:          -5.466
REMARK INTER:                  -5.533
REMARK INTRA:                   0.067
REMARK UNBOUND:                 0.071
REMARK SMILES C=C(C)[C@@H]1CC[C@@H](C)C2=C(C1)[C@H](C)CC2
REMARK SMILES IDX 10 1 9 2 15 3 14 4 12 5 13 6 7 7 8 8 6 9 11 11 4 12 5 13
REMARK SMILES IDX 2 15 1 16 3 17
REMARK H PARENT
REMARK Flexibility Score: 80.00
ROOT
ATOM      1  C   UNL     1       0.677  14.505   2.917  1.00  0.00    -0.067 C 
ATOM      2  C   UNL     1       1.932  14.126   2.674  1.00  0.00    -0.068 C 
ATOM      3  C   UNL     1       2.282  14.299   1.229  1.00  0.00     0.032 C 
ATOM      4  C   UNL     1       1.083  15.028   0.621  1.00  0.00     0.012 C 
ATOM      5  C   UNL     1      -0.025  14.979   1.683  1.00  0.00     0.012 C 
ATOM      6  C   UNL     1      -1.148  14.012   1.288  1.00  0.00     0.012 C 
ENDROOT
BRANCH   2   7
ATOM      7  C   UNL     1       2.852  13.528   3.729  1.00  0.00     0.012 C 
ATOM      8  C   UNL     1       4.274  13.299   3.192  1.00  0.00     0.012 C 
BRANCH   7   9
ATOM      9  C   UNL     1       2.268  12.202   4.270  1.00  0.00     0.008 CG0
ATOM     10  G   UNL     1       1.165  12.411   5.321  1.00  0.00     0.000 G0
ENDBRANCH   7   9
ENDBRANCH   2   7
BRANCH   1  11
ATOM     11  C   UNL     1       0.011  14.440   4.268  1.00  0.00     0.039 C 
BRANCH  11  12
ATOM     12  C   UNL     1      -0.140  12.981   4.754  1.00  0.00     0.018 C 
BRANCH  12  13
ATOM     13  C   UNL     1       1.177  12.414   5.329  1.00  0.00     0.009 CG0
ATOM     14  G   UNL     1       2.275  12.195   4.275  1.00  0.00     0.000 G0
ENDBRANCH  12  13
BRANCH  12  15
ATOM     15  C   UNL     1      -1.252  12.881   5.791  1.00  0.00    -0.077 C 
ATOM     16  C   UNL     1      -1.415  11.768   6.528  1.00  0.00     0.008 C 
ATOM     17  C   UNL     1      -2.189  14.040   6.015  1.00  0.00     0.039 C 
ENDBRANCH  12  15
ENDBRANCH  11  12
ENDBRANCH   1  11
TORSDOF 1
ENDMDL
MODEL 6
REMARK VINA RESULT:    -4.056      1.594      3.717
REMARK INTER + INTRA:          -5.407
REMARK INTER:                  -5.505
REMARK INTRA:                   0.098
REMARK UNBOUND:                 0.071
REMARK SMILES C=C(C)[C@@H]1CC[C@@H](C)C2=C(C1)[C@H](C)CC2
REMARK SMILES IDX 10 1 9 2 15 3 14 4 12 5 13 6 7 7 8 8 6 9 11 11 4 12 5 13
REMARK SMILES IDX 2 15 1 16 3 17
REMARK H PARENT
REMARK Flexibility Score: 80.00
ROOT
ATOM      1  C   UNL     1       0.628  13.341   4.192  1.00  0.00    -0.067 C 
ATOM      2  C   UNL     1       1.952  13.447   4.300  1.00  0.00    -0.068 C 
ATOM      3  C   UNL     1       2.387  13.390   5.731  1.00  0.00     0.032 C 
ATOM      4  C   UNL     1       1.119  13.046   6.512  1.00  0.00     0.012 C 
ATOM      5  C   UNL     1      -0.045  13.210   5.523  1.00  0.00     0.012 C 
ATOM      6  C   UNL     1      -0.885  14.454   5.835  1.00  0.00     0.012 C 
ENDROOT
BRANCH   2   7
ATOM      7  C   UNL     1       2.879  13.671   3.114  1.00  0.00     0.012 C 
ATOM      8  C   UNL     1       4.360  13.624   3.523  1.00  0.00     0.012 C 
BRANCH   7   9
ATOM      9  C   UNL     1       2.562  15.017   2.422  1.00  0.00     0.008 CG0
ATOM     10  G   UNL     1       1.353  14.939   1.475  1.00  0.00     0.000 G0
ENDBRANCH   7   9
ENDBRANCH   2   7
BRANCH   1  11
ATOM     11  C   UNL     1      -0.129  13.380   2.889  1.00  0.00     0.039 C 
BRANCH  11  12
ATOM     12  C   UNL     1      -0.003  14.758   2.203  1.00  0.00     0.018 C 
BRANCH  12  13
ATOM     13  C   UNL     1       1.349  14.929   1.474  1.00  0.00     0.009 CG0
ATOM     14  G   UNL     1       2.559  15.017   2.419  1.00  0.00     0.000 G0
ENDBRANCH  12  13
BRANCH  12  15
ATOM     15  C   UNL     1      -1.155  14.972   1.228  1.00  0.00    -0.077 C 
ATOM     16  C   UNL     1      -1.795  13.928   0.672  1.00  0.00     0.008 C 
ATOM     17  C   UNL     1      -1.603  16.366   0.876  1.00  0.00     0.039 C 
ENDBRANCH  12  15
ENDBRANCH  11  12
ENDBRANCH   1  11
TORSDOF 1
ENDMDL
MODEL 7
REMARK VINA RESULT:    -3.942      2.672      4.799
REMARK INTER + INTRA:          -5.254
REMARK INTER:                  -5.364
REMARK INTRA:                   0.110
REMARK UNBOUND:                 0.071
REMARK SMILES C=C(C)[C@@H]1CC[C@@H](C)C2=C(C1)[C@H](C)CC2
REMARK SMILES IDX 10 1 9 2 15 3 14 4 12 5 13 6 7 7 8 8 6 9 11 11 4 12 5 13
REMARK SMILES IDX 2 15 1 16 3 17
REMARK H PARENT
REMARK Flexibility Score: 80.00
ROOT
ATOM      1  C   UNL     1       1.800  15.168   1.338  1.00  0.00    -0.067 C 
ATOM      2  C   UNL     1       2.627  16.167   1.027  1.00  0.00    -0.068 C 
ATOM      3  C   UNL     1       2.487  16.560  -0.410  1.00  0.00     0.032 C 
ATOM      4  C   UNL     1       1.292  15.755  -0.922  1.00  0.00     0.012 C 
ATOM      5  C   UNL     1       0.983  14.717   0.168  1.00  0.00     0.012 C 
ATOM      6  C   UNL     1       1.385  13.302  -0.266  1.00  0.00     0.012 C 
ENDROOT
BRANCH   2   7
ATOM      7  C   UNL     1       3.629  16.767   2.003  1.00  0.00     0.012 C 
ATOM      8  C   UNL     1       4.371  17.971   1.400  1.00  0.00     0.012 C 
BRANCH   7   9
ATOM      9  C   UNL     1       4.643  15.696   2.468  1.00  0.00     0.008 CG0
ATOM     10  G   UNL     1       4.093  14.783   3.576  1.00  0.00     0.000 G0
ENDBRANCH   7   9
ENDBRANCH   2   7
BRANCH   1  11
ATOM     11  C   UNL     1       1.708  14.528   2.700  1.00  0.00     0.039 C 
BRANCH  11  12
ATOM     12  C   UNL     1       3.020  13.807   3.076  1.00  0.00     0.018 C 
BRANCH  12  13
ATOM     13  C   UNL     1       4.108  14.785   3.572  1.00  0.00     0.009 CG0
ATOM     14  G   UNL     1       4.660  15.711   2.475  1.00  0.00     0.000 G0
ENDBRANCH  12  13
BRANCH  12  15
ATOM     15  C   UNL     1       2.754  12.739   4.131  1.00  0.00    -0.077 C 
ATOM     16  C   UNL     1       3.228  11.489   3.988  1.00  0.00     0.008 C 
ATOM     17  C   UNL     1       1.957  13.073   5.365  1.00  0.00     0.039 C 
ENDBRANCH  12  15
ENDBRANCH  11  12
ENDBRANCH   1  11
TORSDOF 1
ENDMDL
MODEL 8
REMARK VINA RESULT:    -3.828      1.754      3.412
REMARK INTER + INTRA:          -5.099
REMARK INTER:                  -6.099
REMARK INTRA:                   1.000
REMARK UNBOUND:                 0.071
REMARK SMILES C=C(C)[C@@H]1CC[C@@H](C)C2=C(C1)[C@H](C)CC2
REMARK SMILES IDX 10 1 9 2 15 3 14 4 12 5 13 6 7 7 8 8 6 9 11 11 4 12 5 13
REMARK SMILES IDX 2 15 1 16 3 17
REMARK H PARENT
REMARK Flexibility Score: 80.00
ROOT
ATOM      1  C   UNL     1       2.135  14.409   2.523  1.00  0.00    -0.067 C 
ATOM      2  C   UNL     1       3.314  14.281   3.131  1.00  0.00    -0.068 C 
ATOM      3  C   UNL     1       4.229  15.413   2.788  1.00  0.00     0.032 C 
ATOM      4  C   UNL     1       3.362  16.389   1.991  1.00  0.00     0.012 C 
ATOM      5  C   UNL     1       2.066  15.632   1.664  1.00  0.00     0.012 C 
ATOM      6  C   UNL     1       1.988  15.254   0.180  1.00  0.00     0.012 C 
ENDROOT
BRANCH   2   7
ATOM      7  C   UNL     1       3.688  13.090   4.003  1.00  0.00     0.012 C 
ATOM      8  C   UNL     1       3.631  11.765   3.225  1.00  0.00     0.012 C 
BRANCH   7   9
ATOM      9  C   UNL     1       2.771  13.016   5.246  1.00  0.00     0.008 CG0
ATOM     10  G   UNL     1       1.511  13.888   5.119  1.00  0.00     0.000 G0
ENDBRANCH   7   9
ENDBRANCH   2   7
BRANCH   1  11
ATOM     11  C   UNL     1       0.998  13.426   2.646  1.00  0.00     0.039 C 
BRANCH  11  12
ATOM     12  C   UNL     1       0.478  13.342   4.098  1.00  0.00     0.018 C 
BRANCH  12  13
ATOM     13  C   UNL     1       1.503  13.881   5.121  1.00  0.00     0.009 CG0
ATOM     14  G   UNL     1       2.767  13.016   5.253  1.00  0.00     0.000 G0
ENDBRANCH  12  13
BRANCH  12  15
ATOM     15  C   UNL     1      -0.842  14.092   4.231  1.00  0.00    -0.077 C 
ATOM     16  C   UNL     1      -1.423  14.264   5.432  1.00  0.00     0.008 C 
ATOM     17  C   UNL     1      -1.517  14.665   3.012  1.00  0.00     0.039 C 
ENDBRANCH  12  15
ENDBRANCH  11  12
ENDBRANCH   1  11
TORSDOF 1
ENDMDL
MODEL 9
REMARK VINA RESULT:    -3.649      1.922      4.424
REMARK INTER + INTRA:          -4.858
REMARK INTER:                  -5.845
REMARK INTRA:                   0.988
REMARK UNBOUND:                 0.071
REMARK SMILES C=C(C)[C@@H]1CC[C@@H](C)C2=C(C1)[C@H](C)CC2
REMARK SMILES IDX 10 1 9 2 15 3 14 4 12 5 13 6 7 7 8 8 6 9 11 11 4 12 5 13
REMARK SMILES IDX 2 15 1 16 3 17
REMARK H PARENT
REMARK Flexibility Score: 80.00
ROOT
ATOM      1  C   UNL     1       1.394  14.039   2.903  1.00  0.00    -0.067 C 
ATOM      2  C   UNL     1       0.182  14.254   2.393  1.00  0.00    -0.068 C 
ATOM      3  C   UNL     1      -0.879  14.130   3.441  1.00  0.00     0.032 C 
ATOM      4  C   UNL     1      -0.114  13.974   4.755  1.00  0.00     0.012 C 
ATOM      5  C   UNL     1       1.350  13.723   4.365  1.00  0.00     0.012 C 
ATOM      6  C   UNL     1       1.765  12.269   4.622  1.00  0.00     0.012 C 
ENDROOT
BRANCH   2   7
ATOM      7  C   UNL     1      -0.077  14.519   0.916  1.00  0.00     0.012 C 
ATOM      8  C   UNL     1       0.395  13.356   0.030  1.00  0.00     0.012 C 
BRANCH   7   9
ATOM      9  C   UNL     1       0.604  15.835   0.472  1.00  0.00     0.008 CG0
ATOM     10  G   UNL     1       1.664  16.332   1.468  1.00  0.00     0.000 G0
ENDBRANCH   7   9
ENDBRANCH   2   7
BRANCH   1  11
ATOM     11  C   UNL     1       2.674  14.073   2.107  1.00  0.00     0.039 C 
BRANCH  11  12
ATOM     12  C   UNL     1       2.941  15.478   1.524  1.00  0.00     0.018 C 
BRANCH  12  13
ATOM     13  C   UNL     1       1.663  16.346   1.475  1.00  0.00     0.009 CG0
ATOM     14  G   UNL     1       0.605  15.840   0.480  1.00  0.00     0.000 G0
ENDBRANCH  12  13
BRANCH  12  15
ATOM     15  C   UNL     1       4.026  16.188   2.326  1.00  0.00    -0.077 C 
ATOM     16  C   UNL     1       4.361  17.463   2.062  1.00  0.00     0.008 C 
ATOM     17  C   UNL     1       4.740  15.468   3.440  1.00  0.00     0.039 C 
ENDBRANCH  12  15
ENDBRANCH  11  12
ENDBRANCH   1  11
TORSDOF 1
ENDMDL
