MODEL 1
REMARK VINA RESULT:    -5.579      0.000      0.000
REMARK INTER + INTRA:          -8.890
REMARK INTER:                  -7.699
REMARK INTRA:                  -1.191
REMARK UNBOUND:                -1.191
REMARK SMILES CCCCc1cccc(O)c1CCCC
REMARK SMILES IDX 5 1 11 2 9 3 8 4 7 5 6 6 4 7 3 8 2 9 1 10 12 11 13 12 14 13
REMARK SMILES IDX 15 14 10 15
REMARK H PARENT 10 16
REMARK Flexibility Score: inf
ROOT
ATOM      1  C   UNL     1     -25.063  60.883  33.630  1.00  0.00    -0.041 A 
ATOM      2  C   UNL     1     -25.941  61.409  32.636  1.00  0.00    -0.003 A 
ATOM      3  C   UNL     1     -27.193  61.933  33.036  1.00  0.00     0.119 A 
ATOM      4  C   UNL     1     -27.539  61.981  34.392  1.00  0.00     0.046 A 
ATOM      5  C   UNL     1     -26.661  61.505  35.360  1.00  0.00     0.004 A 
ATOM      6  C   UNL     1     -25.437  60.957  34.984  1.00  0.00     0.004 A 
ENDROOT
BRANCH   1   7
ATOM      7  C   UNL     1     -23.751  60.191  33.310  1.00  0.00     0.036 C 
BRANCH   7   8
ATOM      8  C   UNL     1     -22.579  61.188  33.351  1.00  0.00     0.004 C 
BRANCH   8   9
ATOM      9  C   UNL     1     -21.760  61.186  32.051  1.00  0.00    -0.003 C 
ATOM     10  C   UNL     1     -21.286  62.585  31.652  1.00  0.00     0.004 C 
ENDBRANCH   8   9
ENDBRANCH   7   8
ENDBRANCH   1   7
BRANCH   2  11
ATOM     11  C   UNL     1     -25.586  61.416  31.159  1.00  0.00     0.040 C 
BRANCH  11  12
ATOM     12  C   UNL     1     -24.919  62.736  30.752  1.00  0.00     0.005 C 
BRANCH  12  13
ATOM     13  C   UNL     1     -24.639  62.770  29.246  1.00  0.00    -0.003 C 
ATOM     14  C   UNL     1     -23.645  61.684  28.847  1.00  0.00     0.004 C 
ENDBRANCH  12  13
ENDBRANCH  11  12
ENDBRANCH   2  11
BRANCH   3  15
ATOM     15  O   UNL     1     -28.097  62.407  32.084  1.00  0.00    -0.508 OA
ATOM     16  H   UNL     1     -28.135  62.023  31.147  1.00  0.00     0.293 HD
ENDBRANCH   3  15
TORSDOF 7
ENDMDL
MODEL 2
REMARK VINA RESULT:    -5.340      1.371      4.066
REMARK INTER + INTRA:          -8.561
REMARK INTER:                  -7.608
REMARK INTRA:                  -0.953
REMARK UNBOUND:                -1.191
REMARK SMILES CCCCc1cccc(O)c1CCCC
REMARK SMILES IDX 5 1 11 2 9 3 8 4 7 5 6 6 4 7 3 8 2 9 1 10 12 11 13 12 14 13
REMARK SMILES IDX 15 14 10 15
REMARK H PARENT 10 16
REMARK Flexibility Score: inf
ROOT
ATOM      1  C   UNL     1     -23.348  61.247  32.107  1.00  0.00    -0.041 A 
ATOM      2  C   UNL     1     -24.738  60.948  32.234  1.00  0.00    -0.003 A 
ATOM      3  C   UNL     1     -25.644  61.488  31.291  1.00  0.00     0.119 A 
ATOM      4  C   UNL     1     -25.175  62.260  30.222  1.00  0.00     0.046 A 
ATOM      5  C   UNL     1     -23.815  62.514  30.079  1.00  0.00     0.004 A 
ATOM      6  C   UNL     1     -22.910  62.016  31.014  1.00  0.00     0.004 A 
ENDROOT
BRANCH   1   7
ATOM      7  C   UNL     1     -22.302  60.822  33.121  1.00  0.00     0.036 C 
BRANCH   7   8
ATOM      8  C   UNL     1     -21.231  61.913  33.295  1.00  0.00     0.004 C 
BRANCH   8   9
ATOM      9  C   UNL     1     -21.058  62.338  34.761  1.00  0.00    -0.003 C 
ATOM     10  C   UNL     1     -22.143  61.761  35.672  1.00  0.00     0.004 C 
ENDBRANCH   8   9
ENDBRANCH   7   8
ENDBRANCH   1   7
BRANCH   2  11
ATOM     11  C   UNL     1     -25.283  60.078  33.355  1.00  0.00     0.040 C 
BRANCH  11  12
ATOM     12  C   UNL     1     -25.619  60.915  34.595  1.00  0.00     0.005 C 
BRANCH  12  13
ATOM     13  C   UNL     1     -27.130  60.942  34.848  1.00  0.00    -0.003 C 
ATOM     14  C   UNL     1     -27.687  62.355  34.699  1.00  0.00     0.004 C 
ENDBRANCH  12  13
ENDBRANCH  11  12
ENDBRANCH   2  11
BRANCH   3  15
ATOM     15  O   UNL     1     -27.015  61.258  31.417  1.00  0.00    -0.508 OA
ATOM     16  H   UNL     1     -27.572  60.913  30.644  1.00  0.00     0.293 HD
ENDBRANCH   3  15
TORSDOF 7
ENDMDL
MODEL 3
REMARK VINA RESULT:    -5.333     20.066     21.861
REMARK INTER + INTRA:          -8.551
REMARK INTER:                  -7.877
REMARK INTRA:                  -0.674
REMARK UNBOUND:                -1.191
REMARK SMILES CCCCc1cccc(O)c1CCCC
REMARK SMILES IDX 5 1 11 2 9 3 8 4 7 5 6 6 4 7 3 8 2 9 1 10 12 11 13 12 14 13
REMARK SMILES IDX 15 14 10 15
REMARK H PARENT 10 16
REMARK Flexibility Score: inf
ROOT
ATOM      1  C   UNL     1     -13.678  44.803  23.403  1.00  0.00    -0.041 A 
ATOM      2  C   UNL     1     -14.286  45.101  24.659  1.00  0.00    -0.003 A 
ATOM      3  C   UNL     1     -15.506  44.469  24.996  1.00  0.00     0.119 A 
ATOM      4  C   UNL     1     -16.078  43.529  24.131  1.00  0.00     0.046 A 
ATOM      5  C   UNL     1     -15.460  43.212  22.927  1.00  0.00     0.004 A 
ATOM      6  C   UNL     1     -14.274  43.845  22.563  1.00  0.00     0.004 A 
ENDROOT
BRANCH   1   7
ATOM      7  C   UNL     1     -12.435  45.503  22.885  1.00  0.00     0.036 C 
BRANCH   7   8
ATOM      8  C   UNL     1     -12.138  45.094  21.432  1.00  0.00     0.004 C 
BRANCH   8   9
ATOM      9  C   UNL     1     -10.739  44.479  21.268  1.00  0.00    -0.003 C 
ATOM     10  C   UNL     1     -10.786  42.969  21.031  1.00  0.00     0.004 C 
ENDBRANCH   8   9
ENDBRANCH   7   8
ENDBRANCH   1   7
BRANCH   2  11
ATOM     11  C   UNL     1     -13.675  46.082  25.645  1.00  0.00     0.040 C 
BRANCH  11  12
ATOM     12  C   UNL     1     -14.458  47.401  25.675  1.00  0.00     0.005 C 
BRANCH  12  13
ATOM     13  C   UNL     1     -13.841  48.429  24.722  1.00  0.00    -0.003 C 
ATOM     14  C   UNL     1     -14.828  49.549  24.408  1.00  0.00     0.004 C 
ENDBRANCH  12  13
ENDBRANCH  11  12
ENDBRANCH   2  11
BRANCH   3  15
ATOM     15  O   UNL     1     -16.154  44.778  26.193  1.00  0.00    -0.508 OA
ATOM     16  H   UNL     1     -15.715  45.351  26.905  1.00  0.00     0.293 HD
ENDBRANCH   3  15
TORSDOF 7
ENDMDL
MODEL 4
REMARK VINA RESULT:    -5.323      2.388      3.752
REMARK INTER + INTRA:          -8.536
REMARK INTER:                  -7.251
REMARK INTRA:                  -1.286
REMARK UNBOUND:                -1.191
REMARK SMILES CCCCc1cccc(O)c1CCCC
REMARK SMILES IDX 5 1 11 2 9 3 8 4 7 5 6 6 4 7 3 8 2 9 1 10 12 11 13 12 14 13
REMARK SMILES IDX 15 14 10 15
REMARK H PARENT 10 16
REMARK Flexibility Score: inf
ROOT
ATOM      1  C   UNL     1     -24.892  61.722  30.065  1.00  0.00    -0.041 A 
ATOM      2  C   UNL     1     -25.515  60.480  30.390  1.00  0.00    -0.003 A 
ATOM      3  C   UNL     1     -26.432  60.434  31.466  1.00  0.00     0.119 A 
ATOM      4  C   UNL     1     -26.760  61.602  32.166  1.00  0.00     0.046 A 
ATOM      5  C   UNL     1     -26.181  62.817  31.818  1.00  0.00     0.004 A 
ATOM      6  C   UNL     1     -25.253  62.877  30.781  1.00  0.00     0.004 A 
ENDROOT
BRANCH   1   7
ATOM      7  C   UNL     1     -23.809  61.868  29.012  1.00  0.00     0.036 C 
BRANCH   7   8
ATOM      8  C   UNL     1     -22.411  61.713  29.636  1.00  0.00     0.004 C 
BRANCH   8   9
ATOM      9  C   UNL     1     -21.332  61.394  28.589  1.00  0.00    -0.003 C 
ATOM     10  C   UNL     1     -21.742  61.814  27.177  1.00  0.00     0.004 C 
ENDBRANCH   8   9
ENDBRANCH   7   8
ENDBRANCH   1   7
BRANCH   2  11
ATOM     11  C   UNL     1     -25.219  59.199  29.628  1.00  0.00     0.040 C 
BRANCH  11  12
ATOM     12  C   UNL     1     -24.073  58.415  30.279  1.00  0.00     0.005 C 
BRANCH  12  13
ATOM     13  C   UNL     1     -23.080  57.915  29.225  1.00  0.00    -0.003 C 
ATOM     14  C   UNL     1     -23.483  58.376  27.828  1.00  0.00     0.004 C 
ENDBRANCH  12  13
ENDBRANCH  11  12
ENDBRANCH   2  11
BRANCH   3  15
ATOM     15  O   UNL     1     -27.019  59.225  31.843  1.00  0.00    -0.508 OA
ATOM     16  H   UNL     1     -27.937  59.188  32.271  1.00  0.00     0.293 HD
ENDBRANCH   3  15
TORSDOF 7
ENDMDL
MODEL 5
REMARK VINA RESULT:    -5.303      2.821      6.049
REMARK INTER + INTRA:          -8.509
REMARK INTER:                  -7.181
REMARK INTRA:                  -1.329
REMARK UNBOUND:                -1.191
REMARK SMILES CCCCc1cccc(O)c1CCCC
REMARK SMILES IDX 5 1 11 2 9 3 8 4 7 5 6 6 4 7 3 8 2 9 1 10 12 11 13 12 14 13
REMARK SMILES IDX 15 14 10 15
REMARK H PARENT 10 16
REMARK Flexibility Score: inf
ROOT
ATOM      1  C   UNL     1     -23.266  61.763  29.509  1.00  0.00    -0.041 A 
ATOM      2  C   UNL     1     -22.158  61.803  30.407  1.00  0.00    -0.003 A 
ATOM      3  C   UNL     1     -20.847  61.701  29.884  1.00  0.00     0.119 A 
ATOM      4  C   UNL     1     -20.643  61.614  28.502  1.00  0.00     0.046 A 
ATOM      5  C   UNL     1     -21.725  61.618  27.628  1.00  0.00     0.004 A 
ATOM      6  C   UNL     1     -23.024  61.687  28.125  1.00  0.00     0.004 A 
ENDROOT
BRANCH   1   7
ATOM      7  C   UNL     1     -24.714  61.746  29.962  1.00  0.00     0.036 C 
BRANCH   7   8
ATOM      8  C   UNL     1     -25.468  60.552  29.350  1.00  0.00     0.004 C 
BRANCH   8   9
ATOM      9  C   UNL     1     -25.568  59.362  30.316  1.00  0.00    -0.003 C 
ATOM     10  C   UNL     1     -24.346  58.445  30.246  1.00  0.00     0.004 C 
ENDBRANCH   8   9
ENDBRANCH   7   8
ENDBRANCH   1   7
BRANCH   2  11
ATOM     11  C   UNL     1     -22.334  61.939  31.910  1.00  0.00     0.040 C 
BRANCH  11  12
ATOM     12  C   UNL     1     -22.528  60.571  32.575  1.00  0.00     0.005 C 
BRANCH  12  13
ATOM     13  C   UNL     1     -23.326  60.699  33.877  1.00  0.00    -0.003 C 
ATOM     14  C   UNL     1     -24.827  60.708  33.602  1.00  0.00     0.004 C 
ENDBRANCH  12  13
ENDBRANCH  11  12
ENDBRANCH   2  11
BRANCH   3  15
ATOM     15  O   UNL     1     -19.745  61.684  30.739  1.00  0.00    -0.508 OA
ATOM     16  H   UNL     1     -19.800  62.034  31.688  1.00  0.00     0.293 HD
ENDBRANCH   3  15
TORSDOF 7
ENDMDL
MODEL 6
REMARK VINA RESULT:    -5.201      1.566      2.740
REMARK INTER + INTRA:          -8.368
REMARK INTER:                  -7.292
REMARK INTRA:                  -1.075
REMARK UNBOUND:                -1.191
REMARK SMILES CCCCc1cccc(O)c1CCCC
REMARK SMILES IDX 5 1 11 2 9 3 8 4 7 5 6 6 4 7 3 8 2 9 1 10 12 11 13 12 14 13
REMARK SMILES IDX 15 14 10 15
REMARK H PARENT 10 16
REMARK Flexibility Score: inf
ROOT
ATOM      1  C   UNL     1     -23.114  61.795  31.740  1.00  0.00    -0.041 A 
ATOM      2  C   UNL     1     -24.397  61.957  31.136  1.00  0.00    -0.003 A 
ATOM      3  C   UNL     1     -25.527  61.380  31.763  1.00  0.00     0.119 A 
ATOM      4  C   UNL     1     -25.392  60.708  32.983  1.00  0.00     0.046 A 
ATOM      5  C   UNL     1     -24.146  60.590  33.589  1.00  0.00     0.004 A 
ATOM      6  C   UNL     1     -23.017  61.124  32.972  1.00  0.00     0.004 A 
ENDROOT
BRANCH   1   7
ATOM      7  C   UNL     1     -21.821  62.267  31.102  1.00  0.00     0.036 C 
BRANCH   7   8
ATOM      8  C   UNL     1     -20.831  61.100  30.939  1.00  0.00     0.004 C 
BRANCH   8   9
ATOM      9  C   UNL     1     -19.768  61.377  29.865  1.00  0.00    -0.003 C 
ATOM     10  C   UNL     1     -20.381  61.683  28.497  1.00  0.00     0.004 C 
ENDBRANCH   8   9
ENDBRANCH   7   8
ENDBRANCH   1   7
BRANCH   2  11
ATOM     11  C   UNL     1     -24.593  62.716  29.834  1.00  0.00     0.040 C 
BRANCH  11  12
ATOM     12  C   UNL     1     -23.984  61.956  28.649  1.00  0.00     0.005 C 
BRANCH  12  13
ATOM     13  C   UNL     1     -24.603  60.561  28.514  1.00  0.00    -0.003 C 
ATOM     14  C   UNL     1     -23.529  59.478  28.559  1.00  0.00     0.004 C 
ENDBRANCH  12  13
ENDBRANCH  11  12
ENDBRANCH   2  11
BRANCH   3  15
ATOM     15  O   UNL     1     -26.787  61.474  31.171  1.00  0.00    -0.508 OA
ATOM     16  H   UNL     1     -27.100  62.323  30.712  1.00  0.00     0.293 HD
ENDBRANCH   3  15
TORSDOF 7
ENDMDL
MODEL 7
REMARK VINA RESULT:    -5.172      2.339      4.280
REMARK INTER + INTRA:          -8.329
REMARK INTER:                  -7.107
REMARK INTRA:                  -1.222
REMARK UNBOUND:                -1.191
REMARK SMILES CCCCc1cccc(O)c1CCCC
REMARK SMILES IDX 5 1 11 2 9 3 8 4 7 5 6 6 4 7 3 8 2 9 1 10 12 11 13 12 14 13
REMARK SMILES IDX 15 14 10 15
REMARK H PARENT 10 16
REMARK Flexibility Score: inf
ROOT
ATOM      1  C   UNL     1     -23.593  60.891  33.860  1.00  0.00    -0.041 A 
ATOM      2  C   UNL     1     -22.706  61.342  32.837  1.00  0.00    -0.003 A 
ATOM      3  C   UNL     1     -21.512  62.005  33.209  1.00  0.00     0.119 A 
ATOM      4  C   UNL     1     -21.185  62.168  34.560  1.00  0.00     0.046 A 
ATOM      5  C   UNL     1     -22.034  61.689  35.553  1.00  0.00     0.004 A 
ATOM      6  C   UNL     1     -23.228  61.061  35.207  1.00  0.00     0.004 A 
ENDROOT
BRANCH   1   7
ATOM      7  C   UNL     1     -24.951  60.275  33.581  1.00  0.00     0.036 C 
BRANCH   7   8
ATOM      8  C   UNL     1     -26.050  60.970  34.403  1.00  0.00     0.004 C 
BRANCH   8   9
ATOM      9  C   UNL     1     -27.057  61.723  33.520  1.00  0.00    -0.003 C 
ATOM     10  C   UNL     1     -27.843  60.790  32.598  1.00  0.00     0.004 C 
ENDBRANCH   8   9
ENDBRANCH   7   8
ENDBRANCH   1   7
BRANCH   2  11
ATOM     11  C   UNL     1     -23.002  61.147  31.359  1.00  0.00     0.040 C 
BRANCH  11  12
ATOM     12  C   UNL     1     -23.641  62.400  30.749  1.00  0.00     0.005 C 
BRANCH  12  13
ATOM     13  C   UNL     1     -25.094  62.135  30.344  1.00  0.00    -0.003 C 
ATOM     14  C   UNL     1     -25.276  60.701  29.854  1.00  0.00     0.004 C 
ENDBRANCH  12  13
ENDBRANCH  11  12
ENDBRANCH   2  11
BRANCH   3  15
ATOM     15  O   UNL     1     -20.649  62.505  32.233  1.00  0.00    -0.508 OA
ATOM     16  H   UNL     1     -19.660  62.282  32.231  1.00  0.00     0.293 HD
ENDBRANCH   3  15
TORSDOF 7
ENDMDL
MODEL 8
REMARK VINA RESULT:    -5.159     20.164     22.286
REMARK INTER + INTRA:          -8.310
REMARK INTER:                  -6.951
REMARK INTRA:                  -1.359
REMARK UNBOUND:                -1.191
REMARK SMILES CCCCc1cccc(O)c1CCCC
REMARK SMILES IDX 5 1 11 2 9 3 8 4 7 5 6 6 4 7 3 8 2 9 1 10 12 11 13 12 14 13
REMARK SMILES IDX 15 14 10 15
REMARK H PARENT 10 16
REMARK Flexibility Score: inf
ROOT
ATOM      1  C   UNL     1     -13.740  44.440  22.597  1.00  0.00    -0.041 A 
ATOM      2  C   UNL     1     -12.758  45.257  23.233  1.00  0.00    -0.003 A 
ATOM      3  C   UNL     1     -11.544  45.521  22.557  1.00  0.00     0.119 A 
ATOM      4  C   UNL     1     -11.335  45.031  21.262  1.00  0.00     0.046 A 
ATOM      5  C   UNL     1     -12.312  44.271  20.630  1.00  0.00     0.004 A 
ATOM      6  C   UNL     1     -13.502  43.974  21.291  1.00  0.00     0.004 A 
ENDROOT
BRANCH   1   7
ATOM      7  C   UNL     1     -15.024  43.994  23.270  1.00  0.00     0.036 C 
BRANCH   7   8
ATOM      8  C   UNL     1     -16.251  44.623  22.586  1.00  0.00     0.004 C 
BRANCH   8   9
ATOM      9  C   UNL     1     -17.197  45.303  23.588  1.00  0.00    -0.003 C 
ATOM     10  C   UNL     1     -17.331  46.807  23.342  1.00  0.00     0.004 C 
ENDBRANCH   8   9
ENDBRANCH   7   8
ENDBRANCH   1   7
BRANCH   2  11
ATOM     11  C   UNL     1     -12.963  45.844  24.620  1.00  0.00     0.040 C 
BRANCH  11  12
ATOM     12  C   UNL     1     -13.731  47.169  24.555  1.00  0.00     0.005 C 
BRANCH  12  13
ATOM     13  C   UNL     1     -14.591  47.369  25.807  1.00  0.00    -0.003 C 
ATOM     14  C   UNL     1     -15.020  46.029  26.399  1.00  0.00     0.004 C 
ENDBRANCH  12  13
ENDBRANCH  11  12
ENDBRANCH   2  11
BRANCH   3  15
ATOM     15  O   UNL     1     -10.541  46.272  23.172  1.00  0.00    -0.508 OA
ATOM     16  H   UNL     1     -10.523  47.284  23.118  1.00  0.00     0.293 HD
ENDBRANCH   3  15
TORSDOF 7
ENDMDL
