MODEL 1
REMARK VINA RESULT:    -3.201      0.000      0.000
REMARK INTER + INTRA:          -3.201
REMARK INTER:                  -3.201
REMARK INTRA:                   0.000
REMARK UNBOUND:                 0.000
REMARK SMILES CC1(C)[C@@H]2CC[C@@]1(C)C(=O)C2
REMARK SMILES IDX 1 1 2 2 4 3 5 4 6 5 7 6 9 7 10 8 11 9 8 10 3 11
REMARK H PARENT
REMARK Flexibility Score: inf
ROOT
ATOM      1  C   UNL     1     229.936 231.403 233.503  1.00  0.00     0.012 C 
ATOM      2  C   UNL     1     229.206 231.549 234.875  1.00  0.00    -0.020 C 
ATOM      3  C   UNL     1     228.069 232.598 234.863  1.00  0.00     0.003 C 
ATOM      4  C   UNL     1     227.421 232.414 236.264  1.00  0.00     0.005 C 
ATOM      5  C   UNL     1     227.532 230.887 236.501  1.00  0.00     0.015 C 
ATOM      6  C   UNL     1     228.238 230.395 235.215  1.00  0.00     0.032 C 
ATOM      7  C   UNL     1     227.209 230.563 234.123  1.00  0.00     0.139 C 
ATOM      8  O   UNL     1     226.548 229.670 233.617  1.00  0.00    -0.299 OA
ATOM      9  C   UNL     1     227.055 232.024 233.833  1.00  0.00     0.080 C 
ATOM     10  C   UNL     1     228.852 228.994 235.315  1.00  0.00     0.020 C 
ATOM     11  C   UNL     1     230.312 231.831 235.935  1.00  0.00     0.012 C 
ENDROOT
TORSDOF 0
ENDMDL
MODEL 2
REMARK VINA RESULT:    -3.196      8.789      9.862
REMARK INTER + INTRA:          -3.196
REMARK INTER:                  -3.196
REMARK INTRA:                   0.000
REMARK UNBOUND:                 0.000
REMARK SMILES CC1(C)[C@@H]2CC[C@@]1(C)C(=O)C2
REMARK SMILES IDX 1 1 2 2 4 3 5 4 6 5 7 6 9 7 10 8 11 9 8 10 3 11
REMARK H PARENT
REMARK Flexibility Score: inf
ROOT
ATOM      1  C   UNL     1     231.386 238.554 233.504  1.00  0.00     0.012 C 
ATOM      2  C   UNL     1     231.551 239.268 234.881  1.00  0.00    -0.020 C 
ATOM      3  C   UNL     1     232.614 240.391 234.874  1.00  0.00     0.003 C 
ATOM      4  C   UNL     1     232.450 241.027 236.282  1.00  0.00     0.005 C 
ATOM      5  C   UNL     1     230.923 240.934 236.529  1.00  0.00     0.015 C 
ATOM      6  C   UNL     1     230.413 240.248 235.239  1.00  0.00     0.032 C 
ATOM      7  C   UNL     1     230.587 241.285 234.157  1.00  0.00     0.139 C 
ATOM      8  O   UNL     1     229.699 241.964 233.664  1.00  0.00    -0.299 OA
ATOM      9  C   UNL     1     232.047 241.423 233.858  1.00  0.00     0.080 C 
ATOM     10  C   UNL     1     229.004 239.651 235.343  1.00  0.00     0.020 C 
ATOM     11  C   UNL     1     231.825 238.147 235.929  1.00  0.00     0.012 C 
ENDROOT
TORSDOF 0
ENDMDL
MODEL 3
REMARK VINA RESULT:    -3.188     12.123     13.972
REMARK INTER + INTRA:          -3.188
REMARK INTER:                  -3.188
REMARK INTRA:                   0.000
REMARK UNBOUND:                 0.000
REMARK SMILES CC1(C)[C@@H]2CC[C@@]1(C)C(=O)C2
REMARK SMILES IDX 1 1 2 2 4 3 5 4 6 5 7 6 9 7 10 8 11 9 8 10 3 11
REMARK H PARENT
REMARK Flexibility Score: inf
ROOT
ATOM      1  C   UNL     1     238.572 237.122 233.518  1.00  0.00     0.012 C 
ATOM      2  C   UNL     1     239.293 236.973 234.892  1.00  0.00    -0.020 C 
ATOM      3  C   UNL     1     240.426 235.918 234.887  1.00  0.00     0.003 C 
ATOM      4  C   UNL     1     241.067 236.099 236.290  1.00  0.00     0.005 C 
ATOM      5  C   UNL     1     240.963 237.626 236.527  1.00  0.00     0.015 C 
ATOM      6  C   UNL     1     240.266 238.121 235.237  1.00  0.00     0.032 C 
ATOM      7  C   UNL     1     241.299 237.949 234.151  1.00  0.00     0.139 C 
ATOM      8  O   UNL     1     241.968 238.838 233.648  1.00  0.00    -0.299 OA
ATOM      9  C   UNL     1     241.448 236.487 233.862  1.00  0.00     0.080 C 
ATOM     10  C   UNL     1     239.658 239.526 235.334  1.00  0.00     0.020 C 
ATOM     11  C   UNL     1     238.181 236.697 235.948  1.00  0.00     0.012 C 
ENDROOT
TORSDOF 0
ENDMDL
MODEL 4
REMARK VINA RESULT:    -3.172      8.729      9.803
REMARK INTER + INTRA:          -3.172
REMARK INTER:                  -3.172
REMARK INTRA:                   0.000
REMARK UNBOUND:                 0.000
REMARK SMILES CC1(C)[C@@H]2CC[C@@]1(C)C(=O)C2
REMARK SMILES IDX 1 1 2 2 4 3 5 4 6 5 7 6 9 7 10 8 11 9 8 10 3 11
REMARK H PARENT
REMARK Flexibility Score: inf
ROOT
ATOM      1  C   UNL     1     237.046 229.920 233.433  1.00  0.00     0.012 C 
ATOM      2  C   UNL     1     236.883 229.239 234.827  1.00  0.00    -0.020 C 
ATOM      3  C   UNL     1     235.838 228.098 234.841  1.00  0.00     0.003 C 
ATOM      4  C   UNL     1     236.003 227.501 236.266  1.00  0.00     0.005 C 
ATOM      5  C   UNL     1     237.526 227.625 236.520  1.00  0.00     0.015 C 
ATOM      6  C   UNL     1     238.034 228.286 235.217  1.00  0.00     0.032 C 
ATOM      7  C   UNL     1     237.884 227.219 234.160  1.00  0.00     0.139 C 
ATOM      8  O   UNL     1     238.786 226.543 233.690  1.00  0.00    -0.299 OA
ATOM      9  C   UNL     1     236.428 227.050 233.856  1.00  0.00     0.080 C 
ATOM     10  C   UNL     1     239.432 228.908 235.314  1.00  0.00     0.020 C 
ATOM     11  C   UNL     1     236.584 230.381 235.844  1.00  0.00     0.012 C 
ENDROOT
TORSDOF 0
ENDMDL
MODEL 5
REMARK VINA RESULT:    -3.145     12.948     14.148
REMARK INTER + INTRA:          -3.145
REMARK INTER:                  -3.145
REMARK INTRA:                   0.000
REMARK UNBOUND:                 0.000
REMARK SMILES CC1(C)[C@@H]2CC[C@@]1(C)C(=O)C2
REMARK SMILES IDX 1 1 2 2 4 3 5 4 6 5 7 6 9 7 10 8 11 9 8 10 3 11
REMARK H PARENT
REMARK Flexibility Score: inf
ROOT
ATOM      1  C   UNL     1     242.465 238.068 236.153  1.00  0.00     0.012 C 
ATOM      2  C   UNL     1     241.540 237.769 234.933  1.00  0.00    -0.020 C 
ATOM      3  C   UNL     1     241.364 236.259 234.644  1.00  0.00     0.003 C 
ATOM      4  C   UNL     1     240.290 236.249 233.522  1.00  0.00     0.005 C 
ATOM      5  C   UNL     1     239.365 237.428 233.916  1.00  0.00     0.015 C 
ATOM      6  C   UNL     1     240.033 237.967 235.203  1.00  0.00     0.032 C 
ATOM      7  C   UNL     1     239.792 236.897 236.240  1.00  0.00     0.139 C 
ATOM      8  O   UNL     1     238.964 236.940 237.136  1.00  0.00    -0.299 OA
ATOM      9  C   UNL     1     240.666 235.722 235.925  1.00  0.00     0.080 C 
ATOM     10  C   UNL     1     239.592 239.377 235.614  1.00  0.00     0.020 C 
ATOM     11  C   UNL     1     242.118 238.577 233.732  1.00  0.00     0.012 C 
ENDROOT
TORSDOF 0
ENDMDL
MODEL 6
REMARK VINA RESULT:    -3.139      1.791      3.156
REMARK INTER + INTRA:          -3.139
REMARK INTER:                  -3.139
REMARK INTRA:                   0.000
REMARK UNBOUND:                 0.000
REMARK SMILES CC1(C)[C@@H]2CC[C@@]1(C)C(=O)C2
REMARK SMILES IDX 1 1 2 2 4 3 5 4 6 5 7 6 9 7 10 8 11 9 8 10 3 11
REMARK H PARENT
REMARK Flexibility Score: inf
ROOT
ATOM      1  C   UNL     1     226.119 230.543 236.162  1.00  0.00     0.012 C 
ATOM      2  C   UNL     1     227.023 230.807 234.918  1.00  0.00    -0.020 C 
ATOM      3  C   UNL     1     227.219 232.309 234.602  1.00  0.00     0.003 C 
ATOM      4  C   UNL     1     228.270 232.283 233.458  1.00  0.00     0.005 C 
ATOM      5  C   UNL     1     229.182 231.094 233.850  1.00  0.00     0.015 C 
ATOM      6  C   UNL     1     228.532 230.586 235.159  1.00  0.00     0.032 C 
ATOM      7  C   UNL     1     228.814 231.667 236.174  1.00  0.00     0.139 C 
ATOM      8  O   UNL     1     229.660 231.623 237.053  1.00  0.00    -0.299 OA
ATOM      9  C   UNL     1     227.954 232.852 235.860  1.00  0.00     0.080 C 
ATOM     10  C   UNL     1     228.957 229.175 235.582  1.00  0.00     0.020 C 
ATOM     11  C   UNL     1     226.405 229.992 233.742  1.00  0.00     0.012 C 
ENDROOT
TORSDOF 0
ENDMDL
MODEL 7
REMARK VINA RESULT:    -3.137      8.579     10.089
REMARK INTER + INTRA:          -3.137
REMARK INTER:                  -3.137
REMARK INTRA:                   0.000
REMARK UNBOUND:                 0.000
REMARK SMILES CC1(C)[C@@H]2CC[C@@]1(C)C(=O)C2
REMARK SMILES IDX 1 1 2 2 4 3 5 4 6 5 7 6 9 7 10 8 11 9 8 10 3 11
REMARK H PARENT
REMARK Flexibility Score: inf
ROOT
ATOM      1  C   UNL     1     238.015 226.142 236.210  1.00  0.00     0.012 C 
ATOM      2  C   UNL     1     237.734 227.028 234.957  1.00  0.00    -0.020 C 
ATOM      3  C   UNL     1     236.229 227.176 234.627  1.00  0.00     0.003 C 
ATOM      4  C   UNL     1     236.233 228.218 233.475  1.00  0.00     0.005 C 
ATOM      5  C   UNL     1     237.390 229.170 233.871  1.00  0.00     0.015 C 
ATOM      6  C   UNL     1     237.906 228.545 235.189  1.00  0.00     0.032 C 
ATOM      7  C   UNL     1     236.808 228.801 236.192  1.00  0.00     0.139 C 
ATOM      8  O   UNL     1     236.818 229.654 237.066  1.00  0.00    -0.299 OA
ATOM      9  C   UNL     1     235.652 227.903 235.874  1.00  0.00     0.080 C 
ATOM     10  C   UNL     1     239.299 229.016 235.621  1.00  0.00     0.020 C 
ATOM     11  C   UNL     1     238.578 226.427 233.793  1.00  0.00     0.012 C 
ENDROOT
TORSDOF 0
ENDMDL
MODEL 8
REMARK VINA RESULT:    -3.136      8.844      9.908
REMARK INTER + INTRA:          -3.136
REMARK INTER:                  -3.136
REMARK INTRA:                   0.000
REMARK UNBOUND:                 0.000
REMARK SMILES CC1(C)[C@@H]2CC[C@@]1(C)C(=O)C2
REMARK SMILES IDX 1 1 2 2 4 3 5 4 6 5 7 6 9 7 10 8 11 9 8 10 3 11
REMARK H PARENT
REMARK Flexibility Score: inf
ROOT
ATOM      1  C   UNL     1     233.237 239.976 236.097  1.00  0.00     0.012 C 
ATOM      2  C   UNL     1     231.949 240.750 235.677  1.00  0.00    -0.020 C 
ATOM      3  C   UNL     1     232.098 241.527 234.347  1.00  0.00     0.003 C 
ATOM      4  C   UNL     1     230.655 242.045 234.091  1.00  0.00     0.005 C 
ATOM      5  C   UNL     1     229.771 240.886 234.616  1.00  0.00     0.015 C 
ATOM      6  C   UNL     1     230.818 239.861 235.115  1.00  0.00     0.032 C 
ATOM      7  C   UNL     1     231.472 239.337 233.861  1.00  0.00     0.139 C 
ATOM      8  O   UNL     1     231.257 238.254 233.338  1.00  0.00    -0.299 OA
ATOM      9  C   UNL     1     232.355 240.408 233.299  1.00  0.00     0.080 C 
ATOM     10  C   UNL     1     230.264 238.784 236.055  1.00  0.00     0.020 C 
ATOM     11  C   UNL     1     231.557 241.647 236.890  1.00  0.00     0.012 C 
ENDROOT
TORSDOF 0
ENDMDL
MODEL 9
REMARK VINA RESULT:    -3.128      1.579      2.508
REMARK INTER + INTRA:          -3.128
REMARK INTER:                  -3.128
REMARK INTRA:                   0.000
REMARK UNBOUND:                 0.000
REMARK SMILES CC1(C)[C@@H]2CC[C@@]1(C)C(=O)C2
REMARK SMILES IDX 1 1 2 2 4 3 5 4 6 5 7 6 9 7 10 8 11 9 8 10 3 11
REMARK H PARENT
REMARK Flexibility Score: inf
ROOT
ATOM      1  C   UNL     1     228.483 233.243 236.109  1.00  0.00     0.012 C 
ATOM      2  C   UNL     1     227.723 231.946 235.692  1.00  0.00    -0.020 C 
ATOM      3  C   UNL     1     226.941 232.085 234.364  1.00  0.00     0.003 C 
ATOM      4  C   UNL     1     226.439 230.636 234.110  1.00  0.00     0.005 C 
ATOM      5  C   UNL     1     227.609 229.766 234.633  1.00  0.00     0.015 C 
ATOM      6  C   UNL     1     228.623 230.825 235.129  1.00  0.00     0.032 C 
ATOM      7  C   UNL     1     229.137 231.484 233.873  1.00  0.00     0.139 C 
ATOM      8  O   UNL     1     230.221 231.281 233.348  1.00  0.00    -0.299 OA
ATOM      9  C   UNL     1     228.055 232.353 233.312  1.00  0.00     0.080 C 
ATOM     10  C   UNL     1     229.709 230.284 236.067  1.00  0.00     0.020 C 
ATOM     11  C   UNL     1     226.834 231.545 236.907  1.00  0.00     0.012 C 
ENDROOT
TORSDOF 0
ENDMDL
