MODEL 1
REMARK VINA RESULT:    -3.325      0.000      0.000
REMARK INTER + INTRA:          -4.277
REMARK INTER:                  -4.005
REMARK INTRA:                  -0.272
REMARK UNBOUND:                -0.272
REMARK SMILES NC(=O)C[C@@H]([NH3+])C(=O)[O-]
REMARK SMILES IDX 4 1 5 2 6 3 7 7 8 8 9 9 2 10 3 11 1 12
REMARK H PARENT 6 4 6 5 6 6 1 13 1 14
REMARK Flexibility Score: inf
ROOT
ATOM      1  C   UNL     1     -10.077  10.050 -35.054  1.00  0.00     0.171 C 
ENDROOT
BRANCH   1   2
ATOM      2  C   UNL     1     -10.045   9.960 -33.516  1.00  0.00     0.237 C 
BRANCH   2   3
ATOM      3  N   UNL     1      -8.900  10.708 -32.981  1.00  0.00    -0.350 N 
ATOM      4  H   UNL     1      -9.052  10.911 -31.966  1.00  0.00     0.345 HD
ATOM      5  H   UNL     1      -8.029  10.135 -33.072  1.00  0.00     0.345 HD
ATOM      6  H   UNL     1      -8.772  11.609 -33.498  1.00  0.00     0.345 HD
ENDBRANCH   2   3
BRANCH   2   7
ATOM      7  C   UNL     1     -11.329  10.473 -32.916  1.00  0.00     0.100 C 
ATOM      8  O   UNL     1     -11.531  11.712 -32.801  1.00  0.00    -0.544 OA
ATOM      9  O   UNL     1     -12.306   9.579 -32.498  1.00  0.00    -0.544 OA
ENDBRANCH   2   7
ENDBRANCH   1   2
BRANCH   1  10
ATOM     10  C   UNL     1      -9.975  11.471 -35.527  1.00  0.00     0.223 C 
ATOM     11  O   UNL     1      -8.876  12.082 -35.444  1.00  0.00    -0.275 OA
ATOM     12  N   UNL     1     -11.104  12.124 -36.111  1.00  0.00    -0.369 N 
ATOM     13  H   UNL     1     -11.024  13.107 -36.452  1.00  0.00     0.159 HD
ATOM     14  H   UNL     1     -12.017  11.627 -36.206  1.00  0.00     0.159 HD
ENDBRANCH   1  10
TORSDOF 4
ENDMDL
MODEL 2
REMARK VINA RESULT:    -3.162      1.627      3.306
REMARK INTER + INTRA:          -4.081
REMARK INTER:                  -3.752
REMARK INTRA:                  -0.329
REMARK UNBOUND:                -0.272
REMARK SMILES NC(=O)C[C@@H]([NH3+])C(=O)[O-]
REMARK SMILES IDX 4 1 5 2 6 3 7 7 8 8 9 9 2 10 3 11 1 12
REMARK H PARENT 6 4 6 5 6 6 1 13 1 14
REMARK Flexibility Score: inf
ROOT
ATOM      1  C   UNL     1      -9.992  11.408 -32.640  1.00  0.00     0.171 C 
ENDROOT
BRANCH   1   2
ATOM      2  C   UNL     1      -9.086  10.591 -33.583  1.00  0.00     0.237 C 
BRANCH   2   3
ATOM      3  N   UNL     1      -9.201   9.157 -33.291  1.00  0.00    -0.350 N 
ATOM      4  H   UNL     1     -10.208   8.898 -33.170  1.00  0.00     0.345 HD
ATOM      5  H   UNL     1      -8.816   8.602 -34.090  1.00  0.00     0.345 HD
ATOM      6  H   UNL     1      -8.675   8.912 -32.421  1.00  0.00     0.345 HD
ENDBRANCH   2   3
BRANCH   2   7
ATOM      7  C   UNL     1      -9.427  10.858 -35.027  1.00  0.00     0.100 C 
ATOM      8  O   UNL     1      -9.265   9.962 -35.898  1.00  0.00    -0.544 OA
ATOM      9  O   UNL     1      -9.937  12.094 -35.402  1.00  0.00    -0.544 OA
ENDBRANCH   2   7
ENDBRANCH   1   2
BRANCH   1  10
ATOM     10  C   UNL     1     -11.445  11.099 -32.864  1.00  0.00     0.223 C 
ATOM     11  O   UNL     1     -11.880   9.937 -32.643  1.00  0.00    -0.275 OA
ATOM     12  N   UNL     1     -12.346  12.124 -33.286  1.00  0.00    -0.369 N 
ATOM     13  H   UNL     1     -13.358  11.909 -33.426  1.00  0.00     0.159 HD
ATOM     14  H   UNL     1     -12.007  13.096 -33.455  1.00  0.00     0.159 HD
ENDBRANCH   1  10
TORSDOF 4
ENDMDL
MODEL 3
REMARK VINA RESULT:    -3.142      1.929      2.236
REMARK INTER + INTRA:          -4.057
REMARK INTER:                  -3.814
REMARK INTRA:                  -0.243
REMARK UNBOUND:                -0.272
REMARK SMILES NC(=O)C[C@@H]([NH3+])C(=O)[O-]
REMARK SMILES IDX 4 1 5 2 6 3 7 7 8 8 9 9 2 10 3 11 1 12
REMARK H PARENT 6 4 6 5 6 6 1 13 1 14
REMARK Flexibility Score: inf
ROOT
ATOM      1  C   UNL     1      -9.373  12.011 -34.198  1.00  0.00     0.171 C 
ENDROOT
BRANCH   1   2
ATOM      2  C   UNL     1     -10.427  11.497 -33.197  1.00  0.00     0.237 C 
BRANCH   2   3
ATOM      3  N   UNL     1     -11.737  12.099 -33.477  1.00  0.00    -0.350 N 
ATOM      4  H   UNL     1     -12.484  11.369 -33.409  1.00  0.00     0.345 HD
ATOM      5  H   UNL     1     -11.943  12.842 -32.771  1.00  0.00     0.345 HD
ATOM      6  H   UNL     1     -11.754  12.522 -34.434  1.00  0.00     0.345 HD
ENDBRANCH   2   3
BRANCH   2   7
ATOM      7  C   UNL     1     -10.525   9.993 -33.237  1.00  0.00     0.100 C 
ATOM      8  O   UNL     1     -11.586   9.412 -32.885  1.00  0.00    -0.544 OA
ATOM      9  O   UNL     1      -9.445   9.239 -33.679  1.00  0.00    -0.544 OA
ENDBRANCH   2   7
ENDBRANCH   1   2
BRANCH   1  10
ATOM     10  C   UNL     1      -9.684  11.576 -35.601  1.00  0.00     0.223 C 
ATOM     11  O   UNL     1     -10.628  12.125 -36.232  1.00  0.00    -0.275 OA
ATOM     12  N   UNL     1      -8.893  10.575 -36.242  1.00  0.00    -0.369 N 
ATOM     13  H   UNL     1      -9.103  10.287 -37.223  1.00  0.00     0.159 HD
ATOM     14  H   UNL     1      -8.095  10.124 -35.742  1.00  0.00     0.159 HD
ENDBRANCH   1  10
TORSDOF 4
ENDMDL
MODEL 4
REMARK VINA RESULT:    -2.615      1.859      3.453
REMARK INTER + INTRA:          -3.422
REMARK INTER:                  -3.084
REMARK INTRA:                  -0.338
REMARK UNBOUND:                -0.272
REMARK SMILES NC(=O)C[C@@H]([NH3+])C(=O)[O-]
REMARK SMILES IDX 4 1 5 2 6 3 7 7 8 8 9 9 2 10 3 11 1 12
REMARK H PARENT 6 4 6 5 6 6 1 13 1 14
REMARK Flexibility Score: inf
ROOT
ATOM      1  C   UNL     1     -11.175  12.076 -33.708  1.00  0.00     0.171 C 
ENDROOT
BRANCH   1   2
ATOM      2  C   UNL     1      -9.694  12.048 -34.134  1.00  0.00     0.237 C 
BRANCH   2   3
ATOM      3  N   UNL     1      -8.875  11.399 -33.102  1.00  0.00    -0.350 N 
ATOM      4  H   UNL     1      -9.452  11.231 -32.245  1.00  0.00     0.345 HD
ATOM      5  H   UNL     1      -8.534  10.474 -33.452  1.00  0.00     0.345 HD
ATOM      6  H   UNL     1      -8.052  11.995 -32.853  1.00  0.00     0.345 HD
ENDBRANCH   2   3
BRANCH   2   7
ATOM      7  C   UNL     1      -9.523  11.341 -35.455  1.00  0.00     0.100 C 
ATOM      8  O   UNL     1      -9.213  11.988 -36.491  1.00  0.00    -0.544 OA
ATOM      9  O   UNL     1      -9.693   9.964 -35.532  1.00  0.00    -0.544 OA
ENDBRANCH   2   7
ENDBRANCH   1   2
BRANCH   1  10
ATOM     10  C   UNL     1     -11.454  11.092 -32.609  1.00  0.00     0.223 C 
ATOM     11  O   UNL     1     -11.128  11.367 -31.424  1.00  0.00    -0.275 OA
ATOM     12  N   UNL     1     -12.125   9.862 -32.891  1.00  0.00    -0.369 N 
ATOM     13  H   UNL     1     -12.331   9.187 -32.121  1.00  0.00     0.159 HD
ATOM     14  H   UNL     1     -12.421   9.626 -33.863  1.00  0.00     0.159 HD
ENDBRANCH   1  10
TORSDOF 4
ENDMDL
MODEL 5
REMARK VINA RESULT:    -1.204      2.156      3.446
REMARK INTER + INTRA:          -1.722
REMARK INTER:                  -1.638
REMARK INTRA:                  -0.084
REMARK UNBOUND:                -0.272
REMARK SMILES NC(=O)C[C@@H]([NH3+])C(=O)[O-]
REMARK SMILES IDX 4 1 5 2 6 3 7 7 8 8 9 9 2 10 3 11 1 12
REMARK H PARENT 6 4 6 5 6 6 1 13 1 14
REMARK Flexibility Score: inf
ROOT
ATOM      1  C   UNL     1     -11.210   9.586 -33.667  1.00  0.00     0.171 C 
ENDROOT
BRANCH   1   2
ATOM      2  C   UNL     1      -9.884   9.960 -32.976  1.00  0.00     0.237 C 
BRANCH   2   3
ATOM      3  N   UNL     1      -8.875   8.917 -33.201  1.00  0.00    -0.350 N 
ATOM      4  H   UNL     1      -9.339   7.980 -33.250  1.00  0.00     0.345 HD
ATOM      5  H   UNL     1      -8.387   9.087 -34.111  1.00  0.00     0.345 HD
ATOM      6  H   UNL     1      -8.168   8.912 -32.429  1.00  0.00     0.345 HD
ENDBRANCH   2   3
BRANCH   2   7
ATOM      7  C   UNL     1      -9.373  11.291 -33.467  1.00  0.00     0.100 C 
ATOM      8  O   UNL     1      -8.875  12.122 -32.661  1.00  0.00    -0.544 OA
ATOM      9  O   UNL     1      -9.437  11.603 -34.820  1.00  0.00    -0.544 OA
ENDBRANCH   2   7
ENDBRANCH   1   2
BRANCH   1  10
ATOM     10  C   UNL     1     -12.392   9.868 -32.785  1.00  0.00     0.223 C 
ATOM     11  O   UNL     1     -12.683  11.057 -32.488  1.00  0.00    -0.275 OA
ATOM     12  N   UNL     1     -13.214   8.799 -32.313  1.00  0.00    -0.369 N 
ATOM     13  H   UNL     1     -14.044   9.000 -31.712  1.00  0.00     0.159 HD
ATOM     14  H   UNL     1     -12.999   7.809 -32.565  1.00  0.00     0.159 HD
ENDBRANCH   1  10
TORSDOF 4
ENDMDL
MODEL 6
REMARK VINA RESULT:    -0.538      2.370      3.088
REMARK INTER + INTRA:          -0.920
REMARK INTER:                  -1.138
REMARK INTRA:                   0.218
REMARK UNBOUND:                -0.272
REMARK SMILES NC(=O)C[C@@H]([NH3+])C(=O)[O-]
REMARK SMILES IDX 4 1 5 2 6 3 7 7 8 8 9 9 2 10 3 11 1 12
REMARK H PARENT 6 4 6 5 6 6 1 13 1 14
REMARK Flexibility Score: inf
ROOT
ATOM      1  C   UNL     1     -11.887  10.714 -32.757  1.00  0.00     0.171 C 
ENDROOT
BRANCH   1   2
ATOM      2  C   UNL     1     -11.331   9.288 -32.583  1.00  0.00     0.237 C 
BRANCH   2   3
ATOM      3  N   UNL     1     -12.378   8.292 -32.847  1.00  0.00    -0.350 N 
ATOM      4  H   UNL     1     -12.093   7.365 -32.453  1.00  0.00     0.345 HD
ATOM      5  H   UNL     1     -13.268   8.584 -32.382  1.00  0.00     0.345 HD
ATOM      6  H   UNL     1     -12.546   8.194 -33.875  1.00  0.00     0.345 HD
ENDBRANCH   2   3
BRANCH   2   7
ATOM      7  C   UNL     1     -10.149   9.053 -33.489  1.00  0.00     0.100 C 
ATOM      8  O   UNL     1     -10.304   8.988 -34.738  1.00  0.00    -0.544 OA
ATOM      9  O   UNL     1      -8.876   8.921 -32.949  1.00  0.00    -0.544 OA
ENDBRANCH   2   7
ENDBRANCH   1   2
BRANCH   1  10
ATOM     10  C   UNL     1     -10.827  11.669 -33.224  1.00  0.00     0.223 C 
ATOM     11  O   UNL     1     -10.867  12.125 -34.398  1.00  0.00    -0.275 OA
ATOM     12  N   UNL     1      -9.795  12.097 -32.334  1.00  0.00    -0.369 N 
ATOM     13  H   UNL     1      -9.068  12.773 -32.658  1.00  0.00     0.159 HD
ATOM     14  H   UNL     1      -9.757  11.745 -31.352  1.00  0.00     0.159 HD
ENDBRANCH   1  10
TORSDOF 4
ENDMDL
