MODEL 1
REMARK VINA RESULT:    -5.261      0.000      0.000
REMARK INTER + INTRA:          -6.100
REMARK INTER:                  -5.877
REMARK INTRA:                  -0.223
REMARK UNBOUND:                -0.223
REMARK SMILES O=C([O-])c1ccccc1C(=O)[O-]
REMARK SMILES IDX 4 1 9 2 5 3 8 4 6 5 7 6 2 7 1 8 3 9 10 10 11 11 12 12
REMARK H PARENT
REMARK Flexibility Score: inf
ROOT
ATOM      1  C   UNL     1      11.356   3.986  55.784  1.00  0.00     0.006 A 
ATOM      2  C   UNL     1      12.462   4.207  54.916  1.00  0.00     0.006 A 
ATOM      3  C   UNL     1      11.584   3.419  57.051  1.00  0.00     0.010 A 
ATOM      4  C   UNL     1      13.760   3.913  55.374  1.00  0.00     0.010 A 
ATOM      5  C   UNL     1      12.878   3.116  57.475  1.00  0.00     0.001 A 
ATOM      6  C   UNL     1      13.965   3.373  56.643  1.00  0.00     0.001 A 
ENDROOT
BRANCH   1   7
ATOM      7  C   UNL     1       9.973   4.391  55.445  1.00  0.00     0.072 C 
ATOM      8  O   UNL     1       9.195   3.597  54.851  1.00  0.00    -0.545 OA
ATOM      9  O   UNL     1       9.536   5.681  55.722  1.00  0.00    -0.545 OA
ENDBRANCH   1   7
BRANCH   2  10
ATOM     10  C   UNL     1      12.303   4.668  53.517  1.00  0.00     0.072 C 
ATOM     11  O   UNL     1      12.013   3.847  52.607  1.00  0.00    -0.545 OA
ATOM     12  O   UNL     1      12.407   6.018  53.201  1.00  0.00    -0.545 OA
ENDBRANCH   2  10
TORSDOF 2
ENDMDL
MODEL 2
REMARK VINA RESULT:    -5.254      0.189      2.874
REMARK INTER + INTRA:          -6.091
REMARK INTER:                  -5.880
REMARK INTRA:                  -0.212
REMARK UNBOUND:                -0.223
REMARK SMILES O=C([O-])c1ccccc1C(=O)[O-]
REMARK SMILES IDX 4 1 9 2 5 3 8 4 6 5 7 6 2 7 1 8 3 9 10 10 11 11 12 12
REMARK H PARENT
REMARK Flexibility Score: inf
ROOT
ATOM      1  C   UNL     1      12.420   4.278  54.879  1.00  0.00     0.006 A 
ATOM      2  C   UNL     1      11.353   3.993  55.777  1.00  0.00     0.006 A 
ATOM      3  C   UNL     1      13.736   3.964  55.260  1.00  0.00     0.010 A 
ATOM      4  C   UNL     1      11.638   3.345  56.994  1.00  0.00     0.010 A 
ATOM      5  C   UNL     1      13.998   3.341  56.482  1.00  0.00     0.001 A 
ATOM      6  C   UNL     1      12.949   3.022  57.341  1.00  0.00     0.001 A 
ENDROOT
BRANCH   1   7
ATOM      7  C   UNL     1      12.204   4.829  53.522  1.00  0.00     0.072 C 
ATOM      8  O   UNL     1      12.138   4.070  52.519  1.00  0.00    -0.545 OA
ATOM      9  O   UNL     1      12.137   6.204  53.331  1.00  0.00    -0.545 OA
ENDBRANCH   1   7
BRANCH   2  10
ATOM     10  C   UNL     1       9.956   4.413  55.520  1.00  0.00     0.072 C 
ATOM     11  O   UNL     1       9.164   3.645  54.911  1.00  0.00    -0.545 OA
ATOM     12  O   UNL     1       9.482   5.627  56.002  1.00  0.00    -0.545 OA
ENDBRANCH   2  10
TORSDOF 2
ENDMDL
MODEL 3
REMARK VINA RESULT:    -5.098      2.239      4.549
REMARK INTER + INTRA:          -5.917
REMARK INTER:                  -5.725
REMARK INTRA:                  -0.192
REMARK UNBOUND:                -0.223
REMARK SMILES O=C([O-])c1ccccc1C(=O)[O-]
REMARK SMILES IDX 4 1 9 2 5 3 8 4 6 5 7 6 2 7 1 8 3 9 10 10 11 11 12 12
REMARK H PARENT
REMARK Flexibility Score: inf
ROOT
ATOM      1  C   UNL     1      11.239   5.867  53.945  1.00  0.00     0.006 A 
ATOM      2  C   UNL     1      10.316   5.885  55.028  1.00  0.00     0.006 A 
ATOM      3  C   UNL     1      11.307   6.979  53.087  1.00  0.00     0.010 A 
ATOM      4  C   UNL     1       9.543   7.040  55.251  1.00  0.00     0.010 A 
ATOM      5  C   UNL     1      10.515   8.106  53.314  1.00  0.00     0.001 A 
ATOM      6  C   UNL     1       9.644   8.140  54.400  1.00  0.00     0.001 A 
ENDROOT
BRANCH   1   7
ATOM      7  C   UNL     1      12.190   4.755  53.715  1.00  0.00     0.072 C 
ATOM      8  O   UNL     1      12.020   3.947  52.764  1.00  0.00    -0.545 OA
ATOM      9  O   UNL     1      13.250   4.553  54.591  1.00  0.00    -0.545 OA
ENDBRANCH   1   7
BRANCH   2  10
ATOM     10  C   UNL     1      10.078   4.708  55.897  1.00  0.00     0.072 C 
ATOM     11  O   UNL     1       9.164   3.888  55.618  1.00  0.00    -0.545 OA
ATOM     12  O   UNL     1      10.898   4.459  56.992  1.00  0.00    -0.545 OA
ENDBRANCH   2  10
TORSDOF 2
ENDMDL
MODEL 4
REMARK VINA RESULT:    -5.076      2.204      3.554
REMARK INTER + INTRA:          -5.892
REMARK INTER:                  -5.709
REMARK INTRA:                  -0.183
REMARK UNBOUND:                -0.223
REMARK SMILES O=C([O-])c1ccccc1C(=O)[O-]
REMARK SMILES IDX 4 1 9 2 5 3 8 4 6 5 7 6 2 7 1 8 3 9 10 10 11 11 12 12
REMARK H PARENT
REMARK Flexibility Score: inf
ROOT
ATOM      1  C   UNL     1      10.294   5.799  55.002  1.00  0.00     0.006 A 
ATOM      2  C   UNL     1      11.216   5.801  53.918  1.00  0.00     0.006 A 
ATOM      3  C   UNL     1       9.503   6.940  55.229  1.00  0.00     0.010 A 
ATOM      4  C   UNL     1      11.266   6.919  53.064  1.00  0.00     0.010 A 
ATOM      5  C   UNL     1       9.585   8.046  54.382  1.00  0.00     0.001 A 
ATOM      6  C   UNL     1      10.456   8.031  53.295  1.00  0.00     0.001 A 
ENDROOT
BRANCH   1   7
ATOM      7  C   UNL     1      10.072   4.619  55.868  1.00  0.00     0.072 C 
ATOM      8  O   UNL     1       9.115   3.828  55.650  1.00  0.00    -0.545 OA
ATOM      9  O   UNL     1      10.883   4.405  56.976  1.00  0.00    -0.545 OA
ENDBRANCH   1   7
BRANCH   2  10
ATOM     10  C   UNL     1      12.184   4.703  53.687  1.00  0.00     0.072 C 
ATOM     11  O   UNL     1      12.091   3.981  52.659  1.00  0.00    -0.545 OA
ATOM     12  O   UNL     1      13.241   4.496  54.564  1.00  0.00    -0.545 OA
ENDBRANCH   2  10
TORSDOF 2
ENDMDL
MODEL 5
REMARK VINA RESULT:    -5.011     15.684     17.104
REMARK INTER + INTRA:          -5.820
REMARK INTER:                  -5.693
REMARK INTRA:                  -0.128
REMARK UNBOUND:                -0.223
REMARK SMILES O=C([O-])c1ccccc1C(=O)[O-]
REMARK SMILES IDX 4 1 9 2 5 3 8 4 6 5 7 6 2 7 1 8 3 9 10 10 11 11 12 12
REMARK H PARENT
REMARK Flexibility Score: inf
ROOT
ATOM      1  C   UNL     1      23.461  -7.570  55.408  1.00  0.00     0.006 A 
ATOM      2  C   UNL     1      24.280  -8.396  54.589  1.00  0.00     0.006 A 
ATOM      3  C   UNL     1      23.925  -7.194  56.681  1.00  0.00     0.010 A 
ATOM      4  C   UNL     1      25.560  -8.761  55.048  1.00  0.00     0.010 A 
ATOM      5  C   UNL     1      25.189  -7.585  57.124  1.00  0.00     0.001 A 
ATOM      6  C   UNL     1      26.009  -8.357  56.305  1.00  0.00     0.001 A 
ENDROOT
BRANCH   1   7
ATOM      7  C   UNL     1      22.161  -7.023  54.955  1.00  0.00     0.072 C 
ATOM      8  O   UNL     1      21.079  -7.434  55.452  1.00  0.00    -0.545 OA
ATOM      9  O   UNL     1      22.118  -6.091  53.925  1.00  0.00    -0.545 OA
ENDBRANCH   1   7
BRANCH   2  10
ATOM     10  C   UNL     1      23.817  -8.954  53.296  1.00  0.00     0.072 C 
ATOM     11  O   UNL     1      23.355 -10.124  53.239  1.00  0.00    -0.545 OA
ATOM     12  O   UNL     1      23.826  -8.174  52.146  1.00  0.00    -0.545 OA
ENDBRANCH   2  10
TORSDOF 2
ENDMDL
MODEL 6
REMARK VINA RESULT:    -4.986      2.631      4.051
REMARK INTER + INTRA:          -5.792
REMARK INTER:                  -5.644
REMARK INTRA:                  -0.148
REMARK UNBOUND:                -0.223
REMARK SMILES O=C([O-])c1ccccc1C(=O)[O-]
REMARK SMILES IDX 4 1 9 2 5 3 8 4 6 5 7 6 2 7 1 8 3 9 10 10 11 11 12 12
REMARK H PARENT
REMARK Flexibility Score: inf
ROOT
ATOM      1  C   UNL     1      11.282   6.471  54.315  1.00  0.00     0.006 A 
ATOM      2  C   UNL     1      11.016   5.191  54.876  1.00  0.00     0.006 A 
ATOM      3  C   UNL     1      11.975   6.551  53.094  1.00  0.00     0.010 A 
ATOM      4  C   UNL     1      11.396   4.038  54.163  1.00  0.00     0.010 A 
ATOM      5  C   UNL     1      12.362   5.395  52.415  1.00  0.00     0.001 A 
ATOM      6  C   UNL     1      12.063   4.142  52.942  1.00  0.00     0.001 A 
ENDROOT
BRANCH   1   7
ATOM      7  C   UNL     1      10.799   7.732  54.922  1.00  0.00     0.072 C 
ATOM      8  O   UNL     1      11.580   8.476  55.574  1.00  0.00    -0.545 OA
ATOM      9  O   UNL     1       9.456   8.079  54.834  1.00  0.00    -0.545 OA
ENDBRANCH   1   7
BRANCH   2  10
ATOM     10  C   UNL     1      10.416   5.013  56.220  1.00  0.00     0.072 C 
ATOM     11  O   UNL     1       9.175   5.152  56.384  1.00  0.00    -0.545 OA
ATOM     12  O   UNL     1      11.202   4.629  57.300  1.00  0.00    -0.545 OA
ENDBRANCH   2  10
TORSDOF 2
ENDMDL
MODEL 7
REMARK VINA RESULT:    -4.983     15.613     17.200
REMARK INTER + INTRA:          -5.789
REMARK INTER:                  -5.648
REMARK INTRA:                  -0.140
REMARK UNBOUND:                -0.223
REMARK SMILES O=C([O-])c1ccccc1C(=O)[O-]
REMARK SMILES IDX 4 1 9 2 5 3 8 4 6 5 7 6 2 7 1 8 3 9 10 10 11 11 12 12
REMARK H PARENT
REMARK Flexibility Score: inf
ROOT
ATOM      1  C   UNL     1      24.209  -8.346  54.475  1.00  0.00     0.006 A 
ATOM      2  C   UNL     1      23.386  -7.526  55.296  1.00  0.00     0.006 A 
ATOM      3  C   UNL     1      25.497  -8.690  54.926  1.00  0.00     0.010 A 
ATOM      4  C   UNL     1      23.856  -7.135  56.564  1.00  0.00     0.010 A 
ATOM      5  C   UNL     1      25.951  -8.273  56.178  1.00  0.00     0.001 A 
ATOM      6  C   UNL     1      25.128  -7.507  57.000  1.00  0.00     0.001 A 
ENDROOT
BRANCH   1   7
ATOM      7  C   UNL     1      23.749  -8.919  53.190  1.00  0.00     0.072 C 
ATOM      8  O   UNL     1      23.392 -10.125  53.112  1.00  0.00    -0.545 OA
ATOM      9  O   UNL     1      23.768  -8.146  52.036  1.00  0.00    -0.545 OA
ENDBRANCH   1   7
BRANCH   2  10
ATOM     10  C   UNL     1      22.075  -7.001  54.846  1.00  0.00     0.072 C 
ATOM     11  O   UNL     1      21.016  -7.356  55.428  1.00  0.00    -0.545 OA
ATOM     12  O   UNL     1      22.002  -6.064  53.823  1.00  0.00    -0.545 OA
ENDBRANCH   2  10
TORSDOF 2
ENDMDL
MODEL 8
REMARK VINA RESULT:    -4.977      2.587      3.560
REMARK INTER + INTRA:          -5.782
REMARK INTER:                  -5.608
REMARK INTRA:                  -0.174
REMARK UNBOUND:                -0.223
REMARK SMILES O=C([O-])c1ccccc1C(=O)[O-]
REMARK SMILES IDX 4 1 9 2 5 3 8 4 6 5 7 6 2 7 1 8 3 9 10 10 11 11 12 12
REMARK H PARENT
REMARK Flexibility Score: inf
ROOT
ATOM      1  C   UNL     1      11.069   5.162  54.870  1.00  0.00     0.006 A 
ATOM      2  C   UNL     1      11.334   6.449  54.324  1.00  0.00     0.006 A 
ATOM      3  C   UNL     1      11.430   4.020  54.134  1.00  0.00     0.010 A 
ATOM      4  C   UNL     1      12.009   6.544  53.092  1.00  0.00     0.010 A 
ATOM      5  C   UNL     1      12.079   4.138  52.904  1.00  0.00     0.001 A 
ATOM      6  C   UNL     1      12.378   5.397  52.390  1.00  0.00     0.001 A 
ENDROOT
BRANCH   1   7
ATOM      7  C   UNL     1      10.491   4.963  56.219  1.00  0.00     0.072 C 
ATOM      8  O   UNL     1      11.222   4.647  57.195  1.00  0.00    -0.545 OA
ATOM      9  O   UNL     1       9.117   5.060  56.409  1.00  0.00    -0.545 OA
ENDBRANCH   1   7
BRANCH   2  10
ATOM     10  C   UNL     1      10.866   7.702  54.962  1.00  0.00     0.072 C 
ATOM     11  O   UNL     1      11.696   8.510  55.456  1.00  0.00    -0.545 OA
ATOM     12  O   UNL     1       9.517   8.033  54.966  1.00  0.00    -0.545 OA
ENDBRANCH   2  10
TORSDOF 2
ENDMDL
MODEL 9
REMARK VINA RESULT:    -4.749      2.868      3.807
REMARK INTER + INTRA:          -5.527
REMARK INTER:                  -5.326
REMARK INTRA:                  -0.201
REMARK UNBOUND:                -0.223
REMARK SMILES O=C([O-])c1ccccc1C(=O)[O-]
REMARK SMILES IDX 4 1 9 2 5 3 8 4 6 5 7 6 2 7 1 8 3 9 10 10 11 11 12 12
REMARK H PARENT
REMARK Flexibility Score: inf
ROOT
ATOM      1  C   UNL     1      12.336   3.501  56.503  1.00  0.00     0.006 A 
ATOM      2  C   UNL     1      13.263   3.851  55.482  1.00  0.00     0.006 A 
ATOM      3  C   UNL     1      10.964   3.719  56.283  1.00  0.00     0.010 A 
ATOM      4  C   UNL     1      12.778   4.344  54.256  1.00  0.00     0.010 A 
ATOM      5  C   UNL     1      10.506   4.229  55.068  1.00  0.00     0.001 A 
ATOM      6  C   UNL     1      11.411   4.530  54.052  1.00  0.00     0.001 A 
ENDROOT
BRANCH   1   7
ATOM      7  C   UNL     1      12.740   2.848  57.769  1.00  0.00     0.072 C 
ATOM      8  O   UNL     1      12.832   3.511  58.836  1.00  0.00    -0.545 OA
ATOM      9  O   UNL     1      13.086   1.502  57.779  1.00  0.00    -0.545 OA
ENDBRANCH   1   7
BRANCH   2  10
ATOM     10  C   UNL     1      14.731   3.787  55.676  1.00  0.00     0.072 C 
ATOM     11  O   UNL     1      15.374   4.821  55.998  1.00  0.00    -0.545 OA
ATOM     12  O   UNL     1      15.406   2.577  55.571  1.00  0.00    -0.545 OA
ENDBRANCH   2  10
TORSDOF 2
ENDMDL
