MODEL 1
REMARK VINA RESULT:    -5.832      0.000      0.000
REMARK INTER + INTRA:          -7.238
REMARK INTER:                  -7.025
REMARK INTRA:                  -0.213
REMARK UNBOUND:                -0.213
REMARK SMILES O=c1c(O)c(-c2ccc(O)c(O)c2)oc2cc(O)cc(O)c12
REMARK SMILES IDX 5 1 3 2 2 3 1 4 22 5 20 6 19 7 17 8 16 9 15 10 14 11 6 12
REMARK SMILES IDX 7 13 8 14 9 15 13 16 11 17 10 18 12 20 4 22 21 24 18 26
REMARK H PARENT 10 19 12 21 4 23 21 25 18 27
REMARK Flexibility Score: inf
ROOT
ATOM      1  C   UNL     1       4.447 -60.880  -7.499  1.00  0.00     0.180 A 
ATOM      2  C   UNL     1       3.135 -61.117  -7.946  1.00  0.00     0.208 A 
ATOM      3  C   UNL     1       2.061 -60.578  -7.223  1.00  0.00     0.238 A 
ATOM      4  O   UNL     1       0.892 -60.749  -7.660  1.00  0.00    -0.285 OA
ATOM      5  C   UNL     1       2.308 -59.822  -6.052  1.00  0.00     0.111 A 
ATOM      6  C   UNL     1       1.292 -59.261  -5.219  1.00  0.00     0.134 A 
ATOM      7  C   UNL     1       1.655 -58.422  -4.160  1.00  0.00     0.093 A 
ATOM      8  C   UNL     1       2.994 -58.175  -3.861  1.00  0.00     0.123 A 
ATOM      9  C   UNL     1       3.996 -58.765  -4.633  1.00  0.00     0.094 A 
ATOM     10  C   UNL     1       3.666 -59.578  -5.719  1.00  0.00     0.146 A 
ATOM     11  O   UNL     1       4.648 -60.112  -6.434  1.00  0.00    -0.452 OA
ENDROOT
BRANCH   1  12
ATOM     12  C   UNL     1       5.629 -61.437  -8.194  1.00  0.00     0.025 A 
ATOM     13  C   UNL     1       6.011 -60.908  -9.435  1.00  0.00     0.016 A 
ATOM     14  C   UNL     1       7.135 -61.405 -10.099  1.00  0.00     0.051 A 
ATOM     15  C   UNL     1       7.906 -62.425  -9.533  1.00  0.00     0.157 A 
ATOM     16  C   UNL     1       6.415 -62.445  -7.611  1.00  0.00     0.062 A 
ATOM     17  C   UNL     1       7.545 -62.947  -8.268  1.00  0.00     0.158 A 
BRANCH  15  18
ATOM     18  O   UNL     1       9.013 -62.882 -10.250  1.00  0.00    -0.504 OA
ATOM     19  H   UNL     1       9.117 -63.828 -10.586  1.00  0.00     0.293 HD
ENDBRANCH  15  18
BRANCH  17  20
ATOM     20  O   UNL     1       8.278 -63.950  -7.630  1.00  0.00    -0.504 OA
ATOM     21  H   UNL     1       7.937 -64.487  -6.844  1.00  0.00     0.293 HD
ENDBRANCH  17  20
ENDBRANCH   1  12
BRANCH   2  22
ATOM     22  O   UNL     1       2.915 -61.849  -9.118  1.00  0.00    -0.502 OA
ATOM     23  H   UNL     1       3.220 -61.523 -10.027  1.00  0.00     0.293 HD
ENDBRANCH   2  22
BRANCH   6  24
ATOM     24  O   UNL     1      -0.073 -59.520  -5.374  1.00  0.00    -0.507 OA
ATOM     25  H   UNL     1      -0.473 -60.079  -6.111  1.00  0.00     0.293 HD
ENDBRANCH   6  24
BRANCH   8  26
ATOM     26  O   UNL     1       3.318 -57.347  -2.789  1.00  0.00    -0.508 OA
ATOM     27  H   UNL     1       2.835 -57.415  -1.901  1.00  0.00     0.293 HD
ENDBRANCH   8  26
TORSDOF 6
ENDMDL
MODEL 2
REMARK VINA RESULT:    -5.771      2.348      3.413
REMARK INTER + INTRA:          -7.165
REMARK INTER:                  -6.980
REMARK INTRA:                  -0.185
REMARK UNBOUND:                -0.213
REMARK SMILES O=c1c(O)c(-c2ccc(O)c(O)c2)oc2cc(O)cc(O)c12
REMARK SMILES IDX 5 1 3 2 2 3 1 4 22 5 20 6 19 7 17 8 16 9 15 10 14 11 6 12
REMARK SMILES IDX 7 13 8 14 9 15 13 16 11 17 10 18 12 20 4 22 21 24 18 26
REMARK H PARENT 10 19 12 21 4 23 21 25 18 27
REMARK Flexibility Score: inf
ROOT
ATOM      1  C   UNL     1       5.403 -62.023  -7.072  1.00  0.00     0.180 A 
ATOM      2  C   UNL     1       5.219 -60.660  -6.782  1.00  0.00     0.208 A 
ATOM      3  C   UNL     1       4.207 -60.286  -5.884  1.00  0.00     0.238 A 
ATOM      4  O   UNL     1       4.083 -59.069  -5.586  1.00  0.00    -0.285 OA
ATOM      5  C   UNL     1       3.381 -61.277  -5.300  1.00  0.00     0.111 A 
ATOM      6  C   UNL     1       2.300 -61.007  -4.407  1.00  0.00     0.134 A 
ATOM      7  C   UNL     1       1.635 -62.073  -3.789  1.00  0.00     0.093 A 
ATOM      8  C   UNL     1       1.966 -63.395  -4.079  1.00  0.00     0.123 A 
ATOM      9  C   UNL     1       2.982 -63.670  -4.995  1.00  0.00     0.094 A 
ATOM     10  C   UNL     1       3.688 -62.629  -5.601  1.00  0.00     0.146 A 
ATOM     11  O   UNL     1       4.655 -62.933  -6.459  1.00  0.00    -0.452 OA
ENDROOT
BRANCH   1  12
ATOM     12  C   UNL     1       6.432 -62.492  -8.028  1.00  0.00     0.025 A 
ATOM     13  C   UNL     1       7.451 -63.345  -7.581  1.00  0.00     0.016 A 
ATOM     14  C   UNL     1       8.419 -63.814  -8.470  1.00  0.00     0.051 A 
ATOM     15  C   UNL     1       8.383 -63.457  -9.821  1.00  0.00     0.157 A 
ATOM     16  C   UNL     1       6.378 -62.149  -9.390  1.00  0.00     0.062 A 
ATOM     17  C   UNL     1       7.343 -62.618 -10.289  1.00  0.00     0.158 A 
BRANCH  15  18
ATOM     18  O   UNL     1       9.385 -63.956 -10.656  1.00  0.00    -0.504 OA
ATOM     19  H   UNL     1       9.441 -64.917 -10.959  1.00  0.00     0.293 HD
ENDBRANCH  15  18
BRANCH  17  20
ATOM     20  O   UNL     1       7.228 -62.236 -11.627  1.00  0.00    -0.504 OA
ATOM     21  H   UNL     1       7.430 -61.307 -11.969  1.00  0.00     0.293 HD
ENDBRANCH  17  20
ENDBRANCH   1  12
BRANCH   2  22
ATOM     22  O   UNL     1       6.060 -59.700  -7.353  1.00  0.00    -0.502 OA
ATOM     23  H   UNL     1       7.010 -59.551  -7.034  1.00  0.00     0.293 HD
ENDBRANCH   2  22
BRANCH   6  24
ATOM     24  O   UNL     1       1.827 -59.724  -4.120  1.00  0.00    -0.507 OA
ATOM     25  H   UNL     1       2.093 -58.888  -4.617  1.00  0.00     0.293 HD
ENDBRANCH   6  24
BRANCH   8  26
ATOM     26  O   UNL     1       1.272 -64.431  -3.457  1.00  0.00    -0.508 OA
ATOM     27  H   UNL     1       0.414 -64.262  -2.945  1.00  0.00     0.293 HD
ENDBRANCH   8  26
TORSDOF 6
ENDMDL
MODEL 3
REMARK VINA RESULT:    -5.700      1.674      3.197
REMARK INTER + INTRA:          -7.080
REMARK INTER:                  -7.234
REMARK INTRA:                   0.154
REMARK UNBOUND:                -0.213
REMARK SMILES O=c1c(O)c(-c2ccc(O)c(O)c2)oc2cc(O)cc(O)c12
REMARK SMILES IDX 5 1 3 2 2 3 1 4 22 5 20 6 19 7 17 8 16 9 15 10 14 11 6 12
REMARK SMILES IDX 7 13 8 14 9 15 13 16 11 17 10 18 12 20 4 22 21 24 18 26
REMARK H PARENT 10 19 12 21 4 23 21 25 18 27
REMARK Flexibility Score: inf
ROOT
ATOM      1  C   UNL     1       4.855 -60.934  -8.189  1.00  0.00     0.180 A 
ATOM      2  C   UNL     1       4.869 -60.433  -6.875  1.00  0.00     0.208 A 
ATOM      3  C   UNL     1       3.753 -59.727  -6.403  1.00  0.00     0.238 A 
ATOM      4  O   UNL     1       3.750 -59.328  -5.209  1.00  0.00    -0.285 OA
ATOM      5  C   UNL     1       2.641 -59.515  -7.254  1.00  0.00     0.111 A 
ATOM      6  C   UNL     1       1.472 -58.778  -6.893  1.00  0.00     0.134 A 
ATOM      7  C   UNL     1       0.381 -58.744  -7.769  1.00  0.00     0.093 A 
ATOM      8  C   UNL     1       0.439 -59.362  -9.017  1.00  0.00     0.123 A 
ATOM      9  C   UNL     1       1.598 -60.034  -9.404  1.00  0.00     0.094 A 
ATOM     10  C   UNL     1       2.691 -60.117  -8.538  1.00  0.00     0.146 A 
ATOM     11  O   UNL     1       3.771 -60.775  -8.940  1.00  0.00    -0.452 OA
ENDROOT
BRANCH   1  12
ATOM     12  C   UNL     1       6.005 -61.667  -8.765  1.00  0.00     0.025 A 
ATOM     13  C   UNL     1       6.411 -61.388 -10.078  1.00  0.00     0.016 A 
ATOM     14  C   UNL     1       7.505 -62.053 -10.634  1.00  0.00     0.051 A 
ATOM     15  C   UNL     1       8.224 -62.994  -9.890  1.00  0.00     0.157 A 
ATOM     16  C   UNL     1       6.738 -62.594  -8.006  1.00  0.00     0.062 A 
ATOM     17  C   UNL     1       7.839 -63.263  -8.555  1.00  0.00     0.158 A 
BRANCH  15  18
ATOM     18  O   UNL     1       9.304 -63.629 -10.507  1.00  0.00    -0.504 OA
ATOM     19  H   UNL     1       9.668 -64.527 -10.224  1.00  0.00     0.293 HD
ENDBRANCH  15  18
BRANCH  17  20
ATOM     20  O   UNL     1       8.519 -64.173  -7.743  1.00  0.00    -0.504 OA
ATOM     21  H   UNL     1       8.330 -65.166  -7.725  1.00  0.00     0.293 HD
ENDBRANCH  17  20
ENDBRANCH   1  12
BRANCH   2  22
ATOM     22  O   UNL     1       5.968 -60.673  -6.045  1.00  0.00    -0.502 OA
ATOM     23  H   UNL     1       5.969 -60.432  -5.061  1.00  0.00     0.293 HD
ENDBRANCH   2  22
BRANCH   6  24
ATOM     24  O   UNL     1       1.347 -58.047  -5.708  1.00  0.00    -0.507 OA
ATOM     25  H   UNL     1       2.042 -58.008  -4.980  1.00  0.00     0.293 HD
ENDBRANCH   6  24
BRANCH   8  26
ATOM     26  O   UNL     1      -0.661 -59.294  -9.869  1.00  0.00    -0.508 OA
ATOM     27  H   UNL     1      -1.394 -58.607  -9.736  1.00  0.00     0.293 HD
ENDBRANCH   8  26
TORSDOF 6
ENDMDL
MODEL 4
REMARK VINA RESULT:    -5.688      1.917      3.125
REMARK INTER + INTRA:          -7.065
REMARK INTER:                  -6.767
REMARK INTRA:                  -0.297
REMARK UNBOUND:                -0.213
REMARK SMILES O=c1c(O)c(-c2ccc(O)c(O)c2)oc2cc(O)cc(O)c12
REMARK SMILES IDX 5 1 3 2 2 3 1 4 22 5 20 6 19 7 17 8 16 9 15 10 14 11 6 12
REMARK SMILES IDX 7 13 8 14 9 15 13 16 11 17 10 18 12 20 4 22 21 24 18 26
REMARK H PARENT 10 19 12 21 4 23 21 25 18 27
REMARK Flexibility Score: inf
ROOT
ATOM      1  C   UNL     1       4.153 -59.541  -5.648  1.00  0.00     0.180 A 
ATOM      2  C   UNL     1       2.760 -59.627  -5.475  1.00  0.00     0.208 A 
ATOM      3  C   UNL     1       2.152 -58.876  -4.458  1.00  0.00     0.238 A 
ATOM      4  O   UNL     1       0.899 -58.915  -4.344  1.00  0.00    -0.285 OA
ATOM      5  C   UNL     1       2.945 -58.061  -3.614  1.00  0.00     0.111 A 
ATOM      6  C   UNL     1       2.438 -57.288  -2.525  1.00  0.00     0.134 A 
ATOM      7  C   UNL     1       3.294 -56.418  -1.840  1.00  0.00     0.093 A 
ATOM      8  C   UNL     1       4.649 -56.340  -2.159  1.00  0.00     0.123 A 
ATOM      9  C   UNL     1       5.167 -57.135  -3.183  1.00  0.00     0.094 A 
ATOM     10  C   UNL     1       4.331 -57.986  -3.908  1.00  0.00     0.146 A 
ATOM     11  O   UNL     1       4.860 -58.718  -4.881  1.00  0.00    -0.452 OA
ENDROOT
BRANCH   1  12
ATOM     12  C   UNL     1       4.868 -60.322  -6.682  1.00  0.00     0.025 A 
ATOM     13  C   UNL     1       5.160 -61.673  -6.446  1.00  0.00     0.016 A 
ATOM     14  C   UNL     1       5.817 -62.433  -7.416  1.00  0.00     0.051 A 
ATOM     15  C   UNL     1       6.180 -61.868  -8.643  1.00  0.00     0.157 A 
ATOM     16  C   UNL     1       5.211 -59.756  -7.922  1.00  0.00     0.062 A 
ATOM     17  C   UNL     1       5.866 -60.512  -8.902  1.00  0.00     0.158 A 
BRANCH  15  18
ATOM     18  O   UNL     1       6.839 -62.680  -9.567  1.00  0.00    -0.504 OA
ATOM     19  H   UNL     1       6.608 -63.649  -9.733  1.00  0.00     0.293 HD
ENDBRANCH  15  18
BRANCH  17  20
ATOM     20  O   UNL     1       6.177 -59.885 -10.109  1.00  0.00    -0.504 OA
ATOM     21  H   UNL     1       6.008 -58.906 -10.298  1.00  0.00     0.293 HD
ENDBRANCH  17  20
ENDBRANCH   1  12
BRANCH   2  22
ATOM     22  O   UNL     1       1.994 -60.421  -6.334  1.00  0.00    -0.502 OA
ATOM     23  H   UNL     1       2.405 -60.961  -7.087  1.00  0.00     0.293 HD
ENDBRANCH   2  22
BRANCH   6  24
ATOM     24  O   UNL     1       1.120 -57.360  -2.064  1.00  0.00    -0.507 OA
ATOM     25  H   UNL     1       0.742 -58.121  -1.521  1.00  0.00     0.293 HD
ENDBRANCH   6  24
BRANCH   8  26
ATOM     26  O   UNL     1       5.475 -55.475  -1.446  1.00  0.00    -0.508 OA
ATOM     27  H   UNL     1       5.937 -54.692  -1.894  1.00  0.00     0.293 HD
ENDBRANCH   8  26
TORSDOF 6
ENDMDL
MODEL 5
REMARK VINA RESULT:    -5.666      2.319      3.602
REMARK INTER + INTRA:          -7.038
REMARK INTER:                  -6.980
REMARK INTRA:                  -0.058
REMARK UNBOUND:                -0.213
REMARK SMILES O=c1c(O)c(-c2ccc(O)c(O)c2)oc2cc(O)cc(O)c12
REMARK SMILES IDX 5 1 3 2 2 3 1 4 22 5 20 6 19 7 17 8 16 9 15 10 14 11 6 12
REMARK SMILES IDX 7 13 8 14 9 15 13 16 11 17 10 18 12 20 4 22 21 24 18 26
REMARK H PARENT 10 19 12 21 4 23 21 25 18 27
REMARK Flexibility Score: inf
ROOT
ATOM      1  C   UNL     1       6.263 -62.406  -8.483  1.00  0.00     0.180 A 
ATOM      2  C   UNL     1       6.033 -61.066  -8.843  1.00  0.00     0.208 A 
ATOM      3  C   UNL     1       5.099 -60.315  -8.112  1.00  0.00     0.238 A 
ATOM      4  O   UNL     1       4.938 -59.102  -8.405  1.00  0.00    -0.285 OA
ATOM      5  C   UNL     1       4.394 -60.917  -7.042  1.00  0.00     0.111 A 
ATOM      6  C   UNL     1       3.396 -60.260  -6.259  1.00  0.00     0.134 A 
ATOM      7  C   UNL     1       2.859 -60.911  -5.142  1.00  0.00     0.093 A 
ATOM      8  C   UNL     1       3.232 -62.214  -4.817  1.00  0.00     0.123 A 
ATOM      9  C   UNL     1       4.163 -62.886  -5.611  1.00  0.00     0.094 A 
ATOM     10  C   UNL     1       4.744 -62.251  -6.710  1.00  0.00     0.146 A 
ATOM     11  O   UNL     1       5.633 -62.921  -7.433  1.00  0.00    -0.452 OA
ENDROOT
BRANCH   1  12
ATOM     12  C   UNL     1       7.213 -63.268  -9.222  1.00  0.00     0.025 A 
ATOM     13  C   UNL     1       8.182 -63.991  -8.513  1.00  0.00     0.016 A 
ATOM     14  C   UNL     1       9.075 -64.825  -9.188  1.00  0.00     0.051 A 
ATOM     15  C   UNL     1       9.010 -64.966 -10.578  1.00  0.00     0.157 A 
ATOM     16  C   UNL     1       7.128 -63.425 -10.616  1.00  0.00     0.062 A 
ATOM     17  C   UNL     1       8.018 -64.262 -11.301  1.00  0.00     0.158 A 
BRANCH  15  18
ATOM     18  O   UNL     1       9.936 -65.811 -11.193  1.00  0.00    -0.504 OA
ATOM     19  H   UNL     1      10.937 -65.694 -11.128  1.00  0.00     0.293 HD
ENDBRANCH  15  18
BRANCH  17  20
ATOM     20  O   UNL     1       7.876 -64.369 -12.686  1.00  0.00    -0.504 OA
ATOM     21  H   UNL     1       8.631 -64.606 -13.314  1.00  0.00     0.293 HD
ENDBRANCH  17  20
ENDBRANCH   1  12
BRANCH   2  22
ATOM     22  O   UNL     1       6.756 -60.486  -9.890  1.00  0.00    -0.502 OA
ATOM     23  H   UNL     1       6.924 -60.967 -10.766  1.00  0.00     0.293 HD
ENDBRANCH   2  22
BRANCH   6  24
ATOM     24  O   UNL     1       2.884 -58.993  -6.551  1.00  0.00    -0.507 OA
ATOM     25  H   UNL     1       3.149 -58.436  -7.348  1.00  0.00     0.293 HD
ENDBRANCH   6  24
BRANCH   8  26
ATOM     26  O   UNL     1       2.665 -62.836  -3.708  1.00  0.00    -0.508 OA
ATOM     27  H   UNL     1       3.132 -62.846  -2.809  1.00  0.00     0.293 HD
ENDBRANCH   8  26
TORSDOF 6
ENDMDL
MODEL 6
REMARK VINA RESULT:    -5.646      1.575      6.844
REMARK INTER + INTRA:          -7.015
REMARK INTER:                  -6.684
REMARK INTRA:                  -0.331
REMARK UNBOUND:                -0.213
REMARK SMILES O=c1c(O)c(-c2ccc(O)c(O)c2)oc2cc(O)cc(O)c12
REMARK SMILES IDX 5 1 3 2 2 3 1 4 22 5 20 6 19 7 17 8 16 9 15 10 14 11 6 12
REMARK SMILES IDX 7 13 8 14 9 15 13 16 11 17 10 18 12 20 4 22 21 24 18 26
REMARK H PARENT 10 19 12 21 4 23 21 25 18 27
REMARK Flexibility Score: inf
ROOT
ATOM      1  C   UNL     1       4.160 -60.349  -6.445  1.00  0.00     0.180 A 
ATOM      2  C   UNL     1       3.924 -59.907  -7.759  1.00  0.00     0.208 A 
ATOM      3  C   UNL     1       4.735 -60.390  -8.797  1.00  0.00     0.238 A 
ATOM      4  O   UNL     1       4.484 -60.033  -9.977  1.00  0.00    -0.285 OA
ATOM      5  C   UNL     1       5.784 -61.297  -8.508  1.00  0.00     0.111 A 
ATOM      6  C   UNL     1       6.694 -61.820  -9.477  1.00  0.00     0.134 A 
ATOM      7  C   UNL     1       7.609 -62.809  -9.100  1.00  0.00     0.093 A 
ATOM      8  C   UNL     1       7.693 -63.247  -7.779  1.00  0.00     0.123 A 
ATOM      9  C   UNL     1       6.849 -62.700  -6.812  1.00  0.00     0.094 A 
ATOM     10  C   UNL     1       5.901 -61.737  -7.164  1.00  0.00     0.146 A 
ATOM     11  O   UNL     1       5.110 -61.250  -6.216  1.00  0.00    -0.452 OA
ENDROOT
BRANCH   1  12
ATOM     12  C   UNL     1       3.363 -59.865  -5.296  1.00  0.00     0.025 A 
ATOM     13  C   UNL     1       2.282 -60.630  -4.836  1.00  0.00     0.016 A 
ATOM     14  C   UNL     1       1.529 -60.202  -3.741  1.00  0.00     0.051 A 
ATOM     15  C   UNL     1       1.848 -59.014  -3.075  1.00  0.00     0.157 A 
ATOM     16  C   UNL     1       3.701 -58.683  -4.616  1.00  0.00     0.062 A 
ATOM     17  C   UNL     1       2.954 -58.247  -3.514  1.00  0.00     0.158 A 
BRANCH  15  18
ATOM     18  O   UNL     1       1.051 -58.638  -1.992  1.00  0.00    -0.504 OA
ATOM     19  H   UNL     1       1.207 -58.947  -1.043  1.00  0.00     0.293 HD
ENDBRANCH  15  18
BRANCH  17  20
ATOM     20  O   UNL     1       3.345 -57.063  -2.888  1.00  0.00    -0.504 OA
ATOM     21  H   UNL     1       3.551 -56.986  -1.902  1.00  0.00     0.293 HD
ENDBRANCH  17  20
ENDBRANCH   1  12
BRANCH   2  22
ATOM     22  O   UNL     1       2.869 -59.029  -8.025  1.00  0.00    -0.502 OA
ATOM     23  H   UNL     1       1.993 -59.062  -7.517  1.00  0.00     0.293 HD
ENDBRANCH   2  22
BRANCH   6  24
ATOM     24  O   UNL     1       6.756 -61.383 -10.803  1.00  0.00    -0.507 OA
ATOM     25  H   UNL     1       6.636 -61.977 -11.610  1.00  0.00     0.293 HD
ENDBRANCH   6  24
BRANCH   8  26
ATOM     26  O   UNL     1       8.627 -64.223  -7.437  1.00  0.00    -0.508 OA
ATOM     27  H   UNL     1       9.589 -64.169  -7.750  1.00  0.00     0.293 HD
ENDBRANCH   8  26
TORSDOF 6
ENDMDL
MODEL 7
REMARK VINA RESULT:    -5.572      8.657     11.205
REMARK INTER + INTRA:          -6.925
REMARK INTER:                  -6.598
REMARK INTRA:                  -0.327
REMARK UNBOUND:                -0.213
REMARK SMILES O=c1c(O)c(-c2ccc(O)c(O)c2)oc2cc(O)cc(O)c12
REMARK SMILES IDX 5 1 3 2 2 3 1 4 22 5 20 6 19 7 17 8 16 9 15 10 14 11 6 12
REMARK SMILES IDX 7 13 8 14 9 15 13 16 11 17 10 18 12 20 4 22 21 24 18 26
REMARK H PARENT 10 19 12 21 4 23 21 25 18 27
REMARK Flexibility Score: inf
ROOT
ATOM      1  C   UNL     1      -2.797 -56.342 -12.862  1.00  0.00     0.180 A 
ATOM      2  C   UNL     1      -3.309 -56.976 -14.007  1.00  0.00     0.208 A 
ATOM      3  C   UNL     1      -3.444 -58.373 -14.010  1.00  0.00     0.238 A 
ATOM      4  O   UNL     1      -3.954 -58.929 -15.018  1.00  0.00    -0.285 OA
ATOM      5  C   UNL     1      -3.049 -59.121 -12.875  1.00  0.00     0.111 A 
ATOM      6  C   UNL     1      -3.105 -60.545 -12.783  1.00  0.00     0.134 A 
ATOM      7  C   UNL     1      -2.812 -61.170 -11.565  1.00  0.00     0.093 A 
ATOM      8  C   UNL     1      -2.404 -60.431 -10.456  1.00  0.00     0.123 A 
ATOM      9  C   UNL     1      -2.290 -59.043 -10.551  1.00  0.00     0.094 A 
ATOM     10  C   UNL     1      -2.609 -58.388 -11.742  1.00  0.00     0.146 A 
ATOM     11  O   UNL     1      -2.498 -57.066 -11.789  1.00  0.00    -0.452 OA
ENDROOT
BRANCH   1  12
ATOM     12  C   UNL     1      -2.603 -54.876 -12.794  1.00  0.00     0.025 A 
ATOM     13  C   UNL     1      -3.644 -54.064 -12.323  1.00  0.00     0.016 A 
ATOM     14  C   UNL     1      -3.475 -52.681 -12.232  1.00  0.00     0.051 A 
ATOM     15  C   UNL     1      -2.263 -52.084 -12.592  1.00  0.00     0.157 A 
ATOM     16  C   UNL     1      -1.375 -54.283 -13.135  1.00  0.00     0.062 A 
ATOM     17  C   UNL     1      -1.196 -52.897 -13.044  1.00  0.00     0.158 A 
BRANCH  15  18
ATOM     18  O   UNL     1      -2.160 -50.696 -12.484  1.00  0.00    -0.504 OA
ATOM     19  H   UNL     1      -1.632 -50.222 -11.766  1.00  0.00     0.293 HD
ENDBRANCH  15  18
BRANCH  17  20
ATOM     20  O   UNL     1       0.049 -52.377 -13.401  1.00  0.00    -0.504 OA
ATOM     21  H   UNL     1       0.538 -51.666 -12.873  1.00  0.00     0.293 HD
ENDBRANCH  17  20
ENDBRANCH   1  12
BRANCH   2  22
ATOM     22  O   UNL     1      -3.713 -56.216 -15.110  1.00  0.00    -0.502 OA
ATOM     23  H   UNL     1      -3.519 -55.225 -15.186  1.00  0.00     0.293 HD
ENDBRANCH   2  22
BRANCH   6  24
ATOM     24  O   UNL     1      -3.411 -61.385 -13.858  1.00  0.00    -0.507 OA
ATOM     25  H   UNL     1      -3.915 -61.101 -14.684  1.00  0.00     0.293 HD
ENDBRANCH   6  24
BRANCH   8  26
ATOM     26  O   UNL     1      -2.106 -61.087  -9.264  1.00  0.00    -0.508 OA
ATOM     27  H   UNL     1      -2.699 -61.824  -8.901  1.00  0.00     0.293 HD
ENDBRANCH   8  26
TORSDOF 6
ENDMDL
MODEL 8
REMARK VINA RESULT:    -5.486      9.385     10.934
REMARK INTER + INTRA:          -6.822
REMARK INTER:                  -6.499
REMARK INTRA:                  -0.322
REMARK UNBOUND:                -0.213
REMARK SMILES O=c1c(O)c(-c2ccc(O)c(O)c2)oc2cc(O)cc(O)c12
REMARK SMILES IDX 5 1 3 2 2 3 1 4 22 5 20 6 19 7 17 8 16 9 15 10 14 11 6 12
REMARK SMILES IDX 7 13 8 14 9 15 13 16 11 17 10 18 12 20 4 22 21 24 18 26
REMARK H PARENT 10 19 12 21 4 23 21 25 18 27
REMARK Flexibility Score: inf
ROOT
ATOM      1  C   UNL     1       0.467 -66.197   0.284  1.00  0.00     0.180 A 
ATOM      2  C   UNL     1       1.598 -66.837   0.821  1.00  0.00     0.208 A 
ATOM      3  C   UNL     1       1.954 -66.586   2.155  1.00  0.00     0.238 A 
ATOM      4  O   UNL     1       2.936 -67.205   2.645  1.00  0.00    -0.285 OA
ATOM      5  C   UNL     1       1.186 -65.686   2.932  1.00  0.00     0.111 A 
ATOM      6  C   UNL     1       1.479 -65.328   4.283  1.00  0.00     0.134 A 
ATOM      7  C   UNL     1       0.577 -64.530   4.996  1.00  0.00     0.093 A 
ATOM      8  C   UNL     1      -0.572 -64.024   4.390  1.00  0.00     0.123 A 
ATOM      9  C   UNL     1      -0.838 -64.320   3.052  1.00  0.00     0.094 A 
ATOM     10  C   UNL     1       0.024 -65.142   2.325  1.00  0.00     0.146 A 
ATOM     11  O   UNL     1      -0.270 -65.409   1.058  1.00  0.00    -0.452 OA
ENDROOT
BRANCH   1  12
ATOM     12  C   UNL     1       0.045 -66.391  -1.121  1.00  0.00     0.025 A 
ATOM     13  C   UNL     1      -0.825 -67.444  -1.440  1.00  0.00     0.016 A 
ATOM     14  C   UNL     1      -1.252 -67.633  -2.755  1.00  0.00     0.051 A 
ATOM     15  C   UNL     1      -0.833 -66.771  -3.774  1.00  0.00     0.157 A 
ATOM     16  C   UNL     1       0.449 -65.509  -2.137  1.00  0.00     0.062 A 
ATOM     17  C   UNL     1       0.024 -65.689  -3.459  1.00  0.00     0.158 A 
BRANCH  15  18
ATOM     18  O   UNL     1      -1.291 -67.019  -5.069  1.00  0.00    -0.504 OA
ATOM     19  H   UNL     1      -1.830 -67.832  -5.332  1.00  0.00     0.293 HD
ENDBRANCH  15  18
BRANCH  17  20
ATOM     20  O   UNL     1       0.466 -64.775  -4.417  1.00  0.00    -0.504 OA
ATOM     21  H   UNL     1       1.091 -65.010  -5.175  1.00  0.00     0.293 HD
ENDBRANCH  17  20
ENDBRANCH   1  12
BRANCH   2  22
ATOM     22  O   UNL     1       2.330 -67.739   0.042  1.00  0.00    -0.502 OA
ATOM     23  H   UNL     1       3.035 -68.351   0.437  1.00  0.00     0.293 HD
ENDBRANCH   2  22
BRANCH   6  24
ATOM     24  O   UNL     1       2.646 -65.703   4.954  1.00  0.00    -0.507 OA
ATOM     25  H   UNL     1       3.387 -65.072   5.216  1.00  0.00     0.293 HD
ENDBRANCH   6  24
BRANCH   8  26
ATOM     26  O   UNL     1      -1.440 -63.219   5.125  1.00  0.00    -0.508 OA
ATOM     27  H   UNL     1      -2.286 -62.840   4.717  1.00  0.00     0.293 HD
ENDBRANCH   8  26
TORSDOF 6
ENDMDL
MODEL 9
REMARK VINA RESULT:    -5.457      9.419     12.778
REMARK INTER + INTRA:          -6.787
REMARK INTER:                  -6.456
REMARK INTRA:                  -0.331
REMARK UNBOUND:                -0.213
REMARK SMILES O=c1c(O)c(-c2ccc(O)c(O)c2)oc2cc(O)cc(O)c12
REMARK SMILES IDX 5 1 3 2 2 3 1 4 22 5 20 6 19 7 17 8 16 9 15 10 14 11 6 12
REMARK SMILES IDX 7 13 8 14 9 15 13 16 11 17 10 18 12 20 4 22 21 24 18 26
REMARK H PARENT 10 19 12 21 4 23 21 25 18 27
REMARK Flexibility Score: inf
ROOT
ATOM      1  C   UNL     1       0.175 -64.282   2.267  1.00  0.00     0.180 A 
ATOM      2  C   UNL     1       1.192 -64.793   3.093  1.00  0.00     0.208 A 
ATOM      3  C   UNL     1       2.029 -65.804   2.597  1.00  0.00     0.238 A 
ATOM      4  O   UNL     1       2.972 -66.218   3.321  1.00  0.00    -0.285 OA
ATOM      5  C   UNL     1       1.829 -66.305   1.288  1.00  0.00     0.111 A 
ATOM      6  C   UNL     1       2.594 -67.357   0.697  1.00  0.00     0.134 A 
ATOM      7  C   UNL     1       2.394 -67.681  -0.650  1.00  0.00     0.093 A 
ATOM      8  C   UNL     1       1.417 -67.039  -1.409  1.00  0.00     0.123 A 
ATOM      9  C   UNL     1       0.624 -66.051  -0.825  1.00  0.00     0.094 A 
ATOM     10  C   UNL     1       0.823 -65.680   0.506  1.00  0.00     0.146 A 
ATOM     11  O   UNL     1       0.055 -64.727   1.022  1.00  0.00    -0.452 OA
ENDROOT
BRANCH   1  12
ATOM     12  C   UNL     1      -0.762 -63.234   2.730  1.00  0.00     0.025 A 
ATOM     13  C   UNL     1      -0.461 -61.886   2.490  1.00  0.00     0.016 A 
ATOM     14  C   UNL     1      -1.341 -60.882   2.900  1.00  0.00     0.051 A 
ATOM     15  C   UNL     1      -2.542 -61.202   3.540  1.00  0.00     0.157 A 
ATOM     16  C   UNL     1      -1.979 -63.561   3.352  1.00  0.00     0.062 A 
ATOM     17  C   UNL     1      -2.869 -62.561   3.763  1.00  0.00     0.158 A 
BRANCH  15  18
ATOM     18  O   UNL     1      -3.374 -60.152   3.931  1.00  0.00    -0.504 OA
ATOM     19  H   UNL     1      -3.790 -60.071   4.847  1.00  0.00     0.293 HD
ENDBRANCH  15  18
BRANCH  17  20
ATOM     20  O   UNL     1      -4.058 -62.959   4.376  1.00  0.00    -0.504 OA
ATOM     21  H   UNL     1      -4.936 -62.469   4.279  1.00  0.00     0.293 HD
ENDBRANCH  17  20
ENDBRANCH   1  12
BRANCH   2  22
ATOM     22  O   UNL     1       1.385 -64.269   4.375  1.00  0.00    -0.502 OA
ATOM     23  H   UNL     1       2.264 -63.858   4.667  1.00  0.00     0.293 HD
ENDBRANCH   2  22
BRANCH   6  24
ATOM     24  O   UNL     1       3.532 -68.125   1.393  1.00  0.00    -0.507 OA
ATOM     25  H   UNL     1       4.483 -68.277   1.096  1.00  0.00     0.293 HD
ENDBRANCH   6  24
BRANCH   8  26
ATOM     26  O   UNL     1       1.235 -67.399  -2.742  1.00  0.00    -0.508 OA
ATOM     27  H   UNL     1       1.810 -68.107  -3.184  1.00  0.00     0.293 HD
ENDBRANCH   8  26
TORSDOF 6
ENDMDL
