MODEL 1
REMARK VINA RESULT:    -4.046      0.000      0.000
REMARK INTER + INTRA:          -6.105
REMARK INTER:                  -5.465
REMARK INTRA:                  -0.640
REMARK UNBOUND:                -0.640
REMARK SMILES CCCCCCC=CC(=O)[O-]
REMARK SMILES IDX 5 1 6 2 7 3 8 4 9 5 10 6 11 7 4 8 3 9 2 10 1 11
REMARK H PARENT
REMARK Flexibility Score: inf
ROOT
ATOM      1  C   UNL     1     -14.616 -12.273  20.397  1.00  0.00     0.004 C 
ENDROOT
BRANCH   1   2
ATOM      2  C   UNL     1     -14.715 -13.012  21.745  1.00  0.00     0.027 C 
BRANCH   2   3
ATOM      3  C   UNL     1     -13.364 -13.341  22.327  1.00  0.00    -0.025 C 
ATOM      4  C   UNL     1     -12.893 -14.572  22.584  1.00  0.00     0.020 C 
BRANCH   4   5
ATOM      5  C   UNL     1     -13.570 -15.854  22.298  1.00  0.00     0.064 C 
ATOM      6  O   UNL     1     -14.101 -16.547  23.205  1.00  0.00    -0.545 OA
ATOM      7  O   UNL     1     -13.650 -16.292  20.983  1.00  0.00    -0.545 OA
ENDBRANCH   4   5
ENDBRANCH   2   3
ENDBRANCH   1   2
BRANCH   1   8
ATOM      8  C   UNL     1     -13.773 -13.003  19.335  1.00  0.00     0.000 C 
BRANCH   8   9
ATOM      9  C   UNL     1     -13.116 -12.040  18.330  1.00  0.00    -0.000 C 
BRANCH   9  10
ATOM     10  C   UNL     1     -11.586 -12.186  18.291  1.00  0.00    -0.003 C 
ATOM     11  C   UNL     1     -11.052 -13.121  19.375  1.00  0.00     0.004 C 
ENDBRANCH   9  10
ENDBRANCH   8   9
ENDBRANCH   1   8
TORSDOF 6
ENDMDL
MODEL 2
REMARK VINA RESULT:    -3.953      3.171      4.823
REMARK INTER + INTRA:          -5.979
REMARK INTER:                  -5.311
REMARK INTRA:                  -0.668
REMARK UNBOUND:                -0.640
REMARK SMILES CCCCCCC=CC(=O)[O-]
REMARK SMILES IDX 5 1 6 2 7 3 8 4 9 5 10 6 11 7 4 8 3 9 2 10 1 11
REMARK H PARENT
REMARK Flexibility Score: inf
ROOT
ATOM      1  C   UNL     1     -14.186 -13.749  19.563  1.00  0.00     0.004 C 
ENDROOT
BRANCH   1   2
ATOM      2  C   UNL     1     -12.833 -14.458  19.367  1.00  0.00     0.027 C 
BRANCH   2   3
ATOM      3  C   UNL     1     -11.669 -13.633  19.853  1.00  0.00    -0.025 C 
ATOM      4  C   UNL     1     -11.005 -12.707  19.142  1.00  0.00     0.020 C 
BRANCH   4   5
ATOM      5  C   UNL     1     -11.310 -12.266  17.765  1.00  0.00     0.064 C 
ATOM      6  O   UNL     1     -10.903 -12.895  16.755  1.00  0.00    -0.545 OA
ATOM      7  O   UNL     1     -12.097 -11.136  17.581  1.00  0.00    -0.545 OA
ENDBRANCH   4   5
ENDBRANCH   2   3
ENDBRANCH   1   2
BRANCH   1   8
ATOM      8  C   UNL     1     -14.225 -12.780  20.760  1.00  0.00     0.000 C 
BRANCH   8   9
ATOM      9  C   UNL     1     -14.676 -13.463  22.064  1.00  0.00    -0.000 C 
BRANCH   9  10
ATOM     10  C   UNL     1     -13.534 -13.595  23.083  1.00  0.00    -0.003 C 
ATOM     11  C   UNL     1     -12.840 -14.956  23.022  1.00  0.00     0.004 C 
ENDBRANCH   9  10
ENDBRANCH   8   9
ENDBRANCH   1   8
TORSDOF 6
ENDMDL
MODEL 3
REMARK VINA RESULT:    -3.878      1.856      4.068
REMARK INTER + INTRA:          -5.878
REMARK INTER:                  -5.154
REMARK INTRA:                  -0.724
REMARK UNBOUND:                -0.640
REMARK SMILES CCCCCCC=CC(=O)[O-]
REMARK SMILES IDX 5 1 6 2 7 3 8 4 9 5 10 6 11 7 4 8 3 9 2 10 1 11
REMARK H PARENT
REMARK Flexibility Score: inf
ROOT
ATOM      1  C   UNL     1     -14.760 -12.165  21.551  1.00  0.00     0.004 C 
ENDROOT
BRANCH   1   2
ATOM      2  C   UNL     1     -15.125 -12.770  20.182  1.00  0.00     0.027 C 
BRANCH   2   3
ATOM      3  C   UNL     1     -14.365 -12.134  19.046  1.00  0.00    -0.025 C 
ATOM      4  C   UNL     1     -13.132 -12.471  18.635  1.00  0.00     0.020 C 
BRANCH   4   5
ATOM      5  C   UNL     1     -12.290 -13.562  19.168  1.00  0.00     0.064 C 
ATOM      6  O   UNL     1     -12.608 -14.773  19.045  1.00  0.00    -0.545 OA
ATOM      7  O   UNL     1     -11.094 -13.241  19.796  1.00  0.00    -0.545 OA
ENDBRANCH   4   5
ENDBRANCH   2   3
ENDBRANCH   1   2
BRANCH   1   8
ATOM      8  C   UNL     1     -14.549 -13.206  22.667  1.00  0.00     0.000 C 
BRANCH   8   9
ATOM      9  C   UNL     1     -13.068 -13.576  22.864  1.00  0.00    -0.000 C 
BRANCH   9  10
ATOM     10  C   UNL     1     -12.828 -15.093  22.802  1.00  0.00    -0.003 C 
ATOM     11  C   UNL     1     -13.946 -15.841  22.077  1.00  0.00     0.004 C 
ENDBRANCH   9  10
ENDBRANCH   8   9
ENDBRANCH   1   8
TORSDOF 6
ENDMDL
MODEL 4
REMARK VINA RESULT:    -3.853      1.433      2.405
REMARK INTER + INTRA:          -5.844
REMARK INTER:                  -5.396
REMARK INTRA:                  -0.448
REMARK UNBOUND:                -0.640
REMARK SMILES CCCCCCC=CC(=O)[O-]
REMARK SMILES IDX 5 1 6 2 7 3 8 4 9 5 10 6 11 7 4 8 3 9 2 10 1 11
REMARK H PARENT
REMARK Flexibility Score: inf
ROOT
ATOM      1  C   UNL     1     -12.718 -14.399  19.129  1.00  0.00     0.004 C 
ENDROOT
BRANCH   1   2
ATOM      2  C   UNL     1     -14.069 -14.326  19.865  1.00  0.00     0.027 C 
BRANCH   2   3
ATOM      3  C   UNL     1     -14.170 -13.128  20.774  1.00  0.00    -0.025 C 
ATOM      4  C   UNL     1     -14.000 -13.131  22.107  1.00  0.00     0.020 C 
BRANCH   4   5
ATOM      5  C   UNL     1     -13.625 -14.287  22.947  1.00  0.00     0.064 C 
ATOM      6  O   UNL     1     -12.453 -14.744  22.971  1.00  0.00    -0.545 OA
ATOM      7  O   UNL     1     -14.590 -14.867  23.759  1.00  0.00    -0.545 OA
ENDBRANCH   4   5
ENDBRANCH   2   3
ENDBRANCH   1   2
BRANCH   1   8
ATOM      8  C   UNL     1     -11.614 -13.515  19.740  1.00  0.00     0.000 C 
BRANCH   8   9
ATOM      9  C   UNL     1     -11.012 -12.527  18.726  1.00  0.00    -0.000 C 
BRANCH   9  10
ATOM     10  C   UNL     1     -12.087 -11.800  17.903  1.00  0.00    -0.003 C 
ATOM     11  C   UNL     1     -11.531 -10.610  17.121  1.00  0.00     0.004 C 
ENDBRANCH   9  10
ENDBRANCH   8   9
ENDBRANCH   1   8
TORSDOF 6
ENDMDL
MODEL 5
REMARK VINA RESULT:    -3.782      2.619      4.843
REMARK INTER + INTRA:          -5.748
REMARK INTER:                  -5.049
REMARK INTRA:                  -0.699
REMARK UNBOUND:                -0.640
REMARK SMILES CCCCCCC=CC(=O)[O-]
REMARK SMILES IDX 5 1 6 2 7 3 8 4 9 5 10 6 11 7 4 8 3 9 2 10 1 11
REMARK H PARENT
REMARK Flexibility Score: inf
ROOT
ATOM      1  C   UNL     1     -13.845 -16.058  20.137  1.00  0.00     0.004 C 
ENDROOT
BRANCH   1   2
ATOM      2  C   UNL     1     -13.036 -15.162  19.180  1.00  0.00     0.027 C 
BRANCH   2   3
ATOM      3  C   UNL     1     -13.663 -13.806  18.984  1.00  0.00    -0.025 C 
ATOM      4  C   UNL     1     -13.011 -12.668  18.698  1.00  0.00     0.020 C 
BRANCH   4   5
ATOM      5  C   UNL     1     -11.560 -12.516  18.461  1.00  0.00     0.064 C 
ATOM      6  O   UNL     1     -11.088 -12.313  17.313  1.00  0.00    -0.545 OA
ATOM      7  O   UNL     1     -10.694 -12.570  19.546  1.00  0.00    -0.545 OA
ENDBRANCH   4   5
ENDBRANCH   2   3
ENDBRANCH   1   2
BRANCH   1   8
ATOM      8  C   UNL     1     -14.323 -15.347  21.417  1.00  0.00     0.000 C 
BRANCH   8   9
ATOM      9  C   UNL     1     -13.182 -15.091  22.418  1.00  0.00    -0.000 C 
BRANCH   9  10
ATOM     10  C   UNL     1     -13.121 -13.626  22.877  1.00  0.00    -0.003 C 
ATOM     11  C   UNL     1     -14.370 -12.832  22.495  1.00  0.00     0.004 C 
ENDBRANCH   9  10
ENDBRANCH   8   9
ENDBRANCH   1   8
TORSDOF 6
ENDMDL
MODEL 6
REMARK VINA RESULT:    -3.751     22.190     23.815
REMARK INTER + INTRA:          -5.707
REMARK INTER:                  -5.303
REMARK INTRA:                  -0.404
REMARK UNBOUND:                -0.640
REMARK SMILES CCCCCCC=CC(=O)[O-]
REMARK SMILES IDX 5 1 6 2 7 3 8 4 9 5 10 6 11 7 4 8 3 9 2 10 1 11
REMARK H PARENT
REMARK Flexibility Score: inf
ROOT
ATOM      1  C   UNL     1       3.267  -2.394  11.771  1.00  0.00     0.004 C 
ENDROOT
BRANCH   1   2
ATOM      2  C   UNL     1       4.379  -1.363  12.039  1.00  0.00     0.027 C 
BRANCH   2   3
ATOM      3  C   UNL     1       5.040  -0.881  10.774  1.00  0.00    -0.025 C 
ATOM      4  C   UNL     1       4.792   0.280  10.146  1.00  0.00     0.020 C 
BRANCH   4   5
ATOM      5  C   UNL     1       3.868   1.345  10.590  1.00  0.00     0.064 C 
ATOM      6  O   UNL     1       3.970   1.891  11.719  1.00  0.00    -0.545 OA
ATOM      7  O   UNL     1       2.876   1.777   9.721  1.00  0.00    -0.545 OA
ENDBRANCH   4   5
ENDBRANCH   2   3
ENDBRANCH   1   2
BRANCH   1   8
ATOM      8  C   UNL     1       3.614  -3.433  10.688  1.00  0.00     0.000 C 
BRANCH   8   9
ATOM      9  C   UNL     1       4.467  -4.595  11.228  1.00  0.00    -0.000 C 
BRANCH   9  10
ATOM     10  C   UNL     1       4.045  -5.027  12.641  1.00  0.00    -0.003 C 
ATOM     11  C   UNL     1       5.116  -4.741  13.693  1.00  0.00     0.004 C 
ENDBRANCH   9  10
ENDBRANCH   8   9
ENDBRANCH   1   8
TORSDOF 6
ENDMDL
MODEL 7
REMARK VINA RESULT:    -3.713      1.730      2.636
REMARK INTER + INTRA:          -5.656
REMARK INTER:                  -5.318
REMARK INTRA:                  -0.338
REMARK UNBOUND:                -0.640
REMARK SMILES CCCCCCC=CC(=O)[O-]
REMARK SMILES IDX 5 1 6 2 7 3 8 4 9 5 10 6 11 7 4 8 3 9 2 10 1 11
REMARK H PARENT
REMARK Flexibility Score: inf
ROOT
ATOM      1  C   UNL     1     -12.917 -12.946  19.709  1.00  0.00     0.004 C 
ENDROOT
BRANCH   1   2
ATOM      2  C   UNL     1     -13.288 -13.825  20.919  1.00  0.00     0.027 C 
BRANCH   2   3
ATOM      3  C   UNL     1     -14.692 -14.366  20.834  1.00  0.00    -0.025 C 
ATOM      4  C   UNL     1     -15.042 -15.592  20.412  1.00  0.00     0.020 C 
BRANCH   4   5
ATOM      5  C   UNL     1     -14.129 -16.678  20.000  1.00  0.00     0.064 C 
ATOM      6  O   UNL     1     -13.555 -16.682  18.881  1.00  0.00    -0.545 OA
ATOM      7  O   UNL     1     -13.874 -17.713  20.891  1.00  0.00    -0.545 OA
ENDBRANCH   4   5
ENDBRANCH   2   3
ENDBRANCH   1   2
BRANCH   1   8
ATOM      8  C   UNL     1     -11.441 -13.050  19.280  1.00  0.00     0.000 C 
BRANCH   8   9
ATOM      9  C   UNL     1     -11.185 -12.467  17.879  1.00  0.00    -0.000 C 
BRANCH   9  10
ATOM     10  C   UNL     1     -12.145 -11.316  17.537  1.00  0.00    -0.003 C 
ATOM     11  C   UNL     1     -11.437 -10.125  16.892  1.00  0.00     0.004 C 
ENDBRANCH   9  10
ENDBRANCH   8   9
ENDBRANCH   1   8
TORSDOF 6
ENDMDL
MODEL 8
REMARK VINA RESULT:    -3.641      1.615      1.962
REMARK INTER + INTRA:          -5.558
REMARK INTER:                  -4.903
REMARK INTRA:                  -0.655
REMARK UNBOUND:                -0.640
REMARK SMILES CCCCCCC=CC(=O)[O-]
REMARK SMILES IDX 5 1 6 2 7 3 8 4 9 5 10 6 11 7 4 8 3 9 2 10 1 11
REMARK H PARENT
REMARK Flexibility Score: inf
ROOT
ATOM      1  C   UNL     1     -14.913 -12.915  18.544  1.00  0.00     0.004 C 
ENDROOT
BRANCH   1   2
ATOM      2  C   UNL     1     -15.100 -14.121  19.483  1.00  0.00     0.027 C 
BRANCH   2   3
ATOM      3  C   UNL     1     -14.222 -15.288  19.111  1.00  0.00    -0.025 C 
ATOM      4  C   UNL     1     -13.606 -16.118  19.968  1.00  0.00     0.020 C 
BRANCH   4   5
ATOM      5  C   UNL     1     -13.706 -16.098  21.443  1.00  0.00     0.064 C 
ATOM      6  O   UNL     1     -14.409 -16.926  22.077  1.00  0.00    -0.545 OA
ATOM      7  O   UNL     1     -12.974 -15.154  22.151  1.00  0.00    -0.545 OA
ENDBRANCH   4   5
ENDBRANCH   2   3
ENDBRANCH   1   2
BRANCH   1   8
ATOM      8  C   UNL     1     -13.737 -11.994  18.922  1.00  0.00     0.000 C 
BRANCH   8   9
ATOM      9  C   UNL     1     -12.625 -11.982  17.859  1.00  0.00    -0.000 C 
BRANCH   9  10
ATOM     10  C   UNL     1     -11.228 -12.184  18.467  1.00  0.00    -0.003 C 
ATOM     11  C   UNL     1     -11.178 -13.339  19.467  1.00  0.00     0.004 C 
ENDBRANCH   9  10
ENDBRANCH   8   9
ENDBRANCH   1   8
TORSDOF 6
ENDMDL
MODEL 9
REMARK VINA RESULT:    -3.431     22.847     24.367
REMARK INTER + INTRA:          -5.274
REMARK INTER:                  -4.835
REMARK INTRA:                  -0.439
REMARK UNBOUND:                -0.640
REMARK SMILES CCCCCCC=CC(=O)[O-]
REMARK SMILES IDX 5 1 6 2 7 3 8 4 9 5 10 6 11 7 4 8 3 9 2 10 1 11
REMARK H PARENT
REMARK Flexibility Score: inf
ROOT
ATOM      1  C   UNL     1       3.659  -2.172  11.950  1.00  0.00     0.004 C 
ENDROOT
BRANCH   1   2
ATOM      2  C   UNL     1       4.944  -1.323  11.972  1.00  0.00     0.027 C 
BRANCH   2   3
ATOM      3  C   UNL     1       4.738   0.024  12.616  1.00  0.00    -0.025 C 
ATOM      4  C   UNL     1       4.449   1.170  11.977  1.00  0.00     0.020 C 
BRANCH   4   5
ATOM      5  C   UNL     1       4.216   1.338  10.528  1.00  0.00     0.064 C 
ATOM      6  O   UNL     1       5.125   1.153   9.678  1.00  0.00    -0.545 OA
ATOM      7  O   UNL     1       2.944   1.682  10.089  1.00  0.00    -0.545 OA
ENDBRANCH   4   5
ENDBRANCH   2   3
ENDBRANCH   1   2
BRANCH   1   8
ATOM      8  C   UNL     1       3.877  -3.640  11.539  1.00  0.00     0.000 C 
BRANCH   8   9
ATOM      9  C   UNL     1       4.665  -3.781  10.225  1.00  0.00    -0.000 C 
BRANCH   9  10
ATOM     10  C   UNL     1       3.915  -3.184   9.023  1.00  0.00    -0.003 C 
ATOM     11  C   UNL     1       4.729  -2.122   8.284  1.00  0.00     0.004 C 
ENDBRANCH   9  10
ENDBRANCH   8   9
ENDBRANCH   1   8
TORSDOF 6
ENDMDL
