MODEL 1
REMARK VINA RESULT:    -8.518      0.000      0.000
REMARK INTER + INTRA:         -11.934
REMARK INTER:                 -11.506
REMARK INTRA:                  -0.427
REMARK UNBOUND:                -0.427
REMARK SMILES O=c1c(-c2ccc(O)cc2)coc2c([C@H]3O[C@@H](CO)[C@H](O)[C@H](O)[C@H]3O)c(O)ccc12
REMARK SMILES IDX 3 1 11 2 12 3 13 4 30 5 2 6 1 7 29 8 28 9 26 10 14 11 4 12
REMARK SMILES IDX 5 13 6 14 7 15 10 16 9 17 8 18 15 20 24 21 16 22 22 23 17 24
REMARK SMILES IDX 20 25 25 26 23 28 18 30 19 31 21 33 27 35
REMARK H PARENT 8 19 25 27 23 29 19 32 21 34 27 36
REMARK Flexibility Score: inf
ROOT
ATOM      1  C   UNL     1       9.015  -1.932  -2.789  1.00  0.00     0.065 A 
ATOM      2  C   UNL     1       9.323  -2.988  -1.920  1.00  0.00     0.208 A 
ATOM      3  O   UNL     1       9.324  -2.811  -0.604  1.00  0.00    -0.463 OA
ATOM      4  C   UNL     1       9.039  -1.646  -0.026  1.00  0.00     0.147 A 
ATOM      5  C   UNL     1       8.715  -0.527  -0.827  1.00  0.00     0.066 A 
ATOM      6  C   UNL     1       8.715  -0.677  -2.226  1.00  0.00     0.200 A 
ATOM      7  O   UNL     1       8.463   0.309  -2.972  1.00  0.00    -0.288 OA
ATOM      8  C   UNL     1       8.404   0.696  -0.216  1.00  0.00     0.020 A 
ATOM      9  C   UNL     1       8.396   0.805   1.172  1.00  0.00     0.047 A 
ATOM     10  C   UNL     1       8.709  -0.297   1.977  1.00  0.00     0.125 A 
ATOM     11  C   UNL     1       9.060  -1.536   1.385  1.00  0.00     0.069 A 
ENDROOT
BRANCH   1  12
ATOM     12  C   UNL     1       9.016  -2.156  -4.256  1.00  0.00    -0.011 A 
ATOM     13  C   UNL     1       7.906  -2.748  -4.884  1.00  0.00     0.013 A 
ATOM     14  C   UNL     1       7.902  -2.952  -6.268  1.00  0.00     0.047 A 
ATOM     15  C   UNL     1       9.001  -2.564  -7.040  1.00  0.00     0.115 A 
ATOM     16  C   UNL     1      10.115  -1.761  -5.040  1.00  0.00     0.013 A 
ATOM     17  C   UNL     1      10.107  -1.967  -6.423  1.00  0.00     0.047 A 
BRANCH  15  18
ATOM     18  O   UNL     1       8.981  -2.774  -8.417  1.00  0.00    -0.508 OA
ATOM     19  H   UNL     1       9.450  -2.140  -9.056  1.00  0.00     0.293 HD
ENDBRANCH  15  18
ENDBRANCH   1  12
BRANCH  11  20
ATOM     20  C   UNL     1       9.383  -2.764   2.229  1.00  0.00     0.188 C 
ATOM     21  C   UNL     1       8.363  -3.897   1.954  1.00  0.00     0.179 C 
ATOM     22  O   UNL     1       9.410  -2.432   3.608  1.00  0.00    -0.362 OA
ATOM     23  C   UNL     1       8.637  -5.126   2.854  1.00  0.00     0.177 C 
ATOM     24  C   UNL     1       9.906  -3.515   4.379  1.00  0.00     0.176 C 
ATOM     25  C   UNL     1       8.928  -4.717   4.317  1.00  0.00     0.177 C 
BRANCH  21  26
ATOM     26  O   UNL     1       7.037  -3.449   2.114  1.00  0.00    -0.387 OA
ATOM     27  H   UNL     1       7.053  -2.647   2.697  1.00  0.00     0.211 HD
ENDBRANCH  21  26
BRANCH  23  28
ATOM     28  O   UNL     1       9.670  -5.921   2.322  1.00  0.00    -0.387 OA
ATOM     29  H   UNL     1       9.439  -6.147   1.386  1.00  0.00     0.211 HD
ENDBRANCH  23  28
BRANCH  24  30
ATOM     30  C   UNL     1      10.085  -3.032   5.825  1.00  0.00     0.191 C 
BRANCH  30  31
ATOM     31  O   UNL     1      10.110  -1.630   5.873  1.00  0.00    -0.394 OA
ATOM     32  H   UNL     1      10.957  -1.345   5.440  1.00  0.00     0.210 HD
ENDBRANCH  30  31
ENDBRANCH  24  30
BRANCH  25  33
ATOM     33  O   UNL     1       9.463  -5.820   5.007  1.00  0.00    -0.388 OA
ATOM     34  H   UNL     1       9.609  -6.542   4.342  1.00  0.00     0.211 HD
ENDBRANCH  25  33
ENDBRANCH  11  20
BRANCH  10  35
ATOM     35  O   UNL     1       8.665  -0.157   3.365  1.00  0.00    -0.507 OA
ATOM     36  H   UNL     1       8.033  -0.705   3.937  1.00  0.00     0.293 HD
ENDBRANCH  10  35
TORSDOF 9
ENDMDL
MODEL 2
REMARK VINA RESULT:    -7.690      1.741      8.278
REMARK INTER + INTRA:         -10.815
REMARK INTER:                 -10.460
REMARK INTRA:                  -0.355
REMARK UNBOUND:                -0.427
REMARK SMILES O=c1c(-c2ccc(O)cc2)coc2c([C@H]3O[C@@H](CO)[C@H](O)[C@H](O)[C@H]3O)c(O)ccc12
REMARK SMILES IDX 3 1 11 2 12 3 13 4 30 5 2 6 1 7 29 8 28 9 26 10 14 11 4 12
REMARK SMILES IDX 5 13 6 14 7 15 10 16 9 17 8 18 15 20 24 21 16 22 22 23 17 24
REMARK SMILES IDX 20 25 25 26 23 28 18 30 19 31 21 33 27 35
REMARK H PARENT 8 19 25 27 23 29 19 32 21 34 27 36
REMARK Flexibility Score: inf
ROOT
ATOM      1  C   UNL     1       8.857  -2.726   1.981  1.00  0.00     0.065 A 
ATOM      2  C   UNL     1       8.692  -3.536   0.849  1.00  0.00     0.208 A 
ATOM      3  O   UNL     1       8.439  -3.002  -0.340  1.00  0.00    -0.463 OA
ATOM      4  C   UNL     1       8.325  -1.691  -0.541  1.00  0.00     0.147 A 
ATOM      5  C   UNL     1       8.479  -0.801   0.547  1.00  0.00     0.066 A 
ATOM      6  C   UNL     1       8.738  -1.333   1.823  1.00  0.00     0.200 A 
ATOM      7  O   UNL     1       8.848  -0.569   2.821  1.00  0.00    -0.288 OA
ATOM      8  C   UNL     1       8.371   0.581   0.332  1.00  0.00     0.020 A 
ATOM      9  C   UNL     1       8.131   1.075  -0.948  1.00  0.00     0.047 A 
ATOM     10  C   UNL     1       7.983   0.204  -2.034  1.00  0.00     0.125 A 
ATOM     11  C   UNL     1       8.054  -1.197  -1.839  1.00  0.00     0.069 A 
ENDROOT
BRANCH   1  12
ATOM     12  C   UNL     1       9.145  -3.347   3.299  1.00  0.00    -0.011 A 
ATOM     13  C   UNL     1       9.037  -4.739   3.466  1.00  0.00     0.013 A 
ATOM     14  C   UNL     1       9.316  -5.327   4.704  1.00  0.00     0.047 A 
ATOM     15  C   UNL     1       9.710  -4.534   5.787  1.00  0.00     0.115 A 
ATOM     16  C   UNL     1       9.549  -2.557   4.390  1.00  0.00     0.013 A 
ATOM     17  C   UNL     1       9.827  -3.148   5.626  1.00  0.00     0.047 A 
BRANCH  15  18
ATOM     18  O   UNL     1       9.985  -5.134   7.013  1.00  0.00    -0.508 OA
ATOM     19  H   UNL     1      10.139  -6.134   7.090  1.00  0.00     0.293 HD
ENDBRANCH  15  18
ENDBRANCH   1  12
BRANCH  11  20
ATOM     20  C   UNL     1       7.923  -2.175  -3.002  1.00  0.00     0.188 C 
ATOM     21  C   UNL     1       9.277  -2.334  -3.736  1.00  0.00     0.179 C 
ATOM     22  O   UNL     1       6.908  -1.754  -3.898  1.00  0.00    -0.362 OA
ATOM     23  C   UNL     1       9.142  -3.272  -4.960  1.00  0.00     0.177 C 
ATOM     24  C   UNL     1       6.641  -2.756  -4.867  1.00  0.00     0.176 C 
ATOM     25  C   UNL     1       7.872  -2.963  -5.787  1.00  0.00     0.177 C 
BRANCH  21  26
ATOM     26  O   UNL     1       9.807  -1.087  -4.120  1.00  0.00    -0.387 OA
ATOM     27  H   UNL     1      10.208  -0.664  -3.316  1.00  0.00     0.211 HD
ENDBRANCH  21  26
BRANCH  23  28
ATOM     28  O   UNL     1       9.190  -4.624  -4.568  1.00  0.00    -0.387 OA
ATOM     29  H   UNL     1       8.304  -5.030  -4.743  1.00  0.00     0.211 HD
ENDBRANCH  23  28
BRANCH  24  30
ATOM     30  C   UNL     1       5.417  -2.320  -5.684  1.00  0.00     0.191 C 
BRANCH  30  31
ATOM     31  O   UNL     1       4.938  -3.388  -6.457  1.00  0.00    -0.394 OA
ATOM     32  H   UNL     1       4.414  -2.989  -7.200  1.00  0.00     0.210 HD
ENDBRANCH  30  31
ENDBRANCH  24  30
BRANCH  25  33
ATOM     33  O   UNL     1       7.640  -4.017  -6.688  1.00  0.00    -0.388 OA
ATOM     34  H   UNL     1       7.366  -4.808  -6.153  1.00  0.00     0.211 HD
ENDBRANCH  25  33
ENDBRANCH  11  20
BRANCH  10  35
ATOM     35  O   UNL     1       7.771   0.738  -3.306  1.00  0.00    -0.507 OA
ATOM     36  H   UNL     1       7.493   1.703  -3.441  1.00  0.00     0.293 HD
ENDBRANCH  10  35
TORSDOF 9
ENDMDL
MODEL 3
REMARK VINA RESULT:    -7.619      1.821      7.788
REMARK INTER + INTRA:         -10.720
REMARK INTER:                 -11.154
REMARK INTRA:                   0.434
REMARK UNBOUND:                -0.427
REMARK SMILES O=c1c(-c2ccc(O)cc2)coc2c([C@H]3O[C@@H](CO)[C@H](O)[C@H](O)[C@H]3O)c(O)ccc12
REMARK SMILES IDX 3 1 11 2 12 3 13 4 30 5 2 6 1 7 29 8 28 9 26 10 14 11 4 12
REMARK SMILES IDX 5 13 6 14 7 15 10 16 9 17 8 18 15 20 24 21 16 22 22 23 17 24
REMARK SMILES IDX 20 25 25 26 23 28 18 30 19 31 21 33 27 35
REMARK H PARENT 8 19 25 27 23 29 19 32 21 34 27 36
REMARK Flexibility Score: inf
ROOT
ATOM      1  C   UNL     1       8.957  -2.517   1.696  1.00  0.00     0.065 A 
ATOM      2  C   UNL     1       8.987  -3.242   0.497  1.00  0.00     0.208 A 
ATOM      3  O   UNL     1       8.810  -2.637  -0.671  1.00  0.00    -0.463 OA
ATOM      4  C   UNL     1       8.596  -1.328  -0.788  1.00  0.00     0.147 A 
ATOM      5  C   UNL     1       8.552  -0.520   0.371  1.00  0.00     0.066 A 
ATOM      6  C   UNL     1       8.726  -1.131   1.627  1.00  0.00     0.200 A 
ATOM      7  O   UNL     1       8.659  -0.445   2.684  1.00  0.00    -0.288 OA
ATOM      8  C   UNL     1       8.338   0.861   0.246  1.00  0.00     0.020 A 
ATOM      9  C   UNL     1       8.188   1.436  -1.014  1.00  0.00     0.047 A 
ATOM     10  C   UNL     1       8.236   0.648  -2.170  1.00  0.00     0.125 A 
ATOM     11  C   UNL     1       8.417  -0.754  -2.070  1.00  0.00     0.069 A 
ENDROOT
BRANCH   1  12
ATOM     12  C   UNL     1       9.163  -3.217   2.989  1.00  0.00    -0.011 A 
ATOM     13  C   UNL     1       8.792  -4.566   3.132  1.00  0.00     0.013 A 
ATOM     14  C   UNL     1       8.993  -5.229   4.347  1.00  0.00     0.047 A 
ATOM     15  C   UNL     1       9.569  -4.557   5.429  1.00  0.00     0.115 A 
ATOM     16  C   UNL     1       9.749  -2.550   4.079  1.00  0.00     0.013 A 
ATOM     17  C   UNL     1       9.948  -3.216   5.292  1.00  0.00     0.047 A 
BRANCH  15  18
ATOM     18  O   UNL     1       9.763  -5.232   6.632  1.00  0.00    -0.508 OA
ATOM     19  H   UNL     1       9.763  -6.245   6.677  1.00  0.00     0.293 HD
ENDBRANCH  15  18
ENDBRANCH   1  12
BRANCH  11  20
ATOM     20  C   UNL     1       8.499  -1.642  -3.307  1.00  0.00     0.188 C 
ATOM     21  C   UNL     1       7.097  -1.822  -3.941  1.00  0.00     0.179 C 
ATOM     22  O   UNL     1       9.074  -2.897  -2.986  1.00  0.00    -0.362 OA
ATOM     23  C   UNL     1       7.154  -2.776  -5.158  1.00  0.00     0.177 C 
ATOM     24  C   UNL     1       9.339  -3.647  -4.160  1.00  0.00     0.176 C 
ATOM     25  C   UNL     1       8.015  -4.029  -4.871  1.00  0.00     0.177 C 
BRANCH  21  26
ATOM     26  O   UNL     1       6.157  -2.275  -2.997  1.00  0.00    -0.387 OA
ATOM     27  H   UNL     1       6.202  -1.675  -2.208  1.00  0.00     0.211 HD
ENDBRANCH  21  26
BRANCH  23  28
ATOM     28  O   UNL     1       7.594  -2.099  -6.312  1.00  0.00    -0.387 OA
ATOM     29  H   UNL     1       8.518  -2.396  -6.515  1.00  0.00     0.211 HD
ENDBRANCH  23  28
BRANCH  24  30
ATOM     30  C   UNL     1      10.125  -4.904  -3.759  1.00  0.00     0.191 C 
BRANCH  30  31
ATOM     31  O   UNL     1       9.262  -6.003  -3.638  1.00  0.00    -0.394 OA
ATOM     32  H   UNL     1       8.593  -5.921  -4.367  1.00  0.00     0.210 HD
ENDBRANCH  30  31
ENDBRANCH  24  30
BRANCH  25  33
ATOM     33  O   UNL     1       8.282  -4.694  -6.081  1.00  0.00    -0.388 OA
ATOM     34  H   UNL     1       7.682  -5.484  -6.122  1.00  0.00     0.211 HD
ENDBRANCH  25  33
ENDBRANCH  11  20
BRANCH  10  35
ATOM     35  O   UNL     1       8.108   1.263  -3.415  1.00  0.00    -0.507 OA
ATOM     36  H   UNL     1       7.214   1.598  -3.756  1.00  0.00     0.293 HD
ENDBRANCH  10  35
TORSDOF 9
ENDMDL
MODEL 4
REMARK VINA RESULT:    -6.975     12.963     14.218
REMARK INTER + INTRA:          -9.849
REMARK INTER:                  -8.864
REMARK INTRA:                  -0.985
REMARK UNBOUND:                -0.427
REMARK SMILES O=c1c(-c2ccc(O)cc2)coc2c([C@H]3O[C@@H](CO)[C@H](O)[C@H](O)[C@H]3O)c(O)ccc12
REMARK SMILES IDX 3 1 11 2 12 3 13 4 30 5 2 6 1 7 29 8 28 9 26 10 14 11 4 12
REMARK SMILES IDX 5 13 6 14 7 15 10 16 9 17 8 18 15 20 24 21 16 22 22 23 17 24
REMARK SMILES IDX 20 25 25 26 23 28 18 30 19 31 21 33 27 35
REMARK H PARENT 8 19 25 27 23 29 19 32 21 34 27 36
REMARK Flexibility Score: inf
ROOT
ATOM      1  C   UNL     1      -2.086  -6.713  -1.530  1.00  0.00     0.065 A 
ATOM      2  C   UNL     1      -2.628  -6.981  -0.266  1.00  0.00     0.208 A 
ATOM      3  O   UNL     1      -3.611  -6.237   0.227  1.00  0.00    -0.463 OA
ATOM      4  C   UNL     1      -4.142  -5.206  -0.427  1.00  0.00     0.147 A 
ATOM      5  C   UNL     1      -3.656  -4.866  -1.710  1.00  0.00     0.066 A 
ATOM      6  C   UNL     1      -2.607  -5.628  -2.258  1.00  0.00     0.200 A 
ATOM      7  O   UNL     1      -2.127  -5.331  -3.387  1.00  0.00    -0.288 OA
ATOM      8  C   UNL     1      -4.224  -3.787  -2.402  1.00  0.00     0.020 A 
ATOM      9  C   UNL     1      -5.272  -3.064  -1.838  1.00  0.00     0.047 A 
ATOM     10  C   UNL     1      -5.767  -3.395  -0.570  1.00  0.00     0.125 A 
ATOM     11  C   UNL     1      -5.189  -4.459   0.165  1.00  0.00     0.069 A 
ENDROOT
BRANCH   1  12
ATOM     12  C   UNL     1      -0.991  -7.563  -2.061  1.00  0.00    -0.011 A 
ATOM     13  C   UNL     1       0.352  -7.227  -1.813  1.00  0.00     0.013 A 
ATOM     14  C   UNL     1       1.385  -8.031  -2.305  1.00  0.00     0.047 A 
ATOM     15  C   UNL     1       1.091  -9.181  -3.044  1.00  0.00     0.115 A 
ATOM     16  C   UNL     1      -1.279  -8.725  -2.799  1.00  0.00     0.013 A 
ATOM     17  C   UNL     1      -0.244  -9.527  -3.289  1.00  0.00     0.047 A 
BRANCH  15  18
ATOM     18  O   UNL     1       2.131  -9.972  -3.527  1.00  0.00    -0.508 OA
ATOM     19  H   UNL     1       3.058  -9.936  -3.116  1.00  0.00     0.293 HD
ENDBRANCH  15  18
ENDBRANCH   1  12
BRANCH  11  20
ATOM     20  C   UNL     1      -5.716  -4.864   1.537  1.00  0.00     0.188 C 
ATOM     21  C   UNL     1      -6.840  -5.921   1.398  1.00  0.00     0.179 C 
ATOM     22  O   UNL     1      -6.175  -3.729   2.253  1.00  0.00    -0.362 OA
ATOM     23  C   UNL     1      -7.433  -6.291   2.779  1.00  0.00     0.177 C 
ATOM     24  C   UNL     1      -6.476  -4.067   3.597  1.00  0.00     0.176 C 
ATOM     25  C   UNL     1      -7.682  -5.040   3.655  1.00  0.00     0.177 C 
BRANCH  21  26
ATOM     26  O   UNL     1      -7.854  -5.486   0.522  1.00  0.00    -0.387 OA
ATOM     27  H   UNL     1      -8.676  -6.004   0.725  1.00  0.00     0.211 HD
ENDBRANCH  21  26
BRANCH  23  28
ATOM     28  O   UNL     1      -6.621  -7.233   3.441  1.00  0.00    -0.387 OA
ATOM     29  H   UNL     1      -7.000  -8.135   3.284  1.00  0.00     0.211 HD
ENDBRANCH  23  28
BRANCH  24  30
ATOM     30  C   UNL     1      -6.786  -2.770   4.360  1.00  0.00     0.191 C 
BRANCH  30  31
ATOM     31  O   UNL     1      -7.445  -1.856   3.524  1.00  0.00    -0.394 OA
ATOM     32  H   UNL     1      -7.798  -1.137   4.111  1.00  0.00     0.210 HD
ENDBRANCH  30  31
ENDBRANCH  24  30
BRANCH  25  33
ATOM     33  O   UNL     1      -7.923  -5.444   4.980  1.00  0.00    -0.388 OA
ATOM     34  H   UNL     1      -8.792  -5.052   5.256  1.00  0.00     0.211 HD
ENDBRANCH  25  33
ENDBRANCH  11  20
BRANCH  10  35
ATOM     35  O   UNL     1      -6.836  -2.666  -0.049  1.00  0.00    -0.507 OA
ATOM     36  H   UNL     1      -7.797  -2.957  -0.182  1.00  0.00     0.293 HD
ENDBRANCH  10  35
TORSDOF 9
ENDMDL
MODEL 5
REMARK VINA RESULT:    -6.806      3.347      5.847
REMARK INTER + INTRA:          -9.620
REMARK INTER:                  -9.192
REMARK INTRA:                  -0.428
REMARK UNBOUND:                -0.427
REMARK SMILES O=c1c(-c2ccc(O)cc2)coc2c([C@H]3O[C@@H](CO)[C@H](O)[C@H](O)[C@H]3O)c(O)ccc12
REMARK SMILES IDX 3 1 11 2 12 3 13 4 30 5 2 6 1 7 29 8 28 9 26 10 14 11 4 12
REMARK SMILES IDX 5 13 6 14 7 15 10 16 9 17 8 18 15 20 24 21 16 22 22 23 17 24
REMARK SMILES IDX 20 25 25 26 23 28 18 30 19 31 21 33 27 35
REMARK H PARENT 8 19 25 27 23 29 19 32 21 34 27 36
REMARK Flexibility Score: inf
ROOT
ATOM      1  C   UNL     1       8.605  -4.847  -6.135  1.00  0.00     0.065 A 
ATOM      2  C   UNL     1       8.361  -4.840  -4.755  1.00  0.00     0.208 A 
ATOM      3  O   UNL     1       8.282  -3.699  -4.081  1.00  0.00    -0.463 OA
ATOM      4  C   UNL     1       8.425  -2.505  -4.652  1.00  0.00     0.147 A 
ATOM      5  C   UNL     1       8.673  -2.418  -6.041  1.00  0.00     0.066 A 
ATOM      6  C   UNL     1       8.772  -3.609  -6.784  1.00  0.00     0.200 A 
ATOM      7  O   UNL     1       9.026  -3.570  -8.020  1.00  0.00    -0.288 OA
ATOM      8  C   UNL     1       8.811  -1.160  -6.644  1.00  0.00     0.020 A 
ATOM      9  C   UNL     1       8.689   0.000  -5.882  1.00  0.00     0.047 A 
ATOM     10  C   UNL     1       8.438  -0.072  -4.506  1.00  0.00     0.125 A 
ATOM     11  C   UNL     1       8.327  -1.331  -3.867  1.00  0.00     0.069 A 
ENDROOT
BRANCH   1  12
ATOM     12  C   UNL     1       8.684  -6.136  -6.866  1.00  0.00    -0.011 A 
ATOM     13  C   UNL     1       9.906  -6.826  -6.957  1.00  0.00     0.013 A 
ATOM     14  C   UNL     1       9.981  -8.046  -7.638  1.00  0.00     0.047 A 
ATOM     15  C   UNL     1       8.839  -8.592  -8.231  1.00  0.00     0.115 A 
ATOM     16  C   UNL     1       7.538  -6.695  -7.459  1.00  0.00     0.013 A 
ATOM     17  C   UNL     1       7.617  -7.914  -8.139  1.00  0.00     0.047 A 
BRANCH  15  18
ATOM     18  O   UNL     1       8.929  -9.807  -8.906  1.00  0.00    -0.508 OA
ATOM     19  H   UNL     1       9.658 -10.479  -8.689  1.00  0.00     0.293 HD
ENDBRANCH  15  18
ENDBRANCH   1  12
BRANCH  11  20
ATOM     20  C   UNL     1       8.030  -1.449  -2.376  1.00  0.00     0.188 C 
ATOM     21  C   UNL     1       6.648  -2.110  -2.147  1.00  0.00     0.179 C 
ATOM     22  O   UNL     1       8.092  -0.177  -1.751  1.00  0.00    -0.362 OA
ATOM     23  C   UNL     1       6.303  -2.174  -0.639  1.00  0.00     0.177 C 
ATOM     24  C   UNL     1       8.018  -0.304  -0.339  1.00  0.00     0.176 C 
ATOM     25  C   UNL     1       6.629  -0.847   0.085  1.00  0.00     0.177 C 
BRANCH  21  26
ATOM     26  O   UNL     1       5.632  -1.448  -2.862  1.00  0.00    -0.387 OA
ATOM     27  H   UNL     1       5.215  -2.104  -3.478  1.00  0.00     0.211 HD
ENDBRANCH  21  26
BRANCH  23  28
ATOM     28  O   UNL     1       6.936  -3.271  -0.022  1.00  0.00    -0.387 OA
ATOM     29  H   UNL     1       6.691  -3.272   0.938  1.00  0.00     0.211 HD
ENDBRANCH  23  28
BRANCH  24  30
ATOM     30  C   UNL     1       8.276   1.077   0.280  1.00  0.00     0.191 C 
BRANCH  30  31
ATOM     31  O   UNL     1       7.541   2.062  -0.396  1.00  0.00    -0.394 OA
ATOM     32  H   UNL     1       7.757   1.967  -1.360  1.00  0.00     0.210 HD
ENDBRANCH  30  31
ENDBRANCH  24  30
BRANCH  25  33
ATOM     33  O   UNL     1       6.588  -1.057   1.475  1.00  0.00    -0.388 OA
ATOM     34  H   UNL     1       6.803  -2.012   1.635  1.00  0.00     0.211 HD
ENDBRANCH  25  33
ENDBRANCH  11  20
BRANCH  10  35
ATOM     35  O   UNL     1       8.296   1.112  -3.781  1.00  0.00    -0.507 OA
ATOM     36  H   UNL     1       9.081   1.726  -3.602  1.00  0.00     0.293 HD
ENDBRANCH  10  35
TORSDOF 9
ENDMDL
MODEL 6
REMARK VINA RESULT:    -6.738      7.417     11.096
REMARK INTER + INTRA:          -9.529
REMARK INTER:                  -8.454
REMARK INTRA:                  -1.075
REMARK UNBOUND:                -0.427
REMARK SMILES O=c1c(-c2ccc(O)cc2)coc2c([C@H]3O[C@@H](CO)[C@H](O)[C@H](O)[C@H]3O)c(O)ccc12
REMARK SMILES IDX 3 1 11 2 12 3 13 4 30 5 2 6 1 7 29 8 28 9 26 10 14 11 4 12
REMARK SMILES IDX 5 13 6 14 7 15 10 16 9 17 8 18 15 20 24 21 16 22 22 23 17 24
REMARK SMILES IDX 20 25 25 26 23 28 18 30 19 31 21 33 27 35
REMARK H PARENT 8 19 25 27 23 29 19 32 21 34 27 36
REMARK Flexibility Score: inf
ROOT
ATOM      1  C   UNL     1       0.288  -5.701  -3.791  1.00  0.00     0.065 A 
ATOM      2  C   UNL     1       1.487  -5.078  -3.420  1.00  0.00     0.208 A 
ATOM      3  O   UNL     1       2.592  -5.241  -4.137  1.00  0.00    -0.463 OA
ATOM      4  C   UNL     1       2.643  -5.992  -5.236  1.00  0.00     0.147 A 
ATOM      5  C   UNL     1       1.477  -6.656  -5.683  1.00  0.00     0.066 A 
ATOM      6  C   UNL     1       0.291  -6.512  -4.940  1.00  0.00     0.200 A 
ATOM      7  O   UNL     1      -0.758  -7.118  -5.293  1.00  0.00    -0.288 OA
ATOM      8  C   UNL     1       1.529  -7.437  -6.847  1.00  0.00     0.020 A 
ATOM      9  C   UNL     1       2.715  -7.544  -7.569  1.00  0.00     0.047 A 
ATOM     10  C   UNL     1       3.875  -6.886  -7.139  1.00  0.00     0.125 A 
ATOM     11  C   UNL     1       3.859  -6.118  -5.949  1.00  0.00     0.069 A 
ENDROOT
BRANCH   1  12
ATOM     12  C   UNL     1      -0.935  -5.498  -2.974  1.00  0.00    -0.011 A 
ATOM     13  C   UNL     1      -1.847  -4.480  -3.304  1.00  0.00     0.013 A 
ATOM     14  C   UNL     1      -3.004  -4.293  -2.541  1.00  0.00     0.047 A 
ATOM     15  C   UNL     1      -3.268  -5.121  -1.446  1.00  0.00     0.115 A 
ATOM     16  C   UNL     1      -1.210  -6.333  -1.876  1.00  0.00     0.013 A 
ATOM     17  C   UNL     1      -2.368  -6.143  -1.116  1.00  0.00     0.047 A 
BRANCH  15  18
ATOM     18  O   UNL     1      -4.425  -4.923  -0.697  1.00  0.00    -0.508 OA
ATOM     19  H   UNL     1      -4.794  -5.648  -0.091  1.00  0.00     0.293 HD
ENDBRANCH  15  18
ENDBRANCH   1  12
BRANCH  11  20
ATOM     20  C   UNL     1       5.094  -5.367  -5.463  1.00  0.00     0.188 C 
ATOM     21  C   UNL     1       5.086  -3.910  -5.987  1.00  0.00     0.179 C 
ATOM     22  O   UNL     1       6.278  -6.041  -5.859  1.00  0.00    -0.362 OA
ATOM     23  C   UNL     1       6.369  -3.156  -5.559  1.00  0.00     0.177 C 
ATOM     24  C   UNL     1       7.418  -5.464  -5.243  1.00  0.00     0.176 C 
ATOM     25  C   UNL     1       7.638  -4.017  -5.755  1.00  0.00     0.177 C 
BRANCH  21  26
ATOM     26  O   UNL     1       4.925  -3.863  -7.385  1.00  0.00    -0.387 OA
ATOM     27  H   UNL     1       5.282  -4.709  -7.762  1.00  0.00     0.211 HD
ENDBRANCH  21  26
BRANCH  23  28
ATOM     28  O   UNL     1       6.260  -2.686  -4.235  1.00  0.00    -0.387 OA
ATOM     29  H   UNL     1       5.685  -3.313  -3.728  1.00  0.00     0.211 HD
ENDBRANCH  23  28
BRANCH  24  30
ATOM     30  C   UNL     1       8.633  -6.347  -5.563  1.00  0.00     0.191 C 
BRANCH  30  31
ATOM     31  O   UNL     1       9.656  -6.128  -4.628  1.00  0.00    -0.394 OA
ATOM     32  H   UNL     1       9.319  -6.460  -3.755  1.00  0.00     0.210 HD
ENDBRANCH  30  31
ENDBRANCH  24  30
BRANCH  25  33
ATOM     33  O   UNL     1       8.714  -3.416  -5.078  1.00  0.00    -0.388 OA
ATOM     34  H   UNL     1       9.059  -2.689  -5.659  1.00  0.00     0.211 HD
ENDBRANCH  25  33
ENDBRANCH  11  20
BRANCH  10  35
ATOM     35  O   UNL     1       5.037  -6.994  -7.903  1.00  0.00    -0.507 OA
ATOM     36  H   UNL     1       5.845  -6.407  -7.732  1.00  0.00     0.293 HD
ENDBRANCH  10  35
TORSDOF 9
ENDMDL
MODEL 7
REMARK VINA RESULT:    -6.621      4.496      9.353
REMARK INTER + INTRA:          -9.371
REMARK INTER:                  -8.419
REMARK INTRA:                  -0.953
REMARK UNBOUND:                -0.427
REMARK SMILES O=c1c(-c2ccc(O)cc2)coc2c([C@H]3O[C@@H](CO)[C@H](O)[C@H](O)[C@H]3O)c(O)ccc12
REMARK SMILES IDX 3 1 11 2 12 3 13 4 30 5 2 6 1 7 29 8 28 9 26 10 14 11 4 12
REMARK SMILES IDX 5 13 6 14 7 15 10 16 9 17 8 18 15 20 24 21 16 22 22 23 17 24
REMARK SMILES IDX 20 25 25 26 23 28 18 30 19 31 21 33 27 35
REMARK H PARENT 8 19 25 27 23 29 19 32 21 34 27 36
REMARK Flexibility Score: inf
ROOT
ATOM      1  C   UNL     1       7.826  -1.567  -3.410  1.00  0.00     0.065 A 
ATOM      2  C   UNL     1       6.607  -2.012  -3.940  1.00  0.00     0.208 A 
ATOM      3  O   UNL     1       6.562  -3.040  -4.779  1.00  0.00    -0.463 OA
ATOM      4  C   UNL     1       7.645  -3.708  -5.170  1.00  0.00     0.147 A 
ATOM      5  C   UNL     1       8.916  -3.327  -4.683  1.00  0.00     0.066 A 
ATOM      6  C   UNL     1       9.001  -2.236  -3.800  1.00  0.00     0.200 A 
ATOM      7  O   UNL     1      10.124  -1.848  -3.372  1.00  0.00    -0.288 OA
ATOM      8  C   UNL     1      10.055  -4.040  -5.087  1.00  0.00     0.020 A 
ATOM      9  C   UNL     1       9.933  -5.127  -5.949  1.00  0.00     0.047 A 
ATOM     10  C   UNL     1       8.679  -5.518  -6.434  1.00  0.00     0.125 A 
ATOM     11  C   UNL     1       7.517  -4.795  -6.068  1.00  0.00     0.069 A 
ENDROOT
BRANCH   1  12
ATOM     12  C   UNL     1       7.849  -0.419  -2.470  1.00  0.00    -0.011 A 
ATOM     13  C   UNL     1       7.444  -0.587  -1.134  1.00  0.00     0.013 A 
ATOM     14  C   UNL     1       7.473   0.491  -0.244  1.00  0.00     0.047 A 
ATOM     15  C   UNL     1       7.911   1.748  -0.675  1.00  0.00     0.115 A 
ATOM     16  C   UNL     1       8.295   0.846  -2.894  1.00  0.00     0.013 A 
ATOM     17  C   UNL     1       8.323   1.921  -2.002  1.00  0.00     0.047 A 
BRANCH  15  18
ATOM     18  O   UNL     1       7.935   2.812   0.224  1.00  0.00    -0.508 OA
ATOM     19  H   UNL     1       8.665   3.515   0.192  1.00  0.00     0.293 HD
ENDBRANCH  15  18
ENDBRANCH   1  12
BRANCH  11  20
ATOM     20  C   UNL     1       6.132  -5.206  -6.556  1.00  0.00     0.188 C 
ATOM     21  C   UNL     1       5.436  -6.118  -5.515  1.00  0.00     0.179 C 
ATOM     22  O   UNL     1       6.215  -5.849  -7.817  1.00  0.00    -0.362 OA
ATOM     23  C   UNL     1       4.057  -6.599  -6.027  1.00  0.00     0.177 C 
ATOM     24  C   UNL     1       4.923  -6.051  -8.368  1.00  0.00     0.176 C 
ATOM     25  C   UNL     1       4.115  -7.054  -7.504  1.00  0.00     0.177 C 
BRANCH  21  26
ATOM     26  O   UNL     1       6.247  -7.215  -5.165  1.00  0.00    -0.387 OA
ATOM     27  H   UNL     1       7.139  -7.081  -5.579  1.00  0.00     0.211 HD
ENDBRANCH  21  26
BRANCH  23  28
ATOM     28  O   UNL     1       3.072  -5.612  -5.827  1.00  0.00    -0.387 OA
ATOM     29  H   UNL     1       3.030  -5.045  -6.639  1.00  0.00     0.211 HD
ENDBRANCH  23  28
BRANCH  24  30
ATOM     30  C   UNL     1       5.090  -6.576  -9.801  1.00  0.00     0.191 C 
BRANCH  30  31
ATOM     31  O   UNL     1       5.258  -7.968  -9.796  1.00  0.00    -0.394 OA
ATOM     32  H   UNL     1       5.787  -8.194 -10.606  1.00  0.00     0.210 HD
ENDBRANCH  30  31
ENDBRANCH  24  30
BRANCH  25  33
ATOM     33  O   UNL     1       2.806  -7.184  -8.000  1.00  0.00    -0.388 OA
ATOM     34  H   UNL     1       2.187  -7.063  -7.234  1.00  0.00     0.211 HD
ENDBRANCH  25  33
ENDBRANCH  11  20
BRANCH  10  35
ATOM     35  O   UNL     1       8.594  -6.628  -7.274  1.00  0.00    -0.507 OA
ATOM     36  H   UNL     1       8.382  -7.553  -6.918  1.00  0.00     0.293 HD
ENDBRANCH  10  35
TORSDOF 9
ENDMDL
MODEL 8
REMARK VINA RESULT:    -6.584      9.956     13.018
REMARK INTER + INTRA:          -9.321
REMARK INTER:                  -8.954
REMARK INTRA:                  -0.366
REMARK UNBOUND:                -0.427
REMARK SMILES O=c1c(-c2ccc(O)cc2)coc2c([C@H]3O[C@@H](CO)[C@H](O)[C@H](O)[C@H]3O)c(O)ccc12
REMARK SMILES IDX 3 1 11 2 12 3 13 4 30 5 2 6 1 7 29 8 28 9 26 10 14 11 4 12
REMARK SMILES IDX 5 13 6 14 7 15 10 16 9 17 8 18 15 20 24 21 16 22 22 23 17 24
REMARK SMILES IDX 20 25 25 26 23 28 18 30 19 31 21 33 27 35
REMARK H PARENT 8 19 25 27 23 29 19 32 21 34 27 36
REMARK Flexibility Score: inf
ROOT
ATOM      1  C   UNL     1      -2.244  -5.413  -2.203  1.00  0.00     0.065 A 
ATOM      2  C   UNL     1      -1.664  -5.098  -3.439  1.00  0.00     0.208 A 
ATOM      3  O   UNL     1      -0.614  -5.772  -3.892  1.00  0.00    -0.463 OA
ATOM      4  C   UNL     1      -0.047  -6.773  -3.222  1.00  0.00     0.147 A 
ATOM      5  C   UNL     1      -0.569  -7.159  -1.966  1.00  0.00     0.066 A 
ATOM      6  C   UNL     1      -1.676  -6.459  -1.452  1.00  0.00     0.200 A 
ATOM      7  O   UNL     1      -2.146  -6.756  -0.319  1.00  0.00    -0.288 OA
ATOM      8  C   UNL     1       0.022  -8.222  -1.267  1.00  0.00     0.020 A 
ATOM      9  C   UNL     1       1.106  -8.905  -1.814  1.00  0.00     0.047 A 
ATOM     10  C   UNL     1       1.628  -8.536  -3.060  1.00  0.00     0.125 A 
ATOM     11  C   UNL     1       1.072  -7.445  -3.771  1.00  0.00     0.069 A 
ENDROOT
BRANCH   1  12
ATOM     12  C   UNL     1      -3.421  -4.648  -1.721  1.00  0.00    -0.011 A 
ATOM     13  C   UNL     1      -3.615  -4.438  -0.344  1.00  0.00     0.013 A 
ATOM     14  C   UNL     1      -4.718  -3.710   0.113  1.00  0.00     0.047 A 
ATOM     15  C   UNL     1      -5.636  -3.178  -0.798  1.00  0.00     0.115 A 
ATOM     16  C   UNL     1      -4.344  -4.103  -2.631  1.00  0.00     0.013 A 
ATOM     17  C   UNL     1      -5.445  -3.376  -2.172  1.00  0.00     0.047 A 
BRANCH  15  18
ATOM     18  O   UNL     1      -6.730  -2.454  -0.329  1.00  0.00    -0.508 OA
ATOM     19  H   UNL     1      -7.525  -2.251  -0.924  1.00  0.00     0.293 HD
ENDBRANCH  15  18
ENDBRANCH   1  12
BRANCH  11  20
ATOM     20  C   UNL     1       1.598  -7.030  -5.141  1.00  0.00     0.188 C 
ATOM     21  C   UNL     1       0.966  -7.903  -6.254  1.00  0.00     0.179 C 
ATOM     22  O   UNL     1       3.013  -7.109  -5.179  1.00  0.00    -0.362 OA
ATOM     23  C   UNL     1       1.543  -7.539  -7.644  1.00  0.00     0.177 C 
ATOM     24  C   UNL     1       3.520  -6.534  -6.374  1.00  0.00     0.176 C 
ATOM     25  C   UNL     1       3.080  -7.368  -7.605  1.00  0.00     0.177 C 
BRANCH  21  26
ATOM     26  O   UNL     1       1.131  -9.276  -5.991  1.00  0.00    -0.387 OA
ATOM     27  H   UNL     1       0.813  -9.451  -5.068  1.00  0.00     0.211 HD
ENDBRANCH  21  26
BRANCH  23  28
ATOM     28  O   UNL     1       0.907  -6.397  -8.171  1.00  0.00    -0.387 OA
ATOM     29  H   UNL     1       0.474  -5.910  -7.426  1.00  0.00     0.211 HD
ENDBRANCH  23  28
BRANCH  24  30
ATOM     30  C   UNL     1       5.051  -6.483  -6.269  1.00  0.00     0.191 C 
BRANCH  30  31
ATOM     31  O   UNL     1       5.456  -6.643  -4.936  1.00  0.00    -0.394 OA
ATOM     32  H   UNL     1       5.233  -5.797  -4.467  1.00  0.00     0.210 HD
ENDBRANCH  30  31
ENDBRANCH  24  30
BRANCH  25  33
ATOM     33  O   UNL     1       3.506  -6.749  -8.794  1.00  0.00    -0.388 OA
ATOM     34  H   UNL     1       3.903  -5.874  -8.545  1.00  0.00     0.211 HD
ENDBRANCH  25  33
ENDBRANCH  11  20
BRANCH  10  35
ATOM     35  O   UNL     1       2.697  -9.261  -3.587  1.00  0.00    -0.507 OA
ATOM     36  H   UNL     1       3.542  -8.806  -3.913  1.00  0.00     0.293 HD
ENDBRANCH  10  35
TORSDOF 9
ENDMDL
