MODEL 1
REMARK VINA RESULT:    -4.739      0.000      0.000
REMARK INTER + INTRA:          -9.805
REMARK INTER:                  -8.618
REMARK INTRA:                  -1.187
REMARK UNBOUND:                -1.187
REMARK SMILES CCCCCCCCCCCCCCCC(=O)[O-]
REMARK SMILES IDX 9 1 10 2 11 3 12 4 13 5 14 6 15 7 16 8 17 9 18 10 8 11 7 12
REMARK SMILES IDX 6 13 5 14 4 15 3 16 2 17 1 18
REMARK H PARENT
REMARK Flexibility Score: inf
ROOT
ATOM      1  C   UNL     1      31.691   8.875  48.524  1.00  0.00     0.000 C 
ENDROOT
BRANCH   1   2
ATOM      2  C   UNL     1      30.314   8.256  48.831  1.00  0.00     0.000 C 
BRANCH   2   3
ATOM      3  C   UNL     1      30.199   6.741  48.561  1.00  0.00     0.000 C 
BRANCH   3   4
ATOM      4  C   UNL     1      31.056   6.217  47.395  1.00  0.00     0.000 C 
BRANCH   4   5
ATOM      5  C   UNL     1      32.158   5.218  47.797  1.00  0.00     0.000 C 
BRANCH   5   6
ATOM      6  C   UNL     1      33.575   5.828  47.809  1.00  0.00     0.006 C 
BRANCH   6   7
ATOM      7  C   UNL     1      34.640   4.852  47.293  1.00  0.00     0.053 C 
BRANCH   7   8
ATOM      8  C   UNL     1      34.740   4.927  45.802  1.00  0.00     0.041 C 
ATOM      9  O   UNL     1      35.303   4.005  45.157  1.00  0.00    -0.550 OA
ATOM     10  O   UNL     1      34.251   6.039  45.127  1.00  0.00    -0.550 OA
ENDBRANCH   7   8
ENDBRANCH   6   7
ENDBRANCH   5   6
ENDBRANCH   4   5
ENDBRANCH   3   4
ENDBRANCH   2   3
ENDBRANCH   1   2
BRANCH   1  11
ATOM     11  C   UNL     1      31.706  10.405  48.676  1.00  0.00     0.000 C 
BRANCH  11  12
ATOM     12  C   UNL     1      33.116  10.956  48.940  1.00  0.00    -0.000 C 
BRANCH  12  13
ATOM     13  C   UNL     1      34.200  10.230  48.122  1.00  0.00    -0.000 C 
BRANCH  13  14
ATOM     14  C   UNL     1      35.116  11.199  47.351  1.00  0.00    -0.000 C 
BRANCH  14  15
ATOM     15  C   UNL     1      35.357  10.830  45.876  1.00  0.00    -0.000 C 
BRANCH  15  16
ATOM     16  C   UNL     1      34.662   9.521  45.463  1.00  0.00    -0.000 C 
BRANCH  16  17
ATOM     17  C   UNL     1      34.573   9.358  43.938  1.00  0.00    -0.003 C 
ATOM     18  C   UNL     1      33.655  10.392  43.284  1.00  0.00     0.004 C 
ENDBRANCH  16  17
ENDBRANCH  15  16
ENDBRANCH  14  15
ENDBRANCH  13  14
ENDBRANCH  12  13
ENDBRANCH  11  12
ENDBRANCH   1  11
TORSDOF 14
ENDMDL
MODEL 2
REMARK VINA RESULT:    -4.522      2.564      4.575
REMARK INTER + INTRA:          -9.410
REMARK INTER:                  -7.493
REMARK INTRA:                  -1.917
REMARK UNBOUND:                -1.187
REMARK SMILES CCCCCCCCCCCCCCCC(=O)[O-]
REMARK SMILES IDX 9 1 10 2 11 3 12 4 13 5 14 6 15 7 16 8 17 9 18 10 8 11 7 12
REMARK SMILES IDX 6 13 5 14 4 15 3 16 2 17 1 18
REMARK H PARENT
REMARK Flexibility Score: inf
ROOT
ATOM      1  C   UNL     1      31.266   6.647  47.412  1.00  0.00     0.000 C 
ENDROOT
BRANCH   1   2
ATOM      2  C   UNL     1      30.385   7.496  48.347  1.00  0.00     0.000 C 
BRANCH   2   3
ATOM      3  C   UNL     1      30.988   8.852  48.769  1.00  0.00     0.000 C 
BRANCH   3   4
ATOM      4  C   UNL     1      32.363   9.175  48.158  1.00  0.00     0.000 C 
BRANCH   4   5
ATOM      5  C   UNL     1      33.555   9.019  49.122  1.00  0.00     0.000 C 
BRANCH   5   6
ATOM      6  C   UNL     1      34.858   9.667  48.609  1.00  0.00     0.006 C 
BRANCH   6   7
ATOM      7  C   UNL     1      34.605  10.718  47.522  1.00  0.00     0.053 C 
BRANCH   7   8
ATOM      8  C   UNL     1      35.898  11.313  47.059  1.00  0.00     0.041 C 
ATOM      9  O   UNL     1      36.909  11.292  47.808  1.00  0.00    -0.550 OA
ATOM     10  O   UNL     1      35.973  11.932  45.817  1.00  0.00    -0.550 OA
ENDBRANCH   7   8
ENDBRANCH   6   7
ENDBRANCH   5   6
ENDBRANCH   4   5
ENDBRANCH   3   4
ENDBRANCH   2   3
ENDBRANCH   1   2
BRANCH   1  11
ATOM     11  C   UNL     1      31.635   5.281  48.014  1.00  0.00     0.000 C 
BRANCH  11  12
ATOM     12  C   UNL     1      33.056   4.835  47.632  1.00  0.00    -0.000 C 
BRANCH  12  13
ATOM     13  C   UNL     1      33.925   5.996  47.116  1.00  0.00    -0.000 C 
BRANCH  13  14
ATOM     14  C   UNL     1      34.375   5.803  45.656  1.00  0.00    -0.000 C 
BRANCH  14  15
ATOM     15  C   UNL     1      33.837   6.851  44.665  1.00  0.00    -0.000 C 
BRANCH  15  16
ATOM     16  C   UNL     1      34.195   8.293  45.064  1.00  0.00    -0.000 C 
BRANCH  16  17
ATOM     17  C   UNL     1      34.747   9.109  43.885  1.00  0.00    -0.003 C 
ATOM     18  C   UNL     1      33.876  10.318  43.541  1.00  0.00     0.004 C 
ENDBRANCH  16  17
ENDBRANCH  15  16
ENDBRANCH  14  15
ENDBRANCH  13  14
ENDBRANCH  12  13
ENDBRANCH  11  12
ENDBRANCH   1  11
TORSDOF 14
ENDMDL
MODEL 3
REMARK VINA RESULT:    -4.353     16.200     18.382
REMARK INTER + INTRA:          -9.103
REMARK INTER:                  -6.930
REMARK INTRA:                  -2.173
REMARK UNBOUND:                -1.187
REMARK SMILES CCCCCCCCCCCCCCCC(=O)[O-]
REMARK SMILES IDX 9 1 10 2 11 3 12 4 13 5 14 6 15 7 16 8 17 9 18 10 8 11 7 12
REMARK SMILES IDX 6 13 5 14 4 15 3 16 2 17 1 18
REMARK H PARENT
REMARK Flexibility Score: inf
ROOT
ATOM      1  C   UNL     1      21.661  11.425  32.141  1.00  0.00     0.000 C 
ENDROOT
BRANCH   1   2
ATOM      2  C   UNL     1      20.761  10.367  31.476  1.00  0.00     0.000 C 
BRANCH   2   3
ATOM      3  C   UNL     1      19.292  10.359  31.949  1.00  0.00     0.000 C 
BRANCH   3   4
ATOM      4  C   UNL     1      18.990   9.416  33.128  1.00  0.00     0.000 C 
BRANCH   4   5
ATOM      5  C   UNL     1      19.529   7.982  32.966  1.00  0.00     0.000 C 
BRANCH   5   6
ATOM      6  C   UNL     1      19.899   7.303  34.302  1.00  0.00     0.006 C 
BRANCH   6   7
ATOM      7  C   UNL     1      18.736   7.298  35.301  1.00  0.00     0.053 C 
BRANCH   7   8
ATOM      8  C   UNL     1      19.246   7.114  36.696  1.00  0.00     0.041 C 
ATOM      9  O   UNL     1      19.483   5.959  37.136  1.00  0.00    -0.550 OA
ATOM     10  O   UNL     1      19.415   8.215  37.525  1.00  0.00    -0.550 OA
ENDBRANCH   7   8
ENDBRANCH   6   7
ENDBRANCH   5   6
ENDBRANCH   4   5
ENDBRANCH   3   4
ENDBRANCH   2   3
ENDBRANCH   1   2
BRANCH   1  11
ATOM     11  C   UNL     1      21.093  12.849  32.029  1.00  0.00     0.000 C 
BRANCH  11  12
ATOM     12  C   UNL     1      21.148  13.611  33.362  1.00  0.00    -0.000 C 
BRANCH  12  13
ATOM     13  C   UNL     1      20.091  13.124  34.369  1.00  0.00    -0.000 C 
BRANCH  13  14
ATOM     14  C   UNL     1      20.711  12.532  35.648  1.00  0.00    -0.000 C 
BRANCH  14  15
ATOM     15  C   UNL     1      20.656  10.997  35.748  1.00  0.00    -0.000 C 
BRANCH  15  16
ATOM     16  C   UNL     1      22.046  10.342  35.675  1.00  0.00    -0.000 C 
BRANCH  16  17
ATOM     17  C   UNL     1      23.172  11.370  35.483  1.00  0.00    -0.003 C 
ATOM     18  C   UNL     1      24.565  10.761  35.653  1.00  0.00     0.004 C 
ENDBRANCH  16  17
ENDBRANCH  15  16
ENDBRANCH  14  15
ENDBRANCH  13  14
ENDBRANCH  12  13
ENDBRANCH  11  12
ENDBRANCH   1  11
TORSDOF 14
ENDMDL
MODEL 4
REMARK VINA RESULT:    -4.332     17.038     19.341
REMARK INTER + INTRA:          -9.064
REMARK INTER:                  -7.033
REMARK INTRA:                  -2.031
REMARK UNBOUND:                -1.187
REMARK SMILES CCCCCCCCCCCCCCCC(=O)[O-]
REMARK SMILES IDX 9 1 10 2 11 3 12 4 13 5 14 6 15 7 16 8 17 9 18 10 8 11 7 12
REMARK SMILES IDX 6 13 5 14 4 15 3 16 2 17 1 18
REMARK H PARENT
REMARK Flexibility Score: inf
ROOT
ATOM      1  C   UNL     1      22.303  11.558  35.527  1.00  0.00     0.000 C 
ENDROOT
BRANCH   1   2
ATOM      2  C   UNL     1      21.244  12.675  35.567  1.00  0.00     0.000 C 
BRANCH   2   3
ATOM      3  C   UNL     1      20.997  13.396  34.225  1.00  0.00     0.000 C 
BRANCH   3   4
ATOM      4  C   UNL     1      19.752  12.927  33.451  1.00  0.00     0.000 C 
BRANCH   4   5
ATOM      5  C   UNL     1      20.008  12.551  31.979  1.00  0.00     0.000 C 
BRANCH   5   6
ATOM      6  C   UNL     1      21.213  11.608  31.779  1.00  0.00     0.006 C 
BRANCH   6   7
ATOM      7  C   UNL     1      20.811  10.255  31.180  1.00  0.00     0.053 C 
BRANCH   7   8
ATOM      8  C   UNL     1      21.218  10.179  29.742  1.00  0.00     0.041 C 
ATOM      9  O   UNL     1      20.439   9.680  28.889  1.00  0.00    -0.550 OA
ATOM     10  O   UNL     1      22.478  10.616  29.352  1.00  0.00    -0.550 OA
ENDBRANCH   7   8
ENDBRANCH   6   7
ENDBRANCH   5   6
ENDBRANCH   4   5
ENDBRANCH   3   4
ENDBRANCH   2   3
ENDBRANCH   1   2
BRANCH   1  11
ATOM     11  C   UNL     1      21.688  10.149  35.555  1.00  0.00     0.000 C 
BRANCH  11  12
ATOM     12  C   UNL     1      20.189  10.169  35.897  1.00  0.00    -0.000 C 
BRANCH  12  13
ATOM     13  C   UNL     1      19.328   9.466  34.833  1.00  0.00    -0.000 C 
BRANCH  13  14
ATOM     14  C   UNL     1      20.100   8.380  34.061  1.00  0.00    -0.000 C 
BRANCH  14  15
ATOM     15  C   UNL     1      19.776   6.933  34.473  1.00  0.00    -0.000 C 
BRANCH  15  16
ATOM     16  C   UNL     1      20.366   6.554  35.842  1.00  0.00    -0.000 C 
BRANCH  16  17
ATOM     17  C   UNL     1      19.282   6.323  36.906  1.00  0.00    -0.003 C 
ATOM     18  C   UNL     1      17.875   6.245  36.312  1.00  0.00     0.004 C 
ENDBRANCH  16  17
ENDBRANCH  15  16
ENDBRANCH  14  15
ENDBRANCH  13  14
ENDBRANCH  12  13
ENDBRANCH  11  12
ENDBRANCH   1  11
TORSDOF 14
ENDMDL
MODEL 5
REMARK VINA RESULT:    -4.306     17.144     19.436
REMARK INTER + INTRA:          -9.017
REMARK INTER:                  -7.086
REMARK INTRA:                  -1.931
REMARK UNBOUND:                -1.187
REMARK SMILES CCCCCCCCCCCCCCCC(=O)[O-]
REMARK SMILES IDX 9 1 10 2 11 3 12 4 13 5 14 6 15 7 16 8 17 9 18 10 8 11 7 12
REMARK SMILES IDX 6 13 5 14 4 15 3 16 2 17 1 18
REMARK H PARENT
REMARK Flexibility Score: inf
ROOT
ATOM      1  C   UNL     1      21.786  10.113  35.487  1.00  0.00     0.000 C 
ENDROOT
BRANCH   1   2
ATOM      2  C   UNL     1      22.365  11.538  35.414  1.00  0.00     0.000 C 
BRANCH   2   3
ATOM      3  C   UNL     1      21.353  12.674  35.673  1.00  0.00     0.000 C 
BRANCH   3   4
ATOM      4  C   UNL     1      20.988  13.520  34.440  1.00  0.00     0.000 C 
BRANCH   4   5
ATOM      5  C   UNL     1      19.735  13.048  33.678  1.00  0.00     0.000 C 
BRANCH   5   6
ATOM      6  C   UNL     1      20.027  12.555  32.245  1.00  0.00     0.006 C 
BRANCH   6   7
ATOM      7  C   UNL     1      21.512  12.668  31.875  1.00  0.00     0.053 C 
BRANCH   7   8
ATOM      8  C   UNL     1      21.730  13.808  30.931  1.00  0.00     0.041 C 
ATOM      9  O   UNL     1      21.970  13.587  29.716  1.00  0.00    -0.550 OA
ATOM     10  O   UNL     1      21.716  15.114  31.404  1.00  0.00    -0.550 OA
ENDBRANCH   7   8
ENDBRANCH   6   7
ENDBRANCH   5   6
ENDBRANCH   4   5
ENDBRANCH   3   4
ENDBRANCH   2   3
ENDBRANCH   1   2
BRANCH   1  11
ATOM     11  C   UNL     1      20.303  10.090  35.894  1.00  0.00     0.000 C 
BRANCH  11  12
ATOM     12  C   UNL     1      19.411   9.434  34.828  1.00  0.00    -0.000 C 
BRANCH  12  13
ATOM     13  C   UNL     1      20.169   9.132  33.523  1.00  0.00    -0.000 C 
BRANCH  13  14
ATOM     14  C   UNL     1      20.172   7.634  33.165  1.00  0.00    -0.000 C 
BRANCH  14  15
ATOM     15  C   UNL     1      19.990   6.680  34.359  1.00  0.00    -0.000 C 
BRANCH  15  16
ATOM     16  C   UNL     1      18.531   6.230  34.550  1.00  0.00    -0.000 C 
BRANCH  16  17
ATOM     17  C   UNL     1      18.176   5.998  36.027  1.00  0.00    -0.003 C 
ATOM     18  C   UNL     1      19.290   6.434  36.980  1.00  0.00     0.004 C 
ENDBRANCH  16  17
ENDBRANCH  15  16
ENDBRANCH  14  15
ENDBRANCH  13  14
ENDBRANCH  12  13
ENDBRANCH  11  12
ENDBRANCH   1  11
TORSDOF 14
ENDMDL
MODEL 6
REMARK VINA RESULT:    -4.290     16.856     18.726
REMARK INTER + INTRA:          -8.989
REMARK INTER:                  -6.660
REMARK INTRA:                  -2.329
REMARK UNBOUND:                -1.187
REMARK SMILES CCCCCCCCCCCCCCCC(=O)[O-]
REMARK SMILES IDX 9 1 10 2 11 3 12 4 13 5 14 6 15 7 16 8 17 9 18 10 8 11 7 12
REMARK SMILES IDX 6 13 5 14 4 15 3 16 2 17 1 18
REMARK H PARENT
REMARK Flexibility Score: inf
ROOT
ATOM      1  C   UNL     1      22.419  11.200  34.419  1.00  0.00     0.000 C 
ENDROOT
BRANCH   1   2
ATOM      2  C   UNL     1      21.970  10.378  35.641  1.00  0.00     0.000 C 
BRANCH   2   3
ATOM      3  C   UNL     1      20.981   9.233  35.338  1.00  0.00     0.000 C 
BRANCH   3   4
ATOM      4  C   UNL     1      19.849   9.055  36.366  1.00  0.00     0.000 C 
BRANCH   4   5
ATOM      5  C   UNL     1      19.413   7.597  36.605  1.00  0.00     0.000 C 
BRANCH   5   6
ATOM      6  C   UNL     1      19.930   6.611  35.536  1.00  0.00     0.006 C 
BRANCH   6   7
ATOM      7  C   UNL     1      18.902   6.354  34.427  1.00  0.00     0.053 C 
BRANCH   7   8
ATOM      8  C   UNL     1      19.569   6.351  33.087  1.00  0.00     0.041 C 
ATOM      9  O   UNL     1      18.936   6.720  32.064  1.00  0.00    -0.550 OA
ATOM     10  O   UNL     1      20.875   5.896  32.962  1.00  0.00    -0.550 OA
ENDBRANCH   7   8
ENDBRANCH   6   7
ENDBRANCH   5   6
ENDBRANCH   4   5
ENDBRANCH   3   4
ENDBRANCH   2   3
ENDBRANCH   1   2
BRANCH   1  11
ATOM     11  C   UNL     1      21.570  12.464  34.203  1.00  0.00     0.000 C 
BRANCH  11  12
ATOM     12  C   UNL     1      20.871  12.929  35.490  1.00  0.00    -0.000 C 
BRANCH  12  13
ATOM     13  C   UNL     1      19.400  13.322  35.258  1.00  0.00    -0.000 C 
BRANCH  13  14
ATOM     14  C   UNL     1      18.470  12.102  35.119  1.00  0.00    -0.000 C 
BRANCH  14  15
ATOM     15  C   UNL     1      17.978  11.819  33.688  1.00  0.00    -0.000 C 
BRANCH  15  16
ATOM     16  C   UNL     1      18.442  10.454  33.154  1.00  0.00    -0.000 C 
BRANCH  16  17
ATOM     17  C   UNL     1      19.090  10.556  31.765  1.00  0.00    -0.003 C 
ATOM     18  C   UNL     1      20.437   9.835  31.685  1.00  0.00     0.004 C 
ENDBRANCH  16  17
ENDBRANCH  15  16
ENDBRANCH  14  15
ENDBRANCH  13  14
ENDBRANCH  12  13
ENDBRANCH  11  12
ENDBRANCH   1  11
TORSDOF 14
ENDMDL
MODEL 7
REMARK VINA RESULT:    -4.268     17.281     19.496
REMARK INTER + INTRA:          -8.947
REMARK INTER:                  -6.801
REMARK INTRA:                  -2.146
REMARK UNBOUND:                -1.187
REMARK SMILES CCCCCCCCCCCCCCCC(=O)[O-]
REMARK SMILES IDX 9 1 10 2 11 3 12 4 13 5 14 6 15 7 16 8 17 9 18 10 8 11 7 12
REMARK SMILES IDX 6 13 5 14 4 15 3 16 2 17 1 18
REMARK H PARENT
REMARK Flexibility Score: inf
ROOT
ATOM      1  C   UNL     1      21.701  12.415  35.612  1.00  0.00     0.000 C 
ENDROOT
BRANCH   1   2
ATOM      2  C   UNL     1      20.548  13.384  35.289  1.00  0.00     0.000 C 
BRANCH   2   3
ATOM      3  C   UNL     1      19.180  13.004  35.893  1.00  0.00     0.000 C 
BRANCH   3   4
ATOM      4  C   UNL     1      18.016  12.944  34.888  1.00  0.00     0.000 C 
BRANCH   4   5
ATOM      5  C   UNL     1      18.221  11.967  33.714  1.00  0.00     0.000 C 
BRANCH   5   6
ATOM      6  C   UNL     1      18.371  12.663  32.345  1.00  0.00     0.006 C 
BRANCH   6   7
ATOM      7  C   UNL     1      19.760  12.459  31.729  1.00  0.00     0.053 C 
BRANCH   7   8
ATOM      8  C   UNL     1      20.409  13.778  31.453  1.00  0.00     0.041 C 
ATOM      9  O   UNL     1      19.873  14.593  30.657  1.00  0.00    -0.550 OA
ATOM     10  O   UNL     1      21.629  14.089  32.039  1.00  0.00    -0.550 OA
ENDBRANCH   7   8
ENDBRANCH   6   7
ENDBRANCH   5   6
ENDBRANCH   4   5
ENDBRANCH   3   4
ENDBRANCH   2   3
ENDBRANCH   1   2
BRANCH   1  11
ATOM     11  C   UNL     1      22.139  11.581  34.396  1.00  0.00     0.000 C 
BRANCH  11  12
ATOM     12  C   UNL     1      21.363  10.259  34.280  1.00  0.00    -0.000 C 
BRANCH  12  13
ATOM     13  C   UNL     1      21.240   9.522  35.626  1.00  0.00    -0.000 C 
BRANCH  13  14
ATOM     14  C   UNL     1      19.779   9.240  36.022  1.00  0.00    -0.000 C 
BRANCH  14  15
ATOM     15  C   UNL     1      19.495   7.796  36.474  1.00  0.00    -0.000 C 
BRANCH  15  16
ATOM     16  C   UNL     1      20.121   6.742  35.545  1.00  0.00    -0.000 C 
BRANCH  16  17
ATOM     17  C   UNL     1      19.344   6.583  34.229  1.00  0.00    -0.003 C 
ATOM     18  C   UNL     1      20.227   6.770  32.994  1.00  0.00     0.004 C 
ENDBRANCH  16  17
ENDBRANCH  15  16
ENDBRANCH  14  15
ENDBRANCH  13  14
ENDBRANCH  12  13
ENDBRANCH  11  12
ENDBRANCH   1  11
TORSDOF 14
ENDMDL
MODEL 8
REMARK VINA RESULT:    -4.222     16.820     18.884
REMARK INTER + INTRA:          -8.864
REMARK INTER:                  -6.263
REMARK INTRA:                  -2.601
REMARK UNBOUND:                -1.187
REMARK SMILES CCCCCCCCCCCCCCCC(=O)[O-]
REMARK SMILES IDX 9 1 10 2 11 3 12 4 13 5 14 6 15 7 16 8 17 9 18 10 8 11 7 12
REMARK SMILES IDX 6 13 5 14 4 15 3 16 2 17 1 18
REMARK H PARENT
REMARK Flexibility Score: inf
ROOT
ATOM      1  C   UNL     1      20.767  13.265  34.872  1.00  0.00     0.000 C 
ENDROOT
BRANCH   1   2
ATOM      2  C   UNL     1      21.792  12.390  35.619  1.00  0.00     0.000 C 
BRANCH   2   3
ATOM      3  C   UNL     1      22.203  11.092  34.892  1.00  0.00     0.000 C 
BRANCH   3   4
ATOM      4  C   UNL     1      21.798   9.788  35.603  1.00  0.00     0.000 C 
BRANCH   4   5
ATOM      5  C   UNL     1      20.310   9.698  35.994  1.00  0.00     0.000 C 
BRANCH   5   6
ATOM      6  C   UNL     1      19.574   8.497  35.364  1.00  0.00     0.006 C 
BRANCH   6   7
ATOM      7  C   UNL     1      20.530   7.372  34.947  1.00  0.00     0.053 C 
BRANCH   7   8
ATOM      8  C   UNL     1      20.108   6.786  33.637  1.00  0.00     0.041 C 
ATOM      9  O   UNL     1      18.998   7.096  33.132  1.00  0.00    -0.550 OA
ATOM     10  O   UNL     1      20.921   5.859  32.996  1.00  0.00    -0.550 OA
ENDBRANCH   7   8
ENDBRANCH   6   7
ENDBRANCH   5   6
ENDBRANCH   4   5
ENDBRANCH   3   4
ENDBRANCH   2   3
ENDBRANCH   1   2
BRANCH   1  11
ATOM     11  C   UNL     1      19.430  13.390  35.620  1.00  0.00     0.000 C 
BRANCH  11  12
ATOM     12  C   UNL     1      18.339  12.480  35.032  1.00  0.00    -0.000 C 
BRANCH  12  13
ATOM     13  C   UNL     1      18.470  12.306  33.508  1.00  0.00    -0.000 C 
BRANCH  13  14
ATOM     14  C   UNL     1      18.096  10.889  33.034  1.00  0.00    -0.000 C 
BRANCH  14  15
ATOM     15  C   UNL     1      18.865  10.394  31.795  1.00  0.00    -0.000 C 
BRANCH  15  16
ATOM     16  C   UNL     1      20.369  10.212  32.056  1.00  0.00    -0.000 C 
BRANCH  16  17
ATOM     17  C   UNL     1      21.238  10.921  31.007  1.00  0.00    -0.003 C 
ATOM     18  C   UNL     1      21.612  12.348  31.412  1.00  0.00     0.004 C 
ENDBRANCH  16  17
ENDBRANCH  15  16
ENDBRANCH  14  15
ENDBRANCH  13  14
ENDBRANCH  12  13
ENDBRANCH  11  12
ENDBRANCH   1  11
TORSDOF 14
ENDMDL
