MODEL 1
REMARK VINA RESULT:    -4.437      0.000      0.000
REMARK INTER + INTRA:          -5.910
REMARK INTER:                  -5.734
REMARK INTRA:                  -0.176
REMARK UNBOUND:                -0.176
REMARK SMILES C=CC(=O)CCCCC
REMARK SMILES IDX 6 1 7 2 8 3 9 4 5 5 3 6 4 7 2 8 1 9
REMARK H PARENT
REMARK Flexibility Score: inf
ROOT
ATOM      1  C   UNL     1     -13.413 -33.083  29.284  1.00  0.00     0.008 C 
ENDROOT
BRANCH   1   2
ATOM      2  C   UNL     1     -13.788 -33.292  30.763  1.00  0.00     0.000 C 
BRANCH   2   3
ATOM      3  C   UNL     1     -14.844 -32.288  31.249  1.00  0.00    -0.003 C 
ATOM      4  C   UNL     1     -15.314 -32.570  32.676  1.00  0.00     0.004 C 
ENDBRANCH   2   3
ENDBRANCH   1   2
BRANCH   1   5
ATOM      5  C   UNL     1     -11.890 -33.087  29.068  1.00  0.00     0.080 C 
BRANCH   5   6
ATOM      6  C   UNL     1     -11.359 -34.385  28.502  1.00  0.00     0.155 C 
ATOM      7  O   UNL     1     -10.443 -35.005  29.109  1.00  0.00    -0.295 OA
BRANCH   6   8
ATOM      8  C   UNL     1     -11.918 -34.997  27.279  1.00  0.00     0.039 C 
ATOM      9  C   UNL     1     -11.555 -34.647  26.045  1.00  0.00     0.012 C 
ENDBRANCH   6   8
ENDBRANCH   5   6
ENDBRANCH   1   5
TORSDOF 5
ENDMDL
MODEL 2
REMARK VINA RESULT:    -4.423      1.866      2.049
REMARK INTER + INTRA:          -5.891
REMARK INTER:                  -5.645
REMARK INTRA:                  -0.246
REMARK UNBOUND:                -0.176
REMARK SMILES C=CC(=O)CCCCC
REMARK SMILES IDX 6 1 7 2 8 3 9 4 5 5 3 6 4 7 2 8 1 9
REMARK H PARENT
REMARK Flexibility Score: inf
ROOT
ATOM      1  C   UNL     1     -12.450 -33.445  29.721  1.00  0.00     0.008 C 
ENDROOT
BRANCH   1   2
ATOM      2  C   UNL     1     -13.289 -34.272  30.712  1.00  0.00     0.000 C 
BRANCH   2   3
ATOM      3  C   UNL     1     -13.592 -33.506  32.009  1.00  0.00    -0.003 C 
ATOM      4  C   UNL     1     -14.856 -32.652  31.908  1.00  0.00     0.004 C 
ENDBRANCH   2   3
ENDBRANCH   1   2
BRANCH   1   5
ATOM      5  C   UNL     1     -13.298 -32.904  28.557  1.00  0.00     0.080 C 
BRANCH   5   6
ATOM      6  C   UNL     1     -13.304 -33.802  27.340  1.00  0.00     0.155 C 
ATOM      7  O   UNL     1     -14.204 -33.668  26.467  1.00  0.00    -0.295 OA
BRANCH   6   8
ATOM      8  C   UNL     1     -12.249 -34.808  27.099  1.00  0.00     0.039 C 
ATOM      9  C   UNL     1     -11.424 -34.777  26.052  1.00  0.00     0.012 C 
ENDBRANCH   6   8
ENDBRANCH   5   6
ENDBRANCH   1   5
TORSDOF 5
ENDMDL
MODEL 3
REMARK VINA RESULT:    -4.357      1.691      5.047
REMARK INTER + INTRA:          -5.807
REMARK INTER:                  -5.599
REMARK INTRA:                  -0.208
REMARK UNBOUND:                -0.176
REMARK SMILES C=CC(=O)CCCCC
REMARK SMILES IDX 6 1 7 2 8 3 9 4 5 5 3 6 4 7 2 8 1 9
REMARK H PARENT
REMARK Flexibility Score: inf
ROOT
ATOM      1  C   UNL     1     -13.374 -32.849  28.914  1.00  0.00     0.008 C 
ENDROOT
BRANCH   1   2
ATOM      2  C   UNL     1     -13.467 -33.495  27.520  1.00  0.00     0.000 C 
BRANCH   2   3
ATOM      3  C   UNL     1     -12.584 -34.745  27.391  1.00  0.00    -0.003 C 
ATOM      4  C   UNL     1     -11.670 -34.698  26.166  1.00  0.00     0.004 C 
ENDBRANCH   2   3
ENDBRANCH   1   2
BRANCH   1   5
ATOM      5  C   UNL     1     -13.093 -33.887  30.014  1.00  0.00     0.080 C 
BRANCH   5   6
ATOM      6  C   UNL     1     -13.657 -33.511  31.365  1.00  0.00     0.155 C 
ATOM      7  O   UNL     1     -13.129 -33.970  32.415  1.00  0.00    -0.295 OA
BRANCH   6   8
ATOM      8  C   UNL     1     -14.782 -32.565  31.512  1.00  0.00     0.039 C 
ATOM      9  C   UNL     1     -15.519 -32.459  32.618  1.00  0.00     0.012 C 
ENDBRANCH   6   8
ENDBRANCH   5   6
ENDBRANCH   1   5
TORSDOF 5
ENDMDL
MODEL 4
REMARK VINA RESULT:    -4.355      2.915      3.581
REMARK INTER + INTRA:          -5.804
REMARK INTER:                  -5.526
REMARK INTRA:                  -0.277
REMARK UNBOUND:                -0.176
REMARK SMILES C=CC(=O)CCCCC
REMARK SMILES IDX 6 1 7 2 8 3 9 4 5 5 3 6 4 7 2 8 1 9
REMARK H PARENT
REMARK Flexibility Score: inf
ROOT
ATOM      1  C   UNL     1     -13.670 -36.391  28.626  1.00  0.00     0.008 C 
ENDROOT
BRANCH   1   2
ATOM      2  C   UNL     1     -13.189 -37.594  29.456  1.00  0.00     0.000 C 
BRANCH   2   3
ATOM      3  C   UNL     1     -13.419 -37.399  30.962  1.00  0.00    -0.003 C 
ATOM      4  C   UNL     1     -12.495 -38.266  31.818  1.00  0.00     0.004 C 
ENDBRANCH   2   3
ENDBRANCH   1   2
BRANCH   1   5
ATOM      5  C   UNL     1     -13.255 -35.051  29.257  1.00  0.00     0.080 C 
BRANCH   5   6
ATOM      6  C   UNL     1     -12.302 -34.245  28.403  1.00  0.00     0.155 C 
ATOM      7  O   UNL     1     -12.151 -33.012  28.624  1.00  0.00    -0.295 OA
BRANCH   6   8
ATOM      8  C   UNL     1     -11.483 -34.863  27.340  1.00  0.00     0.039 C 
ATOM      9  C   UNL     1     -11.657 -34.626  26.040  1.00  0.00     0.012 C 
ENDBRANCH   6   8
ENDBRANCH   5   6
ENDBRANCH   1   5
TORSDOF 5
ENDMDL
MODEL 5
REMARK VINA RESULT:    -4.339      2.863      3.820
REMARK INTER + INTRA:          -5.784
REMARK INTER:                  -5.331
REMARK INTRA:                  -0.453
REMARK UNBOUND:                -0.176
REMARK SMILES C=CC(=O)CCCCC
REMARK SMILES IDX 6 1 7 2 8 3 9 4 5 5 3 6 4 7 2 8 1 9
REMARK H PARENT
REMARK Flexibility Score: inf
ROOT
ATOM      1  C   UNL     1     -12.661 -34.632  31.285  1.00  0.00     0.008 C 
ENDROOT
BRANCH   1   2
ATOM      2  C   UNL     1     -13.636 -33.608  30.678  1.00  0.00     0.000 C 
BRANCH   2   3
ATOM      3  C   UNL     1     -13.244 -33.195  29.252  1.00  0.00    -0.003 C 
ATOM      4  C   UNL     1     -11.756 -33.400  28.967  1.00  0.00     0.004 C 
ENDBRANCH   2   3
ENDBRANCH   1   2
BRANCH   1   5
ATOM      5  C   UNL     1     -13.385 -35.892  31.788  1.00  0.00     0.080 C 
BRANCH   5   6
ATOM      6  C   UNL     1     -13.047 -37.142  31.006  1.00  0.00     0.155 C 
ATOM      7  O   UNL     1     -12.824 -38.223  31.617  1.00  0.00    -0.295 OA
BRANCH   6   8
ATOM      8  C   UNL     1     -13.023 -37.163  29.529  1.00  0.00     0.039 C 
ATOM      9  C   UNL     1     -14.046 -37.574  28.779  1.00  0.00     0.012 C 
ENDBRANCH   6   8
ENDBRANCH   5   6
ENDBRANCH   1   5
TORSDOF 5
ENDMDL
MODEL 6
REMARK VINA RESULT:    -4.296      2.233      4.739
REMARK INTER + INTRA:          -5.728
REMARK INTER:                  -5.458
REMARK INTRA:                  -0.270
REMARK UNBOUND:                -0.176
REMARK SMILES C=CC(=O)CCCCC
REMARK SMILES IDX 6 1 7 2 8 3 9 4 5 5 3 6 4 7 2 8 1 9
REMARK H PARENT
REMARK Flexibility Score: inf
ROOT
ATOM      1  C   UNL     1     -13.270 -32.941  28.740  1.00  0.00     0.008 C 
ENDROOT
BRANCH   1   2
ATOM      2  C   UNL     1     -13.308 -33.931  27.562  1.00  0.00     0.000 C 
BRANCH   2   3
ATOM      3  C   UNL     1     -11.992 -34.708  27.404  1.00  0.00    -0.003 C 
ATOM      4  C   UNL     1     -11.491 -34.733  25.960  1.00  0.00     0.004 C 
ENDBRANCH   2   3
ENDBRANCH   1   2
BRANCH   1   5
ATOM      5  C   UNL     1     -12.564 -33.534  29.971  1.00  0.00     0.080 C 
BRANCH   5   6
ATOM      6  C   UNL     1     -13.496 -33.829  31.124  1.00  0.00     0.155 C 
ATOM      7  O   UNL     1     -14.471 -33.062  31.354  1.00  0.00    -0.295 OA
BRANCH   6   8
ATOM      8  C   UNL     1     -13.345 -35.030  31.971  1.00  0.00     0.039 C 
ATOM      9  C   UNL     1     -13.319 -36.274  31.493  1.00  0.00     0.012 C 
ENDBRANCH   6   8
ENDBRANCH   5   6
ENDBRANCH   1   5
TORSDOF 5
ENDMDL
MODEL 7
REMARK VINA RESULT:    -4.261      2.353      3.924
REMARK INTER + INTRA:          -5.682
REMARK INTER:                  -5.181
REMARK INTRA:                  -0.501
REMARK UNBOUND:                -0.176
REMARK SMILES C=CC(=O)CCCCC
REMARK SMILES IDX 6 1 7 2 8 3 9 4 5 5 3 6 4 7 2 8 1 9
REMARK H PARENT
REMARK Flexibility Score: inf
ROOT
ATOM      1  C   UNL     1     -12.201 -33.978  29.644  1.00  0.00     0.008 C 
ENDROOT
BRANCH   1   2
ATOM      2  C   UNL     1     -12.951 -33.241  28.521  1.00  0.00     0.000 C 
BRANCH   2   3
ATOM      3  C   UNL     1     -13.159 -34.119  27.277  1.00  0.00    -0.003 C 
ATOM      4  C   UNL     1     -11.843 -34.622  26.684  1.00  0.00     0.004 C 
ENDBRANCH   2   3
ENDBRANCH   1   2
BRANCH   1   5
ATOM      5  C   UNL     1     -13.055 -35.091  30.276  1.00  0.00     0.080 C 
BRANCH   5   6
ATOM      6  C   UNL     1     -12.455 -36.472  30.135  1.00  0.00     0.155 C 
ATOM      7  O   UNL     1     -11.270 -36.683  30.511  1.00  0.00    -0.295 OA
BRANCH   6   8
ATOM      8  C   UNL     1     -13.233 -37.619  29.621  1.00  0.00     0.039 C 
ATOM      9  C   UNL     1     -14.143 -37.520  28.651  1.00  0.00     0.012 C 
ENDBRANCH   6   8
ENDBRANCH   5   6
ENDBRANCH   1   5
TORSDOF 5
ENDMDL
MODEL 8
REMARK VINA RESULT:    -4.261      3.122      4.501
REMARK INTER + INTRA:          -5.682
REMARK INTER:                  -5.129
REMARK INTRA:                  -0.553
REMARK UNBOUND:                -0.176
REMARK SMILES C=CC(=O)CCCCC
REMARK SMILES IDX 6 1 7 2 8 3 9 4 5 5 3 6 4 7 2 8 1 9
REMARK H PARENT
REMARK Flexibility Score: inf
ROOT
ATOM      1  C   UNL     1     -12.567 -36.242  31.573  1.00  0.00     0.008 C 
ENDROOT
BRANCH   1   2
ATOM      2  C   UNL     1     -13.278 -37.447  30.933  1.00  0.00     0.000 C 
BRANCH   2   3
ATOM      3  C   UNL     1     -13.027 -37.544  29.420  1.00  0.00    -0.003 C 
ATOM      4  C   UNL     1     -14.321 -37.528  28.605  1.00  0.00     0.004 C 
ENDBRANCH   2   3
ENDBRANCH   1   2
BRANCH   1   5
ATOM      5  C   UNL     1     -13.561 -35.162  32.033  1.00  0.00     0.080 C 
BRANCH   5   6
ATOM      6  C   UNL     1     -13.600 -33.947  31.133  1.00  0.00     0.155 C 
ATOM      7  O   UNL     1     -14.403 -33.007  31.384  1.00  0.00    -0.295 OA
BRANCH   6   8
ATOM      8  C   UNL     1     -12.683 -33.788  29.986  1.00  0.00     0.039 C 
ATOM      9  C   UNL     1     -13.080 -33.808  28.713  1.00  0.00     0.012 C 
ENDBRANCH   6   8
ENDBRANCH   5   6
ENDBRANCH   1   5
TORSDOF 5
ENDMDL
MODEL 9
REMARK VINA RESULT:    -4.246      3.048      3.644
REMARK INTER + INTRA:          -5.663
REMARK INTER:                  -5.137
REMARK INTRA:                  -0.525
REMARK UNBOUND:                -0.176
REMARK SMILES C=CC(=O)CCCCC
REMARK SMILES IDX 6 1 7 2 8 3 9 4 5 5 3 6 4 7 2 8 1 9
REMARK H PARENT
REMARK Flexibility Score: inf
ROOT
ATOM      1  C   UNL     1     -13.260 -34.681  28.712  1.00  0.00     0.008 C 
ENDROOT
BRANCH   1   2
ATOM      2  C   UNL     1     -12.880 -33.588  29.727  1.00  0.00     0.000 C 
BRANCH   2   3
ATOM      3  C   UNL     1     -13.767 -33.616  30.981  1.00  0.00    -0.003 C 
ATOM      4  C   UNL     1     -12.976 -33.907  32.256  1.00  0.00     0.004 C 
ENDBRANCH   2   3
ENDBRANCH   1   2
BRANCH   1   5
ATOM      5  C   UNL     1     -12.505 -35.996  28.970  1.00  0.00     0.080 C 
BRANCH   5   6
ATOM      6  C   UNL     1     -13.395 -37.131  29.426  1.00  0.00     0.155 C 
ATOM      7  O   UNL     1     -14.165 -37.694  28.601  1.00  0.00    -0.295 OA
BRANCH   6   8
ATOM      8  C   UNL     1     -13.357 -37.653  30.807  1.00  0.00     0.039 C 
ATOM      9  C   UNL     1     -12.298 -37.548  31.609  1.00  0.00     0.012 C 
ENDBRANCH   6   8
ENDBRANCH   5   6
ENDBRANCH   1   5
TORSDOF 5
ENDMDL
