MODEL 1
REMARK VINA RESULT:    -2.191      0.000      0.000
REMARK INTER + INTRA:          -2.191
REMARK INTER:                  -2.191
REMARK INTRA:                   0.000
REMARK UNBOUND:                 0.000
REMARK SMILES CC(=O)[O-]
REMARK SMILES IDX 1 1 2 2 3 3 4 4
REMARK H PARENT
REMARK Flexibility Score: inf
ROOT
ATOM      1  C   UNL     1     -20.124   0.111 -24.220  1.00  0.00     0.063 C 
ATOM      2  C   UNL     1     -19.676  -1.181 -24.816  1.00  0.00     0.038 C 
ATOM      3  O   UNL     1     -20.124  -1.550 -25.933  1.00  0.00    -0.550 OA
ATOM      4  O   UNL     1     -18.805  -2.006 -24.116  1.00  0.00    -0.550 OA
ENDROOT
TORSDOF 0
ENDMDL
MODEL 2
REMARK VINA RESULT:    -2.150      1.424      1.884
REMARK INTER + INTRA:          -2.150
REMARK INTER:                  -2.150
REMARK INTRA:                   0.000
REMARK UNBOUND:                 0.000
REMARK SMILES CC(=O)[O-]
REMARK SMILES IDX 1 1 2 2 3 3 4 4
REMARK H PARENT
REMARK Flexibility Score: inf
ROOT
ATOM      1  C   UNL     1     -18.743  -1.537 -23.504  1.00  0.00     0.063 C 
ATOM      2  C   UNL     1     -19.603  -0.972 -24.583  1.00  0.00     0.038 C 
ATOM      3  O   UNL     1     -20.097   0.179 -24.460  1.00  0.00    -0.550 OA
ATOM      4  O   UNL     1     -19.905  -1.735 -25.704  1.00  0.00    -0.550 OA
ENDROOT
TORSDOF 0
ENDMDL
MODEL 3
REMARK VINA RESULT:    -2.078      1.402      1.728
REMARK INTER + INTRA:          -2.078
REMARK INTER:                  -2.078
REMARK INTRA:                   0.000
REMARK UNBOUND:                 0.000
REMARK SMILES CC(=O)[O-]
REMARK SMILES IDX 1 1 2 2 3 3 4 4
REMARK H PARENT
REMARK Flexibility Score: inf
ROOT
ATOM      1  C   UNL     1     -20.125  -1.625 -25.776  1.00  0.00     0.063 C 
ATOM      2  C   UNL     1     -19.713  -0.938 -24.518  1.00  0.00     0.038 C 
ATOM      3  O   UNL     1     -20.020   0.268 -24.327  1.00  0.00    -0.550 OA
ATOM      4  O   UNL     1     -18.942  -1.609 -23.578  1.00  0.00    -0.550 OA
ENDROOT
TORSDOF 0
ENDMDL
MODEL 4
REMARK VINA RESULT:    -2.035     18.299     18.933
REMARK INTER + INTRA:          -2.035
REMARK INTER:                  -2.035
REMARK INTRA:                   0.000
REMARK UNBOUND:                 0.000
REMARK SMILES CC(=O)[O-]
REMARK SMILES IDX 1 1 2 2 3 3 4 4
REMARK H PARENT
REMARK Flexibility Score: inf
ROOT
ATOM      1  C   UNL     1      -6.115  -8.897 -14.491  1.00  0.00     0.063 C 
ATOM      2  C   UNL     1      -5.024  -8.182 -15.212  1.00  0.00     0.038 C 
ATOM      3  O   UNL     1      -3.827  -8.323 -14.847  1.00  0.00    -0.550 OA
ATOM      4  O   UNL     1      -5.329  -7.315 -16.254  1.00  0.00    -0.550 OA
ENDROOT
TORSDOF 0
ENDMDL
MODEL 5
REMARK VINA RESULT:    -2.023      2.775      3.269
REMARK INTER + INTRA:          -2.023
REMARK INTER:                  -2.023
REMARK INTRA:                   0.000
REMARK UNBOUND:                 0.000
REMARK SMILES CC(=O)[O-]
REMARK SMILES IDX 1 1 2 2 3 3 4 4
REMARK H PARENT
REMARK Flexibility Score: inf
ROOT
ATOM      1  C   UNL     1     -18.926  -1.161 -23.755  1.00  0.00     0.063 C 
ATOM      2  C   UNL     1     -17.636  -0.696 -23.171  1.00  0.00     0.038 C 
ATOM      3  O   UNL     1     -17.073  -1.368 -22.267  1.00  0.00    -0.550 OA
ATOM      4  O   UNL     1     -17.078   0.508 -23.583  1.00  0.00    -0.550 OA
ENDROOT
TORSDOF 0
ENDMDL
MODEL 6
REMARK VINA RESULT:    -1.995     17.709     18.154
REMARK INTER + INTRA:          -1.995
REMARK INTER:                  -1.995
REMARK INTRA:                   0.000
REMARK UNBOUND:                 0.000
REMARK SMILES CC(=O)[O-]
REMARK SMILES IDX 1 1 2 2 3 3 4 4
REMARK H PARENT
REMARK Flexibility Score: inf
ROOT
ATOM      1  C   UNL     1      -2.514  -2.756 -23.512  1.00  0.00     0.063 C 
ATOM      2  C   UNL     1      -1.604  -2.440 -24.650  1.00  0.00     0.038 C 
ATOM      3  O   UNL     1      -2.052  -1.865 -25.676  1.00  0.00    -0.550 OA
ATOM      4  O   UNL     1      -0.271  -2.828 -24.605  1.00  0.00    -0.550 OA
ENDROOT
TORSDOF 0
ENDMDL
MODEL 7
REMARK VINA RESULT:    -1.994     18.305     18.457
REMARK INTER + INTRA:          -1.994
REMARK INTER:                  -1.994
REMARK INTRA:                   0.000
REMARK UNBOUND:                 0.000
REMARK SMILES CC(=O)[O-]
REMARK SMILES IDX 1 1 2 2 3 3 4 4
REMARK H PARENT
REMARK Flexibility Score: inf
ROOT
ATOM      1  C   UNL     1      -5.574  -8.387 -14.810  1.00  0.00     0.063 C 
ATOM      2  C   UNL     1      -6.436  -9.543 -15.192  1.00  0.00     0.038 C 
ATOM      3  O   UNL     1      -7.465  -9.813 -14.519  1.00  0.00    -0.550 OA
ATOM      4  O   UNL     1      -6.076 -10.359 -16.257  1.00  0.00    -0.550 OA
ENDROOT
TORSDOF 0
ENDMDL
MODEL 8
REMARK VINA RESULT:    -1.983     18.032     18.712
REMARK INTER + INTRA:          -1.983
REMARK INTER:                  -1.983
REMARK INTRA:                   0.000
REMARK UNBOUND:                 0.000
REMARK SMILES CC(=O)[O-]
REMARK SMILES IDX 1 1 2 2 3 3 4 4
REMARK H PARENT
REMARK Flexibility Score: inf
ROOT
ATOM      1  C   UNL     1      -4.849  -7.171 -16.730  1.00  0.00     0.063 C 
ATOM      2  C   UNL     1      -5.004  -8.035 -15.525  1.00  0.00     0.038 C 
ATOM      3  O   UNL     1      -4.000  -8.327 -14.823  1.00  0.00    -0.550 OA
ATOM      4  O   UNL     1      -6.247  -8.567 -15.204  1.00  0.00    -0.550 OA
ENDROOT
TORSDOF 0
ENDMDL
MODEL 9
REMARK VINA RESULT:    -1.980      2.850      3.298
REMARK INTER + INTRA:          -1.980
REMARK INTER:                  -1.980
REMARK INTRA:                   0.000
REMARK UNBOUND:                 0.000
REMARK SMILES CC(=O)[O-]
REMARK SMILES IDX 1 1 2 2 3 3 4 4
REMARK H PARENT
REMARK Flexibility Score: inf
ROOT
ATOM      1  C   UNL     1     -17.160  -1.338 -21.622  1.00  0.00     0.063 C 
ATOM      2  C   UNL     1     -17.591  -0.916 -22.985  1.00  0.00     0.038 C 
ATOM      3  O   UNL     1     -17.147   0.150 -23.487  1.00  0.00    -0.550 OA
ATOM      4  O   UNL     1     -18.527  -1.669 -23.684  1.00  0.00    -0.550 OA
ENDROOT
TORSDOF 0
ENDMDL
