MODEL 1
REMARK VINA RESULT:    -4.558      0.000      0.000
REMARK INTER + INTRA:          -4.844
REMARK INTER:                  -4.825
REMARK INTRA:                  -0.019
REMARK UNBOUND:                -0.019
REMARK SMILES O=C([O-])c1cccnc1
REMARK SMILES IDX 4 1 5 2 9 3 6 4 8 5 7 6 2 7 1 8 3 9
REMARK H PARENT
REMARK Flexibility Score: inf
ROOT
ATOM      1  C   UNL     1      -5.630   3.723  -4.723  1.00  0.00     0.016 A 
ATOM      2  C   UNL     1      -5.293   4.929  -5.359  1.00  0.00     0.013 A 
ATOM      3  C   UNL     1      -6.349   3.782  -3.517  1.00  0.00     0.120 A 
ATOM      4  C   UNL     1      -5.669   6.149  -4.795  1.00  0.00     0.021 A 
ATOM      5  N   UNL     1      -6.703   4.984  -2.989  1.00  0.00    -0.264 NA
ATOM      6  C   UNL     1      -6.382   6.156  -3.595  1.00  0.00     0.111 A 
ENDROOT
BRANCH   1   7
ATOM      7  C   UNL     1      -5.240   2.421  -5.306  1.00  0.00     0.073 C 
ATOM      8  O   UNL     1      -6.067   1.472  -5.366  1.00  0.00    -0.545 OA
ATOM      9  O   UNL     1      -3.953   2.224  -5.794  1.00  0.00    -0.545 OA
ENDBRANCH   1   7
TORSDOF 1
ENDMDL
MODEL 2
REMARK VINA RESULT:    -4.508      2.850      3.563
REMARK INTER + INTRA:          -4.791
REMARK INTER:                  -4.774
REMARK INTRA:                  -0.016
REMARK UNBOUND:                -0.019
REMARK SMILES O=C([O-])c1cccnc1
REMARK SMILES IDX 4 1 5 2 9 3 6 4 8 5 7 6 2 7 1 8 3 9
REMARK H PARENT
REMARK Flexibility Score: inf
ROOT
ATOM      1  C   UNL     1      -6.367   3.553  -4.110  1.00  0.00     0.016 A 
ATOM      2  C   UNL     1      -5.863   4.506  -5.011  1.00  0.00     0.013 A 
ATOM      3  C   UNL     1      -6.028   2.203  -4.307  1.00  0.00     0.120 A 
ATOM      4  C   UNL     1      -5.048   4.107  -6.071  1.00  0.00     0.021 A 
ATOM      5  N   UNL     1      -5.232   1.841  -5.348  1.00  0.00    -0.264 NA
ATOM      6  C   UNL     1      -4.740   2.754  -6.225  1.00  0.00     0.111 A 
ENDROOT
BRANCH   1   7
ATOM      7  C   UNL     1      -7.232   3.956  -2.981  1.00  0.00     0.073 C 
ATOM      8  O   UNL     1      -6.734   4.460  -1.940  1.00  0.00    -0.545 OA
ATOM      9  O   UNL     1      -8.610   3.783  -3.053  1.00  0.00    -0.545 OA
ENDBRANCH   1   7
TORSDOF 1
ENDMDL
MODEL 3
REMARK VINA RESULT:    -4.469      1.824      2.802
REMARK INTER + INTRA:          -4.750
REMARK INTER:                  -4.734
REMARK INTRA:                  -0.016
REMARK UNBOUND:                -0.019
REMARK SMILES O=C([O-])c1cccnc1
REMARK SMILES IDX 4 1 5 2 9 3 6 4 8 5 7 6 2 7 1 8 3 9
REMARK H PARENT
REMARK Flexibility Score: inf
ROOT
ATOM      1  C   UNL     1      -6.159   2.796  -5.123  1.00  0.00     0.016 A 
ATOM      2  C   UNL     1      -7.166   1.884  -5.480  1.00  0.00     0.013 A 
ATOM      3  C   UNL     1      -6.340   3.570  -3.963  1.00  0.00     0.120 A 
ATOM      4  C   UNL     1      -8.312   1.760  -4.694  1.00  0.00     0.021 A 
ATOM      5  N   UNL     1      -7.467   3.430  -3.215  1.00  0.00    -0.264 NA
ATOM      6  C   UNL     1      -8.446   2.551  -3.552  1.00  0.00     0.111 A 
ENDROOT
BRANCH   1   7
ATOM      7  C   UNL     1      -4.937   2.941  -5.943  1.00  0.00     0.073 C 
ATOM      8  O   UNL     1      -4.904   3.753  -6.906  1.00  0.00    -0.545 OA
ATOM      9  O   UNL     1      -3.806   2.183  -5.662  1.00  0.00    -0.545 OA
ENDBRANCH   1   7
TORSDOF 1
ENDMDL
MODEL 4
REMARK VINA RESULT:    -4.412      2.802      3.876
REMARK INTER + INTRA:          -4.689
REMARK INTER:                  -4.672
REMARK INTRA:                  -0.017
REMARK UNBOUND:                -0.019
REMARK SMILES O=C([O-])c1cccnc1
REMARK SMILES IDX 4 1 5 2 9 3 6 4 8 5 7 6 2 7 1 8 3 9
REMARK H PARENT
REMARK Flexibility Score: inf
ROOT
ATOM      1  C   UNL     1      -6.522   3.697  -4.057  1.00  0.00     0.016 A 
ATOM      2  C   UNL     1      -6.594   2.339  -4.412  1.00  0.00     0.013 A 
ATOM      3  C   UNL     1      -5.684   4.540  -4.809  1.00  0.00     0.120 A 
ATOM      4  C   UNL     1      -5.846   1.853  -5.485  1.00  0.00     0.021 A 
ATOM      5  N   UNL     1      -4.966   4.041  -5.850  1.00  0.00    -0.264 NA
ATOM      6  C   UNL     1      -5.028   2.730  -6.200  1.00  0.00     0.111 A 
ENDROOT
BRANCH   1   7
ATOM      7  C   UNL     1      -7.307   4.230  -2.923  1.00  0.00     0.073 C 
ATOM      8  O   UNL     1      -6.728   4.740  -1.927  1.00  0.00    -0.545 OA
ATOM      9  O   UNL     1      -8.696   4.176  -2.941  1.00  0.00    -0.545 OA
ENDBRANCH   1   7
TORSDOF 1
ENDMDL
MODEL 5
REMARK VINA RESULT:    -4.386      0.950      1.912
REMARK INTER + INTRA:          -4.661
REMARK INTER:                  -4.638
REMARK INTRA:                  -0.023
REMARK UNBOUND:                -0.019
REMARK SMILES O=C([O-])c1cccnc1
REMARK SMILES IDX 4 1 5 2 9 3 6 4 8 5 7 6 2 7 1 8 3 9
REMARK H PARENT
REMARK Flexibility Score: inf
ROOT
ATOM      1  C   UNL     1      -5.815   3.698  -4.668  1.00  0.00     0.016 A 
ATOM      2  C   UNL     1      -6.651   3.460  -3.564  1.00  0.00     0.013 A 
ATOM      3  C   UNL     1      -5.564   5.030  -5.041  1.00  0.00     0.120 A 
ATOM      4  C   UNL     1      -7.211   4.530  -2.865  1.00  0.00     0.021 A 
ATOM      5  N   UNL     1      -6.123   6.054  -4.343  1.00  0.00    -0.264 NA
ATOM      6  C   UNL     1      -6.932   5.835  -3.275  1.00  0.00     0.111 A 
ENDROOT
BRANCH   1   7
ATOM      7  C   UNL     1      -5.211   2.578  -5.421  1.00  0.00     0.073 C 
ATOM      8  O   UNL     1      -4.620   2.785  -6.514  1.00  0.00    -0.545 OA
ATOM      9  O   UNL     1      -5.289   1.278  -4.933  1.00  0.00    -0.545 OA
ENDBRANCH   1   7
TORSDOF 1
ENDMDL
MODEL 6
REMARK VINA RESULT:    -4.379      3.099      3.957
REMARK INTER + INTRA:          -4.654
REMARK INTER:                  -4.631
REMARK INTRA:                  -0.023
REMARK UNBOUND:                -0.019
REMARK SMILES O=C([O-])c1cccnc1
REMARK SMILES IDX 4 1 5 2 9 3 6 4 8 5 7 6 2 7 1 8 3 9
REMARK H PARENT
REMARK Flexibility Score: inf
ROOT
ATOM      1  C   UNL     1      -7.271   2.598  -4.377  1.00  0.00     0.016 A 
ATOM      2  C   UNL     1      -8.385   2.795  -3.543  1.00  0.00     0.013 A 
ATOM      3  C   UNL     1      -7.425   1.792  -5.518  1.00  0.00     0.120 A 
ATOM      4  C   UNL     1      -9.608   2.198  -3.854  1.00  0.00     0.021 A 
ATOM      5  N   UNL     1      -8.628   1.222  -5.798  1.00  0.00    -0.264 NA
ATOM      6  C   UNL     1      -9.710   1.406  -4.999  1.00  0.00     0.111 A 
ENDROOT
BRANCH   1   7
ATOM      7  C   UNL     1      -5.967   3.221  -4.065  1.00  0.00     0.073 C 
ATOM      8  O   UNL     1      -5.903   4.228  -3.310  1.00  0.00    -0.545 OA
ATOM      9  O   UNL     1      -4.793   2.704  -4.601  1.00  0.00    -0.545 OA
ENDBRANCH   1   7
TORSDOF 1
ENDMDL
MODEL 7
REMARK VINA RESULT:    -4.236      2.789      3.580
REMARK INTER + INTRA:          -4.503
REMARK INTER:                  -4.484
REMARK INTRA:                  -0.019
REMARK UNBOUND:                -0.019
REMARK SMILES O=C([O-])c1cccnc1
REMARK SMILES IDX 4 1 5 2 9 3 6 4 8 5 7 6 2 7 1 8 3 9
REMARK H PARENT
REMARK Flexibility Score: inf
ROOT
ATOM      1  C   UNL     1      -6.117   4.588  -4.527  1.00  0.00     0.016 A 
ATOM      2  C   UNL     1      -5.277   4.511  -5.652  1.00  0.00     0.013 A 
ATOM      3  C   UNL     1      -6.677   3.398  -4.031  1.00  0.00     0.120 A 
ATOM      4  C   UNL     1      -5.016   3.278  -6.250  1.00  0.00     0.021 A 
ATOM      5  N   UNL     1      -6.407   2.209  -4.633  1.00  0.00    -0.264 NA
ATOM      6  C   UNL     1      -5.597   2.125  -5.720  1.00  0.00     0.111 A 
ENDROOT
BRANCH   1   7
ATOM      7  C   UNL     1      -6.405   5.885  -3.879  1.00  0.00     0.073 C 
ATOM      8  O   UNL     1      -7.592   6.231  -3.639  1.00  0.00    -0.545 OA
ATOM      9  O   UNL     1      -5.368   6.741  -3.526  1.00  0.00    -0.545 OA
ENDBRANCH   1   7
TORSDOF 1
ENDMDL
MODEL 8
REMARK VINA RESULT:    -4.222      2.887      3.714
REMARK INTER + INTRA:          -4.488
REMARK INTER:                  -4.466
REMARK INTRA:                  -0.023
REMARK UNBOUND:                -0.019
REMARK SMILES O=C([O-])c1cccnc1
REMARK SMILES IDX 4 1 5 2 9 3 6 4 8 5 7 6 2 7 1 8 3 9
REMARK H PARENT
REMARK Flexibility Score: inf
ROOT
ATOM      1  C   UNL     1      -7.746   2.658  -4.300  1.00  0.00     0.016 A 
ATOM      2  C   UNL     1      -7.159   2.031  -5.413  1.00  0.00     0.013 A 
ATOM      3  C   UNL     1      -6.965   3.553  -3.549  1.00  0.00     0.120 A 
ATOM      4  C   UNL     1      -5.833   2.302  -5.752  1.00  0.00     0.021 A 
ATOM      5  N   UNL     1      -5.675   3.799  -3.901  1.00  0.00    -0.264 NA
ATOM      6  C   UNL     1      -5.098   3.199  -4.974  1.00  0.00     0.111 A 
ENDROOT
BRANCH   1   7
ATOM      7  C   UNL     1      -9.150   2.384  -3.926  1.00  0.00     0.073 C 
ATOM      8  O   UNL     1      -9.720   1.326  -4.304  1.00  0.00    -0.545 OA
ATOM      9  O   UNL     1      -9.861   3.292  -3.150  1.00  0.00    -0.545 OA
ENDBRANCH   1   7
TORSDOF 1
ENDMDL
MODEL 9
REMARK VINA RESULT:    -4.191     17.446     17.906
REMARK INTER + INTRA:          -4.455
REMARK INTER:                  -4.433
REMARK INTRA:                  -0.023
REMARK UNBOUND:                -0.019
REMARK SMILES O=C([O-])c1cccnc1
REMARK SMILES IDX 4 1 5 2 9 3 6 4 8 5 7 6 2 7 1 8 3 9
REMARK H PARENT
REMARK Flexibility Score: inf
ROOT
ATOM      1  C   UNL     1       6.894   3.148   7.791  1.00  0.00     0.016 A 
ATOM      2  C   UNL     1       6.556   3.634   9.066  1.00  0.00     0.013 A 
ATOM      3  C   UNL     1       6.278   1.966   7.343  1.00  0.00     0.120 A 
ATOM      4  C   UNL     1       5.631   2.950   9.856  1.00  0.00     0.021 A 
ATOM      5  N   UNL     1       5.380   1.319   8.133  1.00  0.00    -0.264 NA
ATOM      6  C   UNL     1       5.047   1.781   9.366  1.00  0.00     0.111 A 
ENDROOT
BRANCH   1   7
ATOM      7  C   UNL     1       7.871   3.858   6.940  1.00  0.00     0.073 C 
ATOM      8  O   UNL     1       8.742   4.610   7.454  1.00  0.00    -0.545 OA
ATOM      9  O   UNL     1       7.842   3.707   5.558  1.00  0.00    -0.545 OA
ENDBRANCH   1   7
TORSDOF 1
ENDMDL
