MODEL 1
REMARK VINA RESULT:    -4.097      0.000      0.000
REMARK INTER + INTRA:          -8.277
REMARK INTER:                  -6.971
REMARK INTRA:                  -1.305
REMARK UNBOUND:                -1.305
REMARK SMILES CCCCCCCCCCCCCC(=O)[O-]
REMARK SMILES IDX 8 1 9 2 10 3 11 4 12 5 13 6 14 7 15 8 16 9 7 10 6 11 5 12
REMARK SMILES IDX 4 13 3 14 2 15 1 16
REMARK H PARENT
REMARK Flexibility Score: inf
ROOT
ATOM      1  C   UNL     1       7.301  -4.258  -4.730  1.00  0.00     0.000 C 
ENDROOT
BRANCH   1   2
ATOM      2  C   UNL     1       8.515  -4.432  -3.806  1.00  0.00     0.000 C 
BRANCH   2   3
ATOM      3  C   UNL     1       8.623  -5.851  -3.216  1.00  0.00     0.000 C 
BRANCH   3   4
ATOM      4  C   UNL     1       8.379  -6.994  -4.219  1.00  0.00     0.000 C 
BRANCH   4   5
ATOM      5  C   UNL     1       7.953  -8.306  -3.540  1.00  0.00     0.006 C 
BRANCH   5   6
ATOM      6  C   UNL     1       7.819  -8.154  -2.019  1.00  0.00     0.053 C 
BRANCH   6   7
ATOM      7  C   UNL     1       7.801  -9.482  -1.324  1.00  0.00     0.041 C 
ATOM      8  O   UNL     1       8.268 -10.502  -1.895  1.00  0.00    -0.550 OA
ATOM      9  O   UNL     1       7.295  -9.585  -0.035  1.00  0.00    -0.550 OA
ENDBRANCH   6   7
ENDBRANCH   5   6
ENDBRANCH   4   5
ENDBRANCH   3   4
ENDBRANCH   2   3
ENDBRANCH   1   2
BRANCH   1  10
ATOM     10  C   UNL     1       7.695  -3.540  -6.026  1.00  0.00     0.000 C 
BRANCH  10  11
ATOM     11  C   UNL     1       8.759  -4.334  -6.794  1.00  0.00    -0.000 C 
BRANCH  11  12
ATOM     12  C   UNL     1       8.118  -5.445  -7.635  1.00  0.00    -0.000 C 
BRANCH  12  13
ATOM     13  C   UNL     1       9.118  -6.581  -7.898  1.00  0.00    -0.000 C 
BRANCH  13  14
ATOM     14  C   UNL     1       8.446  -7.841  -8.465  1.00  0.00    -0.000 C 
BRANCH  14  15
ATOM     15  C   UNL     1       8.818  -9.111  -7.685  1.00  0.00    -0.003 C 
ATOM     16  C   UNL     1       7.588  -9.727  -7.024  1.00  0.00     0.004 C 
ENDBRANCH  14  15
ENDBRANCH  13  14
ENDBRANCH  12  13
ENDBRANCH  11  12
ENDBRANCH  10  11
ENDBRANCH   1  10
TORSDOF 12
ENDMDL
MODEL 2
REMARK VINA RESULT:    -4.025      1.532      3.170
REMARK INTER + INTRA:          -8.153
REMARK INTER:                  -7.065
REMARK INTRA:                  -1.088
REMARK UNBOUND:                -1.305
REMARK SMILES CCCCCCCCCCCCCC(=O)[O-]
REMARK SMILES IDX 8 1 9 2 10 3 11 4 12 5 13 6 14 7 15 8 16 9 7 10 6 11 5 12
REMARK SMILES IDX 4 13 3 14 2 15 1 16
REMARK H PARENT
REMARK Flexibility Score: inf
ROOT
ATOM      1  C   UNL     1       8.083  -6.775  -3.804  1.00  0.00     0.000 C 
ENDROOT
BRANCH   1   2
ATOM      2  C   UNL     1       8.815  -8.111  -4.003  1.00  0.00     0.000 C 
BRANCH   2   3
ATOM      3  C   UNL     1       7.914  -9.334  -3.750  1.00  0.00     0.000 C 
BRANCH   3   4
ATOM      4  C   UNL     1       8.011  -9.935  -2.335  1.00  0.00     0.000 C 
BRANCH   4   5
ATOM      5  C   UNL     1       7.623  -8.936  -1.232  1.00  0.00     0.006 C 
BRANCH   5   6
ATOM      6  C   UNL     1       8.334  -9.233   0.095  1.00  0.00     0.053 C 
BRANCH   6   7
ATOM      7  C   UNL     1       7.409  -9.849   1.099  1.00  0.00     0.041 C 
ATOM      8  O   UNL     1       6.171  -9.625   1.042  1.00  0.00    -0.550 OA
ATOM      9  O   UNL     1       7.910 -10.693   2.081  1.00  0.00    -0.550 OA
ENDBRANCH   6   7
ENDBRANCH   5   6
ENDBRANCH   4   5
ENDBRANCH   3   4
ENDBRANCH   2   3
ENDBRANCH   1   2
BRANCH   1  10
ATOM     10  C   UNL     1       9.079  -5.616  -3.685  1.00  0.00     0.000 C 
BRANCH  10  11
ATOM     11  C   UNL     1       8.378  -4.265  -3.878  1.00  0.00    -0.000 C 
BRANCH  11  12
ATOM     12  C   UNL     1       7.418  -4.309  -5.074  1.00  0.00    -0.000 C 
BRANCH  12  13
ATOM     13  C   UNL     1       8.012  -3.571  -6.282  1.00  0.00    -0.000 C 
BRANCH  13  14
ATOM     14  C   UNL     1       8.854  -4.489  -7.182  1.00  0.00    -0.000 C 
BRANCH  14  15
ATOM     15  C   UNL     1       8.139  -5.807  -7.516  1.00  0.00    -0.003 C 
ATOM     16  C   UNL     1       9.125  -6.970  -7.559  1.00  0.00     0.004 C 
ENDBRANCH  14  15
ENDBRANCH  13  14
ENDBRANCH  12  13
ENDBRANCH  11  12
ENDBRANCH  10  11
ENDBRANCH   1  10
TORSDOF 12
ENDMDL
MODEL 3
REMARK VINA RESULT:    -3.962      2.805      5.163
REMARK INTER + INTRA:          -8.046
REMARK INTER:                  -6.795
REMARK INTRA:                  -1.251
REMARK UNBOUND:                -1.305
REMARK SMILES CCCCCCCCCCCCCC(=O)[O-]
REMARK SMILES IDX 8 1 9 2 10 3 11 4 12 5 13 6 14 7 15 8 16 9 7 10 6 11 5 12
REMARK SMILES IDX 4 13 3 14 2 15 1 16
REMARK H PARENT
REMARK Flexibility Score: inf
ROOT
ATOM      1  C   UNL     1       7.656  -4.208  -5.020  1.00  0.00     0.000 C 
ENDROOT
BRANCH   1   2
ATOM      2  C   UNL     1       7.953  -3.918  -6.499  1.00  0.00     0.000 C 
BRANCH   2   3
ATOM      3  C   UNL     1       9.081  -4.797  -7.071  1.00  0.00     0.000 C 
BRANCH   3   4
ATOM      4  C   UNL     1       8.733  -6.290  -7.217  1.00  0.00     0.000 C 
BRANCH   4   5
ATOM      5  C   UNL     1       8.755  -6.770  -8.678  1.00  0.00     0.006 C 
BRANCH   5   6
ATOM      6  C   UNL     1       7.373  -7.235  -9.156  1.00  0.00     0.053 C 
BRANCH   6   7
ATOM      7  C   UNL     1       7.237  -8.726  -9.106  1.00  0.00     0.041 C 
ATOM      8  O   UNL     1       7.703  -9.437 -10.034  1.00  0.00    -0.550 OA
ATOM      9  O   UNL     1       6.621  -9.333  -8.019  1.00  0.00    -0.550 OA
ENDBRANCH   6   7
ENDBRANCH   5   6
ENDBRANCH   4   5
ENDBRANCH   3   4
ENDBRANCH   2   3
ENDBRANCH   1   2
BRANCH   1  10
ATOM     10  C   UNL     1       8.896  -3.964  -4.153  1.00  0.00     0.000 C 
BRANCH  10  11
ATOM     11  C   UNL     1       9.067  -5.075  -3.110  1.00  0.00    -0.000 C 
BRANCH  11  12
ATOM     12  C   UNL     1       8.221  -6.302  -3.469  1.00  0.00    -0.000 C 
BRANCH  12  13
ATOM     13  C   UNL     1       8.365  -7.399  -2.404  1.00  0.00    -0.000 C 
BRANCH  13  14
ATOM     14  C   UNL     1       7.867  -8.769  -2.893  1.00  0.00    -0.000 C 
BRANCH  14  15
ATOM     15  C   UNL     1       7.606  -8.797  -4.406  1.00  0.00    -0.003 C 
ATOM     16  C   UNL     1       8.451  -9.869  -5.088  1.00  0.00     0.004 C 
ENDBRANCH  14  15
ENDBRANCH  13  14
ENDBRANCH  12  13
ENDBRANCH  11  12
ENDBRANCH  10  11
ENDBRANCH   1  10
TORSDOF 12
ENDMDL
MODEL 4
REMARK VINA RESULT:    -3.910      2.621      5.402
REMARK INTER + INTRA:          -7.957
REMARK INTER:                  -7.018
REMARK INTRA:                  -0.939
REMARK UNBOUND:                -1.305
REMARK SMILES CCCCCCCCCCCCCC(=O)[O-]
REMARK SMILES IDX 8 1 9 2 10 3 11 4 12 5 13 6 14 7 15 8 16 9 7 10 6 11 5 12
REMARK SMILES IDX 4 13 3 14 2 15 1 16
REMARK H PARENT
REMARK Flexibility Score: inf
ROOT
ATOM      1  C   UNL     1       7.780  -4.083  -6.569  1.00  0.00     0.000 C 
ENDROOT
BRANCH   1   2
ATOM      2  C   UNL     1       9.066  -4.822  -6.968  1.00  0.00     0.000 C 
BRANCH   2   3
ATOM      3  C   UNL     1       8.849  -6.330  -7.190  1.00  0.00     0.000 C 
BRANCH   3   4
ATOM      4  C   UNL     1       8.771  -6.768  -8.665  1.00  0.00     0.000 C 
BRANCH   4   5
ATOM      5  C   UNL     1       7.327  -6.978  -9.152  1.00  0.00     0.006 C 
BRANCH   5   6
ATOM      6  C   UNL     1       7.073  -8.423  -9.602  1.00  0.00     0.053 C 
BRANCH   6   7
ATOM      7  C   UNL     1       6.334  -9.210  -8.563  1.00  0.00     0.041 C 
ATOM      8  O   UNL     1       5.087  -9.352  -8.643  1.00  0.00    -0.550 OA
ATOM      9  O   UNL     1       7.030  -9.812  -7.523  1.00  0.00    -0.550 OA
ENDBRANCH   6   7
ENDBRANCH   5   6
ENDBRANCH   4   5
ENDBRANCH   3   4
ENDBRANCH   2   3
ENDBRANCH   1   2
BRANCH   1  10
ATOM     10  C   UNL     1       7.613  -4.052  -5.046  1.00  0.00     0.000 C 
BRANCH  10  11
ATOM     11  C   UNL     1       8.976  -4.023  -4.343  1.00  0.00    -0.000 C 
BRANCH  11  12
ATOM     12  C   UNL     1       8.981  -4.939  -3.113  1.00  0.00    -0.000 C 
BRANCH  12  13
ATOM     13  C   UNL     1       8.353  -6.302  -3.441  1.00  0.00    -0.000 C 
BRANCH  13  14
ATOM     14  C   UNL     1       8.860  -7.424  -2.521  1.00  0.00    -0.000 C 
BRANCH  14  15
ATOM     15  C   UNL     1       7.746  -8.399  -2.110  1.00  0.00    -0.003 C 
ATOM     16  C   UNL     1       8.083  -9.093  -0.794  1.00  0.00     0.004 C 
ENDBRANCH  14  15
ENDBRANCH  13  14
ENDBRANCH  12  13
ENDBRANCH  11  12
ENDBRANCH  10  11
ENDBRANCH   1  10
TORSDOF 12
ENDMDL
MODEL 5
REMARK VINA RESULT:    -3.888      3.158      5.802
REMARK INTER + INTRA:          -7.921
REMARK INTER:                  -6.910
REMARK INTRA:                  -1.010
REMARK UNBOUND:                -1.305
REMARK SMILES CCCCCCCCCCCCCC(=O)[O-]
REMARK SMILES IDX 8 1 9 2 10 3 11 4 12 5 13 6 14 7 15 8 16 9 7 10 6 11 5 12
REMARK SMILES IDX 4 13 3 14 2 15 1 16
REMARK H PARENT
REMARK Flexibility Score: inf
ROOT
ATOM      1  C   UNL     1       7.343  -4.253  -4.832  1.00  0.00     0.000 C 
ENDROOT
BRANCH   1   2
ATOM      2  C   UNL     1       7.846  -3.557  -6.106  1.00  0.00     0.000 C 
BRANCH   2   3
ATOM      3  C   UNL     1       8.795  -4.439  -6.938  1.00  0.00     0.000 C 
BRANCH   3   4
ATOM      4  C   UNL     1       8.124  -5.630  -7.649  1.00  0.00     0.000 C 
BRANCH   4   5
ATOM      5  C   UNL     1       9.104  -6.776  -7.952  1.00  0.00     0.006 C 
BRANCH   5   6
ATOM      6  C   UNL     1       8.975  -7.282  -9.395  1.00  0.00     0.053 C 
BRANCH   6   7
ATOM      7  C   UNL     1       7.933  -8.350  -9.521  1.00  0.00     0.041 C 
ATOM      8  O   UNL     1       8.234  -9.556  -9.326  1.00  0.00    -0.550 OA
ATOM      9  O   UNL     1       6.621  -8.009  -9.826  1.00  0.00    -0.550 OA
ENDBRANCH   6   7
ENDBRANCH   5   6
ENDBRANCH   4   5
ENDBRANCH   3   4
ENDBRANCH   2   3
ENDBRANCH   1   2
BRANCH   1  10
ATOM     10  C   UNL     1       8.475  -4.416  -3.811  1.00  0.00     0.000 C 
BRANCH  10  11
ATOM     11  C   UNL     1       8.397  -5.780  -3.115  1.00  0.00    -0.000 C 
BRANCH  11  12
ATOM     12  C   UNL     1       8.337  -6.919  -4.141  1.00  0.00    -0.000 C 
BRANCH  12  13
ATOM     13  C   UNL     1       8.058  -8.263  -3.452  1.00  0.00    -0.000 C 
BRANCH  13  14
ATOM     14  C   UNL     1       7.829  -8.118  -1.939  1.00  0.00    -0.000 C 
BRANCH  14  15
ATOM     15  C   UNL     1       8.872  -8.880  -1.109  1.00  0.00    -0.003 C 
ATOM     16  C   UNL     1       8.276  -9.363   0.210  1.00  0.00     0.004 C 
ENDBRANCH  14  15
ENDBRANCH  13  14
ENDBRANCH  12  13
ENDBRANCH  11  12
ENDBRANCH  10  11
ENDBRANCH   1  10
TORSDOF 12
ENDMDL
MODEL 6
REMARK VINA RESULT:    -3.855      1.183      1.721
REMARK INTER + INTRA:          -7.864
REMARK INTER:                  -6.886
REMARK INTRA:                  -0.977
REMARK UNBOUND:                -1.305
REMARK SMILES CCCCCCCCCCCCCC(=O)[O-]
REMARK SMILES IDX 8 1 9 2 10 3 11 4 12 5 13 6 14 7 15 8 16 9 7 10 6 11 5 12
REMARK SMILES IDX 4 13 3 14 2 15 1 16
REMARK H PARENT
REMARK Flexibility Score: inf
ROOT
ATOM      1  C   UNL     1       7.882  -3.565  -5.689  1.00  0.00     0.000 C 
ENDROOT
BRANCH   1   2
ATOM      2  C   UNL     1       7.375  -4.551  -4.625  1.00  0.00     0.000 C 
BRANCH   2   3
ATOM      3  C   UNL     1       8.436  -4.883  -3.559  1.00  0.00     0.000 C 
BRANCH   3   4
ATOM      4  C   UNL     1       9.028  -6.301  -3.647  1.00  0.00     0.000 C 
BRANCH   4   5
ATOM      5  C   UNL     1       8.270  -7.323  -2.782  1.00  0.00     0.006 C 
BRANCH   5   6
ATOM      6  C   UNL     1       7.856  -8.565  -3.582  1.00  0.00     0.053 C 
BRANCH   6   7
ATOM      7  C   UNL     1       7.669  -9.761  -2.698  1.00  0.00     0.041 C 
ATOM      8  O   UNL     1       7.647  -9.627  -1.447  1.00  0.00    -0.550 OA
ATOM      9  O   UNL     1       7.490 -11.019  -3.259  1.00  0.00    -0.550 OA
ENDBRANCH   6   7
ENDBRANCH   5   6
ENDBRANCH   4   5
ENDBRANCH   3   4
ENDBRANCH   2   3
ENDBRANCH   1   2
BRANCH   1  10
ATOM     10  C   UNL     1       8.699  -4.290  -6.764  1.00  0.00     0.000 C 
BRANCH  10  11
ATOM     11  C   UNL     1       7.890  -5.427  -7.399  1.00  0.00    -0.000 C 
BRANCH  11  12
ATOM     12  C   UNL     1       8.774  -6.652  -7.662  1.00  0.00    -0.000 C 
BRANCH  12  13
ATOM     13  C   UNL     1       8.719  -7.063  -9.141  1.00  0.00    -0.000 C 
BRANCH  13  14
ATOM     14  C   UNL     1       7.397  -7.751  -9.516  1.00  0.00    -0.000 C 
BRANCH  14  15
ATOM     15  C   UNL     1       7.080  -8.952  -8.613  1.00  0.00    -0.003 C 
ATOM     16  C   UNL     1       5.605  -9.332  -8.705  1.00  0.00     0.004 C 
ENDBRANCH  14  15
ENDBRANCH  13  14
ENDBRANCH  12  13
ENDBRANCH  11  12
ENDBRANCH  10  11
ENDBRANCH   1  10
TORSDOF 12
ENDMDL
MODEL 7
REMARK VINA RESULT:    -3.677      4.532      8.802
REMARK INTER + INTRA:          -7.562
REMARK INTER:                  -7.198
REMARK INTRA:                  -0.364
REMARK UNBOUND:                -1.305
REMARK SMILES CCCCCCCCCCCCCC(=O)[O-]
REMARK SMILES IDX 8 1 9 2 10 3 11 4 12 5 13 6 14 7 15 8 16 9 7 10 6 11 5 12
REMARK SMILES IDX 4 13 3 14 2 15 1 16
REMARK H PARENT
REMARK Flexibility Score: inf
ROOT
ATOM      1  C   UNL     1       8.522  -9.228   0.136  1.00  0.00     0.000 C 
ENDROOT
BRANCH   1   2
ATOM      2  C   UNL     1       8.912  -8.959  -1.326  1.00  0.00     0.000 C 
BRANCH   2   3
ATOM      3  C   UNL     1       8.050  -7.868  -1.987  1.00  0.00     0.000 C 
BRANCH   3   4
ATOM      4  C   UNL     1       8.484  -7.467  -3.409  1.00  0.00     0.000 C 
BRANCH   4   5
ATOM      5  C   UNL     1       8.656  -5.947  -3.578  1.00  0.00     0.006 C 
BRANCH   5   6
ATOM      6  C   UNL     1       8.539  -5.510  -5.043  1.00  0.00     0.053 C 
BRANCH   6   7
ATOM      7  C   UNL     1       7.612  -4.344  -5.206  1.00  0.00     0.041 C 
ATOM      8  O   UNL     1       6.547  -4.283  -4.537  1.00  0.00    -0.550 OA
ATOM      9  O   UNL     1       7.940  -3.311  -6.074  1.00  0.00    -0.550 OA
ENDBRANCH   6   7
ENDBRANCH   5   6
ENDBRANCH   4   5
ENDBRANCH   3   4
ENDBRANCH   2   3
ENDBRANCH   1   2
BRANCH   1  10
ATOM     10  C   UNL     1       7.029  -9.551   0.256  1.00  0.00     0.000 C 
BRANCH  10  11
ATOM     11  C   UNL     1       6.620  -9.730   1.723  1.00  0.00    -0.000 C 
BRANCH  11  12
ATOM     12  C   UNL     1       5.290 -10.486   1.837  1.00  0.00    -0.000 C 
BRANCH  12  13
ATOM     13  C   UNL     1       5.059 -10.979   3.273  1.00  0.00    -0.000 C 
BRANCH  13  14
ATOM     14  C   UNL     1       5.569  -9.987   4.329  1.00  0.00    -0.000 C 
BRANCH  14  15
ATOM     15  C   UNL     1       4.441  -9.144   4.942  1.00  0.00    -0.003 C 
ATOM     16  C   UNL     1       3.128  -9.360   4.195  1.00  0.00     0.004 C 
ENDBRANCH  14  15
ENDBRANCH  13  14
ENDBRANCH  12  13
ENDBRANCH  11  12
ENDBRANCH  10  11
ENDBRANCH   1  10
TORSDOF 12
ENDMDL
MODEL 8
REMARK VINA RESULT:    -3.280      3.304      5.963
REMARK INTER + INTRA:          -6.887
REMARK INTER:                  -5.898
REMARK INTRA:                  -0.988
REMARK UNBOUND:                -1.305
REMARK SMILES CCCCCCCCCCCCCC(=O)[O-]
REMARK SMILES IDX 8 1 9 2 10 3 11 4 12 5 13 6 14 7 15 8 16 9 7 10 6 11 5 12
REMARK SMILES IDX 4 13 3 14 2 15 1 16
REMARK H PARENT
REMARK Flexibility Score: inf
ROOT
ATOM      1  C   UNL     1       8.057  -9.115  -3.483  1.00  0.00     0.000 C 
ENDROOT
BRANCH   1   2
ATOM      2  C   UNL     1       9.046  -8.739  -4.596  1.00  0.00     0.000 C 
BRANCH   2   3
ATOM      3  C   UNL     1       8.414  -8.778  -6.000  1.00  0.00     0.000 C 
BRANCH   3   4
ATOM      4  C   UNL     1       7.944 -10.169  -6.465  1.00  0.00     0.000 C 
BRANCH   4   5
ATOM      5  C   UNL     1       7.645 -10.228  -7.973  1.00  0.00     0.006 C 
BRANCH   5   6
ATOM      6  C   UNL     1       6.533  -9.253  -8.382  1.00  0.00     0.053 C 
BRANCH   6   7
ATOM      7  C   UNL     1       6.993  -8.290  -9.433  1.00  0.00     0.041 C 
ATOM      8  O   UNL     1       7.238  -7.093  -9.132  1.00  0.00    -0.550 OA
ATOM      9  O   UNL     1       7.179  -8.723 -10.739  1.00  0.00    -0.550 OA
ENDBRANCH   6   7
ENDBRANCH   5   6
ENDBRANCH   4   5
ENDBRANCH   3   4
ENDBRANCH   2   3
ENDBRANCH   1   2
BRANCH   1  10
ATOM     10  C   UNL     1       8.025  -8.041  -2.389  1.00  0.00     0.000 C 
BRANCH  10  11
ATOM     11  C   UNL     1       8.939  -6.863  -2.748  1.00  0.00    -0.000 C 
BRANCH  11  12
ATOM     12  C   UNL     1       8.118  -5.620  -3.111  1.00  0.00    -0.000 C 
BRANCH  12  13
ATOM     13  C   UNL     1       8.656  -4.960  -4.389  1.00  0.00    -0.000 C 
BRANCH  13  14
ATOM     14  C   UNL     1       7.663  -3.960  -5.003  1.00  0.00    -0.000 C 
BRANCH  14  15
ATOM     15  C   UNL     1       7.867  -3.778  -6.515  1.00  0.00    -0.003 C 
ATOM     16  C   UNL     1       8.926  -4.739  -7.045  1.00  0.00     0.004 C 
ENDBRANCH  14  15
ENDBRANCH  13  14
ENDBRANCH  12  13
ENDBRANCH  11  12
ENDBRANCH  10  11
ENDBRANCH   1  10
TORSDOF 12
ENDMDL
MODEL 9
REMARK VINA RESULT:    -3.142      3.682      5.184
REMARK INTER + INTRA:          -6.651
REMARK INTER:                  -5.797
REMARK INTRA:                  -0.854
REMARK UNBOUND:                -1.305
REMARK SMILES CCCCCCCCCCCCCC(=O)[O-]
REMARK SMILES IDX 8 1 9 2 10 3 11 4 12 5 13 6 14 7 15 8 16 9 7 10 6 11 5 12
REMARK SMILES IDX 4 13 3 14 2 15 1 16
REMARK H PARENT
REMARK Flexibility Score: inf
ROOT
ATOM      1  C   UNL     1       8.520  -8.593  -6.095  1.00  0.00     0.000 C 
ENDROOT
BRANCH   1   2
ATOM      2  C   UNL     1       9.068  -7.457  -5.219  1.00  0.00     0.000 C 
BRANCH   2   3
ATOM      3  C   UNL     1       8.344  -7.337  -3.865  1.00  0.00     0.000 C 
BRANCH   3   4
ATOM      4  C   UNL     1       8.316  -5.919  -3.264  1.00  0.00     0.000 C 
BRANCH   4   5
ATOM      5  C   UNL     1       8.809  -4.842  -4.245  1.00  0.00     0.006 C 
BRANCH   5   6
ATOM      6  C   UNL     1       7.651  -4.155  -4.981  1.00  0.00     0.053 C 
BRANCH   6   7
ATOM      7  C   UNL     1       7.992  -3.864  -6.410  1.00  0.00     0.041 C 
ATOM      8  O   UNL     1       7.270  -3.087  -7.088  1.00  0.00    -0.550 OA
ATOM      9  O   UNL     1       9.124  -4.428  -6.984  1.00  0.00    -0.550 OA
ENDBRANCH   6   7
ENDBRANCH   5   6
ENDBRANCH   4   5
ENDBRANCH   3   4
ENDBRANCH   2   3
ENDBRANCH   1   2
BRANCH   1  10
ATOM     10  C   UNL     1       8.826  -8.343  -7.576  1.00  0.00     0.000 C 
BRANCH  10  11
ATOM     11  C   UNL     1       7.572  -7.879  -8.327  1.00  0.00    -0.000 C 
BRANCH  11  12
ATOM     12  C   UNL     1       7.739  -8.058  -9.841  1.00  0.00    -0.000 C 
BRANCH  12  13
ATOM     13  C   UNL     1       6.539  -8.806 -10.441  1.00  0.00    -0.000 C 
BRANCH  13  14
ATOM     14  C   UNL     1       5.998  -9.902  -9.509  1.00  0.00    -0.000 C 
BRANCH  14  15
ATOM     15  C   UNL     1       4.472 -10.051  -9.596  1.00  0.00    -0.003 C 
ATOM     16  C   UNL     1       3.886  -9.097 -10.633  1.00  0.00     0.004 C 
ENDBRANCH  14  15
ENDBRANCH  13  14
ENDBRANCH  12  13
ENDBRANCH  11  12
ENDBRANCH  10  11
ENDBRANCH   1  10
TORSDOF 12
ENDMDL
