MODEL 1
REMARK VINA RESULT:    -4.640      0.000      0.000
REMARK INTER + INTRA:          -8.641
REMARK INTER:                  -7.896
REMARK INTRA:                  -0.746
REMARK UNBOUND:                -0.746
REMARK SMILES CCCCCCCCCCCCCC(=O)[O-]
REMARK SMILES IDX 8 1 9 2 10 3 11 4 12 5 13 6 14 7 15 8 16 9 7 10 6 11 5 12
REMARK SMILES IDX 4 13 3 14 2 15 1 16
REMARK H PARENT
REMARK Flexibility Score: inf
ROOT
ATOM      1  C   UNL     1      12.040  14.292  23.689  1.00  0.00     0.000 C 
ENDROOT
BRANCH   1   2
ATOM      2  C   UNL     1      11.104  15.127  24.577  1.00  0.00     0.000 C 
BRANCH   2   3
ATOM      3  C   UNL     1      11.487  16.617  24.608  1.00  0.00     0.000 C 
BRANCH   3   4
ATOM      4  C   UNL     1      12.957  16.832  25.032  1.00  0.00     0.000 C 
BRANCH   4   5
ATOM      5  C   UNL     1      13.424  18.294  24.907  1.00  0.00     0.006 C 
BRANCH   5   6
ATOM      6  C   UNL     1      14.494  18.518  23.829  1.00  0.00     0.053 C 
BRANCH   6   7
ATOM      7  C   UNL     1      13.910  18.466  22.450  1.00  0.00     0.041 C 
ATOM      8  O   UNL     1      13.052  19.313  22.089  1.00  0.00    -0.550 OA
ATOM      9  O   UNL     1      14.329  17.488  21.555  1.00  0.00    -0.550 OA
ENDBRANCH   6   7
ENDBRANCH   5   6
ENDBRANCH   4   5
ENDBRANCH   3   4
ENDBRANCH   2   3
ENDBRANCH   1   2
BRANCH   1  10
ATOM     10  C   UNL     1      11.282  13.477  22.630  1.00  0.00     0.000 C 
BRANCH  10  11
ATOM     11  C   UNL     1      10.011  14.207  22.181  1.00  0.00    -0.000 C 
BRANCH  11  12
ATOM     12  C   UNL     1       8.817  13.243  22.118  1.00  0.00    -0.000 C 
BRANCH  12  13
ATOM     13  C   UNL     1       7.511  13.871  22.638  1.00  0.00    -0.000 C 
BRANCH  13  14
ATOM     14  C   UNL     1       6.506  12.872  23.241  1.00  0.00    -0.000 C 
BRANCH  14  15
ATOM     15  C   UNL     1       6.559  11.492  22.573  1.00  0.00    -0.003 C 
ATOM     16  C   UNL     1       5.203  10.794  22.641  1.00  0.00     0.004 C 
ENDBRANCH  14  15
ENDBRANCH  13  14
ENDBRANCH  12  13
ENDBRANCH  11  12
ENDBRANCH  10  11
ENDBRANCH   1  10
TORSDOF 12
ENDMDL
MODEL 2
REMARK VINA RESULT:    -4.594      1.143      1.449
REMARK INTER + INTRA:          -8.563
REMARK INTER:                  -7.948
REMARK INTRA:                  -0.615
REMARK UNBOUND:                -0.746
REMARK SMILES CCCCCCCCCCCCCC(=O)[O-]
REMARK SMILES IDX 8 1 9 2 10 3 11 4 12 5 13 6 14 7 15 8 16 9 7 10 6 11 5 12
REMARK SMILES IDX 4 13 3 14 2 15 1 16
REMARK H PARENT
REMARK Flexibility Score: inf
ROOT
ATOM      1  C   UNL     1      11.314  15.122  24.519  1.00  0.00     0.000 C 
ENDROOT
BRANCH   1   2
ATOM      2  C   UNL     1      12.736  15.647  24.779  1.00  0.00     0.000 C 
BRANCH   2   3
ATOM      3  C   UNL     1      12.752  16.900  25.672  1.00  0.00     0.000 C 
BRANCH   3   4
ATOM      4  C   UNL     1      13.132  18.173  24.882  1.00  0.00     0.000 C 
BRANCH   4   5
ATOM      5  C   UNL     1      14.376  17.995  23.992  1.00  0.00     0.006 C 
BRANCH   5   6
ATOM      6  C   UNL     1      14.107  18.197  22.494  1.00  0.00     0.053 C 
BRANCH   6   7
ATOM      7  C   UNL     1      13.501  19.539  22.216  1.00  0.00     0.041 C 
ATOM      8  O   UNL     1      14.182  20.588  22.365  1.00  0.00    -0.550 OA
ATOM      9  O   UNL     1      12.187  19.630  21.774  1.00  0.00    -0.550 OA
ENDBRANCH   6   7
ENDBRANCH   5   6
ENDBRANCH   4   5
ENDBRANCH   3   4
ENDBRANCH   2   3
ENDBRANCH   1   2
BRANCH   1  10
ATOM     10  C   UNL     1      10.965  15.070  23.025  1.00  0.00     0.000 C 
BRANCH  10  11
ATOM     11  C   UNL     1      10.035  13.890  22.719  1.00  0.00    -0.000 C 
BRANCH  11  12
ATOM     12  C   UNL     1       8.703  14.378  22.129  1.00  0.00    -0.000 C 
BRANCH  12  13
ATOM     13  C   UNL     1       7.478  13.707  22.776  1.00  0.00    -0.000 C 
BRANCH  13  14
ATOM     14  C   UNL     1       6.943  12.472  22.029  1.00  0.00    -0.000 C 
BRANCH  14  15
ATOM     15  C   UNL     1       6.396  11.392  22.973  1.00  0.00    -0.003 C 
ATOM     16  C   UNL     1       5.075  10.827  22.456  1.00  0.00     0.004 C 
ENDBRANCH  14  15
ENDBRANCH  13  14
ENDBRANCH  12  13
ENDBRANCH  11  12
ENDBRANCH  10  11
ENDBRANCH   1  10
TORSDOF 12
ENDMDL
MODEL 3
REMARK VINA RESULT:    -4.591      3.267      7.054
REMARK INTER + INTRA:          -8.557
REMARK INTER:                  -6.904
REMARK INTRA:                  -1.653
REMARK UNBOUND:                -0.746
REMARK SMILES CCCCCCCCCCCCCC(=O)[O-]
REMARK SMILES IDX 8 1 9 2 10 3 11 4 12 5 13 6 14 7 15 8 16 9 7 10 6 11 5 12
REMARK SMILES IDX 4 13 3 14 2 15 1 16
REMARK H PARENT
REMARK Flexibility Score: inf
ROOT
ATOM      1  C   UNL     1      12.960  20.289  21.075  1.00  0.00     0.000 C 
ENDROOT
BRANCH   1   2
ATOM      2  C   UNL     1      11.658  19.489  20.907  1.00  0.00     0.000 C 
BRANCH   2   3
ATOM      3  C   UNL     1      11.856  17.980  21.133  1.00  0.00     0.000 C 
BRANCH   3   4
ATOM      4  C   UNL     1      10.782  17.385  22.071  1.00  0.00     0.000 C 
BRANCH   4   5
ATOM      5  C   UNL     1      11.030  15.908  22.429  1.00  0.00     0.006 C 
BRANCH   5   6
ATOM      6  C   UNL     1       9.787  15.016  22.299  1.00  0.00     0.053 C 
BRANCH   6   7
ATOM      7  C   UNL     1      10.154  13.579  22.087  1.00  0.00     0.041 C 
ATOM      8  O   UNL     1      10.978  13.013  22.853  1.00  0.00    -0.550 OA
ATOM      9  O   UNL     1       9.572  12.859  21.050  1.00  0.00    -0.550 OA
ENDBRANCH   6   7
ENDBRANCH   5   6
ENDBRANCH   4   5
ENDBRANCH   3   4
ENDBRANCH   2   3
ENDBRANCH   1   2
BRANCH   1  10
ATOM     10  C   UNL     1      13.440  20.345  22.532  1.00  0.00     0.000 C 
BRANCH  10  11
ATOM     11  C   UNL     1      14.746  19.562  22.711  1.00  0.00    -0.000 C 
BRANCH  11  12
ATOM     12  C   UNL     1      14.774  18.842  24.068  1.00  0.00    -0.000 C 
BRANCH  12  13
ATOM     13  C   UNL     1      13.918  17.563  24.087  1.00  0.00    -0.000 C 
BRANCH  13  14
ATOM     14  C   UNL     1      12.961  17.439  25.287  1.00  0.00    -0.000 C 
BRANCH  14  15
ATOM     15  C   UNL     1      12.499  18.800  25.826  1.00  0.00    -0.003 C 
ATOM     16  C   UNL     1      11.203  19.247  25.153  1.00  0.00     0.004 C 
ENDBRANCH  14  15
ENDBRANCH  13  14
ENDBRANCH  12  13
ENDBRANCH  11  12
ENDBRANCH  10  11
ENDBRANCH   1  10
TORSDOF 12
ENDMDL
MODEL 4
REMARK VINA RESULT:    -4.568      3.418      5.512
REMARK INTER + INTRA:          -8.519
REMARK INTER:                  -6.627
REMARK INTRA:                  -1.892
REMARK UNBOUND:                -0.746
REMARK SMILES CCCCCCCCCCCCCC(=O)[O-]
REMARK SMILES IDX 8 1 9 2 10 3 11 4 12 5 13 6 14 7 15 8 16 9 7 10 6 11 5 12
REMARK SMILES IDX 4 13 3 14 2 15 1 16
REMARK H PARENT
REMARK Flexibility Score: inf
ROOT
ATOM      1  C   UNL     1      10.472  16.421  22.387  1.00  0.00     0.000 C 
ENDROOT
BRANCH   1   2
ATOM      2  C   UNL     1      11.357  17.528  21.791  1.00  0.00     0.000 C 
BRANCH   2   3
ATOM      3  C   UNL     1      12.804  17.066  21.551  1.00  0.00     0.000 C 
BRANCH   3   4
ATOM      4  C   UNL     1      13.634  18.121  20.786  1.00  0.00     0.000 C 
BRANCH   4   5
ATOM      5  C   UNL     1      14.521  18.986  21.701  1.00  0.00     0.006 C 
BRANCH   5   6
ATOM      6  C   UNL     1      13.883  20.322  22.108  1.00  0.00     0.053 C 
BRANCH   6   7
ATOM      7  C   UNL     1      13.109  20.933  20.979  1.00  0.00     0.041 C 
ATOM      8  O   UNL     1      13.709  21.391  19.971  1.00  0.00    -0.550 OA
ATOM      9  O   UNL     1      11.721  20.982  21.035  1.00  0.00    -0.550 OA
ENDBRANCH   6   7
ENDBRANCH   5   6
ENDBRANCH   4   5
ENDBRANCH   3   4
ENDBRANCH   2   3
ENDBRANCH   1   2
BRANCH   1  10
ATOM     10  C   UNL     1      11.284  15.223  22.900  1.00  0.00     0.000 C 
BRANCH  10  11
ATOM     11  C   UNL     1      11.346  15.219  24.433  1.00  0.00    -0.000 C 
BRANCH  11  12
ATOM     12  C   UNL     1      12.752  15.591  24.927  1.00  0.00    -0.000 C 
BRANCH  12  13
ATOM     13  C   UNL     1      12.765  16.857  25.802  1.00  0.00    -0.000 C 
BRANCH  13  14
ATOM     14  C   UNL     1      13.146  18.153  25.062  1.00  0.00    -0.000 C 
BRANCH  14  15
ATOM     15  C   UNL     1      12.327  19.367  25.522  1.00  0.00    -0.003 C 
ATOM     16  C   UNL     1      10.910  19.322  24.955  1.00  0.00     0.004 C 
ENDBRANCH  14  15
ENDBRANCH  13  14
ENDBRANCH  12  13
ENDBRANCH  11  12
ENDBRANCH  10  11
ENDBRANCH   1  10
TORSDOF 12
ENDMDL
MODEL 5
REMARK VINA RESULT:    -4.554      1.936      2.884
REMARK INTER + INTRA:          -8.495
REMARK INTER:                  -7.152
REMARK INTRA:                  -1.343
REMARK UNBOUND:                -0.746
REMARK SMILES CCCCCCCCCCCCCC(=O)[O-]
REMARK SMILES IDX 8 1 9 2 10 3 11 4 12 5 13 6 14 7 15 8 16 9 7 10 6 11 5 12
REMARK SMILES IDX 4 13 3 14 2 15 1 16
REMARK H PARENT
REMARK Flexibility Score: inf
ROOT
ATOM      1  C   UNL     1      10.268  13.304  21.817  1.00  0.00     0.000 C 
ENDROOT
BRANCH   1   2
ATOM      2  C   UNL     1      11.392  12.673  22.654  1.00  0.00     0.000 C 
BRANCH   2   3
ATOM      3  C   UNL     1      12.662  13.541  22.695  1.00  0.00     0.000 C 
BRANCH   3   4
ATOM      4  C   UNL     1      12.933  14.111  24.105  1.00  0.00     0.000 C 
BRANCH   4   5
ATOM      5  C   UNL     1      13.015  15.649  24.140  1.00  0.00     0.006 C 
BRANCH   5   6
ATOM      6  C   UNL     1      11.782  16.328  24.753  1.00  0.00     0.053 C 
BRANCH   6   7
ATOM      7  C   UNL     1      11.221  17.381  23.848  1.00  0.00     0.041 C 
ATOM      8  O   UNL     1      10.929  18.520  24.301  1.00  0.00    -0.550 OA
ATOM      9  O   UNL     1      11.034  17.110  22.498  1.00  0.00    -0.550 OA
ENDBRANCH   6   7
ENDBRANCH   5   6
ENDBRANCH   4   5
ENDBRANCH   3   4
ENDBRANCH   2   3
ENDBRANCH   1   2
BRANCH   1  10
ATOM     10  C   UNL     1       9.237  14.051  22.675  1.00  0.00     0.000 C 
BRANCH  10  11
ATOM     11  C   UNL     1       7.817  13.835  22.138  1.00  0.00    -0.000 C 
BRANCH  11  12
ATOM     12  C   UNL     1       6.865  13.396  23.261  1.00  0.00    -0.000 C 
BRANCH  12  13
ATOM     13  C   UNL     1       6.133  12.079  22.947  1.00  0.00    -0.000 C 
BRANCH  13  14
ATOM     14  C   UNL     1       6.768  11.234  21.827  1.00  0.00    -0.000 C 
BRANCH  14  15
ATOM     15  C   UNL     1       7.406   9.937  22.345  1.00  0.00    -0.003 C 
ATOM     16  C   UNL     1       8.569  10.235  23.288  1.00  0.00     0.004 C 
ENDBRANCH  14  15
ENDBRANCH  13  14
ENDBRANCH  12  13
ENDBRANCH  11  12
ENDBRANCH  10  11
ENDBRANCH   1  10
TORSDOF 12
ENDMDL
MODEL 6
REMARK VINA RESULT:    -4.541      1.660      3.188
REMARK INTER + INTRA:          -8.472
REMARK INTER:                  -7.372
REMARK INTRA:                  -1.100
REMARK UNBOUND:                -0.746
REMARK SMILES CCCCCCCCCCCCCC(=O)[O-]
REMARK SMILES IDX 8 1 9 2 10 3 11 4 12 5 13 6 14 7 15 8 16 9 7 10 6 11 5 12
REMARK SMILES IDX 4 13 3 14 2 15 1 16
REMARK H PARENT
REMARK Flexibility Score: inf
ROOT
ATOM      1  C   UNL     1       9.168  14.438  22.664  1.00  0.00     0.000 C 
ENDROOT
BRANCH   1   2
ATOM      2  C   UNL     1      10.287  13.409  22.434  1.00  0.00     0.000 C 
BRANCH   2   3
ATOM      3  C   UNL     1      11.639  13.863  23.010  1.00  0.00     0.000 C 
BRANCH   3   4
ATOM      4  C   UNL     1      11.472  14.908  24.136  1.00  0.00     0.000 C 
BRANCH   4   5
ATOM      5  C   UNL     1      12.804  15.336  24.779  1.00  0.00     0.006 C 
BRANCH   5   6
ATOM      6  C   UNL     1      12.750  16.701  25.481  1.00  0.00     0.053 C 
BRANCH   6   7
ATOM      7  C   UNL     1      13.394  17.774  24.658  1.00  0.00     0.041 C 
ATOM      8  O   UNL     1      14.432  17.527  23.989  1.00  0.00    -0.550 OA
ATOM      9  O   UNL     1      12.836  19.046  24.615  1.00  0.00    -0.550 OA
ENDBRANCH   6   7
ENDBRANCH   5   6
ENDBRANCH   4   5
ENDBRANCH   3   4
ENDBRANCH   2   3
ENDBRANCH   1   2
BRANCH   1  10
ATOM     10  C   UNL     1       7.816  13.983  22.096  1.00  0.00     0.000 C 
BRANCH  10  11
ATOM     11  C   UNL     1       6.874  13.528  23.217  1.00  0.00    -0.000 C 
BRANCH  11  12
ATOM     12  C   UNL     1       6.444  12.067  23.015  1.00  0.00    -0.000 C 
BRANCH  12  13
ATOM     13  C   UNL     1       6.872  11.499  21.650  1.00  0.00    -0.000 C 
BRANCH  13  14
ATOM     14  C   UNL     1       7.729  10.222  21.718  1.00  0.00    -0.000 C 
BRANCH  14  15
ATOM     15  C   UNL     1       8.725  10.107  20.555  1.00  0.00    -0.003 C 
ATOM     16  C   UNL     1       8.730  11.377  19.707  1.00  0.00     0.004 C 
ENDBRANCH  14  15
ENDBRANCH  13  14
ENDBRANCH  12  13
ENDBRANCH  11  12
ENDBRANCH  10  11
ENDBRANCH   1  10
TORSDOF 12
ENDMDL
MODEL 7
REMARK VINA RESULT:    -4.529      3.999      7.908
REMARK INTER + INTRA:          -8.452
REMARK INTER:                  -7.459
REMARK INTRA:                  -0.992
REMARK UNBOUND:                -0.746
REMARK SMILES CCCCCCCCCCCCCC(=O)[O-]
REMARK SMILES IDX 8 1 9 2 10 3 11 4 12 5 13 6 14 7 15 8 16 9 7 10 6 11 5 12
REMARK SMILES IDX 4 13 3 14 2 15 1 16
REMARK H PARENT
REMARK Flexibility Score: inf
ROOT
ATOM      1  C   UNL     1      11.266  15.229  24.516  1.00  0.00     0.000 C 
ENDROOT
BRANCH   1   2
ATOM      2  C   UNL     1      10.827  15.357  23.048  1.00  0.00     0.000 C 
BRANCH   2   3
ATOM      3  C   UNL     1      10.332  14.025  22.460  1.00  0.00     0.000 C 
BRANCH   3   4
ATOM      4  C   UNL     1       8.802  14.018  22.238  1.00  0.00     0.000 C 
BRANCH   4   5
ATOM      5  C   UNL     1       8.199  12.603  22.161  1.00  0.00     0.006 C 
BRANCH   5   6
ATOM      6  C   UNL     1       6.934  12.415  23.010  1.00  0.00     0.053 C 
BRANCH   6   7
ATOM      7  C   UNL     1       6.186  11.176  22.624  1.00  0.00     0.041 C 
ATOM      8  O   UNL     1       4.926  11.162  22.639  1.00  0.00    -0.550 OA
ATOM      9  O   UNL     1       6.881  10.038  22.232  1.00  0.00    -0.550 OA
ENDBRANCH   6   7
ENDBRANCH   5   6
ENDBRANCH   4   5
ENDBRANCH   3   4
ENDBRANCH   2   3
ENDBRANCH   1   2
BRANCH   1  10
ATOM     10  C   UNL     1      12.558  16.003  24.819  1.00  0.00     0.000 C 
BRANCH  10  11
ATOM     11  C   UNL     1      12.245  17.399  25.372  1.00  0.00    -0.000 C 
BRANCH  11  12
ATOM     12  C   UNL     1      13.210  18.447  24.800  1.00  0.00    -0.000 C 
BRANCH  12  13
ATOM     13  C   UNL     1      14.256  17.842  23.845  1.00  0.00    -0.000 C 
BRANCH  13  14
ATOM     14  C   UNL     1      14.194  18.366  22.399  1.00  0.00    -0.000 C 
BRANCH  14  15
ATOM     15  C   UNL     1      13.253  17.546  21.505  1.00  0.00    -0.003 C 
ATOM     16  C   UNL     1      11.951  18.298  21.242  1.00  0.00     0.004 C 
ENDBRANCH  14  15
ENDBRANCH  13  14
ENDBRANCH  12  13
ENDBRANCH  11  12
ENDBRANCH  10  11
ENDBRANCH   1  10
TORSDOF 12
ENDMDL
MODEL 8
REMARK VINA RESULT:    -4.492      4.935      7.330
REMARK INTER + INTRA:          -8.388
REMARK INTER:                  -6.667
REMARK INTRA:                  -1.722
REMARK UNBOUND:                -0.746
REMARK SMILES CCCCCCCCCCCCCC(=O)[O-]
REMARK SMILES IDX 8 1 9 2 10 3 11 4 12 5 13 6 14 7 15 8 16 9 7 10 6 11 5 12
REMARK SMILES IDX 4 13 3 14 2 15 1 16
REMARK H PARENT
REMARK Flexibility Score: inf
ROOT
ATOM      1  C   UNL     1      13.492  20.715  22.523  1.00  0.00     0.000 C 
ENDROOT
BRANCH   1   2
ATOM      2  C   UNL     1      14.455  19.517  22.529  1.00  0.00     0.000 C 
BRANCH   2   3
ATOM      3  C   UNL     1      14.558  18.844  23.908  1.00  0.00     0.000 C 
BRANCH   3   4
ATOM      4  C   UNL     1      14.114  17.364  23.870  1.00  0.00     0.000 C 
BRANCH   4   5
ATOM      5  C   UNL     1      13.033  17.020  24.912  1.00  0.00     0.006 C 
BRANCH   5   6
ATOM      6  C   UNL     1      11.657  17.630  24.609  1.00  0.00     0.053 C 
BRANCH   6   7
ATOM      7  C   UNL     1      11.380  18.827  25.466  1.00  0.00     0.041 C 
ATOM      8  O   UNL     1      10.514  19.673  25.119  1.00  0.00    -0.550 OA
ATOM      9  O   UNL     1      12.069  19.001  26.661  1.00  0.00    -0.550 OA
ENDBRANCH   6   7
ENDBRANCH   5   6
ENDBRANCH   4   5
ENDBRANCH   3   4
ENDBRANCH   2   3
ENDBRANCH   1   2
BRANCH   1  10
ATOM     10  C   UNL     1      12.075  20.336  22.070  1.00  0.00     0.000 C 
BRANCH  10  11
ATOM     11  C   UNL     1      12.099  19.089  21.178  1.00  0.00    -0.000 C 
BRANCH  11  12
ATOM     12  C   UNL     1      11.200  19.276  19.946  1.00  0.00    -0.000 C 
BRANCH  12  13
ATOM     13  C   UNL     1      11.996  19.556  18.659  1.00  0.00    -0.000 C 
BRANCH  13  14
ATOM     14  C   UNL     1      13.526  19.479  18.812  1.00  0.00    -0.000 C 
BRANCH  14  15
ATOM     15  C   UNL     1      14.201  20.857  18.789  1.00  0.00    -0.003 C 
ATOM     16  C   UNL     1      15.679  20.754  19.158  1.00  0.00     0.004 C 
ENDBRANCH  14  15
ENDBRANCH  13  14
ENDBRANCH  12  13
ENDBRANCH  11  12
ENDBRANCH  10  11
ENDBRANCH   1  10
TORSDOF 12
ENDMDL
MODEL 9
REMARK VINA RESULT:    -4.491      1.582      2.147
REMARK INTER + INTRA:          -8.387
REMARK INTER:                  -7.625
REMARK INTRA:                  -0.762
REMARK UNBOUND:                -0.746
REMARK SMILES CCCCCCCCCCCCCC(=O)[O-]
REMARK SMILES IDX 8 1 9 2 10 3 11 4 12 5 13 6 14 7 15 8 16 9 7 10 6 11 5 12
REMARK SMILES IDX 4 13 3 14 2 15 1 16
REMARK H PARENT
REMARK Flexibility Score: inf
ROOT
ATOM      1  C   UNL     1      10.765  16.069  23.250  1.00  0.00     0.000 C 
ENDROOT
BRANCH   1   2
ATOM      2  C   UNL     1      11.400  15.231  24.371  1.00  0.00     0.000 C 
BRANCH   2   3
ATOM      3  C   UNL     1      12.498  15.994  25.133  1.00  0.00     0.000 C 
BRANCH   3   4
ATOM      4  C   UNL     1      13.586  16.549  24.187  1.00  0.00     0.000 C 
BRANCH   4   5
ATOM      5  C   UNL     1      13.868  18.050  24.389  1.00  0.00     0.006 C 
BRANCH   5   6
ATOM      6  C   UNL     1      12.904  18.740  25.365  1.00  0.00     0.053 C 
BRANCH   6   7
ATOM      7  C   UNL     1      11.877  19.559  24.643  1.00  0.00     0.041 C 
ATOM      8  O   UNL     1      12.217  20.316  23.696  1.00  0.00    -0.550 OA
ATOM      9  O   UNL     1      10.539  19.474  25.008  1.00  0.00    -0.550 OA
ENDBRANCH   6   7
ENDBRANCH   5   6
ENDBRANCH   4   5
ENDBRANCH   3   4
ENDBRANCH   2   3
ENDBRANCH   1   2
BRANCH   1  10
ATOM     10  C   UNL     1       9.912  15.228  22.290  1.00  0.00     0.000 C 
BRANCH  10  11
ATOM     11  C   UNL     1      10.426  13.785  22.219  1.00  0.00    -0.000 C 
BRANCH  11  12
ATOM     12  C   UNL     1       9.392  12.864  21.555  1.00  0.00    -0.000 C 
BRANCH  12  13
ATOM     13  C   UNL     1       8.586  12.035  22.570  1.00  0.00    -0.000 C 
BRANCH  13  14
ATOM     14  C   UNL     1       7.314  11.375  22.007  1.00  0.00    -0.000 C 
BRANCH  14  15
ATOM     15  C   UNL     1       6.048  11.749  22.790  1.00  0.00    -0.003 C 
ATOM     16  C   UNL     1       4.924  10.749  22.530  1.00  0.00     0.004 C 
ENDBRANCH  14  15
ENDBRANCH  13  14
ENDBRANCH  12  13
ENDBRANCH  11  12
ENDBRANCH  10  11
ENDBRANCH   1  10
TORSDOF 12
ENDMDL
