MODEL 1
REMARK VINA RESULT:    -3.367      0.000      0.000
REMARK INTER + INTRA:          -8.890
REMARK INTER:                  -6.320
REMARK INTRA:                  -2.571
REMARK UNBOUND:                -2.571
REMARK SMILES CCCCCCCCC=CCCCCCCCC(=O)[O-]
REMARK SMILES IDX 10 1 9 2 11 3 12 4 13 5 14 6 15 7 16 8 17 9 18 10 19 11
REMARK SMILES IDX 20 12 8 13 7 14 6 15 5 16 4 17 3 18 2 19 1 20
REMARK H PARENT
REMARK Flexibility Score: inf
ROOT
ATOM      1  C   UNL     1      57.376  29.261  51.949  1.00  0.00    -0.031 C 
ATOM      2  C   UNL     1      56.194  29.157  51.323  1.00  0.00    -0.031 C 
ENDROOT
BRANCH   1   3
ATOM      3  C   UNL     1      58.673  29.281  51.186  1.00  0.00     0.027 C 
BRANCH   3   4
ATOM      4  C   UNL     1      58.479  28.954  49.697  1.00  0.00     0.004 C 
BRANCH   4   5
ATOM      5  C   UNL     1      59.657  28.145  49.127  1.00  0.00     0.000 C 
BRANCH   5   6
ATOM      6  C   UNL     1      60.072  26.980  50.038  1.00  0.00     0.000 C 
BRANCH   6   7
ATOM      7  C   UNL     1      61.598  26.794  50.098  1.00  0.00     0.000 C 
BRANCH   7   8
ATOM      8  C   UNL     1      62.360  27.854  49.280  1.00  0.00     0.006 C 
BRANCH   8   9
ATOM      9  C   UNL     1      63.185  28.837  50.127  1.00  0.00     0.053 C 
BRANCH   9  10
ATOM     10  C   UNL     1      62.926  30.262  49.743  1.00  0.00     0.041 C 
ATOM     11  O   UNL     1      61.803  30.786  49.968  1.00  0.00    -0.550 OA
ATOM     12  O   UNL     1      63.937  31.022  49.167  1.00  0.00    -0.550 OA
ENDBRANCH   9  10
ENDBRANCH   8   9
ENDBRANCH   7   8
ENDBRANCH   6   7
ENDBRANCH   5   6
ENDBRANCH   4   5
ENDBRANCH   3   4
ENDBRANCH   1   3
BRANCH   2  13
ATOM     13  C   UNL     1      54.894  29.175  52.082  1.00  0.00     0.027 C 
BRANCH  13  14
ATOM     14  C   UNL     1      53.716  28.763  51.192  1.00  0.00     0.004 C 
BRANCH  14  15
ATOM     15  C   UNL     1      54.179  28.123  49.871  1.00  0.00     0.000 C 
BRANCH  15  16
ATOM     16  C   UNL     1      53.609  26.701  49.681  1.00  0.00     0.000 C 
BRANCH  16  17
ATOM     17  C   UNL     1      54.615  25.586  50.010  1.00  0.00    -0.000 C 
BRANCH  17  18
ATOM     18  C   UNL     1      56.075  26.036  49.862  1.00  0.00    -0.000 C 
BRANCH  18  19
ATOM     19  C   UNL     1      56.911  25.594  51.068  1.00  0.00    -0.003 C 
ATOM     20  C   UNL     1      56.072  25.573  52.343  1.00  0.00     0.004 C 
ENDBRANCH  18  19
ENDBRANCH  17  18
ENDBRANCH  16  17
ENDBRANCH  15  16
ENDBRANCH  14  15
ENDBRANCH  13  14
ENDBRANCH   2  13
TORSDOF 15
ENDMDL
MODEL 2
REMARK VINA RESULT:    -3.367     11.323     13.378
REMARK INTER + INTRA:          -8.889
REMARK INTER:                  -6.838
REMARK INTRA:                  -2.051
REMARK UNBOUND:                -2.571
REMARK SMILES CCCCCCCCC=CCCCCCCCC(=O)[O-]
REMARK SMILES IDX 10 1 9 2 11 3 12 4 13 5 14 6 15 7 16 8 17 9 18 10 19 11
REMARK SMILES IDX 20 12 8 13 7 14 6 15 5 16 4 17 3 18 2 19 1 20
REMARK H PARENT
REMARK Flexibility Score: inf
ROOT
ATOM      1  C   UNL     1      62.457  32.380  60.405  1.00  0.00    -0.031 C 
ATOM      2  C   UNL     1      63.134  33.459  60.826  1.00  0.00    -0.031 C 
ENDROOT
BRANCH   1   3
ATOM      3  C   UNL     1      61.098  32.038  60.956  1.00  0.00     0.027 C 
BRANCH   3   4
ATOM      4  C   UNL     1      61.137  30.815  61.885  1.00  0.00     0.004 C 
BRANCH   4   5
ATOM      5  C   UNL     1      62.486  30.080  61.814  1.00  0.00     0.000 C 
BRANCH   5   6
ATOM      6  C   UNL     1      62.407  28.774  61.008  1.00  0.00     0.000 C 
BRANCH   6   7
ATOM      7  C   UNL     1      63.684  28.507  60.192  1.00  0.00     0.000 C 
BRANCH   7   8
ATOM      8  C   UNL     1      64.944  29.104  60.846  1.00  0.00     0.006 C 
BRANCH   8   9
ATOM      9  C   UNL     1      66.154  28.155  60.874  1.00  0.00     0.053 C 
BRANCH   9  10
ATOM     10  C   UNL     1      67.451  28.897  60.778  1.00  0.00     0.041 C 
ATOM     11  O   UNL     1      67.775  29.474  59.707  1.00  0.00    -0.550 OA
ATOM     12  O   UNL     1      68.289  28.979  61.885  1.00  0.00    -0.550 OA
ENDBRANCH   9  10
ENDBRANCH   8   9
ENDBRANCH   7   8
ENDBRANCH   6   7
ENDBRANCH   5   6
ENDBRANCH   4   5
ENDBRANCH   3   4
ENDBRANCH   1   3
BRANCH   2  13
ATOM     13  C   UNL     1      64.476  33.824  60.250  1.00  0.00     0.027 C 
BRANCH  13  14
ATOM     14  C   UNL     1      64.805  35.304  60.480  1.00  0.00     0.004 C 
BRANCH  14  15
ATOM     15  C   UNL     1      63.838  35.968  61.477  1.00  0.00     0.000 C 
BRANCH  15  16
ATOM     16  C   UNL     1      63.042  37.123  60.833  1.00  0.00     0.000 C 
BRANCH  16  17
ATOM     17  C   UNL     1      61.524  37.023  61.056  1.00  0.00    -0.000 C 
BRANCH  17  18
ATOM     18  C   UNL     1      60.833  36.094  60.049  1.00  0.00    -0.000 C 
BRANCH  18  19
ATOM     19  C   UNL     1      61.489  36.196  58.667  1.00  0.00    -0.003 C 
ATOM     20  C   UNL     1      61.377  34.879  57.904  1.00  0.00     0.004 C 
ENDBRANCH  18  19
ENDBRANCH  17  18
ENDBRANCH  16  17
ENDBRANCH  15  16
ENDBRANCH  14  15
ENDBRANCH  13  14
ENDBRANCH   2  13
TORSDOF 15
ENDMDL
MODEL 3
REMARK VINA RESULT:    -3.255      2.837      6.273
REMARK INTER + INTRA:          -8.680
REMARK INTER:                  -6.148
REMARK INTRA:                  -2.532
REMARK UNBOUND:                -2.571
REMARK SMILES CCCCCCCCC=CCCCCCCCC(=O)[O-]
REMARK SMILES IDX 10 1 9 2 11 3 12 4 13 5 14 6 15 7 16 8 17 9 18 10 19 11
REMARK SMILES IDX 20 12 8 13 7 14 6 15 5 16 4 17 3 18 2 19 1 20
REMARK H PARENT
REMARK Flexibility Score: inf
ROOT
ATOM      1  C   UNL     1      57.049  27.073  51.264  1.00  0.00    -0.031 C 
ATOM      2  C   UNL     1      57.394  27.973  50.331  1.00  0.00    -0.031 C 
ENDROOT
BRANCH   1   3
ATOM      3  C   UNL     1      56.275  25.831  50.913  1.00  0.00     0.027 C 
BRANCH   3   4
ATOM      4  C   UNL     1      55.435  26.008  49.638  1.00  0.00     0.004 C 
BRANCH   4   5
ATOM      5  C   UNL     1      53.934  25.796  49.903  1.00  0.00     0.000 C 
BRANCH   5   6
ATOM      6  C   UNL     1      53.089  27.025  49.535  1.00  0.00     0.000 C 
BRANCH   6   7
ATOM      7  C   UNL     1      53.785  28.348  49.896  1.00  0.00     0.000 C 
BRANCH   7   8
ATOM      8  C   UNL     1      53.477  28.811  51.332  1.00  0.00     0.006 C 
BRANCH   8   9
ATOM      9  C   UNL     1      54.193  30.107  51.749  1.00  0.00     0.053 C 
BRANCH   9  10
ATOM     10  C   UNL     1      55.173  29.875  52.857  1.00  0.00     0.041 C 
ATOM     11  O   UNL     1      56.041  30.746  53.128  1.00  0.00    -0.550 OA
ATOM     12  O   UNL     1      55.107  28.710  53.612  1.00  0.00    -0.550 OA
ENDBRANCH   9  10
ENDBRANCH   8   9
ENDBRANCH   7   8
ENDBRANCH   6   7
ENDBRANCH   5   6
ENDBRANCH   4   5
ENDBRANCH   3   4
ENDBRANCH   1   3
BRANCH   2  13
ATOM     13  C   UNL     1      58.201  29.197  50.673  1.00  0.00     0.027 C 
BRANCH  13  14
ATOM     14  C   UNL     1      59.567  29.185  49.978  1.00  0.00     0.004 C 
BRANCH  14  15
ATOM     15  C   UNL     1      59.765  27.934  49.103  1.00  0.00     0.000 C 
BRANCH  15  16
ATOM     16  C   UNL     1      60.830  26.980  49.684  1.00  0.00     0.000 C 
BRANCH  16  17
ATOM     17  C   UNL     1      60.324  25.542  49.885  1.00  0.00    -0.000 C 
BRANCH  17  18
ATOM     18  C   UNL     1      60.037  25.209  51.355  1.00  0.00    -0.000 C 
BRANCH  18  19
ATOM     19  C   UNL     1      59.519  23.774  51.502  1.00  0.00    -0.003 C 
ATOM     20  C   UNL     1      58.713  23.607  52.788  1.00  0.00     0.004 C 
ENDBRANCH  18  19
ENDBRANCH  17  18
ENDBRANCH  16  17
ENDBRANCH  15  16
ENDBRANCH  14  15
ENDBRANCH  13  14
ENDBRANCH   2  13
TORSDOF 15
ENDMDL
MODEL 4
REMARK VINA RESULT:    -3.242      1.330      3.113
REMARK INTER + INTRA:          -8.656
REMARK INTER:                  -5.868
REMARK INTRA:                  -2.787
REMARK UNBOUND:                -2.571
REMARK SMILES CCCCCCCCC=CCCCCCCCC(=O)[O-]
REMARK SMILES IDX 10 1 9 2 11 3 12 4 13 5 14 6 15 7 16 8 17 9 18 10 19 11
REMARK SMILES IDX 20 12 8 13 7 14 6 15 5 16 4 17 3 18 2 19 1 20
REMARK H PARENT
REMARK Flexibility Score: inf
ROOT
ATOM      1  C   UNL     1      55.750  25.880  50.677  1.00  0.00    -0.031 C 
ATOM      2  C   UNL     1      55.079  26.598  49.764  1.00  0.00    -0.031 C 
ENDROOT
BRANCH   1   3
ATOM      3  C   UNL     1      57.249  25.957  50.794  1.00  0.00     0.027 C 
BRANCH   3   4
ATOM      4  C   UNL     1      57.698  26.768  52.019  1.00  0.00     0.004 C 
BRANCH   4   5
ATOM      5  C   UNL     1      58.598  27.954  51.626  1.00  0.00     0.000 C 
BRANCH   5   6
ATOM      6  C   UNL     1      58.129  28.653  50.341  1.00  0.00     0.000 C 
BRANCH   6   7
ATOM      7  C   UNL     1      59.243  28.752  49.285  1.00  0.00     0.000 C 
BRANCH   7   8
ATOM      8  C   UNL     1      60.229  27.570  49.346  1.00  0.00     0.006 C 
BRANCH   8   9
ATOM      9  C   UNL     1      61.712  27.980  49.343  1.00  0.00     0.053 C 
BRANCH   9  10
ATOM     10  C   UNL     1      61.987  29.098  50.300  1.00  0.00     0.041 C 
ATOM     11  O   UNL     1      61.972  28.890  51.541  1.00  0.00    -0.550 OA
ATOM     12  O   UNL     1      62.292  30.366  49.819  1.00  0.00    -0.550 OA
ENDBRANCH   9  10
ENDBRANCH   8   9
ENDBRANCH   7   8
ENDBRANCH   6   7
ENDBRANCH   5   6
ENDBRANCH   4   5
ENDBRANCH   3   4
ENDBRANCH   1   3
BRANCH   2  13
ATOM     13  C   UNL     1      53.577  26.551  49.671  1.00  0.00     0.027 C 
BRANCH  13  14
ATOM     14  C   UNL     1      52.959  27.947  49.812  1.00  0.00     0.004 C 
BRANCH  14  15
ATOM     15  C   UNL     1      54.001  29.009  50.206  1.00  0.00     0.000 C 
BRANCH  15  16
ATOM     16  C   UNL     1      53.835  29.474  51.668  1.00  0.00     0.000 C 
BRANCH  16  17
ATOM     17  C   UNL     1      55.167  29.627  52.421  1.00  0.00    -0.000 C 
BRANCH  17  18
ATOM     18  C   UNL     1      55.263  28.723  53.656  1.00  0.00    -0.000 C 
BRANCH  18  19
ATOM     19  C   UNL     1      54.151  27.667  53.652  1.00  0.00    -0.003 C 
ATOM     20  C   UNL     1      54.658  26.331  54.188  1.00  0.00     0.004 C 
ENDBRANCH  18  19
ENDBRANCH  17  18
ENDBRANCH  16  17
ENDBRANCH  15  16
ENDBRANCH  14  15
ENDBRANCH  13  14
ENDBRANCH   2  13
TORSDOF 15
ENDMDL
MODEL 5
REMARK VINA RESULT:    -3.230     10.962     12.978
REMARK INTER + INTRA:          -8.633
REMARK INTER:                  -6.396
REMARK INTRA:                  -2.236
REMARK UNBOUND:                -2.571
REMARK SMILES CCCCCCCCC=CCCCCCCCC(=O)[O-]
REMARK SMILES IDX 10 1 9 2 11 3 12 4 13 5 14 6 15 7 16 8 17 9 18 10 19 11
REMARK SMILES IDX 20 12 8 13 7 14 6 15 5 16 4 17 3 18 2 19 1 20
REMARK H PARENT
REMARK Flexibility Score: inf
ROOT
ATOM      1  C   UNL     1      61.155  31.937  61.186  1.00  0.00    -0.031 C 
ATOM      2  C   UNL     1      60.985  32.268  59.897  1.00  0.00    -0.031 C 
ENDROOT
BRANCH   1   3
ATOM      3  C   UNL     1      61.021  30.513  61.658  1.00  0.00     0.027 C 
BRANCH   3   4
ATOM      4  C   UNL     1      60.539  29.572  60.544  1.00  0.00     0.004 C 
BRANCH   4   5
ATOM      5  C   UNL     1      61.568  28.469  60.237  1.00  0.00     0.000 C 
BRANCH   5   6
ATOM      6  C   UNL     1      62.439  28.116  61.452  1.00  0.00     0.000 C 
BRANCH   6   7
ATOM      7  C   UNL     1      61.926  26.876  62.204  1.00  0.00     0.000 C 
BRANCH   7   8
ATOM      8  C   UNL     1      60.853  26.102  61.415  1.00  0.00     0.006 C 
BRANCH   8   9
ATOM      9  C   UNL     1      59.495  25.993  62.130  1.00  0.00     0.053 C 
BRANCH   9  10
ATOM     10  C   UNL     1      58.415  26.727  61.397  1.00  0.00     0.041 C 
ATOM     11  O   UNL     1      58.398  26.739  60.138  1.00  0.00    -0.550 OA
ATOM     12  O   UNL     1      57.408  27.372  62.105  1.00  0.00    -0.550 OA
ENDBRANCH   9  10
ENDBRANCH   8   9
ENDBRANCH   7   8
ENDBRANCH   6   7
ENDBRANCH   5   6
ENDBRANCH   4   5
ENDBRANCH   3   4
ENDBRANCH   1   3
BRANCH   2  13
ATOM     13  C   UNL     1      61.155  33.684  59.416  1.00  0.00     0.027 C 
BRANCH  13  14
ATOM     14  C   UNL     1      61.571  34.621  60.555  1.00  0.00     0.004 C 
BRANCH  14  15
ATOM     15  C   UNL     1      63.007  35.147  60.383  1.00  0.00     0.000 C 
BRANCH  15  16
ATOM     16  C   UNL     1      64.041  34.268  61.120  1.00  0.00     0.000 C 
BRANCH  16  17
ATOM     17  C   UNL     1      64.599  33.122  60.260  1.00  0.00    -0.000 C 
BRANCH  17  18
ATOM     18  C   UNL     1      64.521  31.758  60.958  1.00  0.00    -0.000 C 
BRANCH  18  19
ATOM     19  C   UNL     1      64.788  30.618  59.969  1.00  0.00    -0.003 C 
ATOM     20  C   UNL     1      65.722  29.572  60.572  1.00  0.00     0.004 C 
ENDBRANCH  18  19
ENDBRANCH  17  18
ENDBRANCH  16  17
ENDBRANCH  15  16
ENDBRANCH  14  15
ENDBRANCH  13  14
ENDBRANCH   2  13
TORSDOF 15
ENDMDL
MODEL 6
REMARK VINA RESULT:    -3.223     10.649     12.944
REMARK INTER + INTRA:          -8.620
REMARK INTER:                  -6.116
REMARK INTRA:                  -2.505
REMARK UNBOUND:                -2.571
REMARK SMILES CCCCCCCCC=CCCCCCCCC(=O)[O-]
REMARK SMILES IDX 10 1 9 2 11 3 12 4 13 5 14 6 15 7 16 8 17 9 18 10 19 11
REMARK SMILES IDX 20 12 8 13 7 14 6 15 5 16 4 17 3 18 2 19 1 20
REMARK H PARENT
REMARK Flexibility Score: inf
ROOT
ATOM      1  C   UNL     1      62.505  32.575  57.914  1.00  0.00    -0.031 C 
ATOM      2  C   UNL     1      63.742  32.829  58.367  1.00  0.00    -0.031 C 
ENDROOT
BRANCH   1   3
ATOM      3  C   UNL     1      61.694  31.423  58.442  1.00  0.00     0.027 C 
BRANCH   3   4
ATOM      4  C   UNL     1      60.682  31.863  59.511  1.00  0.00     0.004 C 
BRANCH   4   5
ATOM      5  C   UNL     1      61.336  32.008  60.897  1.00  0.00     0.000 C 
BRANCH   5   6
ATOM      6  C   UNL     1      61.143  30.763  61.776  1.00  0.00     0.000 C 
BRANCH   6   7
ATOM      7  C   UNL     1      62.378  29.846  61.776  1.00  0.00     0.000 C 
BRANCH   7   8
ATOM      8  C   UNL     1      63.681  30.601  61.449  1.00  0.00     0.006 C 
BRANCH   8   9
ATOM      9  C   UNL     1      64.518  29.964  60.327  1.00  0.00     0.053 C 
BRANCH   9  10
ATOM     10  C   UNL     1      65.347  28.821  60.825  1.00  0.00     0.041 C 
ATOM     11  O   UNL     1      66.478  29.033  61.337  1.00  0.00    -0.550 OA
ATOM     12  O   UNL     1      64.856  27.523  60.755  1.00  0.00    -0.550 OA
ENDBRANCH   9  10
ENDBRANCH   8   9
ENDBRANCH   7   8
ENDBRANCH   6   7
ENDBRANCH   5   6
ENDBRANCH   4   5
ENDBRANCH   3   4
ENDBRANCH   1   3
BRANCH   2  13
ATOM     13  C   UNL     1      64.541  34.003  57.868  1.00  0.00     0.027 C 
BRANCH  13  14
ATOM     14  C   UNL     1      64.487  35.181  58.848  1.00  0.00     0.004 C 
BRANCH  14  15
ATOM     15  C   UNL     1      64.616  34.726  60.312  1.00  0.00     0.000 C 
BRANCH  15  16
ATOM     16  C   UNL     1      63.297  34.901  61.095  1.00  0.00     0.000 C 
BRANCH  16  17
ATOM     17  C   UNL     1      62.682  36.305  60.958  1.00  0.00    -0.000 C 
BRANCH  17  18
ATOM     18  C   UNL     1      61.165  36.272  60.731  1.00  0.00    -0.000 C 
BRANCH  18  19
ATOM     19  C   UNL     1      60.814  36.706  59.303  1.00  0.00    -0.003 C 
ATOM     20  C   UNL     1      60.612  35.496  58.393  1.00  0.00     0.004 C 
ENDBRANCH  18  19
ENDBRANCH  17  18
ENDBRANCH  16  17
ENDBRANCH  15  16
ENDBRANCH  14  15
ENDBRANCH  13  14
ENDBRANCH   2  13
TORSDOF 15
ENDMDL
MODEL 7
REMARK VINA RESULT:    -3.207      9.935     11.822
REMARK INTER + INTRA:          -8.590
REMARK INTER:                  -5.440
REMARK INTRA:                  -3.150
REMARK UNBOUND:                -2.571
REMARK SMILES CCCCCCCCC=CCCCCCCCC(=O)[O-]
REMARK SMILES IDX 10 1 9 2 11 3 12 4 13 5 14 6 15 7 16 8 17 9 18 10 19 11
REMARK SMILES IDX 20 12 8 13 7 14 6 15 5 16 4 17 3 18 2 19 1 20
REMARK H PARENT
REMARK Flexibility Score: inf
ROOT
ATOM      1  C   UNL     1      61.468  33.489  60.725  1.00  0.00    -0.031 C 
ATOM      2  C   UNL     1      61.024  32.629  59.797  1.00  0.00    -0.031 C 
ENDROOT
BRANCH   1   3
ATOM      3  C   UNL     1      61.568  34.966  60.448  1.00  0.00     0.027 C 
BRANCH   3   4
ATOM      4  C   UNL     1      62.866  35.576  60.996  1.00  0.00     0.004 C 
BRANCH   4   5
ATOM      5  C   UNL     1      64.011  34.548  61.044  1.00  0.00     0.000 C 
BRANCH   5   6
ATOM      6  C   UNL     1      64.818  34.499  59.738  1.00  0.00     0.000 C 
BRANCH   6   7
ATOM      7  C   UNL     1      64.774  33.113  59.071  1.00  0.00     0.000 C 
BRANCH   7   8
ATOM      8  C   UNL     1      63.907  33.092  57.798  1.00  0.00     0.006 C 
BRANCH   8   9
ATOM      9  C   UNL     1      63.850  34.433  57.046  1.00  0.00     0.053 C 
BRANCH   9  10
ATOM     10  C   UNL     1      62.448  34.941  56.912  1.00  0.00     0.041 C 
ATOM     11  O   UNL     1      62.185  36.148  57.155  1.00  0.00    -0.550 OA
ATOM     12  O   UNL     1      61.436  34.089  56.485  1.00  0.00    -0.550 OA
ENDBRANCH   9  10
ENDBRANCH   8   9
ENDBRANCH   7   8
ENDBRANCH   6   7
ENDBRANCH   5   6
ENDBRANCH   4   5
ENDBRANCH   3   4
ENDBRANCH   1   3
BRANCH   2  13
ATOM     13  C   UNL     1      60.887  31.157  60.085  1.00  0.00     0.027 C 
BRANCH  13  14
ATOM     14  C   UNL     1      61.108  30.849  61.570  1.00  0.00     0.004 C 
BRANCH  14  15
ATOM     15  C   UNL     1      62.294  29.896  61.798  1.00  0.00     0.000 C 
BRANCH  15  16
ATOM     16  C   UNL     1      63.653  30.602  61.612  1.00  0.00     0.000 C 
BRANCH  16  17
ATOM     17  C   UNL     1      64.658  29.793  60.775  1.00  0.00    -0.000 C 
BRANCH  17  18
ATOM     18  C   UNL     1      63.978  28.857  59.766  1.00  0.00    -0.000 C 
BRANCH  18  19
ATOM     19  C   UNL     1      64.091  29.411  58.341  1.00  0.00    -0.003 C 
ATOM     20  C   UNL     1      62.781  29.238  57.577  1.00  0.00     0.004 C 
ENDBRANCH  18  19
ENDBRANCH  17  18
ENDBRANCH  16  17
ENDBRANCH  15  16
ENDBRANCH  14  15
ENDBRANCH  13  14
ENDBRANCH   2  13
TORSDOF 15
ENDMDL
MODEL 8
REMARK VINA RESULT:    -3.170      1.457      2.494
REMARK INTER + INTRA:          -8.520
REMARK INTER:                  -5.552
REMARK INTRA:                  -2.968
REMARK UNBOUND:                -2.571
REMARK SMILES CCCCCCCCC=CCCCCCCCC(=O)[O-]
REMARK SMILES IDX 10 1 9 2 11 3 12 4 13 5 14 6 15 7 16 8 17 9 18 10 19 11
REMARK SMILES IDX 20 12 8 13 7 14 6 15 5 16 4 17 3 18 2 19 1 20
REMARK H PARENT
REMARK Flexibility Score: inf
ROOT
ATOM      1  C   UNL     1      58.178  26.906  53.254  1.00  0.00    -0.031 C 
ATOM      2  C   UNL     1      57.412  27.719  52.512  1.00  0.00    -0.031 C 
ENDROOT
BRANCH   1   3
ATOM      3  C   UNL     1      58.718  25.613  52.704  1.00  0.00     0.027 C 
BRANCH   3   4
ATOM      4  C   UNL     1      58.290  25.374  51.248  1.00  0.00     0.004 C 
BRANCH   4   5
ATOM      5  C   UNL     1      59.495  25.106  50.329  1.00  0.00     0.000 C 
BRANCH   5   6
ATOM      6  C   UNL     1      60.053  26.390  49.695  1.00  0.00     0.000 C 
BRANCH   6   7
ATOM      7  C   UNL     1      58.948  27.398  49.338  1.00  0.00     0.000 C 
BRANCH   7   8
ATOM      8  C   UNL     1      59.398  28.861  49.510  1.00  0.00     0.006 C 
BRANCH   8   9
ATOM      9  C   UNL     1      60.374  29.092  50.676  1.00  0.00     0.053 C 
BRANCH   9  10
ATOM     10  C   UNL     1      61.666  29.693  50.215  1.00  0.00     0.041 C 
ATOM     11  O   UNL     1      61.831  30.941  50.243  1.00  0.00    -0.550 OA
ATOM     12  O   UNL     1      62.701  28.871  49.785  1.00  0.00    -0.550 OA
ENDBRANCH   9  10
ENDBRANCH   8   9
ENDBRANCH   7   8
ENDBRANCH   6   7
ENDBRANCH   5   6
ENDBRANCH   4   5
ENDBRANCH   3   4
ENDBRANCH   1   3
BRANCH   2  13
ATOM     13  C   UNL     1      56.903  29.031  53.047  1.00  0.00     0.027 C 
BRANCH  13  14
ATOM     14  C   UNL     1      55.777  29.598  52.175  1.00  0.00     0.004 C 
BRANCH  14  15
ATOM     15  C   UNL     1      55.672  28.878  50.818  1.00  0.00     0.000 C 
BRANCH  15  16
ATOM     16  C   UNL     1      54.208  28.701  50.364  1.00  0.00     0.000 C 
BRANCH  16  17
ATOM     17  C   UNL     1      53.931  27.346  49.692  1.00  0.00    -0.000 C 
BRANCH  17  18
ATOM     18  C   UNL     1      54.894  26.243  50.153  1.00  0.00    -0.000 C 
BRANCH  18  19
ATOM     19  C   UNL     1      54.202  25.284  51.129  1.00  0.00    -0.003 C 
ATOM     20  C   UNL     1      54.526  25.642  52.577  1.00  0.00     0.004 C 
ENDBRANCH  18  19
ENDBRANCH  17  18
ENDBRANCH  16  17
ENDBRANCH  15  16
ENDBRANCH  14  15
ENDBRANCH  13  14
ENDBRANCH   2  13
TORSDOF 15
ENDMDL
MODEL 9
REMARK VINA RESULT:    -3.149      3.467      6.664
REMARK INTER + INTRA:          -8.480
REMARK INTER:                  -5.676
REMARK INTRA:                  -2.804
REMARK UNBOUND:                -2.571
REMARK SMILES CCCCCCCCC=CCCCCCCCC(=O)[O-]
REMARK SMILES IDX 10 1 9 2 11 3 12 4 13 5 14 6 15 7 16 8 17 9 18 10 19 11
REMARK SMILES IDX 20 12 8 13 7 14 6 15 5 16 4 17 3 18 2 19 1 20
REMARK H PARENT
REMARK Flexibility Score: inf
ROOT
ATOM      1  C   UNL     1      57.957  25.422  52.843  1.00  0.00    -0.031 C 
ATOM      2  C   UNL     1      59.042  26.184  53.046  1.00  0.00    -0.031 C 
ENDROOT
BRANCH   1   3
ATOM      3  C   UNL     1      56.595  25.846  53.326  1.00  0.00     0.027 C 
BRANCH   3   4
ATOM      4  C   UNL     1      55.572  25.935  52.183  1.00  0.00     0.004 C 
BRANCH   4   5
ATOM      5  C   UNL     1      56.245  25.858  50.801  1.00  0.00     0.000 C 
BRANCH   5   6
ATOM      6  C   UNL     1      55.259  26.101  49.648  1.00  0.00     0.000 C 
BRANCH   6   7
ATOM      7  C   UNL     1      54.094  27.020  50.054  1.00  0.00     0.000 C 
BRANCH   7   8
ATOM      8  C   UNL     1      54.490  28.509  50.075  1.00  0.00     0.006 C 
BRANCH   8   9
ATOM      9  C   UNL     1      53.360  29.459  50.507  1.00  0.00     0.053 C 
BRANCH   9  10
ATOM     10  C   UNL     1      53.532  29.929  51.918  1.00  0.00     0.041 C 
ATOM     11  O   UNL     1      53.503  31.159  52.186  1.00  0.00    -0.550 OA
ATOM     12  O   UNL     1      53.690  29.006  52.945  1.00  0.00    -0.550 OA
ENDBRANCH   9  10
ENDBRANCH   8   9
ENDBRANCH   7   8
ENDBRANCH   6   7
ENDBRANCH   5   6
ENDBRANCH   4   5
ENDBRANCH   3   4
ENDBRANCH   1   3
BRANCH   2  13
ATOM     13  C   UNL     1      60.398  25.780  52.531  1.00  0.00     0.027 C 
BRANCH  13  14
ATOM     14  C   UNL     1      60.301  25.094  51.164  1.00  0.00     0.004 C 
BRANCH  14  15
ATOM     15  C   UNL     1      60.702  26.032  50.011  1.00  0.00     0.000 C 
BRANCH  15  16
ATOM     16  C   UNL     1      59.478  26.702  49.352  1.00  0.00     0.000 C 
BRANCH  16  17
ATOM     17  C   UNL     1      59.500  28.237  49.432  1.00  0.00    -0.000 C 
BRANCH  17  18
ATOM     18  C   UNL     1      58.223  28.822  50.051  1.00  0.00    -0.000 C 
BRANCH  18  19
ATOM     19  C   UNL     1      58.508  29.421  51.433  1.00  0.00    -0.003 C 
ATOM     20  C   UNL     1      57.259  29.399  52.312  1.00  0.00     0.004 C 
ENDBRANCH  18  19
ENDBRANCH  17  18
ENDBRANCH  16  17
ENDBRANCH  15  16
ENDBRANCH  14  15
ENDBRANCH  13  14
ENDBRANCH   2  13
TORSDOF 15
ENDMDL
