MODEL 1
REMARK VINA RESULT:    -4.393      0.000      0.000
REMARK INTER + INTRA:          -7.136
REMARK INTER:                  -6.319
REMARK INTRA:                  -0.816
REMARK UNBOUND:                -0.816
REMARK SMILES O=C(CO)[C@H](O)[C@H](O)[C@@H](O)CO
REMARK SMILES IDX 7 1 9 2 11 3 12 4 10 6 5 8 2 9 1 10 3 11 4 12 6 14 8 16
REMARK H PARENT 12 5 10 7 4 13 6 15 8 17
REMARK Flexibility Score: inf
ROOT
ATOM      1  C   UNL     1       8.229  18.467  40.103  1.00  0.00     0.181 C 
ENDROOT
BRANCH   1   2
ATOM      2  C   UNL     1       6.738  18.143  39.812  1.00  0.00     0.171 C 
BRANCH   2   3
ATOM      3  C   UNL     1       6.311  16.778  40.391  1.00  0.00     0.190 C 
BRANCH   3   4
ATOM      4  O   UNL     1       6.994  15.729  39.759  1.00  0.00    -0.394 OA
ATOM      5  H   UNL     1       6.341  14.990  39.647  1.00  0.00     0.210 HD
ENDBRANCH   3   4
ENDBRANCH   2   3
BRANCH   2   6
ATOM      6  O   UNL     1       6.457  18.209  38.435  1.00  0.00    -0.388 OA
ATOM      7  H   UNL     1       5.510  17.943  38.302  1.00  0.00     0.211 HD
ENDBRANCH   2   6
ENDBRANCH   1   2
BRANCH   1   8
ATOM      8  C   UNL     1       8.473  19.987  40.279  1.00  0.00     0.214 C 
BRANCH   8   9
ATOM      9  C   UNL     1       7.899  20.484  41.593  1.00  0.00     0.189 C 
ATOM     10  O   UNL     1       8.271  19.953  42.629  1.00  0.00    -0.294 OA
BRANCH   9  11
ATOM     11  C   UNL     1       6.868  21.584  41.689  1.00  0.00     0.234 C 
BRANCH  11  12
ATOM     12  O   UNL     1       7.350  22.804  41.191  1.00  0.00    -0.388 OA
ATOM     13  H   UNL     1       7.414  23.430  41.959  1.00  0.00     0.211 HD
ENDBRANCH  11  12
ENDBRANCH   9  11
ENDBRANCH   8   9
BRANCH   8  14
ATOM     14  O   UNL     1       7.910  20.694  39.204  1.00  0.00    -0.382 OA
ATOM     15  H   UNL     1       8.629  21.265  38.827  1.00  0.00     0.211 HD
ENDBRANCH   8  14
ENDBRANCH   1   8
BRANCH   1  16
ATOM     16  O   UNL     1       9.066  17.929  39.105  1.00  0.00    -0.387 OA
ATOM     17  H   UNL     1       9.334  18.667  38.498  1.00  0.00     0.211 HD
ENDBRANCH   1  16
TORSDOF 10
ENDMDL
MODEL 2
REMARK VINA RESULT:    -4.267      1.797      4.542
REMARK INTER + INTRA:          -6.953
REMARK INTER:                  -6.062
REMARK INTRA:                  -0.891
REMARK UNBOUND:                -0.816
REMARK SMILES O=C(CO)[C@H](O)[C@H](O)[C@@H](O)CO
REMARK SMILES IDX 7 1 9 2 11 3 12 4 10 6 5 8 2 9 1 10 3 11 4 12 6 14 8 16
REMARK H PARENT 12 5 10 7 4 13 6 15 8 17
REMARK Flexibility Score: inf
ROOT
ATOM      1  C   UNL     1       6.787  21.181  40.568  1.00  0.00     0.181 C 
ENDROOT
BRANCH   1   2
ATOM      2  C   UNL     1       6.801  22.717  40.340  1.00  0.00     0.171 C 
BRANCH   2   3
ATOM      3  C   UNL     1       7.724  23.128  39.173  1.00  0.00     0.190 C 
BRANCH   3   4
ATOM      4  O   UNL     1       7.010  23.193  37.968  1.00  0.00    -0.394 OA
ATOM      5  H   UNL     1       6.556  22.318  37.858  1.00  0.00     0.210 HD
ENDBRANCH   3   4
ENDBRANCH   2   3
BRANCH   2   6
ATOM      6  O   UNL     1       7.148  23.409  41.515  1.00  0.00    -0.388 OA
ATOM      7  H   UNL     1       8.137  23.394  41.599  1.00  0.00     0.211 HD
ENDBRANCH   2   6
ENDBRANCH   1   2
BRANCH   1   8
ATOM      8  C   UNL     1       8.210  20.611  40.798  1.00  0.00     0.214 C 
BRANCH   8   9
ATOM      9  C   UNL     1       8.232  19.105  40.613  1.00  0.00     0.189 C 
ATOM     10  O   UNL     1       7.688  18.407  41.456  1.00  0.00    -0.294 OA
BRANCH   9  11
ATOM     11  C   UNL     1       8.917  18.417  39.456  1.00  0.00     0.234 C 
BRANCH  11  12
ATOM     12  O   UNL     1       8.438  18.868  38.216  1.00  0.00    -0.388 OA
ATOM     13  H   UNL     1       8.282  19.845  38.298  1.00  0.00     0.211 HD
ENDBRANCH  11  12
ENDBRANCH   9  11
ENDBRANCH   8   9
BRANCH   8  14
ATOM     14  O   UNL     1       8.663  20.950  42.084  1.00  0.00    -0.382 OA
ATOM     15  H   UNL     1       9.625  21.183  41.997  1.00  0.00     0.211 HD
ENDBRANCH   8  14
ENDBRANCH   1   8
BRANCH   1  16
ATOM     16  O   UNL     1       6.139  20.520  39.506  1.00  0.00    -0.387 OA
ATOM     17  H   UNL     1       5.386  21.089  39.203  1.00  0.00     0.211 HD
ENDBRANCH   1  16
TORSDOF 10
ENDMDL
MODEL 3
REMARK VINA RESULT:    -4.180      1.436      4.239
REMARK INTER + INTRA:          -6.829
REMARK INTER:                  -5.647
REMARK INTRA:                  -1.182
REMARK UNBOUND:                -0.816
REMARK SMILES O=C(CO)[C@H](O)[C@H](O)[C@@H](O)CO
REMARK SMILES IDX 7 1 9 2 11 3 12 4 10 6 5 8 2 9 1 10 3 11 4 12 6 14 8 16
REMARK H PARENT 12 5 10 7 4 13 6 15 8 17
REMARK Flexibility Score: inf
ROOT
ATOM      1  C   UNL     1       6.459  20.159  41.253  1.00  0.00     0.181 C 
ENDROOT
BRANCH   1   2
ATOM      2  C   UNL     1       6.633  21.702  41.291  1.00  0.00     0.171 C 
BRANCH   2   3
ATOM      3  C   UNL     1       6.717  22.318  39.878  1.00  0.00     0.190 C 
BRANCH   3   4
ATOM      4  O   UNL     1       7.774  21.756  39.148  1.00  0.00    -0.394 OA
ATOM      5  H   UNL     1       7.971  20.876  39.562  1.00  0.00     0.210 HD
ENDBRANCH   3   4
ENDBRANCH   2   3
BRANCH   2   6
ATOM      6  O   UNL     1       7.749  22.075  42.062  1.00  0.00    -0.388 OA
ATOM      7  H   UNL     1       7.433  22.665  42.795  1.00  0.00     0.211 HD
ENDBRANCH   2   6
ENDBRANCH   1   2
BRANCH   1   8
ATOM      8  C   UNL     1       7.789  19.414  41.529  1.00  0.00     0.214 C 
BRANCH   8   9
ATOM      9  C   UNL     1       7.963  18.237  40.586  1.00  0.00     0.189 C 
ATOM     10  O   UNL     1       7.331  17.215  40.807  1.00  0.00    -0.294 OA
BRANCH   9  11
ATOM     11  C   UNL     1       8.898  18.252  39.400  1.00  0.00     0.234 C 
BRANCH  11  12
ATOM     12  O   UNL     1       8.363  18.960  38.313  1.00  0.00    -0.388 OA
ATOM     13  H   UNL     1       9.127  19.293  37.773  1.00  0.00     0.211 HD
ENDBRANCH  11  12
ENDBRANCH   9  11
ENDBRANCH   8   9
BRANCH   8  14
ATOM     14  O   UNL     1       7.828  18.976  42.864  1.00  0.00    -0.382 OA
ATOM     15  H   UNL     1       8.615  19.412  43.285  1.00  0.00     0.211 HD
ENDBRANCH   8  14
ENDBRANCH   1   8
BRANCH   1  16
ATOM     16  O   UNL     1       5.888  19.746  40.033  1.00  0.00    -0.387 OA
ATOM     17  H   UNL     1       5.042  19.270  40.235  1.00  0.00     0.211 HD
ENDBRANCH   1  16
TORSDOF 10
ENDMDL
MODEL 4
REMARK VINA RESULT:    -4.168      1.635      2.091
REMARK INTER + INTRA:          -6.812
REMARK INTER:                  -5.860
REMARK INTRA:                  -0.952
REMARK UNBOUND:                -0.816
REMARK SMILES O=C(CO)[C@H](O)[C@H](O)[C@@H](O)CO
REMARK SMILES IDX 7 1 9 2 11 3 12 4 10 6 5 8 2 9 1 10 3 11 4 12 6 14 8 16
REMARK H PARENT 12 5 10 7 4 13 6 15 8 17
REMARK Flexibility Score: inf
ROOT
ATOM      1  C   UNL     1       8.371  19.199  40.185  1.00  0.00     0.181 C 
ENDROOT
BRANCH   1   2
ATOM      2  C   UNL     1       7.733  17.889  40.721  1.00  0.00     0.171 C 
BRANCH   2   3
ATOM      3  C   UNL     1       6.860  17.184  39.662  1.00  0.00     0.190 C 
BRANCH   3   4
ATOM      4  O   UNL     1       6.942  15.790  39.791  1.00  0.00    -0.394 OA
ATOM      5  H   UNL     1       6.139  15.415  39.344  1.00  0.00     0.210 HD
ENDBRANCH   3   4
ENDBRANCH   2   3
BRANCH   2   6
ATOM      6  O   UNL     1       6.996  18.120  41.898  1.00  0.00    -0.388 OA
ATOM      7  H   UNL     1       6.031  18.045  41.676  1.00  0.00     0.211 HD
ENDBRANCH   2   6
ENDBRANCH   1   2
BRANCH   1   8
ATOM      8  C   UNL     1       7.911  20.444  40.985  1.00  0.00     0.214 C 
BRANCH   8   9
ATOM      9  C   UNL     1       6.709  21.101  40.330  1.00  0.00     0.189 C 
ATOM     10  O   UNL     1       5.647  20.497  40.323  1.00  0.00    -0.294 OA
BRANCH   9  11
ATOM     11  C   UNL     1       6.762  22.453  39.659  1.00  0.00     0.234 C 
BRANCH  11  12
ATOM     12  O   UNL     1       7.729  22.502  38.643  1.00  0.00    -0.388 OA
ATOM     13  H   UNL     1       7.784  23.443  38.333  1.00  0.00     0.211 HD
ENDBRANCH  11  12
ENDBRANCH   9  11
ENDBRANCH   8   9
BRANCH   8  14
ATOM     14  O   UNL     1       8.967  21.363  41.096  1.00  0.00    -0.382 OA
ATOM     15  H   UNL     1       8.568  22.269  41.017  1.00  0.00     0.211 HD
ENDBRANCH   8  14
ENDBRANCH   1   8
BRANCH   1  16
ATOM     16  O   UNL     1       8.118  19.356  38.808  1.00  0.00    -0.387 OA
ATOM     17  H   UNL     1       7.350  19.975  38.706  1.00  0.00     0.211 HD
ENDBRANCH   1  16
TORSDOF 10
ENDMDL
MODEL 5
REMARK VINA RESULT:    -4.112      1.710      3.049
REMARK INTER + INTRA:          -6.731
REMARK INTER:                  -5.801
REMARK INTRA:                  -0.929
REMARK UNBOUND:                -0.816
REMARK SMILES O=C(CO)[C@H](O)[C@H](O)[C@@H](O)CO
REMARK SMILES IDX 7 1 9 2 11 3 12 4 10 6 5 8 2 9 1 10 3 11 4 12 6 14 8 16
REMARK H PARENT 12 5 10 7 4 13 6 15 8 17
REMARK Flexibility Score: inf
ROOT
ATOM      1  C   UNL     1       7.826  20.570  40.593  1.00  0.00     0.181 C 
ENDROOT
BRANCH   1   2
ATOM      2  C   UNL     1       8.495  19.174  40.708  1.00  0.00     0.171 C 
BRANCH   2   3
ATOM      3  C   UNL     1       8.127  18.248  39.530  1.00  0.00     0.190 C 
BRANCH   3   4
ATOM      4  O   UNL     1       8.551  18.795  38.310  1.00  0.00    -0.394 OA
ATOM      5  H   UNL     1       8.145  19.698  38.247  1.00  0.00     0.210 HD
ENDBRANCH   3   4
ENDBRANCH   2   3
BRANCH   2   6
ATOM      6  O   UNL     1       8.193  18.558  41.937  1.00  0.00    -0.388 OA
ATOM      7  H   UNL     1       7.472  17.895  41.779  1.00  0.00     0.211 HD
ENDBRANCH   2   6
ENDBRANCH   1   2
BRANCH   1   8
ATOM      8  C   UNL     1       7.395  21.127  41.973  1.00  0.00     0.214 C 
BRANCH   8   9
ATOM      9  C   UNL     1       6.694  22.466  41.829  1.00  0.00     0.189 C 
ATOM     10  O   UNL     1       6.823  23.080  40.780  1.00  0.00    -0.294 OA
BRANCH   9  11
ATOM     11  C   UNL     1       5.867  23.097  42.924  1.00  0.00     0.234 C 
BRANCH  11  12
ATOM     12  O   UNL     1       6.638  23.411  44.053  1.00  0.00    -0.388 OA
ATOM     13  H   UNL     1       6.546  24.387  44.211  1.00  0.00     0.211 HD
ENDBRANCH  11  12
ENDBRANCH   9  11
ENDBRANCH   8   9
BRANCH   8  14
ATOM     14  O   UNL     1       8.514  21.253  42.814  1.00  0.00    -0.382 OA
ATOM     15  H   UNL     1       8.218  21.766  43.610  1.00  0.00     0.211 HD
ENDBRANCH   8  14
ENDBRANCH   1   8
BRANCH   1  16
ATOM     16  O   UNL     1       6.740  20.537  39.696  1.00  0.00    -0.387 OA
ATOM     17  H   UNL     1       6.616  19.599  39.399  1.00  0.00     0.211 HD
ENDBRANCH   1  16
TORSDOF 10
ENDMDL
MODEL 6
REMARK VINA RESULT:    -4.037      1.896      4.648
REMARK INTER + INTRA:          -6.623
REMARK INTER:                  -5.978
REMARK INTRA:                  -0.645
REMARK UNBOUND:                -0.816
REMARK SMILES O=C(CO)[C@H](O)[C@H](O)[C@@H](O)CO
REMARK SMILES IDX 7 1 9 2 11 3 12 4 10 6 5 8 2 9 1 10 3 11 4 12 6 14 8 16
REMARK H PARENT 12 5 10 7 4 13 6 15 8 17
REMARK Flexibility Score: inf
ROOT
ATOM      1  C   UNL     1       7.859  21.307  40.150  1.00  0.00     0.181 C 
ENDROOT
BRANCH   1   2
ATOM      2  C   UNL     1       7.046  22.630  40.212  1.00  0.00     0.171 C 
BRANCH   2   3
ATOM      3  C   UNL     1       7.579  23.692  39.228  1.00  0.00     0.190 C 
BRANCH   3   4
ATOM      4  O   UNL     1       8.921  24.000  39.500  1.00  0.00    -0.394 OA
ATOM      5  H   UNL     1       8.947  24.377  40.417  1.00  0.00     0.210 HD
ENDBRANCH   3   4
ENDBRANCH   2   3
BRANCH   2   6
ATOM      6  O   UNL     1       7.000  23.144  41.521  1.00  0.00    -0.388 OA
ATOM      7  H   UNL     1       6.789  22.395  42.137  1.00  0.00     0.211 HD
ENDBRANCH   2   6
ENDBRANCH   1   2
BRANCH   1   8
ATOM      8  C   UNL     1       6.989  20.071  40.492  1.00  0.00     0.214 C 
BRANCH   8   9
ATOM      9  C   UNL     1       7.850  18.837  40.696  1.00  0.00     0.189 C 
ATOM     10  O   UNL     1       8.125  18.502  41.839  1.00  0.00    -0.294 OA
BRANCH   9  11
ATOM     11  C   UNL     1       8.408  18.014  39.560  1.00  0.00     0.234 C 
BRANCH  11  12
ATOM     12  O   UNL     1       8.500  18.750  38.369  1.00  0.00    -0.388 OA
ATOM     13  H   UNL     1       7.687  19.318  38.311  1.00  0.00     0.211 HD
ENDBRANCH  11  12
ENDBRANCH   9  11
ENDBRANCH   8   9
BRANCH   8  14
ATOM     14  O   UNL     1       6.049  19.845  39.472  1.00  0.00    -0.382 OA
ATOM     15  H   UNL     1       5.306  20.486  39.621  1.00  0.00     0.211 HD
ENDBRANCH   8  14
ENDBRANCH   1   8
BRANCH   1  16
ATOM     16  O   UNL     1       8.996  21.375  40.978  1.00  0.00    -0.387 OA
ATOM     17  H   UNL     1       9.621  20.656  40.702  1.00  0.00     0.211 HD
ENDBRANCH   1  16
TORSDOF 10
ENDMDL
MODEL 7
REMARK VINA RESULT:    -4.026      1.784      4.821
REMARK INTER + INTRA:          -6.607
REMARK INTER:                  -5.648
REMARK INTRA:                  -0.959
REMARK UNBOUND:                -0.816
REMARK SMILES O=C(CO)[C@H](O)[C@H](O)[C@@H](O)CO
REMARK SMILES IDX 7 1 9 2 11 3 12 4 10 6 5 8 2 9 1 10 3 11 4 12 6 14 8 16
REMARK H PARENT 12 5 10 7 4 13 6 15 8 17
REMARK Flexibility Score: inf
ROOT
ATOM      1  C   UNL     1       6.634  19.370  42.150  1.00  0.00     0.181 C 
ENDROOT
BRANCH   1   2
ATOM      2  C   UNL     1       6.835  20.011  43.550  1.00  0.00     0.171 C 
BRANCH   2   3
ATOM      3  C   UNL     1       7.476  21.413  43.467  1.00  0.00     0.190 C 
BRANCH   3   4
ATOM      4  O   UNL     1       8.728  21.355  42.839  1.00  0.00    -0.394 OA
ATOM      5  H   UNL     1       9.159  20.513  43.138  1.00  0.00     0.210 HD
ENDBRANCH   3   4
ENDBRANCH   2   3
BRANCH   2   6
ATOM      6  O   UNL     1       7.583  19.173  44.397  1.00  0.00    -0.388 OA
ATOM      7  H   UNL     1       8.341  18.804  43.873  1.00  0.00     0.211 HD
ENDBRANCH   2   6
ENDBRANCH   1   2
BRANCH   1   8
ATOM      8  C   UNL     1       7.684  18.270  41.855  1.00  0.00     0.214 C 
BRANCH   8   9
ATOM      9  C   UNL     1       7.792  18.002  40.364  1.00  0.00     0.189 C 
ATOM     10  O   UNL     1       8.720  18.505  39.748  1.00  0.00    -0.294 OA
BRANCH   9  11
ATOM     11  C   UNL     1       6.796  17.169  39.593  1.00  0.00     0.234 C 
BRANCH  11  12
ATOM     12  O   UNL     1       6.952  15.796  39.842  1.00  0.00    -0.388 OA
ATOM     13  H   UNL     1       6.155  15.497  40.353  1.00  0.00     0.211 HD
ENDBRANCH  11  12
ENDBRANCH   9  11
ENDBRANCH   8   9
BRANCH   8  14
ATOM     14  O   UNL     1       7.350  17.088  42.538  1.00  0.00    -0.382 OA
ATOM     15  H   UNL     1       6.408  17.186  42.835  1.00  0.00     0.211 HD
ENDBRANCH   8  14
ENDBRANCH   1   8
BRANCH   1  16
ATOM     16  O   UNL     1       6.630  20.354  41.141  1.00  0.00    -0.387 OA
ATOM     17  H   UNL     1       6.229  19.956  40.326  1.00  0.00     0.211 HD
ENDBRANCH   1  16
TORSDOF 10
ENDMDL
MODEL 8
REMARK VINA RESULT:    -3.976      2.243      4.282
REMARK INTER + INTRA:          -6.535
REMARK INTER:                  -5.431
REMARK INTRA:                  -1.104
REMARK UNBOUND:                -0.816
REMARK SMILES O=C(CO)[C@H](O)[C@H](O)[C@@H](O)CO
REMARK SMILES IDX 7 1 9 2 11 3 12 4 10 6 5 8 2 9 1 10 3 11 4 12 6 14 8 16
REMARK H PARENT 12 5 10 7 4 13 6 15 8 17
REMARK Flexibility Score: inf
ROOT
ATOM      1  C   UNL     1       6.064  18.065  42.184  1.00  0.00     0.181 C 
ENDROOT
BRANCH   1   2
ATOM      2  C   UNL     1       6.111  17.848  43.721  1.00  0.00     0.171 C 
BRANCH   2   3
ATOM      3  C   UNL     1       6.413  19.151  44.489  1.00  0.00     0.190 C 
BRANCH   3   4
ATOM      4  O   UNL     1       7.764  19.507  44.362  1.00  0.00    -0.394 OA
ATOM      5  H   UNL     1       7.836  20.066  43.546  1.00  0.00     0.210 HD
ENDBRANCH   3   4
ENDBRANCH   2   3
BRANCH   2   6
ATOM      6  O   UNL     1       7.030  16.841  44.071  1.00  0.00    -0.388 OA
ATOM      7  H   UNL     1       7.128  16.231  43.294  1.00  0.00     0.211 HD
ENDBRANCH   2   6
ENDBRANCH   1   2
BRANCH   1   8
ATOM      8  C   UNL     1       7.361  17.582  41.486  1.00  0.00     0.214 C 
BRANCH   8   9
ATOM      9  C   UNL     1       8.096  18.740  40.836  1.00  0.00     0.189 C 
ATOM     10  O   UNL     1       8.456  19.671  41.542  1.00  0.00    -0.294 OA
BRANCH   9  11
ATOM     11  C   UNL     1       8.383  18.819  39.355  1.00  0.00     0.234 C 
BRANCH  11  12
ATOM     12  O   UNL     1       9.195  17.762  38.918  1.00  0.00    -0.388 OA
ATOM     13  H   UNL     1      10.137  18.070  38.977  1.00  0.00     0.211 HD
ENDBRANCH  11  12
ENDBRANCH   9  11
ENDBRANCH   8   9
BRANCH   8  14
ATOM     14  O   UNL     1       7.056  16.601  40.528  1.00  0.00    -0.382 OA
ATOM     15  H   UNL     1       6.466  17.030  39.855  1.00  0.00     0.211 HD
ENDBRANCH   8  14
ENDBRANCH   1   8
BRANCH   1  16
ATOM     16  O   UNL     1       5.790  19.411  41.874  1.00  0.00    -0.387 OA
ATOM     17  H   UNL     1       5.447  19.852  42.693  1.00  0.00     0.211 HD
ENDBRANCH   1  16
TORSDOF 10
ENDMDL
MODEL 9
REMARK VINA RESULT:    -3.941      1.949      3.970
REMARK INTER + INTRA:          -6.485
REMARK INTER:                  -5.686
REMARK INTRA:                  -0.799
REMARK UNBOUND:                -0.816
REMARK SMILES O=C(CO)[C@H](O)[C@H](O)[C@@H](O)CO
REMARK SMILES IDX 7 1 9 2 11 3 12 4 10 6 5 8 2 9 1 10 3 11 4 12 6 14 8 16
REMARK H PARENT 12 5 10 7 4 13 6 15 8 17
REMARK Flexibility Score: inf
ROOT
ATOM      1  C   UNL     1       8.204  18.530  41.030  1.00  0.00     0.181 C 
ENDROOT
BRANCH   1   2
ATOM      2  C   UNL     1       8.495  19.576  39.920  1.00  0.00     0.171 C 
BRANCH   2   3
ATOM      3  C   UNL     1       7.790  20.922  40.183  1.00  0.00     0.190 C 
BRANCH   3   4
ATOM      4  O   UNL     1       7.747  21.703  39.018  1.00  0.00    -0.394 OA
ATOM      5  H   UNL     1       8.520  22.323  39.062  1.00  0.00     0.210 HD
ENDBRANCH   3   4
ENDBRANCH   2   3
BRANCH   2   6
ATOM      6  O   UNL     1       8.161  19.080  38.646  1.00  0.00    -0.388 OA
ATOM      7  H   UNL     1       7.311  18.575  38.726  1.00  0.00     0.211 HD
ENDBRANCH   2   6
ENDBRANCH   1   2
BRANCH   1   8
ATOM      8  C   UNL     1       6.803  17.885  40.873  1.00  0.00     0.214 C 
BRANCH   8   9
ATOM      9  C   UNL     1       5.901  18.246  42.039  1.00  0.00     0.189 C 
ATOM     10  O   UNL     1       5.329  19.325  42.021  1.00  0.00    -0.294 OA
BRANCH   9  11
ATOM     11  C   UNL     1       5.694  17.352  43.240  1.00  0.00     0.234 C 
BRANCH  11  12
ATOM     12  O   UNL     1       6.906  16.853  43.742  1.00  0.00    -0.388 OA
ATOM     13  H   UNL     1       7.406  16.469  42.975  1.00  0.00     0.211 HD
ENDBRANCH  11  12
ENDBRANCH   9  11
ENDBRANCH   8   9
BRANCH   8  14
ATOM     14  O   UNL     1       6.924  16.489  40.765  1.00  0.00    -0.382 OA
ATOM     15  H   UNL     1       7.273  16.302  39.855  1.00  0.00     0.211 HD
ENDBRANCH   8  14
ENDBRANCH   1   8
BRANCH   1  16
ATOM     16  O   UNL     1       8.363  19.096  42.310  1.00  0.00    -0.387 OA
ATOM     17  H   UNL     1       7.486  19.062  42.772  1.00  0.00     0.211 HD
ENDBRANCH   1  16
TORSDOF 10
ENDMDL
