MODEL 1
REMARK VINA RESULT:    46.303      0.000      0.000
REMARK INTER + INTRA:          47.656
REMARK INTER:                  47.656
REMARK INTRA:                   0.000
REMARK UNBOUND:                 0.000
REMARK SMILES C[C@@H]1CC[C@@]2(OC1)O[C@H]1C[C@H]3[C@@H]4CC=C5C[C@H](O)CC[C@@]5(C)[C@@H]4CC[C@@]3(C)[C@H]1[C@@H]2C
REMARK SMILES IDX 1 1 2 2 3 3 4 4 5 5 29 6 28 7 9 8 8 9 10 10 11 11 26 12
REMARK SMILES IDX 25 13 24 14 23 15 12 16 13 17 14 18 15 19 21 20 20 21 19 22
REMARK SMILES IDX 17 23 16 24 22 25 27 26 30 27 6 28 7 29 18 30
REMARK H PARENT 18 31
REMARK Flexibility Score: inf
ROOT
ATOM      1  C   UNL     1      12.504   8.686  15.347  1.00  0.00     0.010 C 
ATOM      2  C   UNL     1      11.453   8.185  14.350  1.00  0.00     0.012 C 
ATOM      3  C   UNL     1      10.646   9.355  13.775  1.00  0.00     0.011 C 
ATOM      4  C   UNL     1       9.523   8.829  12.882  1.00  0.00     0.066 C 
ATOM      5  C   UNL     1       8.690   7.752  13.619  1.00  0.00     0.171 C 
ATOM      6  C   UNL     1       7.614   7.173  12.685  1.00  0.00     0.052 C 
ATOM      7  C   UNL     1       6.531   6.737  13.669  1.00  0.00     0.033 C 
ATOM      8  C   UNL     1       6.817   7.590  14.896  1.00  0.00     0.126 C 
ATOM      9  O   UNL     1       7.992   8.345  14.697  1.00  0.00    -0.346 OA
ATOM     10  C   UNL     1       5.620   8.500  15.095  1.00  0.00     0.037 C 
ATOM     11  C   UNL     1       4.427   7.774  14.471  1.00  0.00     0.002 C 
ATOM     12  C   UNL     1       5.005   6.907  13.308  1.00  0.00    -0.024 C 
ATOM     13  C   UNL     1       4.711   7.545  11.913  1.00  0.00     0.008 C 
ATOM     14  C   UNL     1       4.703   9.080  11.937  1.00  0.00     0.005 C 
ATOM     15  C   UNL     1       3.560   9.647  12.820  1.00  0.00     0.003 C 
ATOM     16  C   UNL     1       3.288   8.772  14.098  1.00  0.00     0.000 C 
ATOM     17  C   UNL     1       1.909   8.096  14.059  1.00  0.00     0.031 C 
ATOM     18  C   UNL     1       0.862   9.153  13.854  1.00  0.00    -0.027 C 
ATOM     19  C   UNL     1       1.053  10.158  12.972  1.00  0.00    -0.065 C 
ATOM     20  C   UNL     1       2.261  10.097  12.010  1.00  0.00    -0.008 C 
ATOM     21  C   UNL     1       2.556  11.476  11.314  1.00  0.00     0.014 C 
ATOM     22  C   UNL     1       1.964  12.678  12.044  1.00  0.00     0.033 C 
ATOM     23  C   UNL     1       0.448  12.526  12.157  1.00  0.00     0.118 C 
ATOM     24  C   UNL     1       0.090  11.330  13.051  1.00  0.00     0.063 C 
ATOM     25  C   UNL     1       1.860   9.103  10.882  1.00  0.00     0.016 C 
ATOM     26  C   UNL     1       4.353   5.501  13.325  1.00  0.00     0.012 C 
ATOM     27  C   UNL     1       8.104   6.016  11.794  1.00  0.00     0.014 C 
ATOM     28  O   UNL     1       9.532   6.704  14.096  1.00  0.00    -0.349 OA
ATOM     29  C   UNL     1      10.497   7.182  15.017  1.00  0.00     0.167 C 
ENDROOT
BRANCH  23  30
ATOM     30  O   UNL     1      -0.119  12.372  10.880  1.00  0.00    -0.393 OA
ATOM     31  H   UNL     1       0.456  11.732  10.383  1.00  0.00     0.210 HD
ENDBRANCH  23  30
TORSDOF 1
ENDMDL
