MODEL 1
REMARK VINA RESULT:    -7.359      0.000      0.000
REMARK INTER + INTRA:         -10.454
REMARK INTER:                  -9.940
REMARK INTRA:                  -0.514
REMARK UNBOUND:                -0.514
REMARK SMILES O=c1c(-c2ccc(O)cc2)coc2c([C@H]3O[C@@H](CO)[C@@H](O)[C@@H](O)[C@@H]3O)c(O)ccc12
REMARK SMILES IDX 3 1 11 2 12 3 13 4 30 5 2 6 1 7 29 8 28 9 26 10 14 11 4 12
REMARK SMILES IDX 5 13 6 14 7 15 10 16 9 17 8 18 15 20 24 21 16 22 22 23 17 24
REMARK SMILES IDX 20 25 25 26 23 28 18 30 19 31 21 33 27 35
REMARK H PARENT 8 19 25 27 23 29 19 32 21 34 27 36
REMARK Flexibility Score: inf
ROOT
ATOM      1  C   UNL     1       2.912  -6.292  -8.568  1.00  0.00     0.065 A 
ATOM      2  C   UNL     1       2.294  -7.467  -8.120  1.00  0.00     0.208 A 
ATOM      3  O   UNL     1       1.053  -7.446  -7.647  1.00  0.00    -0.463 OA
ATOM      4  C   UNL     1       0.321  -6.337  -7.564  1.00  0.00     0.147 A 
ATOM      5  C   UNL     1       0.870  -5.107  -7.994  1.00  0.00     0.066 A 
ATOM      6  C   UNL     1       2.186  -5.091  -8.494  1.00  0.00     0.200 A 
ATOM      7  O   UNL     1       2.717  -4.003  -8.855  1.00  0.00    -0.288 OA
ATOM      8  C   UNL     1       0.100  -3.939  -7.913  1.00  0.00     0.020 A 
ATOM      9  C   UNL     1      -1.204  -3.992  -7.431  1.00  0.00     0.047 A 
ATOM     10  C   UNL     1      -1.769  -5.199  -7.012  1.00  0.00     0.125 A 
ATOM     11  C   UNL     1      -0.998  -6.395  -7.047  1.00  0.00     0.069 A 
ENDROOT
BRANCH   1  12
ATOM     12  C   UNL     1       4.298  -6.341  -9.100  1.00  0.00    -0.011 A 
ATOM     13  C   UNL     1       4.533  -6.480 -10.480  1.00  0.00     0.013 A 
ATOM     14  C   UNL     1       5.840  -6.535 -10.972  1.00  0.00     0.047 A 
ATOM     15  C   UNL     1       6.928  -6.457 -10.094  1.00  0.00     0.115 A 
ATOM     16  C   UNL     1       5.396  -6.270  -8.224  1.00  0.00     0.013 A 
ATOM     17  C   UNL     1       6.702  -6.325  -8.721  1.00  0.00     0.047 A 
BRANCH  15  18
ATOM     18  O   UNL     1       8.235  -6.510 -10.575  1.00  0.00    -0.508 OA
ATOM     19  H   UNL     1       8.605  -5.789 -11.183  1.00  0.00     0.293 HD
ENDBRANCH  15  18
ENDBRANCH   1  12
BRANCH  11  20
ATOM     20  C   UNL     1      -1.562  -7.736  -6.585  1.00  0.00     0.188 C 
ATOM     21  C   UNL     1      -1.410  -7.889  -5.048  1.00  0.00     0.179 C 
ATOM     22  O   UNL     1      -0.919  -8.791  -7.287  1.00  0.00    -0.362 OA
ATOM     23  C   UNL     1      -1.903  -9.277  -4.597  1.00  0.00     0.177 C 
ATOM     24  C   UNL     1      -1.488 -10.046  -6.952  1.00  0.00     0.176 C 
ATOM     25  C   UNL     1      -1.251 -10.375  -5.459  1.00  0.00     0.177 C 
BRANCH  21  26
ATOM     26  O   UNL     1      -2.108  -6.874  -4.367  1.00  0.00    -0.387 OA
ATOM     27  H   UNL     1      -2.644  -7.303  -3.650  1.00  0.00     0.211 HD
ENDBRANCH  21  26
BRANCH  23  28
ATOM     28  O   UNL     1      -1.595  -9.467  -3.240  1.00  0.00    -0.387 OA
ATOM     29  H   UNL     1      -2.445  -9.704  -2.785  1.00  0.00     0.211 HD
ENDBRANCH  23  28
BRANCH  24  30
ATOM     30  C   UNL     1      -0.908 -11.125  -7.874  1.00  0.00     0.191 C 
BRANCH  30  31
ATOM     31  O   UNL     1       0.462 -10.914  -8.083  1.00  0.00    -0.394 OA
ATOM     32  H   UNL     1       0.642  -9.979  -7.804  1.00  0.00     0.210 HD
ENDBRANCH  30  31
ENDBRANCH  24  30
BRANCH  25  33
ATOM     33  O   UNL     1       0.128 -10.446  -5.193  1.00  0.00    -0.388 OA
ATOM     34  H   UNL     1       0.360 -11.409  -5.123  1.00  0.00     0.211 HD
ENDBRANCH  25  33
ENDBRANCH  11  20
BRANCH  10  35
ATOM     35  O   UNL     1      -3.097  -5.156  -6.577  1.00  0.00    -0.507 OA
ATOM     36  H   UNL     1      -3.383  -5.101  -5.610  1.00  0.00     0.293 HD
ENDBRANCH  10  35
TORSDOF 9
ENDMDL
MODEL 2
REMARK VINA RESULT:    -7.179      2.020      5.133
REMARK INTER + INTRA:         -10.211
REMARK INTER:                  -9.863
REMARK INTRA:                  -0.347
REMARK UNBOUND:                -0.514
REMARK SMILES O=c1c(-c2ccc(O)cc2)coc2c([C@H]3O[C@@H](CO)[C@@H](O)[C@@H](O)[C@@H]3O)c(O)ccc12
REMARK SMILES IDX 3 1 11 2 12 3 13 4 30 5 2 6 1 7 29 8 28 9 26 10 14 11 4 12
REMARK SMILES IDX 5 13 6 14 7 15 10 16 9 17 8 18 15 20 24 21 16 22 22 23 17 24
REMARK SMILES IDX 20 25 25 26 23 28 18 30 19 31 21 33 27 35
REMARK H PARENT 8 19 25 27 23 29 19 32 21 34 27 36
REMARK Flexibility Score: inf
ROOT
ATOM      1  C   UNL     1       2.017  -6.824  -8.366  1.00  0.00     0.065 A 
ATOM      2  C   UNL     1       1.181  -5.717  -8.567  1.00  0.00     0.208 A 
ATOM      3  O   UNL     1      -0.051  -5.694  -8.072  1.00  0.00    -0.463 OA
ATOM      4  C   UNL     1      -0.573  -6.695  -7.366  1.00  0.00     0.147 A 
ATOM      5  C   UNL     1       0.203  -7.850  -7.117  1.00  0.00     0.066 A 
ATOM      6  C   UNL     1       1.510  -7.912  -7.634  1.00  0.00     0.200 A 
ATOM      7  O   UNL     1       2.217  -8.944  -7.458  1.00  0.00    -0.288 OA
ATOM      8  C   UNL     1      -0.342  -8.903  -6.369  1.00  0.00     0.020 A 
ATOM      9  C   UNL     1      -1.631  -8.803  -5.857  1.00  0.00     0.047 A 
ATOM     10  C   UNL     1      -2.410  -7.665  -6.080  1.00  0.00     0.125 A 
ATOM     11  C   UNL     1      -1.898  -6.597  -6.868  1.00  0.00     0.069 A 
ENDROOT
BRANCH   1  12
ATOM     12  C   UNL     1       3.392  -6.823  -8.924  1.00  0.00    -0.011 A 
ATOM     13  C   UNL     1       4.500  -6.548  -8.102  1.00  0.00     0.013 A 
ATOM     14  C   UNL     1       5.792  -6.540  -8.635  1.00  0.00     0.047 A 
ATOM     15  C   UNL     1       5.994  -6.802  -9.996  1.00  0.00     0.115 A 
ATOM     16  C   UNL     1       3.604  -7.077 -10.291  1.00  0.00     0.013 A 
ATOM     17  C   UNL     1       4.898  -7.069 -10.821  1.00  0.00     0.047 A 
BRANCH  15  18
ATOM     18  O   UNL     1       7.278  -6.797 -10.537  1.00  0.00    -0.508 OA
ATOM     19  H   UNL     1       7.857  -5.966 -10.520  1.00  0.00     0.293 HD
ENDBRANCH  15  18
ENDBRANCH   1  12
BRANCH  11  20
ATOM     20  C   UNL     1      -2.713  -5.339  -7.157  1.00  0.00     0.188 C 
ATOM     21  C   UNL     1      -2.413  -4.812  -8.586  1.00  0.00     0.179 C 
ATOM     22  O   UNL     1      -2.445  -4.359  -6.165  1.00  0.00    -0.362 OA
ATOM     23  C   UNL     1      -3.174  -3.498  -8.843  1.00  0.00     0.177 C 
ATOM     24  C   UNL     1      -3.261  -3.213  -6.349  1.00  0.00     0.176 C 
ATOM     25  C   UNL     1      -2.927  -2.511  -7.685  1.00  0.00     0.177 C 
BRANCH  21  26
ATOM     26  O   UNL     1      -2.747  -5.772  -9.559  1.00  0.00    -0.387 OA
ATOM     27  H   UNL     1      -2.472  -6.662  -9.214  1.00  0.00     0.211 HD
ENDBRANCH  21  26
BRANCH  23  28
ATOM     28  O   UNL     1      -2.755  -2.944 -10.063  1.00  0.00    -0.387 OA
ATOM     29  H   UNL     1      -1.984  -3.487 -10.374  1.00  0.00     0.211 HD
ENDBRANCH  23  28
BRANCH  24  30
ATOM     30  C   UNL     1      -3.086  -2.273  -5.150  1.00  0.00     0.191 C 
BRANCH  30  31
ATOM     31  O   UNL     1      -3.305  -0.941  -5.528  1.00  0.00    -0.394 OA
ATOM     32  H   UNL     1      -2.694  -0.767  -6.291  1.00  0.00     0.210 HD
ENDBRANCH  30  31
ENDBRANCH  24  30
BRANCH  25  33
ATOM     33  O   UNL     1      -1.587  -2.086  -7.688  1.00  0.00    -0.388 OA
ATOM     34  H   UNL     1      -1.024  -2.902  -7.647  1.00  0.00     0.211 HD
ENDBRANCH  25  33
ENDBRANCH  11  20
BRANCH  10  35
ATOM     35  O   UNL     1      -3.680  -7.645  -5.494  1.00  0.00    -0.507 OA
ATOM     36  H   UNL     1      -4.293  -6.843  -5.479  1.00  0.00     0.293 HD
ENDBRANCH  10  35
TORSDOF 9
ENDMDL
MODEL 3
REMARK VINA RESULT:    -5.407      2.198      4.404
REMARK INTER + INTRA:          -7.818
REMARK INTER:                  -7.573
REMARK INTRA:                  -0.244
REMARK UNBOUND:                -0.514
REMARK SMILES O=c1c(-c2ccc(O)cc2)coc2c([C@H]3O[C@@H](CO)[C@@H](O)[C@@H](O)[C@@H]3O)c(O)ccc12
REMARK SMILES IDX 3 1 11 2 12 3 13 4 30 5 2 6 1 7 29 8 28 9 26 10 14 11 4 12
REMARK SMILES IDX 5 13 6 14 7 15 10 16 9 17 8 18 15 20 24 21 16 22 22 23 17 24
REMARK SMILES IDX 20 25 25 26 23 28 18 30 19 31 21 33 27 35
REMARK H PARENT 8 19 25 27 23 29 19 32 21 34 27 36
REMARK Flexibility Score: inf
ROOT
ATOM      1  C   UNL     1       3.939  -5.846  -9.347  1.00  0.00     0.065 A 
ATOM      2  C   UNL     1       3.056  -4.763  -9.456  1.00  0.00     0.208 A 
ATOM      3  O   UNL     1       1.808  -4.855  -9.012  1.00  0.00    -0.463 OA
ATOM      4  C   UNL     1       1.313  -5.954  -8.444  1.00  0.00     0.147 A 
ATOM      5  C   UNL     1       2.137  -7.092  -8.296  1.00  0.00     0.066 A 
ATOM      6  C   UNL     1       3.464  -7.033  -8.763  1.00  0.00     0.200 A 
ATOM      7  O   UNL     1       4.215  -8.044  -8.675  1.00  0.00    -0.288 OA
ATOM      8  C   UNL     1       1.621  -8.247  -7.694  1.00  0.00     0.020 A 
ATOM      9  C   UNL     1       0.311  -8.267  -7.226  1.00  0.00     0.047 A 
ATOM     10  C   UNL     1      -0.517  -7.149  -7.352  1.00  0.00     0.125 A 
ATOM     11  C   UNL     1      -0.032  -5.974  -7.993  1.00  0.00     0.069 A 
ENDROOT
BRANCH   1  12
ATOM     12  C   UNL     1       5.332  -5.717  -9.845  1.00  0.00    -0.011 A 
ATOM     13  C   UNL     1       5.701  -4.642 -10.674  1.00  0.00     0.013 A 
ATOM     14  C   UNL     1       7.011  -4.532 -11.147  1.00  0.00     0.047 A 
ATOM     15  C   UNL     1       7.969  -5.494 -10.801  1.00  0.00     0.115 A 
ATOM     16  C   UNL     1       6.298  -6.682  -9.509  1.00  0.00     0.013 A 
ATOM     17  C   UNL     1       7.608  -6.568  -9.983  1.00  0.00     0.047 A 
BRANCH  15  18
ATOM     18  O   UNL     1       9.278  -5.392 -11.266  1.00  0.00    -0.508 OA
ATOM     19  H   UNL     1       9.500  -4.891 -12.118  1.00  0.00     0.293 HD
ENDBRANCH  15  18
ENDBRANCH   1  12
BRANCH  11  20
ATOM     20  C   UNL     1      -0.900  -4.732  -8.172  1.00  0.00     0.188 C 
ATOM     21  C   UNL     1      -1.135  -4.031  -6.807  1.00  0.00     0.179 C 
ATOM     22  O   UNL     1      -2.123  -5.091  -8.798  1.00  0.00    -0.362 OA
ATOM     23  C   UNL     1      -2.080  -2.827  -6.979  1.00  0.00     0.177 C 
ATOM     24  C   UNL     1      -2.913  -3.944  -9.068  1.00  0.00     0.176 C 
ATOM     25  C   UNL     1      -3.342  -3.253  -7.753  1.00  0.00     0.177 C 
BRANCH  21  26
ATOM     26  O   UNL     1       0.083  -3.623  -6.232  1.00  0.00    -0.387 OA
ATOM     27  H   UNL     1       0.122  -2.632  -6.276  1.00  0.00     0.211 HD
ENDBRANCH  21  26
BRANCH  23  28
ATOM     28  O   UNL     1      -2.423  -2.316  -5.717  1.00  0.00    -0.387 OA
ATOM     29  H   UNL     1      -2.671  -1.364  -5.852  1.00  0.00     0.211 HD
ENDBRANCH  23  28
BRANCH  24  30
ATOM     30  C   UNL     1      -4.122  -4.353  -9.920  1.00  0.00     0.191 C 
BRANCH  30  31
ATOM     31  O   UNL     1      -3.826  -5.487 -10.689  1.00  0.00    -0.394 OA
ATOM     32  H   UNL     1      -2.844  -5.618 -10.619  1.00  0.00     0.210 HD
ENDBRANCH  30  31
ENDBRANCH  24  30
BRANCH  25  33
ATOM     33  O   UNL     1      -4.116  -4.131  -6.975  1.00  0.00    -0.388 OA
ATOM     34  H   UNL     1      -5.013  -3.717  -6.877  1.00  0.00     0.211 HD
ENDBRANCH  25  33
ENDBRANCH  11  20
BRANCH  10  35
ATOM     35  O   UNL     1      -1.806  -7.255  -6.820  1.00  0.00    -0.507 OA
ATOM     36  H   UNL     1      -2.537  -6.569  -6.944  1.00  0.00     0.293 HD
ENDBRANCH  10  35
TORSDOF 9
ENDMDL
MODEL 4
REMARK VINA RESULT:    -4.389      2.224      4.293
REMARK INTER + INTRA:          -6.442
REMARK INTER:                  -7.244
REMARK INTRA:                   0.802
REMARK UNBOUND:                -0.514
REMARK SMILES O=c1c(-c2ccc(O)cc2)coc2c([C@H]3O[C@@H](CO)[C@@H](O)[C@@H](O)[C@@H]3O)c(O)ccc12
REMARK SMILES IDX 3 1 11 2 12 3 13 4 30 5 2 6 1 7 29 8 28 9 26 10 14 11 4 12
REMARK SMILES IDX 5 13 6 14 7 15 10 16 9 17 8 18 15 20 24 21 16 22 22 23 17 24
REMARK SMILES IDX 20 25 25 26 23 28 18 30 19 31 21 33 27 35
REMARK H PARENT 8 19 25 27 23 29 19 32 21 34 27 36
REMARK Flexibility Score: inf
ROOT
ATOM      1  C   UNL     1       6.322  -7.300  -9.734  1.00  0.00     0.065 A 
ATOM      2  C   UNL     1       5.070  -7.926  -9.816  1.00  0.00     0.208 A 
ATOM      3  O   UNL     1       3.982  -7.338  -9.333  1.00  0.00    -0.463 OA
ATOM      4  C   UNL     1       3.996  -6.142  -8.748  1.00  0.00     0.147 A 
ATOM      5  C   UNL     1       5.218  -5.442  -8.624  1.00  0.00     0.066 A 
ATOM      6  C   UNL     1       6.393  -6.039  -9.118  1.00  0.00     0.200 A 
ATOM      7  O   UNL     1       7.506  -5.455  -8.993  1.00  0.00    -0.288 OA
ATOM      8  C   UNL     1       5.235  -4.180  -8.015  1.00  0.00     0.020 A 
ATOM      9  C   UNL     1       4.053  -3.610  -7.553  1.00  0.00     0.047 A 
ATOM     10  C   UNL     1       2.833  -4.279  -7.677  1.00  0.00     0.125 A 
ATOM     11  C   UNL     1       2.791  -5.578  -8.257  1.00  0.00     0.069 A 
ENDROOT
BRANCH   1  12
ATOM     12  C   UNL     1       7.523  -7.975 -10.288  1.00  0.00    -0.011 A 
ATOM     13  C   UNL     1       7.513  -9.357 -10.550  1.00  0.00     0.013 A 
ATOM     14  C   UNL     1       8.650  -9.987 -11.063  1.00  0.00     0.047 A 
ATOM     15  C   UNL     1       9.812  -9.247 -11.317  1.00  0.00     0.115 A 
ATOM     16  C   UNL     1       8.696  -7.241 -10.540  1.00  0.00     0.013 A 
ATOM     17  C   UNL     1       9.831  -7.875 -11.054  1.00  0.00     0.047 A 
BRANCH  15  18
ATOM     18  O   UNL     1      10.951  -9.866 -11.830  1.00  0.00    -0.508 OA
ATOM     19  H   UNL     1      11.488 -10.526 -11.280  1.00  0.00     0.293 HD
ENDBRANCH  15  18
ENDBRANCH   1  12
BRANCH  11  20
ATOM     20  C   UNL     1       1.487  -6.359  -8.400  1.00  0.00     0.188 C 
ATOM     21  C   UNL     1       0.273  -5.392  -8.428  1.00  0.00     0.179 C 
ATOM     22  O   UNL     1       1.382  -7.308  -7.348  1.00  0.00    -0.362 OA
ATOM     23  C   UNL     1      -1.044  -6.187  -8.487  1.00  0.00     0.177 C 
ATOM     24  C   UNL     1       0.228  -8.118  -7.507  1.00  0.00     0.176 C 
ATOM     25  C   UNL     1      -1.058  -7.268  -7.390  1.00  0.00     0.177 C 
BRANCH  21  26
ATOM     26  O   UNL     1       0.361  -4.502  -9.515  1.00  0.00    -0.387 OA
ATOM     27  H   UNL     1       1.323  -4.315  -9.676  1.00  0.00     0.211 HD
ENDBRANCH  21  26
BRANCH  23  28
ATOM     28  O   UNL     1      -2.130  -5.310  -8.332  1.00  0.00    -0.387 OA
ATOM     29  H   UNL     1      -1.748  -4.401  -8.215  1.00  0.00     0.211 HD
ENDBRANCH  23  28
BRANCH  24  30
ATOM     30  C   UNL     1       0.262  -9.250  -6.473  1.00  0.00     0.191 C 
BRANCH  30  31
ATOM     31  O   UNL     1       0.906 -10.380  -6.995  1.00  0.00    -0.394 OA
ATOM     32  H   UNL     1       0.188 -10.970  -7.345  1.00  0.00     0.210 HD
ENDBRANCH  30  31
ENDBRANCH  24  30
BRANCH  25  33
ATOM     33  O   UNL     1      -1.128  -6.669  -6.120  1.00  0.00    -0.388 OA
ATOM     34  H   UNL     1      -1.791  -7.186  -5.591  1.00  0.00     0.211 HD
ENDBRANCH  25  33
ENDBRANCH  11  20
BRANCH  10  35
ATOM     35  O   UNL     1       1.696  -3.609  -7.214  1.00  0.00    -0.507 OA
ATOM     36  H   UNL     1       1.550  -3.318  -6.258  1.00  0.00     0.293 HD
ENDBRANCH  10  35
TORSDOF 9
ENDMDL
