MODEL 1
REMARK VINA RESULT:    -3.266      0.000      0.000
REMARK INTER + INTRA:          -3.800
REMARK INTER:                  -3.553
REMARK INTRA:                  -0.248
REMARK UNBOUND:                -0.248
REMARK SMILES O=C([O-])c1ccccc1O
REMARK SMILES IDX 4 1 9 2 5 3 8 4 6 5 7 6 2 7 1 8 3 9 10 10
REMARK H PARENT 10 11
REMARK Flexibility Score: inf
ROOT
ATOM      1  C   UNL     1       9.944 -18.976  19.816  1.00  0.00     0.039 A 
ATOM      2  C   UNL     1      11.346 -18.891  19.633  1.00  0.00     0.124 A 
ATOM      3  C   UNL     1       9.439 -19.162  21.118  1.00  0.00     0.014 A 
ATOM      4  C   UNL     1      12.203 -18.991  20.740  1.00  0.00     0.047 A 
ATOM      5  C   UNL     1      10.304 -19.260  22.211  1.00  0.00     0.001 A 
ATOM      6  C   UNL     1      11.683 -19.175  22.022  1.00  0.00     0.004 A 
ENDROOT
BRANCH   1   7
ATOM      7  C   UNL     1       8.995 -18.876  18.677  1.00  0.00     0.075 C 
ATOM      8  O   UNL     1       9.037 -17.903  17.880  1.00  0.00    -0.545 OA
ATOM      9  O   UNL     1       8.039 -19.865  18.473  1.00  0.00    -0.545 OA
ENDBRANCH   1   7
BRANCH   2  10
ATOM     10  O   UNL     1      11.889 -18.707  18.362  1.00  0.00    -0.507 OA
ATOM     11  H   UNL     1      12.855 -18.938  18.157  1.00  0.00     0.293 HD
ENDBRANCH   2  10
TORSDOF 2
ENDMDL
MODEL 2
REMARK VINA RESULT:    -3.127      1.844      3.417
REMARK INTER + INTRA:          -3.649
REMARK INTER:                  -3.394
REMARK INTRA:                  -0.254
REMARK UNBOUND:                -0.248
REMARK SMILES O=C([O-])c1ccccc1O
REMARK SMILES IDX 4 1 9 2 5 3 8 4 6 5 7 6 2 7 1 8 3 9 10 10
REMARK H PARENT 10 11
REMARK Flexibility Score: inf
ROOT
ATOM      1  C   UNL     1      10.532 -18.868  20.471  1.00  0.00     0.039 A 
ATOM      2  C   UNL     1      10.756 -18.949  19.075  1.00  0.00     0.124 A 
ATOM      3  C   UNL     1       9.239 -19.127  20.968  1.00  0.00     0.014 A 
ATOM      4  C   UNL     1       9.697 -19.284  18.215  1.00  0.00     0.047 A 
ATOM      5  C   UNL     1       8.196 -19.458  20.101  1.00  0.00     0.001 A 
ATOM      6  C   UNL     1       8.424 -19.535  18.727  1.00  0.00     0.004 A 
ENDROOT
BRANCH   1   7
ATOM      7  C   UNL     1      11.619 -18.519  21.422  1.00  0.00     0.075 C 
ATOM      8  O   UNL     1      11.451 -17.638  22.305  1.00  0.00    -0.545 OA
ATOM      9  O   UNL     1      12.847 -19.166  21.350  1.00  0.00    -0.545 OA
ENDBRANCH   1   7
BRANCH   2  10
ATOM     10  O   UNL     1      12.019 -18.701  18.539  1.00  0.00    -0.507 OA
ATOM     11  H   UNL     1      12.276 -17.788  18.181  1.00  0.00     0.293 HD
ENDBRANCH   2  10
TORSDOF 2
ENDMDL
MODEL 3
REMARK VINA RESULT:    -3.047      1.999      3.817
REMARK INTER + INTRA:          -3.562
REMARK INTER:                  -3.318
REMARK INTRA:                  -0.245
REMARK UNBOUND:                -0.248
REMARK SMILES O=C([O-])c1ccccc1O
REMARK SMILES IDX 4 1 9 2 5 3 8 4 6 5 7 6 2 7 1 8 3 9 10 10
REMARK H PARENT 10 11
REMARK Flexibility Score: inf
ROOT
ATOM      1  C   UNL     1       9.736 -18.646  19.587  1.00  0.00     0.039 A 
ATOM      2  C   UNL     1       9.496 -17.425  18.911  1.00  0.00     0.124 A 
ATOM      3  C   UNL     1       8.847 -19.720  19.387  1.00  0.00     0.014 A 
ATOM      4  C   UNL     1       8.386 -17.304  18.059  1.00  0.00     0.047 A 
ATOM      5  C   UNL     1       7.747 -19.585  18.537  1.00  0.00     0.001 A 
ATOM      6  C   UNL     1       7.516 -18.379  17.876  1.00  0.00     0.004 A 
ENDROOT
BRANCH   1   7
ATOM      7  C   UNL     1      10.896 -18.824  20.498  1.00  0.00     0.075 C 
ATOM      8  O   UNL     1      10.735 -19.196  21.690  1.00  0.00    -0.545 OA
ATOM      9  O   UNL     1      12.187 -18.583  20.044  1.00  0.00    -0.545 OA
ENDBRANCH   1   7
BRANCH   2  10
ATOM     10  O   UNL     1      10.350 -16.336  19.080  1.00  0.00    -0.507 OA
ATOM     11  H   UNL     1      11.358 -16.448  19.104  1.00  0.00     0.293 HD
ENDBRANCH   2  10
TORSDOF 2
ENDMDL
MODEL 4
REMARK VINA RESULT:    -3.023      6.653      8.006
REMARK INTER + INTRA:          -3.536
REMARK INTER:                  -3.286
REMARK INTRA:                  -0.251
REMARK UNBOUND:                -0.248
REMARK SMILES O=C([O-])c1ccccc1O
REMARK SMILES IDX 4 1 9 2 5 3 8 4 6 5 7 6 2 7 1 8 3 9 10 10
REMARK H PARENT 10 11
REMARK Flexibility Score: inf
ROOT
ATOM      1  C   UNL     1       2.072 -19.719  19.855  1.00  0.00     0.039 A 
ATOM      2  C   UNL     1       3.238 -19.135  19.302  1.00  0.00     0.124 A 
ATOM      3  C   UNL     1       2.066 -20.057  21.223  1.00  0.00     0.014 A 
ATOM      4  C   UNL     1       4.358 -18.904  20.116  1.00  0.00     0.047 A 
ATOM      5  C   UNL     1       3.188 -19.822  22.021  1.00  0.00     0.001 A 
ATOM      6  C   UNL     1       4.332 -19.247  21.468  1.00  0.00     0.004 A 
ENDROOT
BRANCH   1   7
ATOM      7  C   UNL     1       0.861 -19.984  19.037  1.00  0.00     0.075 C 
ATOM      8  O   UNL     1       0.327 -21.124  19.015  1.00  0.00    -0.545 OA
ATOM      9  O   UNL     1       0.294 -18.968  18.276  1.00  0.00    -0.545 OA
ENDBRANCH   1   7
BRANCH   2  10
ATOM     10  O   UNL     1       3.288 -18.784  17.953  1.00  0.00    -0.507 OA
ATOM     11  H   UNL     1       2.772 -17.991  17.589  1.00  0.00     0.293 HD
ENDBRANCH   2  10
TORSDOF 2
ENDMDL
MODEL 5
REMARK VINA RESULT:    -2.968     19.832     20.352
REMARK INTER + INTRA:          -3.476
REMARK INTER:                  -3.227
REMARK INTRA:                  -0.249
REMARK UNBOUND:                -0.248
REMARK SMILES O=C([O-])c1ccccc1O
REMARK SMILES IDX 4 1 9 2 5 3 8 4 6 5 7 6 2 7 1 8 3 9 10 10
REMARK H PARENT 10 11
REMARK Flexibility Score: inf
ROOT
ATOM      1  C   UNL     1      -2.190 -20.020  35.687  1.00  0.00     0.039 A 
ATOM      2  C   UNL     1      -1.993 -18.897  36.526  1.00  0.00     0.124 A 
ATOM      3  C   UNL     1      -1.323 -21.123  35.815  1.00  0.00     0.014 A 
ATOM      4  C   UNL     1      -0.947 -18.899  37.464  1.00  0.00     0.047 A 
ATOM      5  C   UNL     1      -0.287 -21.112  36.752  1.00  0.00     0.001 A 
ATOM      6  C   UNL     1      -0.099 -20.001  37.573  1.00  0.00     0.004 A 
ENDROOT
BRANCH   1   7
ATOM      7  C   UNL     1      -3.281 -20.067  34.680  1.00  0.00     0.075 C 
ATOM      8  O   UNL     1      -3.941 -21.122  34.485  1.00  0.00    -0.545 OA
ATOM      9  O   UNL     1      -3.593 -18.938  33.932  1.00  0.00    -0.545 OA
ENDBRANCH   1   7
BRANCH   2  10
ATOM     10  O   UNL     1      -2.827 -17.783  36.435  1.00  0.00    -0.507 OA
ATOM     11  H   UNL     1      -2.877 -17.223  35.590  1.00  0.00     0.293 HD
ENDBRANCH   2  10
TORSDOF 2
ENDMDL
MODEL 6
REMARK VINA RESULT:    -2.966      9.464     10.728
REMARK INTER + INTRA:          -3.474
REMARK INTER:                  -3.307
REMARK INTRA:                  -0.167
REMARK UNBOUND:                -0.248
REMARK SMILES O=C([O-])c1ccccc1O
REMARK SMILES IDX 4 1 9 2 5 3 8 4 6 5 7 6 2 7 1 8 3 9 10 10
REMARK H PARENT 10 11
REMARK Flexibility Score: inf
ROOT
ATOM      1  C   UNL     1      -0.550 -20.605  20.710  1.00  0.00     0.039 A 
ATOM      2  C   UNL     1       0.853 -20.701  20.880  1.00  0.00     0.124 A 
ATOM      3  C   UNL     1      -1.383 -20.773  21.834  1.00  0.00     0.014 A 
ATOM      4  C   UNL     1       1.387 -20.959  22.152  1.00  0.00     0.047 A 
ATOM      5  C   UNL     1      -0.838 -21.029  23.094  1.00  0.00     0.001 A 
ATOM      6  C   UNL     1       0.545 -21.123  23.252  1.00  0.00     0.004 A 
ENDROOT
BRANCH   1   7
ATOM      7  C   UNL     1      -1.164 -20.333  19.385  1.00  0.00     0.075 C 
ATOM      8  O   UNL     1      -0.480 -19.874  18.433  1.00  0.00    -0.545 OA
ATOM      9  O   UNL     1      -2.515 -20.586  19.174  1.00  0.00    -0.545 OA
ENDBRANCH   1   7
BRANCH   2  10
ATOM     10  O   UNL     1       1.716 -20.542  19.796  1.00  0.00    -0.507 OA
ATOM     11  H   UNL     1       1.387 -20.198  18.900  1.00  0.00     0.293 HD
ENDBRANCH   2  10
TORSDOF 2
ENDMDL
MODEL 7
REMARK VINA RESULT:    -2.874      1.682      2.459
REMARK INTER + INTRA:          -3.374
REMARK INTER:                  -3.164
REMARK INTRA:                  -0.210
REMARK UNBOUND:                -0.248
REMARK SMILES O=C([O-])c1ccccc1O
REMARK SMILES IDX 4 1 9 2 5 3 8 4 6 5 7 6 2 7 1 8 3 9 10 10
REMARK H PARENT 10 11
REMARK Flexibility Score: inf
ROOT
ATOM      1  C   UNL     1       9.379 -19.182  19.596  1.00  0.00     0.039 A 
ATOM      2  C   UNL     1       9.739 -18.968  20.949  1.00  0.00     0.124 A 
ATOM      3  C   UNL     1      10.397 -19.239  18.623  1.00  0.00     0.014 A 
ATOM      4  C   UNL     1      11.091 -18.818  21.297  1.00  0.00     0.047 A 
ATOM      5  C   UNL     1      11.738 -19.088  18.984  1.00  0.00     0.001 A 
ATOM      6  C   UNL     1      12.084 -18.876  20.318  1.00  0.00     0.004 A 
ENDROOT
BRANCH   1   7
ATOM      7  C   UNL     1       7.964 -19.348  19.176  1.00  0.00     0.075 C 
ATOM      8  O   UNL     1       7.604 -19.108  17.994  1.00  0.00    -0.545 OA
ATOM      9  O   UNL     1       7.008 -19.774  20.090  1.00  0.00    -0.545 OA
ENDBRANCH   1   7
BRANCH   2  10
ATOM     10  O   UNL     1       8.765 -18.905  21.945  1.00  0.00    -0.507 OA
ATOM     11  H   UNL     1       8.662 -18.088  22.537  1.00  0.00     0.293 HD
ENDBRANCH   2  10
TORSDOF 2
ENDMDL
MODEL 8
REMARK VINA RESULT:    -2.842      8.517     10.263
REMARK INTER + INTRA:          -3.339
REMARK INTER:                  -3.112
REMARK INTRA:                  -0.227
REMARK UNBOUND:                -0.248
REMARK SMILES O=C([O-])c1ccccc1O
REMARK SMILES IDX 4 1 9 2 5 3 8 4 6 5 7 6 2 7 1 8 3 9 10 10
REMARK H PARENT 10 11
REMARK Flexibility Score: inf
ROOT
ATOM      1  C   UNL     1       0.803 -20.229  20.416  1.00  0.00     0.039 A 
ATOM      2  C   UNL     1       0.914 -19.915  19.039  1.00  0.00     0.124 A 
ATOM      3  C   UNL     1      -0.478 -20.423  20.967  1.00  0.00     0.014 A 
ATOM      4  C   UNL     1      -0.244 -19.804  18.252  1.00  0.00     0.047 A 
ATOM      5  C   UNL     1      -1.621 -20.309  20.173  1.00  0.00     0.001 A 
ATOM      6  C   UNL     1      -1.504 -19.999  18.818  1.00  0.00     0.004 A 
ENDROOT
BRANCH   1   7
ATOM      7  C   UNL     1       1.997 -20.358  21.290  1.00  0.00     0.075 C 
ATOM      8  O   UNL     1       1.992 -21.125  22.288  1.00  0.00    -0.545 OA
ATOM      9  O   UNL     1       3.148 -19.629  21.016  1.00  0.00    -0.545 OA
ENDBRANCH   1   7
BRANCH   2  10
ATOM     10  O   UNL     1       2.162 -19.715  18.451  1.00  0.00    -0.507 OA
ATOM     11  H   UNL     1       2.841 -19.075  18.847  1.00  0.00     0.293 HD
ENDBRANCH   2  10
TORSDOF 2
ENDMDL
MODEL 9
REMARK VINA RESULT:    -1.813      2.313      3.688
REMARK INTER + INTRA:          -2.220
REMARK INTER:                  -1.970
REMARK INTRA:                  -0.251
REMARK UNBOUND:                -0.248
REMARK SMILES O=C([O-])c1ccccc1O
REMARK SMILES IDX 4 1 9 2 5 3 8 4 6 5 7 6 2 7 1 8 3 9 10 10
REMARK H PARENT 10 11
REMARK Flexibility Score: inf
ROOT
ATOM      1  C   UNL     1       9.669 -17.686  19.382  1.00  0.00     0.039 A 
ATOM      2  C   UNL     1       9.635 -18.749  18.447  1.00  0.00     0.124 A 
ATOM      3  C   UNL     1       8.456 -17.228  19.935  1.00  0.00     0.014 A 
ATOM      4  C   UNL     1       8.405 -19.325  18.089  1.00  0.00     0.047 A 
ATOM      5  C   UNL     1       7.241 -17.811  19.569  1.00  0.00     0.001 A 
ATOM      6  C   UNL     1       7.216 -18.856  18.647  1.00  0.00     0.004 A 
ENDROOT
BRANCH   1   7
ATOM      7  C   UNL     1      10.943 -17.043  19.794  1.00  0.00     0.075 C 
ATOM      8  O   UNL     1      11.944 -17.733  20.121  1.00  0.00    -0.545 OA
ATOM      9  O   UNL     1      11.050 -15.657  19.826  1.00  0.00    -0.545 OA
ENDBRANCH   1   7
BRANCH   2  10
ATOM     10  O   UNL     1      10.810 -19.234  17.875  1.00  0.00    -0.507 OA
ATOM     11  H   UNL     1      11.062 -20.215  17.926  1.00  0.00     0.293 HD
ENDBRANCH   2  10
TORSDOF 2
ENDMDL
