MODEL 1
REMARK VINA RESULT:    -4.776      0.000      0.000
REMARK INTER + INTRA:          -5.440
REMARK INTER:                  -5.195
REMARK INTRA:                  -0.245
REMARK UNBOUND:                -0.245
REMARK SMILES O=C([O-])c1ccccc1O
REMARK SMILES IDX 4 1 9 2 5 3 8 4 6 5 7 6 2 7 1 8 3 9 10 10
REMARK H PARENT 10 11
REMARK Flexibility Score: inf
ROOT
ATOM      1  C   UNL     1      34.251   7.237   9.624  1.00  0.00     0.039 A 
ATOM      2  C   UNL     1      35.415   6.515   9.986  1.00  0.00     0.124 A 
ATOM      3  C   UNL     1      33.490   7.849  10.640  1.00  0.00     0.014 A 
ATOM      4  C   UNL     1      35.789   6.423  11.334  1.00  0.00     0.047 A 
ATOM      5  C   UNL     1      33.875   7.748  11.979  1.00  0.00     0.001 A 
ATOM      6  C   UNL     1      35.022   7.036  12.326  1.00  0.00     0.004 A 
ENDROOT
BRANCH   1   7
ATOM      7  C   UNL     1      33.817   7.360   8.209  1.00  0.00     0.075 C 
ATOM      8  O   UNL     1      33.607   6.329   7.515  1.00  0.00    -0.545 OA
ATOM      9  O   UNL     1      33.633   8.606   7.621  1.00  0.00    -0.545 OA
ENDBRANCH   1   7
BRANCH   2  10
ATOM     10  O   UNL     1      36.199   5.893   9.015  1.00  0.00    -0.507 OA
ATOM     11  H   UNL     1      36.984   6.364   8.582  1.00  0.00     0.293 HD
ENDBRANCH   2  10
TORSDOF 2
ENDMDL
MODEL 2
REMARK VINA RESULT:    -4.700     15.927     16.525
REMARK INTER + INTRA:          -5.358
REMARK INTER:                  -5.121
REMARK INTRA:                  -0.237
REMARK UNBOUND:                -0.245
REMARK SMILES O=C([O-])c1ccccc1O
REMARK SMILES IDX 4 1 9 2 5 3 8 4 6 5 7 6 2 7 1 8 3 9 10 10
REMARK H PARENT 10 11
REMARK Flexibility Score: inf
ROOT
ATOM      1  C   UNL     1      41.660  20.233  16.372  1.00  0.00     0.039 A 
ATOM      2  C   UNL     1      43.025  20.253  15.998  1.00  0.00     0.124 A 
ATOM      3  C   UNL     1      41.309  19.690  17.624  1.00  0.00     0.014 A 
ATOM      4  C   UNL     1      43.998  19.741  16.870  1.00  0.00     0.047 A 
ATOM      5  C   UNL     1      42.287  19.184  18.483  1.00  0.00     0.001 A 
ATOM      6  C   UNL     1      43.630  19.209  18.107  1.00  0.00     0.004 A 
ENDROOT
BRANCH   1   7
ATOM      7  C   UNL     1      40.597  20.764  15.480  1.00  0.00     0.075 C 
ATOM      8  O   UNL     1      40.673  20.601  14.232  1.00  0.00    -0.545 OA
ATOM      9  O   UNL     1      39.502  21.446  15.996  1.00  0.00    -0.545 OA
ENDBRANCH   1   7
BRANCH   2  10
ATOM     10  O   UNL     1      43.420  20.780  14.769  1.00  0.00    -0.507 OA
ATOM     11  H   UNL     1      44.003  20.256  14.127  1.00  0.00     0.293 HD
ENDBRANCH   2  10
TORSDOF 2
ENDMDL
MODEL 3
REMARK VINA RESULT:    -4.686     16.363     17.258
REMARK INTER + INTRA:          -5.343
REMARK INTER:                  -5.092
REMARK INTRA:                  -0.251
REMARK UNBOUND:                -0.245
REMARK SMILES O=C([O-])c1ccccc1O
REMARK SMILES IDX 4 1 9 2 5 3 8 4 6 5 7 6 2 7 1 8 3 9 10 10
REMARK H PARENT 10 11
REMARK Flexibility Score: inf
ROOT
ATOM      1  C   UNL     1      42.907  19.689  17.654  1.00  0.00     0.039 A 
ATOM      2  C   UNL     1      41.517  19.421  17.632  1.00  0.00     0.124 A 
ATOM      3  C   UNL     1      43.484  20.366  16.562  1.00  0.00     0.014 A 
ATOM      4  C   UNL     1      40.743  19.830  16.536  1.00  0.00     0.047 A 
ATOM      5  C   UNL     1      42.702  20.768  15.476  1.00  0.00     0.001 A 
ATOM      6  C   UNL     1      41.333  20.501  15.463  1.00  0.00     0.004 A 
ENDROOT
BRANCH   1   7
ATOM      7  C   UNL     1      43.764  19.274  18.794  1.00  0.00     0.075 C 
ATOM      8  O   UNL     1      43.431  19.554  19.977  1.00  0.00    -0.545 OA
ATOM      9  O   UNL     1      44.946  18.572  18.585  1.00  0.00    -0.545 OA
ENDBRANCH   1   7
BRANCH   2  10
ATOM     10  O   UNL     1      40.902  18.753  18.690  1.00  0.00    -0.507 OA
ATOM     11  H   UNL     1      40.306  17.948  18.538  1.00  0.00     0.293 HD
ENDBRANCH   2  10
TORSDOF 2
ENDMDL
MODEL 4
REMARK VINA RESULT:    -4.662      3.390      4.852
REMARK INTER + INTRA:          -5.316
REMARK INTER:                  -5.066
REMARK INTRA:                  -0.250
REMARK UNBOUND:                -0.245
REMARK SMILES O=C([O-])c1ccccc1O
REMARK SMILES IDX 4 1 9 2 5 3 8 4 6 5 7 6 2 7 1 8 3 9 10 10
REMARK H PARENT 10 11
REMARK Flexibility Score: inf
ROOT
ATOM      1  C   UNL     1      34.620   6.115  12.798  1.00  0.00     0.039 A 
ATOM      2  C   UNL     1      33.387   6.656  12.363  1.00  0.00     0.124 A 
ATOM      3  C   UNL     1      35.780   6.376  12.041  1.00  0.00     0.014 A 
ATOM      4  C   UNL     1      33.337   7.438  11.199  1.00  0.00     0.047 A 
ATOM      5  C   UNL     1      35.716   7.157  10.883  1.00  0.00     0.001 A 
ATOM      6  C   UNL     1      34.497   7.686  10.463  1.00  0.00     0.004 A 
ENDROOT
BRANCH   1   7
ATOM      7  C   UNL     1      34.720   5.281  14.024  1.00  0.00     0.075 C 
ATOM      8  O   UNL     1      33.897   4.349  14.227  1.00  0.00    -0.545 OA
ATOM      9  O   UNL     1      35.714   5.509  14.967  1.00  0.00    -0.545 OA
ENDBRANCH   1   7
BRANCH   2  10
ATOM     10  O   UNL     1      32.214   6.424  13.080  1.00  0.00    -0.507 OA
ATOM     11  H   UNL     1      31.398   6.007  12.647  1.00  0.00     0.293 HD
ENDBRANCH   2  10
TORSDOF 2
ENDMDL
MODEL 5
REMARK VINA RESULT:    -4.541      1.212      2.399
REMARK INTER + INTRA:          -5.184
REMARK INTER:                  -4.941
REMARK INTRA:                  -0.243
REMARK UNBOUND:                -0.245
REMARK SMILES O=C([O-])c1ccccc1O
REMARK SMILES IDX 4 1 9 2 5 3 8 4 6 5 7 6 2 7 1 8 3 9 10 10
REMARK H PARENT 10 11
REMARK Flexibility Score: inf
ROOT
ATOM      1  C   UNL     1      34.638   7.104   9.647  1.00  0.00     0.039 A 
ATOM      2  C   UNL     1      34.124   7.549  10.889  1.00  0.00     0.124 A 
ATOM      3  C   UNL     1      35.862   6.405   9.631  1.00  0.00     0.014 A 
ATOM      4  C   UNL     1      34.832   7.290  12.072  1.00  0.00     0.047 A 
ATOM      5  C   UNL     1      36.556   6.154  10.817  1.00  0.00     0.001 A 
ATOM      6  C   UNL     1      36.042   6.596  12.036  1.00  0.00     0.004 A 
ENDROOT
BRANCH   1   7
ATOM      7  C   UNL     1      33.923   7.357   8.370  1.00  0.00     0.075 C 
ATOM      8  O   UNL     1      33.651   8.535   8.015  1.00  0.00    -0.545 OA
ATOM      9  O   UNL     1      33.540   6.308   7.542  1.00  0.00    -0.545 OA
ENDBRANCH   1   7
BRANCH   2  10
ATOM     10  O   UNL     1      32.918   8.245  10.954  1.00  0.00    -0.507 OA
ATOM     11  H   UNL     1      32.104   7.859  11.417  1.00  0.00     0.293 HD
ENDBRANCH   2  10
TORSDOF 2
ENDMDL
MODEL 6
REMARK VINA RESULT:    -4.506     16.569     17.378
REMARK INTER + INTRA:          -5.147
REMARK INTER:                  -4.893
REMARK INTRA:                  -0.254
REMARK UNBOUND:                -0.245
REMARK SMILES O=C([O-])c1ccccc1O
REMARK SMILES IDX 4 1 9 2 5 3 8 4 6 5 7 6 2 7 1 8 3 9 10 10
REMARK H PARENT 10 11
REMARK Flexibility Score: inf
ROOT
ATOM      1  C   UNL     1      42.893  19.755  17.477  1.00  0.00     0.039 A 
ATOM      2  C   UNL     1      43.524  20.415  16.395  1.00  0.00     0.124 A 
ATOM      3  C   UNL     1      41.497  19.565  17.434  1.00  0.00     0.014 A 
ATOM      4  C   UNL     1      42.760  20.864  15.308  1.00  0.00     0.047 A 
ATOM      5  C   UNL     1      40.748  20.018  16.345  1.00  0.00     0.001 A 
ATOM      6  C   UNL     1      41.378  20.667  15.283  1.00  0.00     0.004 A 
ENDROOT
BRANCH   1   7
ATOM      7  C   UNL     1      43.662  19.262  18.648  1.00  0.00     0.075 C 
ATOM      8  O   UNL     1      43.232  19.453  19.818  1.00  0.00    -0.545 OA
ATOM      9  O   UNL     1      44.865  18.586  18.484  1.00  0.00    -0.545 OA
ENDBRANCH   1   7
BRANCH   2  10
ATOM     10  O   UNL     1      44.902  20.625  16.393  1.00  0.00    -0.507 OA
ATOM     11  H   UNL     1      45.313  21.467  16.776  1.00  0.00     0.293 HD
ENDBRANCH   2  10
TORSDOF 2
ENDMDL
MODEL 7
REMARK VINA RESULT:    -4.484     15.968     16.644
REMARK INTER + INTRA:          -5.122
REMARK INTER:                  -4.872
REMARK INTRA:                  -0.250
REMARK UNBOUND:                -0.245
REMARK SMILES O=C([O-])c1ccccc1O
REMARK SMILES IDX 4 1 9 2 5 3 8 4 6 5 7 6 2 7 1 8 3 9 10 10
REMARK H PARENT 10 11
REMARK Flexibility Score: inf
ROOT
ATOM      1  C   UNL     1      41.809  20.523  16.031  1.00  0.00     0.039 A 
ATOM      2  C   UNL     1      41.757  19.674  17.163  1.00  0.00     0.124 A 
ATOM      3  C   UNL     1      43.064  20.991  15.592  1.00  0.00     0.014 A 
ATOM      4  C   UNL     1      42.941  19.314  17.823  1.00  0.00     0.047 A 
ATOM      5  C   UNL     1      44.236  20.625  16.259  1.00  0.00     0.001 A 
ATOM      6  C   UNL     1      44.175  19.788  17.372  1.00  0.00     0.004 A 
ENDROOT
BRANCH   1   7
ATOM      7  C   UNL     1      40.580  20.930  15.302  1.00  0.00     0.075 C 
ATOM      8  O   UNL     1      40.499  20.772  14.054  1.00  0.00    -0.545 OA
ATOM      9  O   UNL     1      39.500  21.491  15.973  1.00  0.00    -0.545 OA
ENDBRANCH   1   7
BRANCH   2  10
ATOM     10  O   UNL     1      40.539  19.187  17.633  1.00  0.00    -0.507 OA
ATOM     11  H   UNL     1      39.734  19.790  17.754  1.00  0.00     0.293 HD
ENDBRANCH   2  10
TORSDOF 2
ENDMDL
MODEL 8
REMARK VINA RESULT:    -4.425      2.845      3.504
REMARK INTER + INTRA:          -5.059
REMARK INTER:                  -4.817
REMARK INTRA:                  -0.242
REMARK UNBOUND:                -0.245
REMARK SMILES O=C([O-])c1ccccc1O
REMARK SMILES IDX 4 1 9 2 5 3 8 4 6 5 7 6 2 7 1 8 3 9 10 10
REMARK H PARENT 10 11
REMARK Flexibility Score: inf
ROOT
ATOM      1  C   UNL     1      33.658   7.641  11.403  1.00  0.00     0.039 A 
ATOM      2  C   UNL     1      34.687   6.891  12.021  1.00  0.00     0.124 A 
ATOM      3  C   UNL     1      33.637   7.736   9.998  1.00  0.00     0.014 A 
ATOM      4  C   UNL     1      35.661   6.259  11.234  1.00  0.00     0.047 A 
ATOM      5  C   UNL     1      34.613   7.101   9.225  1.00  0.00     0.001 A 
ATOM      6  C   UNL     1      35.624   6.364   9.842  1.00  0.00     0.004 A 
ENDROOT
BRANCH   1   7
ATOM      7  C   UNL     1      32.606   8.327  12.198  1.00  0.00     0.075 C 
ATOM      8  O   UNL     1      32.103   7.765  13.207  1.00  0.00    -0.545 OA
ATOM      9  O   UNL     1      32.157   9.596  11.849  1.00  0.00    -0.545 OA
ENDBRANCH   1   7
BRANCH   2  10
ATOM     10  O   UNL     1      34.748   6.770  13.408  1.00  0.00    -0.507 OA
ATOM     11  H   UNL     1      33.954   6.453  13.951  1.00  0.00     0.293 HD
ENDBRANCH   2  10
TORSDOF 2
ENDMDL
MODEL 9
REMARK VINA RESULT:    -4.406      3.160      3.627
REMARK INTER + INTRA:          -5.038
REMARK INTER:                  -4.814
REMARK INTRA:                  -0.224
REMARK UNBOUND:                -0.245
REMARK SMILES O=C([O-])c1ccccc1O
REMARK SMILES IDX 4 1 9 2 5 3 8 4 6 5 7 6 2 7 1 8 3 9 10 10
REMARK H PARENT 10 11
REMARK Flexibility Score: inf
ROOT
ATOM      1  C   UNL     1      33.513   6.747  11.619  1.00  0.00     0.039 A 
ATOM      2  C   UNL     1      34.354   7.847  11.912  1.00  0.00     0.124 A 
ATOM      3  C   UNL     1      34.045   5.661  10.895  1.00  0.00     0.014 A 
ATOM      4  C   UNL     1      35.690   7.841  11.484  1.00  0.00     0.047 A 
ATOM      5  C   UNL     1      35.378   5.667  10.475  1.00  0.00     0.001 A 
ATOM      6  C   UNL     1      36.199   6.755  10.769  1.00  0.00     0.004 A 
ENDROOT
BRANCH   1   7
ATOM      7  C   UNL     1      32.093   6.712  12.052  1.00  0.00     0.075 C 
ATOM      8  O   UNL     1      31.515   5.609  12.250  1.00  0.00    -0.545 OA
ATOM      9  O   UNL     1      31.373   7.885  12.247  1.00  0.00    -0.545 OA
ENDBRANCH   1   7
BRANCH   2  10
ATOM     10  O   UNL     1      33.872   8.944  12.625  1.00  0.00    -0.507 OA
ATOM     11  H   UNL     1      33.574   8.863  13.590  1.00  0.00     0.293 HD
ENDBRANCH   2  10
TORSDOF 2
ENDMDL
