MODEL 1
REMARK VINA RESULT:    -2.210      0.000      0.000
REMARK INTER + INTRA:          -9.033
REMARK INTER:                  -5.052
REMARK INTRA:                  -3.981
REMARK UNBOUND:                -3.981
REMARK SMILES CCCCCCCCCCCCCCCCCCCCCCCC(=O)[O-]
REMARK SMILES IDX 13 1 14 2 15 3 16 4 17 5 18 6 19 7 20 8 21 9 22 10 23 11
REMARK SMILES IDX 24 12 25 13 26 14 12 15 11 16 10 17 9 18 8 19 7 20 6 21 5 22
REMARK SMILES IDX 4 23 3 24 2 25 1 26
REMARK H PARENT
REMARK Flexibility Score: inf
ROOT
ATOM      1  C   UNL     1      84.968  76.688  74.438  1.00  0.00     0.000 C 
ENDROOT
BRANCH   1   2
ATOM      2  C   UNL     1      86.142  77.524  73.904  1.00  0.00     0.000 C 
BRANCH   2   3
ATOM      3  C   UNL     1      87.043  76.728  72.945  1.00  0.00     0.000 C 
BRANCH   3   4
ATOM      4  C   UNL     1      88.494  76.611  73.444  1.00  0.00     0.000 C 
BRANCH   4   5
ATOM      5  C   UNL     1      89.011  75.157  73.504  1.00  0.00     0.000 C 
BRANCH   5   6
ATOM      6  C   UNL     1      88.429  74.386  74.702  1.00  0.00     0.000 C 
BRANCH   6   7
ATOM      7  C   UNL     1      88.599  75.138  76.031  1.00  0.00     0.000 C 
BRANCH   7   8
ATOM      8  C   UNL     1      87.305  75.174  76.863  1.00  0.00     0.000 C 
BRANCH   8   9
ATOM      9  C   UNL     1      87.305  74.110  77.982  1.00  0.00     0.000 C 
BRANCH   9  10
ATOM     10  C   UNL     1      88.714  73.637  78.380  1.00  0.00     0.006 C 
BRANCH  10  11
ATOM     11  C   UNL     1      89.181  74.212  79.721  1.00  0.00     0.053 C 
BRANCH  11  12
ATOM     12  C   UNL     1      90.603  74.666  79.632  1.00  0.00     0.041 C 
ATOM     13  O   UNL     1      91.340  74.648  80.653  1.00  0.00    -0.550 OA
ATOM     14  O   UNL     1      91.129  75.071  78.411  1.00  0.00    -0.550 OA
ENDBRANCH  11  12
ENDBRANCH  10  11
ENDBRANCH   9  10
ENDBRANCH   8   9
ENDBRANCH   7   8
ENDBRANCH   6   7
ENDBRANCH   5   6
ENDBRANCH   4   5
ENDBRANCH   3   4
ENDBRANCH   2   3
ENDBRANCH   1   2
BRANCH   1  15
ATOM     15  C   UNL     1      85.006  75.231  73.941  1.00  0.00     0.000 C 
BRANCH  15  16
ATOM     16  C   UNL     1      83.835  74.891  73.004  1.00  0.00     0.000 C 
BRANCH  16  17
ATOM     17  C   UNL     1      82.463  75.095  73.674  1.00  0.00     0.000 C 
BRANCH  17  18
ATOM     18  C   UNL     1      81.848  73.776  74.179  1.00  0.00    -0.000 C 
BRANCH  18  19
ATOM     19  C   UNL     1      81.446  73.778  75.669  1.00  0.00    -0.000 C 
BRANCH  19  20
ATOM     20  C   UNL     1      82.373  72.966  76.595  1.00  0.00    -0.000 C 
BRANCH  20  21
ATOM     21  C   UNL     1      83.643  73.740  76.990  1.00  0.00    -0.000 C 
BRANCH  21  22
ATOM     22  C   UNL     1      83.764  73.906  78.516  1.00  0.00    -0.000 C 
BRANCH  22  23
ATOM     23  C   UNL     1      83.468  75.341  78.993  1.00  0.00    -0.000 C 
BRANCH  23  24
ATOM     24  C   UNL     1      83.508  76.350  77.831  1.00  0.00    -0.000 C 
BRANCH  24  25
ATOM     25  C   UNL     1      82.224  77.188  77.729  1.00  0.00    -0.003 C 
ATOM     26  C   UNL     1      81.874  77.570  76.292  1.00  0.00     0.004 C 
ENDBRANCH  24  25
ENDBRANCH  23  24
ENDBRANCH  22  23
ENDBRANCH  21  22
ENDBRANCH  20  21
ENDBRANCH  19  20
ENDBRANCH  18  19
ENDBRANCH  17  18
ENDBRANCH  16  17
ENDBRANCH  15  16
ENDBRANCH   1  15
TORSDOF 22
ENDMDL
MODEL 2
REMARK VINA RESULT:    -2.189      9.840     12.648
REMARK INTER + INTRA:          -8.986
REMARK INTER:                  -5.042
REMARK INTRA:                  -3.944
REMARK UNBOUND:                -3.981
REMARK SMILES CCCCCCCCCCCCCCCCCCCCCCCC(=O)[O-]
REMARK SMILES IDX 13 1 14 2 15 3 16 4 17 5 18 6 19 7 20 8 21 9 22 10 23 11
REMARK SMILES IDX 24 12 25 13 26 14 12 15 11 16 10 17 9 18 8 19 7 20 6 21 5 22
REMARK SMILES IDX 4 23 3 24 2 25 1 26
REMARK H PARENT
REMARK Flexibility Score: inf
ROOT
ATOM      1  C   UNL     1      74.812  78.013  77.678  1.00  0.00     0.000 C 
ENDROOT
BRANCH   1   2
ATOM      2  C   UNL     1      75.997  77.925  76.704  1.00  0.00     0.000 C 
BRANCH   2   3
ATOM      3  C   UNL     1      76.000  76.615  75.898  1.00  0.00     0.000 C 
BRANCH   3   4
ATOM      4  C   UNL     1      77.205  75.715  76.222  1.00  0.00     0.000 C 
BRANCH   4   5
ATOM      5  C   UNL     1      77.597  75.722  77.716  1.00  0.00     0.000 C 
BRANCH   5   6
ATOM      6  C   UNL     1      76.735  74.753  78.543  1.00  0.00     0.000 C 
BRANCH   6   7
ATOM      7  C   UNL     1      76.387  73.467  77.778  1.00  0.00     0.000 C 
BRANCH   7   8
ATOM      8  C   UNL     1      74.877  73.170  77.771  1.00  0.00     0.000 C 
BRANCH   8   9
ATOM      9  C   UNL     1      74.181  73.676  79.053  1.00  0.00     0.000 C 
BRANCH   9  10
ATOM     10  C   UNL     1      74.234  72.673  80.218  1.00  0.00     0.006 C 
BRANCH  10  11
ATOM     11  C   UNL     1      74.741  73.298  81.522  1.00  0.00     0.053 C 
BRANCH  11  12
ATOM     12  C   UNL     1      73.679  73.250  82.575  1.00  0.00     0.041 C 
ATOM     13  O   UNL     1      72.645  72.552  82.400  1.00  0.00    -0.550 OA
ATOM     14  O   UNL     1      73.849  73.943  83.767  1.00  0.00    -0.550 OA
ENDBRANCH  11  12
ENDBRANCH  10  11
ENDBRANCH   9  10
ENDBRANCH   8   9
ENDBRANCH   7   8
ENDBRANCH   6   7
ENDBRANCH   5   6
ENDBRANCH   4   5
ENDBRANCH   3   4
ENDBRANCH   2   3
ENDBRANCH   1   2
BRANCH   1  15
ATOM     15  C   UNL     1      73.803  76.866  77.487  1.00  0.00     0.000 C 
BRANCH  15  16
ATOM     16  C   UNL     1      72.389  77.365  77.152  1.00  0.00     0.000 C 
BRANCH  16  17
ATOM     17  C   UNL     1      72.317  78.898  77.027  1.00  0.00     0.000 C 
BRANCH  17  18
ATOM     18  C   UNL     1      71.969  79.362  75.599  1.00  0.00    -0.000 C 
BRANCH  18  19
ATOM     19  C   UNL     1      72.253  78.322  74.494  1.00  0.00    -0.000 C 
BRANCH  19  20
ATOM     20  C   UNL     1      72.989  78.872  73.256  1.00  0.00    -0.000 C 
BRANCH  20  21
ATOM     21  C   UNL     1      74.503  78.596  73.295  1.00  0.00    -0.000 C 
BRANCH  21  22
ATOM     22  C   UNL     1      75.320  79.893  73.439  1.00  0.00    -0.000 C 
BRANCH  22  23
ATOM     23  C   UNL     1      74.444  81.162  73.434  1.00  0.00    -0.000 C 
BRANCH  23  24
ATOM     24  C   UNL     1      74.887  82.168  74.511  1.00  0.00    -0.000 C 
BRANCH  24  25
ATOM     25  C   UNL     1      75.049  81.520  75.895  1.00  0.00    -0.003 C 
ATOM     26  C   UNL     1      74.117  82.119  76.947  1.00  0.00     0.004 C 
ENDBRANCH  24  25
ENDBRANCH  23  24
ENDBRANCH  22  23
ENDBRANCH  21  22
ENDBRANCH  20  21
ENDBRANCH  19  20
ENDBRANCH  18  19
ENDBRANCH  17  18
ENDBRANCH  16  17
ENDBRANCH  15  16
ENDBRANCH   1  15
TORSDOF 22
ENDMDL
MODEL 3
REMARK VINA RESULT:    -2.168      9.148     11.855
REMARK INTER + INTRA:          -8.938
REMARK INTER:                  -4.412
REMARK INTRA:                  -4.526
REMARK UNBOUND:                -3.981
REMARK SMILES CCCCCCCCCCCCCCCCCCCCCCCC(=O)[O-]
REMARK SMILES IDX 13 1 14 2 15 3 16 4 17 5 18 6 19 7 20 8 21 9 22 10 23 11
REMARK SMILES IDX 24 12 25 13 26 14 12 15 11 16 10 17 9 18 8 19 7 20 6 21 5 22
REMARK SMILES IDX 4 23 3 24 2 25 1 26
REMARK H PARENT
REMARK Flexibility Score: inf
ROOT
ATOM      1  C   UNL     1      76.749  74.456  76.694  1.00  0.00     0.000 C 
ENDROOT
BRANCH   1   2
ATOM      2  C   UNL     1      77.743  73.516  77.393  1.00  0.00     0.000 C 
BRANCH   2   3
ATOM      3  C   UNL     1      77.053  72.302  78.038  1.00  0.00     0.000 C 
BRANCH   3   4
ATOM      4  C   UNL     1      75.743  71.913  77.331  1.00  0.00     0.000 C 
BRANCH   4   5
ATOM      5  C   UNL     1      74.520  71.878  78.274  1.00  0.00     0.000 C 
BRANCH   5   6
ATOM      6  C   UNL     1      73.348  72.713  77.730  1.00  0.00     0.000 C 
BRANCH   6   7
ATOM      7  C   UNL     1      73.194  74.061  78.453  1.00  0.00     0.000 C 
BRANCH   7   8
ATOM      8  C   UNL     1      74.062  74.158  79.720  1.00  0.00     0.000 C 
BRANCH   8   9
ATOM      9  C   UNL     1      74.924  75.439  79.736  1.00  0.00     0.000 C 
BRANCH   9  10
ATOM     10  C   UNL     1      76.236  75.288  80.524  1.00  0.00     0.006 C 
BRANCH  10  11
ATOM     11  C   UNL     1      76.313  73.974  81.310  1.00  0.00     0.053 C 
BRANCH  11  12
ATOM     12  C   UNL     1      77.732  73.517  81.432  1.00  0.00     0.041 C 
ATOM     13  O   UNL     1      78.673  74.270  81.068  1.00  0.00    -0.550 OA
ATOM     14  O   UNL     1      78.018  72.275  81.985  1.00  0.00    -0.550 OA
ENDBRANCH  11  12
ENDBRANCH  10  11
ENDBRANCH   9  10
ENDBRANCH   8   9
ENDBRANCH   7   8
ENDBRANCH   6   7
ENDBRANCH   5   6
ENDBRANCH   4   5
ENDBRANCH   3   4
ENDBRANCH   2   3
ENDBRANCH   1   2
BRANCH   1  15
ATOM     15  C   UNL     1      77.149  75.937  76.817  1.00  0.00     0.000 C 
BRANCH  15  16
ATOM     16  C   UNL     1      76.143  76.885  76.144  1.00  0.00     0.000 C 
BRANCH  16  17
ATOM     17  C   UNL     1      75.908  78.172  76.956  1.00  0.00     0.000 C 
BRANCH  17  18
ATOM     18  C   UNL     1      74.447  78.321  77.422  1.00  0.00    -0.000 C 
BRANCH  18  19
ATOM     19  C   UNL     1      73.439  77.408  76.693  1.00  0.00    -0.000 C 
BRANCH  19  20
ATOM     20  C   UNL     1      72.127  78.095  76.267  1.00  0.00    -0.000 C 
BRANCH  20  21
ATOM     21  C   UNL     1      72.200  78.683  74.845  1.00  0.00    -0.000 C 
BRANCH  21  22
ATOM     22  C   UNL     1      73.104  77.844  73.923  1.00  0.00    -0.000 C 
BRANCH  22  23
ATOM     23  C   UNL     1      74.311  78.633  73.381  1.00  0.00    -0.000 C 
BRANCH  23  24
ATOM     24  C   UNL     1      74.090  80.153  73.472  1.00  0.00    -0.000 C 
BRANCH  24  25
ATOM     25  C   UNL     1      75.110  80.847  74.388  1.00  0.00    -0.003 C 
ATOM     26  C   UNL     1      74.458  81.578  75.561  1.00  0.00     0.004 C 
ENDBRANCH  24  25
ENDBRANCH  23  24
ENDBRANCH  22  23
ENDBRANCH  21  22
ENDBRANCH  20  21
ENDBRANCH  19  20
ENDBRANCH  18  19
ENDBRANCH  17  18
ENDBRANCH  16  17
ENDBRANCH  15  16
ENDBRANCH   1  15
TORSDOF 22
ENDMDL
MODEL 4
REMARK VINA RESULT:    -2.119      2.996      5.164
REMARK INTER + INTRA:          -8.826
REMARK INTER:                  -4.957
REMARK INTRA:                  -3.869
REMARK UNBOUND:                -3.981
REMARK SMILES CCCCCCCCCCCCCCCCCCCCCCCC(=O)[O-]
REMARK SMILES IDX 13 1 14 2 15 3 16 4 17 5 18 6 19 7 20 8 21 9 22 10 23 11
REMARK SMILES IDX 24 12 25 13 26 14 12 15 11 16 10 17 9 18 8 19 7 20 6 21 5 22
REMARK SMILES IDX 4 23 3 24 2 25 1 26
REMARK H PARENT
REMARK Flexibility Score: inf
ROOT
ATOM      1  C   UNL     1      87.105  76.130  78.103  1.00  0.00     0.000 C 
ENDROOT
BRANCH   1   2
ATOM      2  C   UNL     1      88.294  75.949  77.146  1.00  0.00     0.000 C 
BRANCH   2   3
ATOM      3  C   UNL     1      88.358  74.533  76.548  1.00  0.00     0.000 C 
BRANCH   3   4
ATOM      4  C   UNL     1      88.376  74.533  75.010  1.00  0.00     0.000 C 
BRANCH   4   5
ATOM      5  C   UNL     1      89.529  75.363  74.405  1.00  0.00     0.000 C 
BRANCH   5   6
ATOM      6  C   UNL     1      89.108  76.080  73.111  1.00  0.00     0.000 C 
BRANCH   6   7
ATOM      7  C   UNL     1      87.586  76.259  73.000  1.00  0.00     0.000 C 
BRANCH   7   8
ATOM      8  C   UNL     1      87.152  77.733  73.101  1.00  0.00     0.000 C 
BRANCH   8   9
ATOM      9  C   UNL     1      87.213  78.256  74.553  1.00  0.00     0.000 C 
BRANCH   9  10
ATOM     10  C   UNL     1      88.397  79.202  74.816  1.00  0.00     0.006 C 
BRANCH  10  11
ATOM     11  C   UNL     1      88.147  80.627  74.311  1.00  0.00     0.053 C 
BRANCH  11  12
ATOM     12  C   UNL     1      89.427  81.255  73.856  1.00  0.00     0.041 C 
ATOM     13  O   UNL     1      89.751  82.401  74.267  1.00  0.00    -0.550 OA
ATOM     14  O   UNL     1      90.281  80.559  73.011  1.00  0.00    -0.550 OA
ENDBRANCH  11  12
ENDBRANCH  10  11
ENDBRANCH   9  10
ENDBRANCH   8   9
ENDBRANCH   7   8
ENDBRANCH   6   7
ENDBRANCH   5   6
ENDBRANCH   4   5
ENDBRANCH   3   4
ENDBRANCH   2   3
ENDBRANCH   1   2
BRANCH   1  15
ATOM     15  C   UNL     1      85.867  75.327  77.664  1.00  0.00     0.000 C 
BRANCH  15  16
ATOM     16  C   UNL     1      84.943  76.121  76.727  1.00  0.00     0.000 C 
BRANCH  16  17
ATOM     17  C   UNL     1      84.794  75.459  75.344  1.00  0.00     0.000 C 
BRANCH  17  18
ATOM     18  C   UNL     1      83.988  76.323  74.356  1.00  0.00    -0.000 C 
BRANCH  18  19
ATOM     19  C   UNL     1      83.599  75.612  73.042  1.00  0.00    -0.000 C 
BRANCH  19  20
ATOM     20  C   UNL     1      82.830  74.289  73.222  1.00  0.00    -0.000 C 
BRANCH  20  21
ATOM     21  C   UNL     1      81.306  74.467  73.095  1.00  0.00    -0.000 C 
BRANCH  21  22
ATOM     22  C   UNL     1      80.576  74.123  74.406  1.00  0.00    -0.000 C 
BRANCH  22  23
ATOM     23  C   UNL     1      81.461  73.353  75.406  1.00  0.00    -0.000 C 
BRANCH  23  24
ATOM     24  C   UNL     1      81.379  73.950  76.822  1.00  0.00    -0.000 C 
BRANCH  24  25
ATOM     25  C   UNL     1      82.519  73.471  77.734  1.00  0.00    -0.003 C 
ATOM     26  C   UNL     1      83.011  72.067  77.386  1.00  0.00     0.004 C 
ENDBRANCH  24  25
ENDBRANCH  23  24
ENDBRANCH  22  23
ENDBRANCH  21  22
ENDBRANCH  20  21
ENDBRANCH  19  20
ENDBRANCH  18  19
ENDBRANCH  17  18
ENDBRANCH  16  17
ENDBRANCH  15  16
ENDBRANCH   1  15
TORSDOF 22
ENDMDL
MODEL 5
REMARK VINA RESULT:    -2.099      9.331     11.867
REMARK INTER + INTRA:          -8.781
REMARK INTER:                  -4.914
REMARK INTRA:                  -3.867
REMARK UNBOUND:                -3.981
REMARK SMILES CCCCCCCCCCCCCCCCCCCCCCCC(=O)[O-]
REMARK SMILES IDX 13 1 14 2 15 3 16 4 17 5 18 6 19 7 20 8 21 9 22 10 23 11
REMARK SMILES IDX 24 12 25 13 26 14 12 15 11 16 10 17 9 18 8 19 7 20 6 21 5 22
REMARK SMILES IDX 4 23 3 24 2 25 1 26
REMARK H PARENT
REMARK Flexibility Score: inf
ROOT
ATOM      1  C   UNL     1      76.364  76.126  75.556  1.00  0.00     0.000 C 
ENDROOT
BRANCH   1   2
ATOM      2  C   UNL     1      76.760  75.045  74.538  1.00  0.00     0.000 C 
BRANCH   2   3
ATOM      3  C   UNL     1      78.209  74.561  74.727  1.00  0.00     0.000 C 
BRANCH   3   4
ATOM      4  C   UNL     1      78.297  73.187  75.414  1.00  0.00     0.000 C 
BRANCH   4   5
ATOM      5  C   UNL     1      77.085  72.274  75.126  1.00  0.00     0.000 C 
BRANCH   5   6
ATOM      6  C   UNL     1      76.341  71.879  76.413  1.00  0.00     0.000 C 
BRANCH   6   7
ATOM      7  C   UNL     1      76.978  72.480  77.675  1.00  0.00     0.000 C 
BRANCH   7   8
ATOM      8  C   UNL     1      76.025  73.422  78.431  1.00  0.00     0.000 C 
BRANCH   8   9
ATOM      9  C   UNL     1      74.647  73.528  77.742  1.00  0.00     0.000 C 
BRANCH   9  10
ATOM     10  C   UNL     1      73.492  72.963  78.588  1.00  0.00     0.006 C 
BRANCH  10  11
ATOM     11  C   UNL     1      73.013  73.935  79.671  1.00  0.00     0.053 C 
BRANCH  11  12
ATOM     12  C   UNL     1      73.205  73.343  81.031  1.00  0.00     0.041 C 
ATOM     13  O   UNL     1      73.411  72.107  81.160  1.00  0.00    -0.550 OA
ATOM     14  O   UNL     1      73.196  74.161  82.154  1.00  0.00    -0.550 OA
ENDBRANCH  11  12
ENDBRANCH  10  11
ENDBRANCH   9  10
ENDBRANCH   8   9
ENDBRANCH   7   8
ENDBRANCH   6   7
ENDBRANCH   5   6
ENDBRANCH   4   5
ENDBRANCH   3   4
ENDBRANCH   2   3
ENDBRANCH   1   2
BRANCH   1  15
ATOM     15  C   UNL     1      75.974  77.456  74.884  1.00  0.00     0.000 C 
BRANCH  15  16
ATOM     16  C   UNL     1      75.386  77.262  73.477  1.00  0.00     0.000 C 
BRANCH  16  17
ATOM     17  C   UNL     1      73.978  77.872  73.336  1.00  0.00     0.000 C 
BRANCH  17  18
ATOM     18  C   UNL     1      73.721  79.009  74.343  1.00  0.00    -0.000 C 
BRANCH  18  19
ATOM     19  C   UNL     1      72.427  78.858  75.172  1.00  0.00    -0.000 C 
BRANCH  19  20
ATOM     20  C   UNL     1      72.243  77.485  75.848  1.00  0.00    -0.000 C 
BRANCH  20  21
ATOM     21  C   UNL     1      72.235  77.577  77.385  1.00  0.00    -0.000 C 
BRANCH  21  22
ATOM     22  C   UNL     1      73.563  78.131  77.934  1.00  0.00    -0.000 C 
BRANCH  22  23
ATOM     23  C   UNL     1      74.509  77.030  78.452  1.00  0.00    -0.000 C 
BRANCH  23  24
ATOM     24  C   UNL     1      74.836  77.212  79.945  1.00  0.00    -0.000 C 
BRANCH  24  25
ATOM     25  C   UNL     1      76.187  76.593  80.336  1.00  0.00    -0.003 C 
ATOM     26  C   UNL     1      77.273  76.823  79.286  1.00  0.00     0.004 C 
ENDBRANCH  24  25
ENDBRANCH  23  24
ENDBRANCH  22  23
ENDBRANCH  21  22
ENDBRANCH  20  21
ENDBRANCH  19  20
ENDBRANCH  18  19
ENDBRANCH  17  18
ENDBRANCH  16  17
ENDBRANCH  15  16
ENDBRANCH   1  15
TORSDOF 22
ENDMDL
MODEL 6
REMARK VINA RESULT:    -2.094     11.569     14.904
REMARK INTER + INTRA:          -8.769
REMARK INTER:                  -4.270
REMARK INTRA:                  -4.499
REMARK UNBOUND:                -3.981
REMARK SMILES CCCCCCCCCCCCCCCCCCCCCCCC(=O)[O-]
REMARK SMILES IDX 13 1 14 2 15 3 16 4 17 5 18 6 19 7 20 8 21 9 22 10 23 11
REMARK SMILES IDX 24 12 25 13 26 14 12 15 11 16 10 17 9 18 8 19 7 20 6 21 5 22
REMARK SMILES IDX 4 23 3 24 2 25 1 26
REMARK H PARENT
REMARK Flexibility Score: inf
ROOT
ATOM      1  C   UNL     1      72.546  74.557  82.840  1.00  0.00     0.000 C 
ENDROOT
BRANCH   1   2
ATOM      2  C   UNL     1      73.522  73.371  82.794  1.00  0.00     0.000 C 
BRANCH   2   3
ATOM      3  C   UNL     1      73.373  72.534  81.512  1.00  0.00     0.000 C 
BRANCH   3   4
ATOM      4  C   UNL     1      74.520  72.761  80.512  1.00  0.00     0.000 C 
BRANCH   4   5
ATOM      5  C   UNL     1      74.266  72.126  79.127  1.00  0.00     0.000 C 
BRANCH   5   6
ATOM      6  C   UNL     1      73.324  72.982  78.263  1.00  0.00     0.000 C 
BRANCH   6   7
ATOM      7  C   UNL     1      73.451  74.485  78.557  1.00  0.00     0.000 C 
BRANCH   7   8
ATOM      8  C   UNL     1      72.118  75.119  78.996  1.00  0.00     0.000 C 
BRANCH   8   9
ATOM      9  C   UNL     1      72.324  76.493  79.669  1.00  0.00     0.000 C 
BRANCH   9  10
ATOM     10  C   UNL     1      71.895  77.679  78.788  1.00  0.00     0.006 C 
BRANCH  10  11
ATOM     11  C   UNL     1      73.066  78.319  78.035  1.00  0.00     0.053 C 
BRANCH  11  12
ATOM     12  C   UNL     1      73.174  77.754  76.655  1.00  0.00     0.041 C 
ATOM     13  O   UNL     1      72.134  77.479  75.999  1.00  0.00    -0.550 OA
ATOM     14  O   UNL     1      74.423  77.569  76.075  1.00  0.00    -0.550 OA
ENDBRANCH  11  12
ENDBRANCH  10  11
ENDBRANCH   9  10
ENDBRANCH   8   9
ENDBRANCH   7   8
ENDBRANCH   6   7
ENDBRANCH   5   6
ENDBRANCH   4   5
ENDBRANCH   3   4
ENDBRANCH   2   3
ENDBRANCH   1   2
BRANCH   1  15
ATOM     15  C   UNL     1      72.246  75.021  84.277  1.00  0.00     0.000 C 
BRANCH  15  16
ATOM     16  C   UNL     1      73.417  74.771  85.241  1.00  0.00     0.000 C 
BRANCH  16  17
ATOM     17  C   UNL     1      74.160  76.067  85.616  1.00  0.00     0.000 C 
BRANCH  17  18
ATOM     18  C   UNL     1      73.204  77.195  86.051  1.00  0.00    -0.000 C 
BRANCH  18  19
ATOM     19  C   UNL     1      73.471  78.562  85.385  1.00  0.00    -0.000 C 
BRANCH  19  20
ATOM     20  C   UNL     1      72.440  78.977  84.317  1.00  0.00    -0.000 C 
BRANCH  20  21
ATOM     21  C   UNL     1      72.713  78.330  82.946  1.00  0.00    -0.000 C 
BRANCH  21  22
ATOM     22  C   UNL     1      73.486  79.275  82.008  1.00  0.00    -0.000 C 
BRANCH  22  23
ATOM     23  C   UNL     1      74.782  78.650  81.455  1.00  0.00    -0.000 C 
BRANCH  23  24
ATOM     24  C   UNL     1      75.252  77.458  82.308  1.00  0.00    -0.000 C 
BRANCH  24  25
ATOM     25  C   UNL     1      75.488  76.189  81.474  1.00  0.00    -0.003 C 
ATOM     26  C   UNL     1      76.140  76.477  80.123  1.00  0.00     0.004 C 
ENDBRANCH  24  25
ENDBRANCH  23  24
ENDBRANCH  22  23
ENDBRANCH  21  22
ENDBRANCH  20  21
ENDBRANCH  19  20
ENDBRANCH  18  19
ENDBRANCH  17  18
ENDBRANCH  16  17
ENDBRANCH  15  16
ENDBRANCH   1  15
TORSDOF 22
ENDMDL
MODEL 7
REMARK VINA RESULT:    -2.088      9.688     12.120
REMARK INTER + INTRA:          -8.755
REMARK INTER:                  -4.227
REMARK INTRA:                  -4.528
REMARK UNBOUND:                -3.981
REMARK SMILES CCCCCCCCCCCCCCCCCCCCCCCC(=O)[O-]
REMARK SMILES IDX 13 1 14 2 15 3 16 4 17 5 18 6 19 7 20 8 21 9 22 10 23 11
REMARK SMILES IDX 24 12 25 13 26 14 12 15 11 16 10 17 9 18 8 19 7 20 6 21 5 22
REMARK SMILES IDX 4 23 3 24 2 25 1 26
REMARK H PARENT
REMARK Flexibility Score: inf
ROOT
ATOM      1  C   UNL     1      76.176  80.295  75.278  1.00  0.00     0.000 C 
ENDROOT
BRANCH   1   2
ATOM      2  C   UNL     1      76.209  79.604  76.650  1.00  0.00     0.000 C 
BRANCH   2   3
ATOM      3  C   UNL     1      76.152  78.071  76.538  1.00  0.00     0.000 C 
BRANCH   3   4
ATOM      4  C   UNL     1      76.937  77.528  75.331  1.00  0.00     0.000 C 
BRANCH   4   5
ATOM      5  C   UNL     1      76.227  76.366  74.605  1.00  0.00     0.000 C 
BRANCH   5   6
ATOM      6  C   UNL     1      77.184  75.199  74.308  1.00  0.00     0.000 C 
BRANCH   6   7
ATOM      7  C   UNL     1      76.794  73.908  75.044  1.00  0.00     0.000 C 
BRANCH   7   8
ATOM      8  C   UNL     1      77.611  73.688  76.330  1.00  0.00     0.000 C 
BRANCH   8   9
ATOM      9  C   UNL     1      76.706  73.450  77.558  1.00  0.00     0.000 C 
BRANCH   9  10
ATOM     10  C   UNL     1      76.161  74.748  78.180  1.00  0.00     0.006 C 
BRANCH  10  11
ATOM     11  C   UNL     1      74.656  74.931  77.956  1.00  0.00     0.053 C 
BRANCH  11  12
ATOM     12  C   UNL     1      73.895  73.782  78.538  1.00  0.00     0.041 C 
ATOM     13  O   UNL     1      73.260  72.997  77.785  1.00  0.00    -0.550 OA
ATOM     14  O   UNL     1      73.919  73.553  79.908  1.00  0.00    -0.550 OA
ENDBRANCH  11  12
ENDBRANCH  10  11
ENDBRANCH   9  10
ENDBRANCH   8   9
ENDBRANCH   7   8
ENDBRANCH   6   7
ENDBRANCH   5   6
ENDBRANCH   4   5
ENDBRANCH   3   4
ENDBRANCH   2   3
ENDBRANCH   1   2
BRANCH   1  15
ATOM     15  C   UNL     1      74.987  81.263  75.132  1.00  0.00     0.000 C 
BRANCH  15  16
ATOM     16  C   UNL     1      73.977  80.810  74.065  1.00  0.00     0.000 C 
BRANCH  16  17
ATOM     17  C   UNL     1      74.469  79.587  73.268  1.00  0.00     0.000 C 
BRANCH  17  18
ATOM     18  C   UNL     1      73.463  78.420  73.292  1.00  0.00    -0.000 C 
BRANCH  18  19
ATOM     19  C   UNL     1      72.290  78.597  74.280  1.00  0.00    -0.000 C 
BRANCH  19  20
ATOM     20  C   UNL     1      72.486  77.919  75.650  1.00  0.00    -0.000 C 
BRANCH  20  21
ATOM     21  C   UNL     1      72.111  78.840  76.826  1.00  0.00    -0.000 C 
BRANCH  21  22
ATOM     22  C   UNL     1      72.920  78.509  78.095  1.00  0.00    -0.000 C 
BRANCH  22  23
ATOM     23  C   UNL     1      73.172  79.740  78.987  1.00  0.00    -0.000 C 
BRANCH  23  24
ATOM     24  C   UNL     1      72.850  81.055  78.254  1.00  0.00    -0.000 C 
BRANCH  24  25
ATOM     25  C   UNL     1      73.899  82.148  78.511  1.00  0.00    -0.003 C 
ATOM     26  C   UNL     1      74.994  81.708  79.482  1.00  0.00     0.004 C 
ENDBRANCH  24  25
ENDBRANCH  23  24
ENDBRANCH  22  23
ENDBRANCH  21  22
ENDBRANCH  20  21
ENDBRANCH  19  20
ENDBRANCH  18  19
ENDBRANCH  17  18
ENDBRANCH  16  17
ENDBRANCH  15  16
ENDBRANCH   1  15
TORSDOF 22
ENDMDL
MODEL 8
REMARK VINA RESULT:    -2.082      8.953     12.781
REMARK INTER + INTRA:          -8.742
REMARK INTER:                  -4.669
REMARK INTRA:                  -4.073
REMARK UNBOUND:                -3.981
REMARK SMILES CCCCCCCCCCCCCCCCCCCCCCCC(=O)[O-]
REMARK SMILES IDX 13 1 14 2 15 3 16 4 17 5 18 6 19 7 20 8 21 9 22 10 23 11
REMARK SMILES IDX 24 12 25 13 26 14 12 15 11 16 10 17 9 18 8 19 7 20 6 21 5 22
REMARK SMILES IDX 4 23 3 24 2 25 1 26
REMARK H PARENT
REMARK Flexibility Score: inf
ROOT
ATOM      1  C   UNL     1      75.649  77.012  78.109  1.00  0.00     0.000 C 
ENDROOT
BRANCH   1   2
ATOM      2  C   UNL     1      76.020  75.564  78.467  1.00  0.00     0.000 C 
BRANCH   2   3
ATOM      3  C   UNL     1      75.138  74.533  77.741  1.00  0.00     0.000 C 
BRANCH   3   4
ATOM      4  C   UNL     1      74.925  73.247  78.557  1.00  0.00     0.000 C 
BRANCH   4   5
ATOM      5  C   UNL     1      73.466  73.042  79.018  1.00  0.00     0.000 C 
BRANCH   5   6
ATOM      6  C   UNL     1      73.353  72.936  80.548  1.00  0.00     0.000 C 
BRANCH   6   7
ATOM      7  C   UNL     1      72.399  73.982  81.147  1.00  0.00     0.000 C 
BRANCH   7   8
ATOM      8  C   UNL     1      72.235  75.220  80.248  1.00  0.00     0.000 C 
BRANCH   8   9
ATOM      9  C   UNL     1      73.047  76.426  80.767  1.00  0.00     0.000 C 
BRANCH   9  10
ATOM     10  C   UNL     1      73.759  76.156  82.104  1.00  0.00     0.006 C 
BRANCH  10  11
ATOM     11  C   UNL     1      75.286  76.133  81.973  1.00  0.00     0.053 C 
BRANCH  11  12
ATOM     12  C   UNL     1      75.879  75.137  82.919  1.00  0.00     0.041 C 
ATOM     13  O   UNL     1      75.209  74.134  83.285  1.00  0.00    -0.550 OA
ATOM     14  O   UNL     1      77.185  75.293  83.366  1.00  0.00    -0.550 OA
ENDBRANCH  11  12
ENDBRANCH  10  11
ENDBRANCH   9  10
ENDBRANCH   8   9
ENDBRANCH   7   8
ENDBRANCH   6   7
ENDBRANCH   5   6
ENDBRANCH   4   5
ENDBRANCH   3   4
ENDBRANCH   2   3
ENDBRANCH   1   2
BRANCH   1  15
ATOM     15  C   UNL     1      74.301  77.111  77.372  1.00  0.00     0.000 C 
BRANCH  15  16
ATOM     16  C   UNL     1      73.537  78.405  77.699  1.00  0.00     0.000 C 
BRANCH  16  17
ATOM     17  C   UNL     1      72.276  78.582  76.833  1.00  0.00     0.000 C 
BRANCH  17  18
ATOM     18  C   UNL     1      72.409  77.918  75.449  1.00  0.00    -0.000 C 
BRANCH  18  19
ATOM     19  C   UNL     1      72.000  78.814  74.260  1.00  0.00    -0.000 C 
BRANCH  19  20
ATOM     20  C   UNL     1      73.113  79.069  73.225  1.00  0.00    -0.000 C 
BRANCH  20  21
ATOM     21  C   UNL     1      74.463  79.415  73.878  1.00  0.00    -0.000 C 
BRANCH  21  22
ATOM     22  C   UNL     1      75.605  78.533  73.340  1.00  0.00    -0.000 C 
BRANCH  22  23
ATOM     23  C   UNL     1      76.346  77.761  74.449  1.00  0.00    -0.000 C 
BRANCH  23  24
ATOM     24  C   UNL     1      76.376  76.247  74.172  1.00  0.00    -0.000 C 
BRANCH  24  25
ATOM     25  C   UNL     1      77.446  75.515  74.997  1.00  0.00    -0.003 C 
ATOM     26  C   UNL     1      78.445  76.465  75.656  1.00  0.00     0.004 C 
ENDBRANCH  24  25
ENDBRANCH  23  24
ENDBRANCH  22  23
ENDBRANCH  21  22
ENDBRANCH  20  21
ENDBRANCH  19  20
ENDBRANCH  18  19
ENDBRANCH  17  18
ENDBRANCH  16  17
ENDBRANCH  15  16
ENDBRANCH   1  15
TORSDOF 22
ENDMDL
MODEL 9
REMARK VINA RESULT:    -2.080      1.956      4.847
REMARK INTER + INTRA:          -8.736
REMARK INTER:                  -4.682
REMARK INTRA:                  -4.054
REMARK UNBOUND:                -3.981
REMARK SMILES CCCCCCCCCCCCCCCCCCCCCCCC(=O)[O-]
REMARK SMILES IDX 13 1 14 2 15 3 16 4 17 5 18 6 19 7 20 8 21 9 22 10 23 11
REMARK SMILES IDX 24 12 25 13 26 14 12 15 11 16 10 17 9 18 8 19 7 20 6 21 5 22
REMARK SMILES IDX 4 23 3 24 2 25 1 26
REMARK H PARENT
REMARK Flexibility Score: inf
ROOT
ATOM      1  C   UNL     1      88.040  77.530  77.690  1.00  0.00     0.000 C 
ENDROOT
BRANCH   1   2
ATOM      2  C   UNL     1      87.952  76.271  78.566  1.00  0.00     0.000 C 
BRANCH   2   3
ATOM      3  C   UNL     1      86.603  75.547  78.424  1.00  0.00     0.000 C 
BRANCH   3   4
ATOM      4  C   UNL     1      86.711  74.029  78.652  1.00  0.00     0.000 C 
BRANCH   4   5
ATOM      5  C   UNL     1      88.017  73.414  78.105  1.00  0.00     0.000 C 
BRANCH   5   6
ATOM      6  C   UNL     1      88.749  72.575  79.166  1.00  0.00     0.000 C 
BRANCH   6   7
ATOM      7  C   UNL     1      89.755  73.400  79.984  1.00  0.00     0.000 C 
BRANCH   7   8
ATOM      8  C   UNL     1      91.217  73.024  79.681  1.00  0.00     0.000 C 
BRANCH   8   9
ATOM      9  C   UNL     1      92.110  74.271  79.503  1.00  0.00     0.000 C 
BRANCH   9  10
ATOM     10  C   UNL     1      91.389  75.593  79.817  1.00  0.00     0.006 C 
BRANCH  10  11
ATOM     11  C   UNL     1      92.068  76.810  79.178  1.00  0.00     0.053 C 
BRANCH  11  12
ATOM     12  C   UNL     1      91.382  78.073  79.596  1.00  0.00     0.041 C 
ATOM     13  O   UNL     1      91.688  79.168  79.054  1.00  0.00    -0.550 OA
ATOM     14  O   UNL     1      90.377  78.034  80.554  1.00  0.00    -0.550 OA
ENDBRANCH  11  12
ENDBRANCH  10  11
ENDBRANCH   9  10
ENDBRANCH   8   9
ENDBRANCH   7   8
ENDBRANCH   6   7
ENDBRANCH   5   6
ENDBRANCH   4   5
ENDBRANCH   3   4
ENDBRANCH   2   3
ENDBRANCH   1   2
BRANCH   1  15
ATOM     15  C   UNL     1      89.182  77.455  76.659  1.00  0.00     0.000 C 
BRANCH  15  16
ATOM     16  C   UNL     1      89.720  76.028  76.469  1.00  0.00     0.000 C 
BRANCH  16  17
ATOM     17  C   UNL     1      89.635  75.554  75.006  1.00  0.00     0.000 C 
BRANCH  17  18
ATOM     18  C   UNL     1      88.350  74.757  74.713  1.00  0.00    -0.000 C 
BRANCH  18  19
ATOM     19  C   UNL     1      87.253  75.548  73.969  1.00  0.00    -0.000 C 
BRANCH  19  20
ATOM     20  C   UNL     1      86.100  76.056  74.857  1.00  0.00    -0.000 C 
BRANCH  20  21
ATOM     21  C   UNL     1      84.773  75.326  74.582  1.00  0.00    -0.000 C 
BRANCH  21  22
ATOM     22  C   UNL     1      84.102  74.844  75.881  1.00  0.00    -0.000 C 
BRANCH  22  23
ATOM     23  C   UNL     1      83.075  75.848  76.439  1.00  0.00    -0.000 C 
BRANCH  23  24
ATOM     24  C   UNL     1      82.340  75.292  77.672  1.00  0.00    -0.000 C 
BRANCH  24  25
ATOM     25  C   UNL     1      82.915  75.824  78.994  1.00  0.00    -0.003 C 
ATOM     26  C   UNL     1      83.278  74.711  79.976  1.00  0.00     0.004 C 
ENDBRANCH  24  25
ENDBRANCH  23  24
ENDBRANCH  22  23
ENDBRANCH  21  22
ENDBRANCH  20  21
ENDBRANCH  19  20
ENDBRANCH  18  19
ENDBRANCH  17  18
ENDBRANCH  16  17
ENDBRANCH  15  16
ENDBRANCH   1  15
TORSDOF 22
ENDMDL
