MODEL 1
REMARK VINA RESULT:    12.944      0.000      0.000
REMARK INTER + INTRA:          17.033
REMARK INTER:                  17.863
REMARK INTRA:                  -0.829
REMARK UNBOUND:                -0.829
REMARK SMILES CC[C@@H](CC[C@@H](C)[C@@H]1CC[C@@H]2[C@H]3CC=C4C[C@H](O)CC[C@@]4(C)[C@H]3CC[C@]21C)C(C)C
REMARK SMILES IDX 5 1 4 2 3 3 2 4 1 5 28 6 29 7 30 8 6 9 7 10 8 11 9 12 26 13
REMARK SMILES IDX 10 14 11 15 25 16 27 17 12 18 24 19 23 20 13 21 21 22 14 23
REMARK SMILES IDX 15 24 20 25 22 26 16 27 19 28 17 29 18 30
REMARK H PARENT 18 31
REMARK Flexibility Score: inf
ROOT
ATOM      1  C   UNL     1     137.457 134.534 138.998  1.00  0.00     0.004 C 
ENDROOT
BRANCH   1   2
ATOM      2  C   UNL     1     137.792 133.994 140.405  1.00  0.00     0.004 C 
BRANCH   2   3
ATOM      3  C   UNL     1     139.288 133.567 140.543  1.00  0.00    -0.009 C 
BRANCH   3   4
ATOM      4  C   UNL     1     139.381 132.114 141.090  1.00  0.00     0.000 C 
ATOM      5  C   UNL     1     138.189 131.226 140.718  1.00  0.00     0.004 C 
ENDBRANCH   3   4
BRANCH   3   6
ATOM      6  C   UNL     1     140.135 134.593 141.373  1.00  0.00    -0.014 C 
ATOM      7  C   UNL     1     141.643 134.300 141.281  1.00  0.00     0.007 C 
ATOM      8  C   UNL     1     139.729 134.610 142.859  1.00  0.00     0.007 C 
ENDBRANCH   3   6
ENDBRANCH   2   3
ENDBRANCH   1   2
BRANCH   1   9
ATOM      9  C   UNL     1     135.935 134.707 138.748  1.00  0.00    -0.011 C 
ATOM     10  C   UNL     1     135.635 136.125 138.210  1.00  0.00     0.008 C 
BRANCH   9  11
ATOM     11  C   UNL     1     135.401 133.540 137.839  1.00  0.00    -0.002 C 
ATOM     12  C   UNL     1     135.394 133.779 136.311  1.00  0.00     0.005 C 
ATOM     13  C   UNL     1     133.986 132.985 138.156  1.00  0.00    -0.026 C 
ATOM     14  C   UNL     1     134.290 132.870 135.743  1.00  0.00     0.005 C 
ATOM     15  C   UNL     1     133.774 132.068 136.943  1.00  0.00    -0.001 C 
ATOM     16  C   UNL     1     133.916 132.130 139.450  1.00  0.00     0.007 C 
ATOM     17  C   UNL     1     132.936 134.136 138.226  1.00  0.00     0.012 C 
ATOM     18  C   UNL     1     132.340 131.486 136.869  1.00  0.00     0.000 C 
ATOM     19  C   UNL     1     133.041 130.853 139.314  1.00  0.00     0.005 C 
ATOM     20  C   UNL     1     131.857 130.960 138.295  1.00  0.00     0.003 C 
ATOM     21  C   UNL     1     132.249 130.432 135.727  1.00  0.00     0.031 C 
ATOM     22  C   UNL     1     130.989 129.640 138.195  1.00  0.00    -0.008 C 
ATOM     23  C   UNL     1     132.369 129.022 136.220  1.00  0.00    -0.027 C 
ATOM     24  C   UNL     1     131.720 128.621 137.324  1.00  0.00    -0.065 C 
ATOM     25  C   UNL     1     130.725 128.988 139.592  1.00  0.00     0.014 C 
ATOM     26  C   UNL     1     129.609 129.988 137.570  1.00  0.00     0.016 C 
ATOM     27  C   UNL     1     131.850 127.185 137.787  1.00  0.00     0.063 C 
ATOM     28  C   UNL     1     129.967 127.651 139.495  1.00  0.00     0.033 C 
ATOM     29  C   UNL     1     130.538 126.685 138.419  1.00  0.00     0.118 C 
BRANCH  29  30
ATOM     30  O   UNL     1     129.592 126.481 137.400  1.00  0.00    -0.393 OA
ATOM     31  H   UNL     1     129.956 126.908 136.581  1.00  0.00     0.210 HD
ENDBRANCH  29  30
ENDBRANCH   9  11
ENDBRANCH   1   9
TORSDOF 7
ENDMDL
MODEL 2
REMARK VINA RESULT:    13.697      2.863      8.423
REMARK INTER + INTRA:          18.073
REMARK INTER:                  19.140
REMARK INTRA:                  -1.067
REMARK UNBOUND:                -0.829
REMARK SMILES CC[C@@H](CC[C@@H](C)[C@@H]1CC[C@@H]2[C@H]3CC=C4C[C@H](O)CC[C@@]4(C)[C@H]3CC[C@]21C)C(C)C
REMARK SMILES IDX 5 1 4 2 3 3 2 4 1 5 28 6 29 7 30 8 6 9 7 10 8 11 9 12 26 13
REMARK SMILES IDX 10 14 11 15 25 16 27 17 12 18 24 19 23 20 13 21 21 22 14 23
REMARK SMILES IDX 15 24 20 25 22 26 16 27 19 28 17 29 18 30
REMARK H PARENT 18 31
REMARK Flexibility Score: inf
ROOT
ATOM      1  C   UNL     1     130.606 130.199 137.680  1.00  0.00     0.004 C 
ENDROOT
BRANCH   1   2
ATOM      2  C   UNL     1     131.368 129.234 138.614  1.00  0.00     0.004 C 
BRANCH   2   3
ATOM      3  C   UNL     1     130.436 128.155 139.252  1.00  0.00    -0.009 C 
BRANCH   3   4
ATOM      4  C   UNL     1     130.800 127.953 140.750  1.00  0.00     0.000 C 
ATOM      5  C   UNL     1     131.505 126.626 141.051  1.00  0.00     0.004 C 
ENDBRANCH   3   4
BRANCH   3   6
ATOM      6  C   UNL     1     130.415 126.816 138.437  1.00  0.00    -0.014 C 
ATOM      7  C   UNL     1     131.503 126.788 137.349  1.00  0.00     0.007 C 
ATOM      8  C   UNL     1     129.049 126.566 137.770  1.00  0.00     0.007 C 
ENDBRANCH   3   6
ENDBRANCH   2   3
ENDBRANCH   1   2
BRANCH   1   9
ATOM      9  C   UNL     1     131.538 131.118 136.846  1.00  0.00    -0.011 C 
ATOM     10  C   UNL     1     130.796 131.645 135.596  1.00  0.00     0.008 C 
BRANCH   9  11
ATOM     11  C   UNL     1     132.149 132.241 137.762  1.00  0.00    -0.002 C 
ATOM     12  C   UNL     1     131.559 133.664 137.627  1.00  0.00     0.005 C 
ATOM     13  C   UNL     1     133.687 132.446 137.701  1.00  0.00    -0.026 C 
ATOM     14  C   UNL     1     132.674 134.629 138.064  1.00  0.00     0.005 C 
ATOM     15  C   UNL     1     133.824 133.731 138.530  1.00  0.00    -0.001 C 
ATOM     16  C   UNL     1     134.505 131.318 138.385  1.00  0.00     0.007 C 
ATOM     17  C   UNL     1     134.169 132.631 136.229  1.00  0.00     0.012 C 
ATOM     18  C   UNL     1     135.260 134.313 138.509  1.00  0.00     0.000 C 
ATOM     19  C   UNL     1     135.708 131.831 139.224  1.00  0.00     0.005 C 
ATOM     20  C   UNL     1     136.350 133.169 138.721  1.00  0.00     0.003 C 
ATOM     21  C   UNL     1     135.369 135.502 139.507  1.00  0.00     0.031 C 
ATOM     22  C   UNL     1     137.575 133.649 139.601  1.00  0.00    -0.008 C 
ATOM     23  C   UNL     1     135.974 135.111 140.820  1.00  0.00    -0.027 C 
ATOM     24  C   UNL     1     137.052 134.313 140.872  1.00  0.00    -0.065 C 
ATOM     25  C   UNL     1     138.515 132.471 140.016  1.00  0.00     0.014 C 
ATOM     26  C   UNL     1     138.422 134.659 138.778  1.00  0.00     0.016 C 
ATOM     27  C   UNL     1     137.649 133.949 142.216  1.00  0.00     0.063 C 
ATOM     28  C   UNL     1     139.653 132.915 140.954  1.00  0.00     0.033 C 
ATOM     29  C   UNL     1     139.180 133.820 142.126  1.00  0.00     0.118 C 
BRANCH  29  30
ATOM     30  O   UNL     1     139.737 135.104 142.002  1.00  0.00    -0.393 OA
ATOM     31  H   UNL     1     140.635 134.989 141.595  1.00  0.00     0.210 HD
ENDBRANCH  29  30
ENDBRANCH   9  11
ENDBRANCH   1   9
TORSDOF 7
ENDMDL
MODEL 3
REMARK VINA RESULT:    14.503      3.262      8.040
REMARK INTER + INTRA:          19.185
REMARK INTER:                  20.100
REMARK INTRA:                  -0.915
REMARK UNBOUND:                -0.829
REMARK SMILES CC[C@@H](CC[C@@H](C)[C@@H]1CC[C@@H]2[C@H]3CC=C4C[C@H](O)CC[C@@]4(C)[C@H]3CC[C@]21C)C(C)C
REMARK SMILES IDX 5 1 4 2 3 3 2 4 1 5 28 6 29 7 30 8 6 9 7 10 8 11 9 12 26 13
REMARK SMILES IDX 10 14 11 15 25 16 27 17 12 18 24 19 23 20 13 21 21 22 14 23
REMARK SMILES IDX 15 24 20 25 22 26 16 27 19 28 17 29 18 30
REMARK H PARENT 18 31
REMARK Flexibility Score: inf
ROOT
ATOM      1  C   UNL     1     131.946 125.364 138.012  1.00  0.00     0.004 C 
ENDROOT
BRANCH   1   2
ATOM      2  C   UNL     1     133.464 125.589 137.842  1.00  0.00     0.004 C 
BRANCH   2   3
ATOM      3  C   UNL     1     134.313 124.403 138.402  1.00  0.00    -0.009 C 
BRANCH   3   4
ATOM      4  C   UNL     1     134.469 124.537 139.943  1.00  0.00     0.000 C 
ATOM      5  C   UNL     1     134.662 123.204 140.673  1.00  0.00     0.004 C 
ENDBRANCH   3   4
BRANCH   3   6
ATOM      6  C   UNL     1     135.683 124.236 137.657  1.00  0.00    -0.014 C 
ATOM      7  C   UNL     1     136.136 122.766 137.610  1.00  0.00     0.007 C 
ATOM      8  C   UNL     1     136.801 125.073 138.307  1.00  0.00     0.007 C 
ENDBRANCH   3   6
ENDBRANCH   2   3
ENDBRANCH   1   2
BRANCH   1   9
ATOM      9  C   UNL     1     131.085 126.553 137.509  1.00  0.00    -0.011 C 
ATOM     10  C   UNL     1     129.604 126.129 137.382  1.00  0.00     0.008 C 
BRANCH   9  11
ATOM     11  C   UNL     1     131.325 127.815 138.417  1.00  0.00    -0.002 C 
ATOM     12  C   UNL     1     130.238 128.150 139.465  1.00  0.00     0.005 C 
ATOM     13  C   UNL     1     131.605 129.162 137.698  1.00  0.00    -0.026 C 
ATOM     14  C   UNL     1     130.345 129.663 139.719  1.00  0.00     0.005 C 
ATOM     15  C   UNL     1     131.549 130.126 138.892  1.00  0.00    -0.001 C 
ATOM     16  C   UNL     1     133.012 129.252 137.046  1.00  0.00     0.007 C 
ATOM     17  C   UNL     1     130.508 129.467 136.631  1.00  0.00     0.012 C 
ATOM     18  C   UNL     1     131.616 131.615 138.469  1.00  0.00     0.000 C 
ATOM     19  C   UNL     1     133.711 130.625 137.245  1.00  0.00     0.005 C 
ATOM     20  C   UNL     1     132.747 131.853 137.371  1.00  0.00     0.003 C 
ATOM     21  C   UNL     1     131.736 132.522 139.728  1.00  0.00     0.031 C 
ATOM     22  C   UNL     1     133.504 133.230 137.565  1.00  0.00    -0.008 C 
ATOM     23  C   UNL     1     133.143 132.951 140.010  1.00  0.00    -0.027 C 
ATOM     24  C   UNL     1     133.950 133.360 139.018  1.00  0.00    -0.065 C 
ATOM     25  C   UNL     1     134.767 133.354 136.652  1.00  0.00     0.014 C 
ATOM     26  C   UNL     1     132.540 134.392 137.194  1.00  0.00     0.016 C 
ATOM     27  C   UNL     1     135.364 133.801 139.339  1.00  0.00     0.063 C 
ATOM     28  C   UNL     1     135.564 134.649 136.906  1.00  0.00     0.033 C 
ATOM     29  C   UNL     1     135.812 134.945 138.411  1.00  0.00     0.118 C 
BRANCH  29  30
ATOM     30  O   UNL     1     135.145 136.123 138.789  1.00  0.00    -0.393 OA
ATOM     31  H   UNL     1     134.207 135.870 138.991  1.00  0.00     0.210 HD
ENDBRANCH  29  30
ENDBRANCH   9  11
ENDBRANCH   1   9
TORSDOF 7
ENDMDL
