MODEL 1
REMARK VINA RESULT:    -2.897      0.000      0.000
REMARK INTER + INTRA:         -13.780
REMARK INTER:                  -7.640
REMARK INTRA:                  -6.140
REMARK UNBOUND:                -6.140
REMARK SMILES CCCCCCCCCCCCCCCCCCCCCCCCCCCCCC(=O)[O-]
REMARK SMILES IDX 16 1 17 2 18 3 19 4 20 5 21 6 22 7 23 8 24 9 25 10 26 11
REMARK SMILES IDX 27 12 28 13 29 14 30 15 31 16 32 17 15 18 14 19 13 20 12 21
REMARK SMILES IDX 11 22 10 23 9 24 8 25 7 26 6 27 5 28 4 29 3 30 2 31 1 32
REMARK H PARENT
REMARK Flexibility Score: inf
ROOT
ATOM      1  C   UNL     1      64.236  35.175  61.486  1.00  0.00     0.000 C 
ENDROOT
BRANCH   1   2
ATOM      2  C   UNL     1      63.061  36.166  61.340  1.00  0.00     0.000 C 
BRANCH   2   3
ATOM      3  C   UNL     1      62.318  36.036  60.000  1.00  0.00     0.000 C 
BRANCH   3   4
ATOM      4  C   UNL     1      60.813  35.774  60.177  1.00  0.00     0.000 C 
BRANCH   4   5
ATOM      5  C   UNL     1      60.194  35.053  58.961  1.00  0.00     0.000 C 
BRANCH   5   6
ATOM      6  C   UNL     1      61.224  34.536  57.942  1.00  0.00     0.000 C 
BRANCH   6   7
ATOM      7  C   UNL     1      60.896  33.126  57.426  1.00  0.00     0.000 C 
BRANCH   7   8
ATOM      8  C   UNL     1      59.403  32.762  57.549  1.00  0.00     0.000 C 
BRANCH   8   9
ATOM      9  C   UNL     1      59.087  31.573  58.478  1.00  0.00     0.000 C 
BRANCH   9  10
ATOM     10  C   UNL     1      60.023  30.373  58.268  1.00  0.00     0.000 C 
BRANCH  10  11
ATOM     11  C   UNL     1      59.279  29.180  57.649  1.00  0.00     0.000 C 
BRANCH  11  12
ATOM     12  C   UNL     1      58.082  28.718  58.509  1.00  0.00     0.000 C 
BRANCH  12  13
ATOM     13  C   UNL     1      58.478  27.884  59.743  1.00  0.00     0.006 C 
BRANCH  13  14
ATOM     14  C   UNL     1      58.005  28.462  61.085  1.00  0.00     0.053 C 
BRANCH  14  15
ATOM     15  C   UNL     1      56.766  27.784  61.593  1.00  0.00     0.041 C 
ATOM     16  O   UNL     1      56.348  26.733  61.039  1.00  0.00    -0.550 OA
ATOM     17  O   UNL     1      56.073  28.313  62.676  1.00  0.00    -0.550 OA
ENDBRANCH  14  15
ENDBRANCH  13  14
ENDBRANCH  12  13
ENDBRANCH  11  12
ENDBRANCH  10  11
ENDBRANCH   9  10
ENDBRANCH   8   9
ENDBRANCH   7   8
ENDBRANCH   6   7
ENDBRANCH   5   6
ENDBRANCH   4   5
ENDBRANCH   3   4
ENDBRANCH   2   3
ENDBRANCH   1   2
BRANCH   1  18
ATOM     18  C   UNL     1      64.280  34.149  60.345  1.00  0.00     0.000 C 
BRANCH  18  19
ATOM     19  C   UNL     1      64.039  32.732  60.877  1.00  0.00     0.000 C 
BRANCH  19  20
ATOM     20  C   UNL     1      62.781  32.109  60.255  1.00  0.00     0.000 C 
BRANCH  20  21
ATOM     21  C   UNL     1      61.522  32.328  61.122  1.00  0.00     0.000 C 
BRANCH  21  22
ATOM     22  C   UNL     1      60.931  31.026  61.695  1.00  0.00     0.000 C 
BRANCH  22  23
ATOM     23  C   UNL     1      61.944  29.884  61.894  1.00  0.00     0.000 C 
BRANCH  23  24
ATOM     24  C   UNL     1      61.736  28.663  60.979  1.00  0.00    -0.000 C 
BRANCH  24  25
ATOM     25  C   UNL     1      63.005  28.266  60.212  1.00  0.00    -0.000 C 
BRANCH  25  26
ATOM     26  C   UNL     1      64.266  28.620  61.017  1.00  0.00    -0.000 C 
BRANCH  26  27
ATOM     27  C   UNL     1      65.547  28.577  60.168  1.00  0.00    -0.000 C 
BRANCH  27  28
ATOM     28  C   UNL     1      66.089  29.955  59.746  1.00  0.00    -0.000 C 
BRANCH  28  29
ATOM     29  C   UNL     1      66.182  30.146  58.217  1.00  0.00    -0.000 C 
BRANCH  29  30
ATOM     30  C   UNL     1      65.562  31.478  57.758  1.00  0.00    -0.000 C 
BRANCH  30  31
ATOM     31  C   UNL     1      64.458  31.293  56.705  1.00  0.00    -0.003 C 
ATOM     32  C   UNL     1      63.393  30.283  57.130  1.00  0.00     0.004 C 
ENDBRANCH  30  31
ENDBRANCH  29  30
ENDBRANCH  28  29
ENDBRANCH  27  28
ENDBRANCH  26  27
ENDBRANCH  25  26
ENDBRANCH  24  25
ENDBRANCH  23  24
ENDBRANCH  22  23
ENDBRANCH  21  22
ENDBRANCH  20  21
ENDBRANCH  19  20
ENDBRANCH  18  19
ENDBRANCH   1  18
TORSDOF 28
ENDMDL
MODEL 2
REMARK VINA RESULT:    -2.815      5.318      9.496
REMARK INTER + INTRA:         -13.562
REMARK INTER:                  -9.344
REMARK INTRA:                  -4.217
REMARK UNBOUND:                -6.140
REMARK SMILES CCCCCCCCCCCCCCCCCCCCCCCCCCCCCC(=O)[O-]
REMARK SMILES IDX 16 1 17 2 18 3 19 4 20 5 21 6 22 7 23 8 24 9 25 10 26 11
REMARK SMILES IDX 27 12 28 13 29 14 30 15 31 16 32 17 15 18 14 19 13 20 12 21
REMARK SMILES IDX 11 22 10 23 9 24 8 25 7 26 6 27 5 28 4 29 3 30 2 31 1 32
REMARK H PARENT
REMARK Flexibility Score: inf
ROOT
ATOM      1  C   UNL     1      68.915  28.836  60.746  1.00  0.00     0.000 C 
ENDROOT
BRANCH   1   2
ATOM      2  C   UNL     1      70.050  29.636  61.420  1.00  0.00     0.000 C 
BRANCH   2   3
ATOM      3  C   UNL     1      71.438  29.339  60.830  1.00  0.00     0.000 C 
BRANCH   3   4
ATOM      4  C   UNL     1      72.507  30.347  61.286  1.00  0.00     0.000 C 
BRANCH   4   5
ATOM      5  C   UNL     1      72.670  31.520  60.298  1.00  0.00     0.000 C 
BRANCH   5   6
ATOM      6  C   UNL     1      71.657  32.661  60.498  1.00  0.00     0.000 C 
BRANCH   6   7
ATOM      7  C   UNL     1      70.823  32.946  59.239  1.00  0.00     0.000 C 
BRANCH   7   8
ATOM      8  C   UNL     1      71.171  32.024  58.054  1.00  0.00     0.000 C 
BRANCH   8   9
ATOM      9  C   UNL     1      70.164  30.889  57.782  1.00  0.00     0.000 C 
BRANCH   9  10
ATOM     10  C   UNL     1      68.710  31.282  58.085  1.00  0.00     0.000 C 
BRANCH  10  11
ATOM     11  C   UNL     1      68.039  31.939  56.869  1.00  0.00     0.000 C 
BRANCH  11  12
ATOM     12  C   UNL     1      67.119  33.115  57.264  1.00  0.00     0.000 C 
BRANCH  12  13
ATOM     13  C   UNL     1      67.461  34.445  56.563  1.00  0.00     0.006 C 
BRANCH  13  14
ATOM     14  C   UNL     1      68.948  34.825  56.600  1.00  0.00     0.053 C 
BRANCH  14  15
ATOM     15  C   UNL     1      69.257  35.819  57.681  1.00  0.00     0.041 C 
ATOM     16  O   UNL     1      70.434  36.238  57.837  1.00  0.00    -0.550 OA
ATOM     17  O   UNL     1      68.245  36.281  58.515  1.00  0.00    -0.550 OA
ENDBRANCH  14  15
ENDBRANCH  13  14
ENDBRANCH  12  13
ENDBRANCH  11  12
ENDBRANCH  10  11
ENDBRANCH   9  10
ENDBRANCH   8   9
ENDBRANCH   7   8
ENDBRANCH   6   7
ENDBRANCH   5   6
ENDBRANCH   4   5
ENDBRANCH   3   4
ENDBRANCH   2   3
ENDBRANCH   1   2
BRANCH   1  18
ATOM     18  C   UNL     1      67.647  28.779  61.609  1.00  0.00     0.000 C 
BRANCH  18  19
ATOM     19  C   UNL     1      66.461  28.243  60.799  1.00  0.00     0.000 C 
BRANCH  19  20
ATOM     20  C   UNL     1      65.283  29.227  60.817  1.00  0.00     0.000 C 
BRANCH  20  21
ATOM     21  C   UNL     1      64.924  29.746  59.407  1.00  0.00     0.000 C 
BRANCH  21  22
ATOM     22  C   UNL     1      64.852  31.282  59.313  1.00  0.00     0.000 C 
BRANCH  22  23
ATOM     23  C   UNL     1      64.511  31.999  60.632  1.00  0.00     0.000 C 
BRANCH  23  24
ATOM     24  C   UNL     1      63.846  33.379  60.469  1.00  0.00    -0.000 C 
BRANCH  24  25
ATOM     25  C   UNL     1      62.339  33.357  60.766  1.00  0.00    -0.000 C 
BRANCH  25  26
ATOM     26  C   UNL     1      61.589  32.501  59.732  1.00  0.00    -0.000 C 
BRANCH  26  27
ATOM     27  C   UNL     1      60.527  31.591  60.369  1.00  0.00    -0.000 C 
BRANCH  27  28
ATOM     28  C   UNL     1      60.858  31.112  61.795  1.00  0.00    -0.000 C 
BRANCH  28  29
ATOM     29  C   UNL     1      61.911  29.984  61.845  1.00  0.00    -0.000 C 
BRANCH  29  30
ATOM     30  C   UNL     1      61.388  28.673  61.231  1.00  0.00    -0.000 C 
BRANCH  30  31
ATOM     31  C   UNL     1      62.201  27.443  61.666  1.00  0.00    -0.003 C 
ATOM     32  C   UNL     1      61.326  26.228  61.970  1.00  0.00     0.004 C 
ENDBRANCH  30  31
ENDBRANCH  29  30
ENDBRANCH  28  29
ENDBRANCH  27  28
ENDBRANCH  26  27
ENDBRANCH  25  26
ENDBRANCH  24  25
ENDBRANCH  23  24
ENDBRANCH  22  23
ENDBRANCH  21  22
ENDBRANCH  20  21
ENDBRANCH  19  20
ENDBRANCH  18  19
ENDBRANCH   1  18
TORSDOF 28
ENDMDL
MODEL 3
REMARK VINA RESULT:    -2.806      3.222      5.965
REMARK INTER + INTRA:         -13.540
REMARK INTER:                  -7.079
REMARK INTRA:                  -6.460
REMARK UNBOUND:                -6.140
REMARK SMILES CCCCCCCCCCCCCCCCCCCCCCCCCCCCCC(=O)[O-]
REMARK SMILES IDX 16 1 17 2 18 3 19 4 20 5 21 6 22 7 23 8 24 9 25 10 26 11
REMARK SMILES IDX 27 12 28 13 29 14 30 15 31 16 32 17 15 18 14 19 13 20 12 21
REMARK SMILES IDX 11 22 10 23 9 24 8 25 7 26 6 27 5 28 4 29 3 30 2 31 1 32
REMARK H PARENT
REMARK Flexibility Score: inf
ROOT
ATOM      1  C   UNL     1      61.125  35.247  60.363  1.00  0.00     0.000 C 
ENDROOT
BRANCH   1   2
ATOM      2  C   UNL     1      60.732  35.943  59.043  1.00  0.00     0.000 C 
BRANCH   2   3
ATOM      3  C   UNL     1      61.671  35.605  57.873  1.00  0.00     0.000 C 
BRANCH   3   4
ATOM      4  C   UNL     1      61.036  34.637  56.860  1.00  0.00     0.000 C 
BRANCH   4   5
ATOM      5  C   UNL     1      61.188  33.161  57.282  1.00  0.00     0.000 C 
BRANCH   5   6
ATOM      6  C   UNL     1      59.855  32.410  57.445  1.00  0.00     0.000 C 
BRANCH   6   7
ATOM      7  C   UNL     1      59.590  31.973  58.894  1.00  0.00     0.000 C 
BRANCH   7   8
ATOM      8  C   UNL     1      60.877  31.669  59.685  1.00  0.00     0.000 C 
BRANCH   8   9
ATOM      9  C   UNL     1      60.742  31.738  61.220  1.00  0.00     0.000 C 
BRANCH   9  10
ATOM     10  C   UNL     1      61.553  30.657  61.950  1.00  0.00     0.000 C 
BRANCH  10  11
ATOM     11  C   UNL     1      62.535  29.952  61.002  1.00  0.00     0.000 C 
BRANCH  11  12
ATOM     12  C   UNL     1      64.006  30.121  61.440  1.00  0.00     0.000 C 
BRANCH  12  13
ATOM     13  C   UNL     1      64.973  29.098  60.811  1.00  0.00     0.006 C 
BRANCH  13  14
ATOM     14  C   UNL     1      66.270  29.702  60.253  1.00  0.00     0.053 C 
BRANCH  14  15
ATOM     15  C   UNL     1      67.492  29.004  60.772  1.00  0.00     0.041 C 
ATOM     16  O   UNL     1      68.435  28.713  59.988  1.00  0.00    -0.550 OA
ATOM     17  O   UNL     1      67.591  28.673  62.118  1.00  0.00    -0.550 OA
ENDBRANCH  14  15
ENDBRANCH  13  14
ENDBRANCH  12  13
ENDBRANCH  11  12
ENDBRANCH  10  11
ENDBRANCH   9  10
ENDBRANCH   8   9
ENDBRANCH   7   8
ENDBRANCH   6   7
ENDBRANCH   5   6
ENDBRANCH   4   5
ENDBRANCH   3   4
ENDBRANCH   2   3
ENDBRANCH   1   2
BRANCH   1  18
ATOM     18  C   UNL     1      62.571  35.553  60.777  1.00  0.00     0.000 C 
BRANCH  18  19
ATOM     19  C   UNL     1      63.358  34.258  61.006  1.00  0.00     0.000 C 
BRANCH  19  20
ATOM     20  C   UNL     1      64.474  34.092  59.965  1.00  0.00     0.000 C 
BRANCH  20  21
ATOM     21  C   UNL     1      64.360  32.765  59.182  1.00  0.00     0.000 C 
BRANCH  21  22
ATOM     22  C   UNL     1      64.777  32.880  57.704  1.00  0.00     0.000 C 
BRANCH  22  23
ATOM     23  C   UNL     1      64.480  31.638  56.845  1.00  0.00     0.000 C 
BRANCH  23  24
ATOM     24  C   UNL     1      63.804  30.475  57.595  1.00  0.00    -0.000 C 
BRANCH  24  25
ATOM     25  C   UNL     1      63.037  29.526  56.663  1.00  0.00    -0.000 C 
BRANCH  25  26
ATOM     26  C   UNL     1      61.641  29.213  57.227  1.00  0.00    -0.000 C 
BRANCH  26  27
ATOM     27  C   UNL     1      61.509  27.764  57.722  1.00  0.00    -0.000 C 
BRANCH  27  28
ATOM     28  C   UNL     1      60.798  27.607  59.079  1.00  0.00    -0.000 C 
BRANCH  28  29
ATOM     29  C   UNL     1      59.409  28.280  59.136  1.00  0.00    -0.000 C 
BRANCH  29  30
ATOM     30  C   UNL     1      58.945  28.534  60.582  1.00  0.00    -0.000 C 
BRANCH  30  31
ATOM     31  C   UNL     1      57.602  27.861  60.906  1.00  0.00    -0.003 C 
ATOM     32  C   UNL     1      57.759  26.588  61.737  1.00  0.00     0.004 C 
ENDBRANCH  30  31
ENDBRANCH  29  30
ENDBRANCH  28  29
ENDBRANCH  27  28
ENDBRANCH  26  27
ENDBRANCH  25  26
ENDBRANCH  24  25
ENDBRANCH  23  24
ENDBRANCH  22  23
ENDBRANCH  21  22
ENDBRANCH  20  21
ENDBRANCH  19  20
ENDBRANCH  18  19
ENDBRANCH   1  18
TORSDOF 28
ENDMDL
MODEL 4
REMARK VINA RESULT:    -2.788      3.231      6.695
REMARK INTER + INTRA:         -13.492
REMARK INTER:                  -7.841
REMARK INTRA:                  -5.651
REMARK UNBOUND:                -6.140
REMARK SMILES CCCCCCCCCCCCCCCCCCCCCCCCCCCCCC(=O)[O-]
REMARK SMILES IDX 16 1 17 2 18 3 19 4 20 5 21 6 22 7 23 8 24 9 25 10 26 11
REMARK SMILES IDX 27 12 28 13 29 14 30 15 31 16 32 17 15 18 14 19 13 20 12 21
REMARK SMILES IDX 11 22 10 23 9 24 8 25 7 26 6 27 5 28 4 29 3 30 2 31 1 32
REMARK H PARENT
REMARK Flexibility Score: inf
ROOT
ATOM      1  C   UNL     1      64.131  34.723  61.307  1.00  0.00     0.000 C 
ENDROOT
BRANCH   1   2
ATOM      2  C   UNL     1      64.130  33.208  61.007  1.00  0.00     0.000 C 
BRANCH   2   3
ATOM      3  C   UNL     1      63.510  32.858  59.645  1.00  0.00     0.000 C 
BRANCH   3   4
ATOM      4  C   UNL     1      62.334  31.873  59.762  1.00  0.00     0.000 C 
BRANCH   4   5
ATOM      5  C   UNL     1      61.387  32.223  60.929  1.00  0.00     0.000 C 
BRANCH   5   6
ATOM      6  C   UNL     1      61.160  31.074  61.925  1.00  0.00     0.000 C 
BRANCH   6   7
ATOM      7  C   UNL     1      61.862  29.773  61.505  1.00  0.00     0.000 C 
BRANCH   7   8
ATOM      8  C   UNL     1      60.881  28.646  61.125  1.00  0.00     0.000 C 
BRANCH   8   9
ATOM      9  C   UNL     1      61.407  27.635  60.086  1.00  0.00     0.000 C 
BRANCH   9  10
ATOM     10  C   UNL     1      62.325  28.271  59.031  1.00  0.00     0.000 C 
BRANCH  10  11
ATOM     11  C   UNL     1      63.694  27.576  58.983  1.00  0.00     0.000 C 
BRANCH  11  12
ATOM     12  C   UNL     1      64.843  28.553  58.651  1.00  0.00     0.000 C 
BRANCH  12  13
ATOM     13  C   UNL     1      65.183  29.536  59.788  1.00  0.00     0.006 C 
BRANCH  13  14
ATOM     14  C   UNL     1      65.800  28.886  61.034  1.00  0.00     0.053 C 
BRANCH  14  15
ATOM     15  C   UNL     1      67.296  29.003  61.057  1.00  0.00     0.041 C 
ATOM     16  O   UNL     1      67.940  28.678  62.089  1.00  0.00    -0.550 OA
ATOM     17  O   UNL     1      67.978  29.471  59.939  1.00  0.00    -0.550 OA
ENDBRANCH  14  15
ENDBRANCH  13  14
ENDBRANCH  12  13
ENDBRANCH  11  12
ENDBRANCH  10  11
ENDBRANCH   9  10
ENDBRANCH   8   9
ENDBRANCH   7   8
ENDBRANCH   6   7
ENDBRANCH   5   6
ENDBRANCH   4   5
ENDBRANCH   3   4
ENDBRANCH   2   3
ENDBRANCH   1   2
BRANCH   1  18
ATOM     18  C   UNL     1      63.236  35.510  60.340  1.00  0.00     0.000 C 
BRANCH  18  19
ATOM     19  C   UNL     1      61.986  36.032  61.058  1.00  0.00     0.000 C 
BRANCH  19  20
ATOM     20  C   UNL     1      60.711  35.693  60.274  1.00  0.00     0.000 C 
BRANCH  20  21
ATOM     21  C   UNL     1      61.005  35.291  58.812  1.00  0.00     0.000 C 
BRANCH  21  22
ATOM     22  C   UNL     1      59.816  34.610  58.107  1.00  0.00     0.000 C 
BRANCH  22  23
ATOM     23  C   UNL     1      60.193  33.444  57.175  1.00  0.00     0.000 C 
BRANCH  23  24
ATOM     24  C   UNL     1      59.040  32.480  56.841  1.00  0.00    -0.000 C 
BRANCH  24  25
ATOM     25  C   UNL     1      58.330  31.939  58.090  1.00  0.00    -0.000 C 
BRANCH  25  26
ATOM     26  C   UNL     1      59.071  30.717  58.656  1.00  0.00    -0.000 C 
BRANCH  26  27
ATOM     27  C   UNL     1      59.034  29.506  57.710  1.00  0.00    -0.000 C 
BRANCH  27  28
ATOM     28  C   UNL     1      58.317  28.266  58.275  1.00  0.00    -0.000 C 
BRANCH  28  29
ATOM     29  C   UNL     1      57.385  28.574  59.466  1.00  0.00    -0.000 C 
BRANCH  29  30
ATOM     30  C   UNL     1      56.939  27.297  60.202  1.00  0.00    -0.000 C 
BRANCH  30  31
ATOM     31  C   UNL     1      57.541  27.179  61.611  1.00  0.00    -0.003 C 
ATOM     32  C   UNL     1      58.421  25.941  61.781  1.00  0.00     0.004 C 
ENDBRANCH  30  31
ENDBRANCH  29  30
ENDBRANCH  28  29
ENDBRANCH  27  28
ENDBRANCH  26  27
ENDBRANCH  25  26
ENDBRANCH  24  25
ENDBRANCH  23  24
ENDBRANCH  22  23
ENDBRANCH  21  22
ENDBRANCH  20  21
ENDBRANCH  19  20
ENDBRANCH  18  19
ENDBRANCH   1  18
TORSDOF 28
ENDMDL
MODEL 5
REMARK VINA RESULT:    -2.788      3.247      5.515
REMARK INTER + INTRA:         -13.491
REMARK INTER:                  -8.049
REMARK INTRA:                  -5.442
REMARK UNBOUND:                -6.140
REMARK SMILES CCCCCCCCCCCCCCCCCCCCCCCCCCCCCC(=O)[O-]
REMARK SMILES IDX 16 1 17 2 18 3 19 4 20 5 21 6 22 7 23 8 24 9 25 10 26 11
REMARK SMILES IDX 27 12 28 13 29 14 30 15 31 16 32 17 15 18 14 19 13 20 12 21
REMARK SMILES IDX 11 22 10 23 9 24 8 25 7 26 6 27 5 28 4 29 3 30 2 31 1 32
REMARK H PARENT
REMARK Flexibility Score: inf
ROOT
ATOM      1  C   UNL     1      63.806  34.931  61.371  1.00  0.00     0.000 C 
ENDROOT
BRANCH   1   2
ATOM      2  C   UNL     1      64.995  35.879  61.633  1.00  0.00     0.000 C 
BRANCH   2   3
ATOM      3  C   UNL     1      65.177  36.944  60.538  1.00  0.00     0.000 C 
BRANCH   3   4
ATOM      4  C   UNL     1      65.946  36.414  59.315  1.00  0.00     0.000 C 
BRANCH   4   5
ATOM      5  C   UNL     1      65.064  36.345  58.051  1.00  0.00     0.000 C 
BRANCH   5   6
ATOM      6  C   UNL     1      64.521  34.941  57.735  1.00  0.00     0.000 C 
BRANCH   6   7
ATOM      7  C   UNL     1      63.027  34.946  57.374  1.00  0.00     0.000 C 
BRANCH   7   8
ATOM      8  C   UNL     1      62.637  33.840  56.373  1.00  0.00     0.000 C 
BRANCH   8   9
ATOM      9  C   UNL     1      61.814  32.677  56.961  1.00  0.00     0.000 C 
BRANCH   9  10
ATOM     10  C   UNL     1      62.499  31.310  56.807  1.00  0.00     0.000 C 
BRANCH  10  11
ATOM     11  C   UNL     1      62.884  30.715  58.170  1.00  0.00     0.000 C 
BRANCH  11  12
ATOM     12  C   UNL     1      64.126  31.397  58.784  1.00  0.00     0.000 C 
BRANCH  12  13
ATOM     13  C   UNL     1      65.366  30.486  58.871  1.00  0.00     0.006 C 
BRANCH  13  14
ATOM     14  C   UNL     1      65.872  30.227  60.297  1.00  0.00     0.053 C 
BRANCH  14  15
ATOM     15  C   UNL     1      66.830  29.074  60.362  1.00  0.00     0.041 C 
ATOM     16  O   UNL     1      66.560  28.066  61.068  1.00  0.00    -0.550 OA
ATOM     17  O   UNL     1      68.020  29.112  59.645  1.00  0.00    -0.550 OA
ENDBRANCH  14  15
ENDBRANCH  13  14
ENDBRANCH  12  13
ENDBRANCH  11  12
ENDBRANCH  10  11
ENDBRANCH   9  10
ENDBRANCH   8   9
ENDBRANCH   7   8
ENDBRANCH   6   7
ENDBRANCH   5   6
ENDBRANCH   4   5
ENDBRANCH   3   4
ENDBRANCH   2   3
ENDBRANCH   1   2
BRANCH   1  18
ATOM     18  C   UNL     1      62.512  35.691  61.047  1.00  0.00     0.000 C 
BRANCH  18  19
ATOM     19  C   UNL     1      61.417  34.727  60.579  1.00  0.00     0.000 C 
BRANCH  19  20
ATOM     20  C   UNL     1      61.883  33.267  60.669  1.00  0.00     0.000 C 
BRANCH  20  21
ATOM     21  C   UNL     1      60.703  32.273  60.740  1.00  0.00     0.000 C 
BRANCH  21  22
ATOM     22  C   UNL     1      60.884  31.173  61.804  1.00  0.00     0.000 C 
BRANCH  22  23
ATOM     23  C   UNL     1      62.221  30.414  61.734  1.00  0.00     0.000 C 
BRANCH  23  24
ATOM     24  C   UNL     1      62.107  28.883  61.848  1.00  0.00    -0.000 C 
BRANCH  24  25
ATOM     25  C   UNL     1      62.946  28.140  60.799  1.00  0.00    -0.000 C 
BRANCH  25  26
ATOM     26  C   UNL     1      62.941  26.625  61.065  1.00  0.00    -0.000 C 
BRANCH  26  27
ATOM     27  C   UNL     1      61.724  26.169  61.887  1.00  0.00    -0.000 C 
BRANCH  27  28
ATOM     28  C   UNL     1      60.456  25.884  61.060  1.00  0.00    -0.000 C 
BRANCH  28  29
ATOM     29  C   UNL     1      59.177  26.526  61.639  1.00  0.00    -0.000 C 
BRANCH  29  30
ATOM     30  C   UNL     1      58.862  27.884  60.987  1.00  0.00    -0.000 C 
BRANCH  30  31
ATOM     31  C   UNL     1      59.068  27.878  59.464  1.00  0.00    -0.003 C 
ATOM     32  C   UNL     1      59.464  29.247  58.911  1.00  0.00     0.004 C 
ENDBRANCH  30  31
ENDBRANCH  29  30
ENDBRANCH  28  29
ENDBRANCH  27  28
ENDBRANCH  26  27
ENDBRANCH  25  26
ENDBRANCH  24  25
ENDBRANCH  23  24
ENDBRANCH  22  23
ENDBRANCH  21  22
ENDBRANCH  20  21
ENDBRANCH  19  20
ENDBRANCH  18  19
ENDBRANCH   1  18
TORSDOF 28
ENDMDL
MODEL 6
REMARK VINA RESULT:    -2.771      8.306     11.941
REMARK INTER + INTRA:         -13.446
REMARK INTER:                  -7.455
REMARK INTRA:                  -5.991
REMARK UNBOUND:                -6.140
REMARK SMILES CCCCCCCCCCCCCCCCCCCCCCCCCCCCCC(=O)[O-]
REMARK SMILES IDX 16 1 17 2 18 3 19 4 20 5 21 6 22 7 23 8 24 9 25 10 26 11
REMARK SMILES IDX 27 12 28 13 29 14 30 15 31 16 32 17 15 18 14 19 13 20 12 21
REMARK SMILES IDX 11 22 10 23 9 24 8 25 7 26 6 27 5 28 4 29 3 30 2 31 1 32
REMARK H PARENT
REMARK Flexibility Score: inf
ROOT
ATOM      1  C   UNL     1      59.322  29.293  50.582  1.00  0.00     0.000 C 
ENDROOT
BRANCH   1   2
ATOM      2  C   UNL     1      59.297  28.350  49.360  1.00  0.00     0.000 C 
BRANCH   2   3
ATOM      3  C   UNL     1      59.771  26.923  49.682  1.00  0.00     0.000 C 
BRANCH   3   4
ATOM      4  C   UNL     1      58.604  25.954  49.940  1.00  0.00     0.000 C 
BRANCH   4   5
ATOM      5  C   UNL     1      59.016  24.762  50.830  1.00  0.00     0.000 C 
BRANCH   5   6
ATOM      6  C   UNL     1      60.176  23.924  50.266  1.00  0.00     0.000 C 
BRANCH   6   7
ATOM      7  C   UNL     1      61.208  23.538  51.337  1.00  0.00     0.000 C 
BRANCH   7   8
ATOM      8  C   UNL     1      62.649  23.950  50.973  1.00  0.00     0.000 C 
BRANCH   8   9
ATOM      9  C   UNL     1      62.840  25.438  50.616  1.00  0.00     0.000 C 
BRANCH   9  10
ATOM     10  C   UNL     1      64.258  25.954  50.908  1.00  0.00     0.000 C 
BRANCH  10  11
ATOM     11  C   UNL     1      64.662  27.072  49.934  1.00  0.00     0.000 C 
BRANCH  11  12
ATOM     12  C   UNL     1      63.444  27.838  49.375  1.00  0.00     0.000 C 
BRANCH  12  13
ATOM     13  C   UNL     1      63.767  28.740  48.167  1.00  0.00     0.006 C 
BRANCH  13  14
ATOM     14  C   UNL     1      64.540  30.021  48.512  1.00  0.00     0.053 C 
BRANCH  14  15
ATOM     15  C   UNL     1      63.916  30.774  49.649  1.00  0.00     0.041 C 
ATOM     16  O   UNL     1      64.607  31.092  50.653  1.00  0.00    -0.550 OA
ATOM     17  O   UNL     1      62.571  31.124  49.602  1.00  0.00    -0.550 OA
ENDBRANCH  14  15
ENDBRANCH  13  14
ENDBRANCH  12  13
ENDBRANCH  11  12
ENDBRANCH  10  11
ENDBRANCH   9  10
ENDBRANCH   8   9
ENDBRANCH   7   8
ENDBRANCH   6   7
ENDBRANCH   5   6
ENDBRANCH   4   5
ENDBRANCH   3   4
ENDBRANCH   2   3
ENDBRANCH   1   2
BRANCH   1  18
ATOM     18  C   UNL     1      57.912  29.678  51.052  1.00  0.00     0.000 C 
BRANCH  18  19
ATOM     19  C   UNL     1      56.845  28.991  50.191  1.00  0.00     0.000 C 
BRANCH  19  20
ATOM     20  C   UNL     1      55.433  29.277  50.720  1.00  0.00     0.000 C 
BRANCH  20  21
ATOM     21  C   UNL     1      54.398  28.239  50.233  1.00  0.00     0.000 C 
BRANCH  21  22
ATOM     22  C   UNL     1      54.973  26.818  50.080  1.00  0.00     0.000 C 
BRANCH  22  23
ATOM     23  C   UNL     1      54.435  25.786  51.087  1.00  0.00     0.000 C 
BRANCH  23  24
ATOM     24  C   UNL     1      54.792  26.066  52.559  1.00  0.00    -0.000 C 
BRANCH  24  25
ATOM     25  C   UNL     1      56.306  26.122  52.809  1.00  0.00    -0.000 C 
BRANCH  25  26
ATOM     26  C   UNL     1      56.680  27.368  53.629  1.00  0.00    -0.000 C 
BRANCH  26  27
ATOM     27  C   UNL     1      58.168  27.401  54.016  1.00  0.00    -0.000 C 
BRANCH  27  28
ATOM     28  C   UNL     1      58.820  26.017  54.196  1.00  0.00    -0.000 C 
BRANCH  28  29
ATOM     29  C   UNL     1      60.356  26.027  54.042  1.00  0.00    -0.000 C 
BRANCH  29  30
ATOM     30  C   UNL     1      60.835  27.113  53.061  1.00  0.00    -0.000 C 
BRANCH  30  31
ATOM     31  C   UNL     1      62.141  27.789  53.507  1.00  0.00    -0.003 C 
ATOM     32  C   UNL     1      62.444  29.069  52.731  1.00  0.00     0.004 C 
ENDBRANCH  30  31
ENDBRANCH  29  30
ENDBRANCH  28  29
ENDBRANCH  27  28
ENDBRANCH  26  27
ENDBRANCH  25  26
ENDBRANCH  24  25
ENDBRANCH  23  24
ENDBRANCH  22  23
ENDBRANCH  21  22
ENDBRANCH  20  21
ENDBRANCH  19  20
ENDBRANCH  18  19
ENDBRANCH   1  18
TORSDOF 28
ENDMDL
MODEL 7
REMARK VINA RESULT:    -2.762      3.060      6.876
REMARK INTER + INTRA:         -13.423
REMARK INTER:                  -7.836
REMARK INTRA:                  -5.587
REMARK UNBOUND:                -6.140
REMARK SMILES CCCCCCCCCCCCCCCCCCCCCCCCCCCCCC(=O)[O-]
REMARK SMILES IDX 16 1 17 2 18 3 19 4 20 5 21 6 22 7 23 8 24 9 25 10 26 11
REMARK SMILES IDX 27 12 28 13 29 14 30 15 31 16 32 17 15 18 14 19 13 20 12 21
REMARK SMILES IDX 11 22 10 23 9 24 8 25 7 26 6 27 5 28 4 29 3 30 2 31 1 32
REMARK H PARENT
REMARK Flexibility Score: inf
ROOT
ATOM      1  C   UNL     1      60.778  31.828  58.770  1.00  0.00     0.000 C 
ENDROOT
BRANCH   1   2
ATOM      2  C   UNL     1      60.222  31.071  59.995  1.00  0.00     0.000 C 
BRANCH   2   3
ATOM      3  C   UNL     1      60.781  31.584  61.332  1.00  0.00     0.000 C 
BRANCH   3   4
ATOM      4  C   UNL     1      61.553  30.503  62.108  1.00  0.00     0.000 C 
BRANCH   4   5
ATOM      5  C   UNL     1      62.809  30.020  61.352  1.00  0.00     0.000 C 
BRANCH   5   6
ATOM      6  C   UNL     1      63.978  31.019  61.366  1.00  0.00     0.000 C 
BRANCH   6   7
ATOM      7  C   UNL     1      64.318  31.559  59.968  1.00  0.00     0.000 C 
BRANCH   7   8
ATOM      8  C   UNL     1      64.115  33.081  59.836  1.00  0.00     0.000 C 
BRANCH   8   9
ATOM      9  C   UNL     1      64.017  33.853  61.167  1.00  0.00     0.000 C 
BRANCH   9  10
ATOM     10  C   UNL     1      63.303  35.207  61.032  1.00  0.00     0.000 C 
BRANCH  10  11
ATOM     11  C   UNL     1      61.825  35.029  60.651  1.00  0.00     0.000 C 
BRANCH  11  12
ATOM     12  C   UNL     1      61.025  36.345  60.754  1.00  0.00     0.000 C 
BRANCH  12  13
ATOM     13  C   UNL     1      59.913  36.491  59.696  1.00  0.00     0.006 C 
BRANCH  13  14
ATOM     14  C   UNL     1      59.932  35.420  58.596  1.00  0.00     0.053 C 
BRANCH  14  15
ATOM     15  C   UNL     1      58.571  35.181  58.011  1.00  0.00     0.041 C 
ATOM     16  O   UNL     1      57.757  36.135  57.892  1.00  0.00    -0.550 OA
ATOM     17  O   UNL     1      58.202  33.907  57.596  1.00  0.00    -0.550 OA
ENDBRANCH  14  15
ENDBRANCH  13  14
ENDBRANCH  12  13
ENDBRANCH  11  12
ENDBRANCH  10  11
ENDBRANCH   9  10
ENDBRANCH   8   9
ENDBRANCH   7   8
ENDBRANCH   6   7
ENDBRANCH   5   6
ENDBRANCH   4   5
ENDBRANCH   3   4
ENDBRANCH   2   3
ENDBRANCH   1   2
BRANCH   1  18
ATOM     18  C   UNL     1      61.426  30.887  57.745  1.00  0.00     0.000 C 
BRANCH  18  19
ATOM     19  C   UNL     1      61.256  29.423  58.167  1.00  0.00     0.000 C 
BRANCH  19  20
ATOM     20  C   UNL     1      60.717  28.568  57.012  1.00  0.00     0.000 C 
BRANCH  20  21
ATOM     21  C   UNL     1      59.407  27.836  57.381  1.00  0.00     0.000 C 
BRANCH  21  22
ATOM     22  C   UNL     1      58.316  28.766  57.944  1.00  0.00     0.000 C 
BRANCH  22  23
ATOM     23  C   UNL     1      57.829  28.413  59.361  1.00  0.00     0.000 C 
BRANCH  23  24
ATOM     24  C   UNL     1      58.477  27.161  59.979  1.00  0.00    -0.000 C 
BRANCH  24  25
ATOM     25  C   UNL     1      59.505  27.495  61.070  1.00  0.00    -0.000 C 
BRANCH  25  26
ATOM     26  C   UNL     1      60.838  26.774  60.806  1.00  0.00    -0.000 C 
BRANCH  26  27
ATOM     27  C   UNL     1      61.708  26.650  62.067  1.00  0.00    -0.000 C 
BRANCH  27  28
ATOM     28  C   UNL     1      61.064  25.858  63.221  1.00  0.00    -0.000 C 
BRANCH  28  29
ATOM     29  C   UNL     1      61.156  24.327  63.053  1.00  0.00    -0.000 C 
BRANCH  29  30
ATOM     30  C   UNL     1      59.833  23.623  63.405  1.00  0.00    -0.000 C 
BRANCH  30  31
ATOM     31  C   UNL     1      58.605  24.318  62.796  1.00  0.00    -0.003 C 
ATOM     32  C   UNL     1      58.189  23.722  61.452  1.00  0.00     0.004 C 
ENDBRANCH  30  31
ENDBRANCH  29  30
ENDBRANCH  28  29
ENDBRANCH  27  28
ENDBRANCH  26  27
ENDBRANCH  25  26
ENDBRANCH  24  25
ENDBRANCH  23  24
ENDBRANCH  22  23
ENDBRANCH  21  22
ENDBRANCH  20  21
ENDBRANCH  19  20
ENDBRANCH  18  19
ENDBRANCH   1  18
TORSDOF 28
ENDMDL
MODEL 8
REMARK VINA RESULT:    -2.722      1.576      4.880
REMARK INTER + INTRA:         -13.319
REMARK INTER:                  -7.565
REMARK INTRA:                  -5.754
REMARK UNBOUND:                -6.140
REMARK SMILES CCCCCCCCCCCCCCCCCCCCCCCCCCCCCC(=O)[O-]
REMARK SMILES IDX 16 1 17 2 18 3 19 4 20 5 21 6 22 7 23 8 24 9 25 10 26 11
REMARK SMILES IDX 27 12 28 13 29 14 30 15 31 16 32 17 15 18 14 19 13 20 12 21
REMARK SMILES IDX 11 22 10 23 9 24 8 25 7 26 6 27 5 28 4 29 3 30 2 31 1 32
REMARK H PARENT
REMARK Flexibility Score: inf
ROOT
ATOM      1  C   UNL     1      60.952  31.085  58.989  1.00  0.00     0.000 C 
ENDROOT
BRANCH   1   2
ATOM      2  C   UNL     1      60.230  30.823  60.328  1.00  0.00     0.000 C 
BRANCH   2   3
ATOM      3  C   UNL     1      61.101  31.126  61.559  1.00  0.00     0.000 C 
BRANCH   3   4
ATOM      4  C   UNL     1      62.266  30.135  61.721  1.00  0.00     0.000 C 
BRANCH   4   5
ATOM      5  C   UNL     1      63.635  30.784  61.429  1.00  0.00     0.000 C 
BRANCH   5   6
ATOM      6  C   UNL     1      64.614  29.878  60.664  1.00  0.00     0.000 C 
BRANCH   6   7
ATOM      7  C   UNL     1      63.949  29.129  59.499  1.00  0.00     0.000 C 
BRANCH   7   8
ATOM      8  C   UNL     1      63.995  27.596  59.651  1.00  0.00     0.000 C 
BRANCH   8   9
ATOM      9  C   UNL     1      62.639  26.918  59.930  1.00  0.00     0.000 C 
BRANCH   9  10
ATOM     10  C   UNL     1      61.549  27.300  58.916  1.00  0.00     0.000 C 
BRANCH  10  11
ATOM     11  C   UNL     1      60.153  27.286  59.557  1.00  0.00     0.000 C 
BRANCH  11  12
ATOM     12  C   UNL     1      60.196  26.939  61.061  1.00  0.00     0.000 C 
BRANCH  12  13
ATOM     13  C   UNL     1      58.814  26.930  61.745  1.00  0.00     0.006 C 
BRANCH  13  14
ATOM     14  C   UNL     1      57.910  28.115  61.377  1.00  0.00     0.053 C 
BRANCH  14  15
ATOM     15  C   UNL     1      56.459  27.820  61.615  1.00  0.00     0.041 C 
ATOM     16  O   UNL     1      55.830  28.426  62.522  1.00  0.00    -0.550 OA
ATOM     17  O   UNL     1      55.800  26.875  60.836  1.00  0.00    -0.550 OA
ENDBRANCH  14  15
ENDBRANCH  13  14
ENDBRANCH  12  13
ENDBRANCH  11  12
ENDBRANCH  10  11
ENDBRANCH   9  10
ENDBRANCH   8   9
ENDBRANCH   7   8
ENDBRANCH   6   7
ENDBRANCH   5   6
ENDBRANCH   4   5
ENDBRANCH   3   4
ENDBRANCH   2   3
ENDBRANCH   1   2
BRANCH   1  18
ATOM     18  C   UNL     1      61.525  32.506  58.902  1.00  0.00     0.000 C 
BRANCH  18  19
ATOM     19  C   UNL     1      60.404  33.533  58.706  1.00  0.00     0.000 C 
BRANCH  19  20
ATOM     20  C   UNL     1      60.865  34.944  59.101  1.00  0.00     0.000 C 
BRANCH  20  21
ATOM     21  C   UNL     1      61.110  35.081  60.620  1.00  0.00     0.000 C 
BRANCH  21  22
ATOM     22  C   UNL     1      61.969  36.302  61.000  1.00  0.00     0.000 C 
BRANCH  22  23
ATOM     23  C   UNL     1      63.440  35.987  61.327  1.00  0.00     0.000 C 
BRANCH  23  24
ATOM     24  C   UNL     1      63.833  34.504  61.190  1.00  0.00    -0.000 C 
BRANCH  24  25
ATOM     25  C   UNL     1      64.586  34.201  59.886  1.00  0.00    -0.000 C 
BRANCH  25  26
ATOM     26  C   UNL     1      64.896  35.496  59.119  1.00  0.00    -0.000 C 
BRANCH  26  27
ATOM     27  C   UNL     1      64.259  35.527  57.720  1.00  0.00    -0.000 C 
BRANCH  27  28
ATOM     28  C   UNL     1      64.168  34.158  57.021  1.00  0.00    -0.000 C 
BRANCH  28  29
ATOM     29  C   UNL     1      63.031  34.063  55.981  1.00  0.00    -0.000 C 
BRANCH  29  30
ATOM     30  C   UNL     1      63.152  32.807  55.100  1.00  0.00    -0.000 C 
BRANCH  30  31
ATOM     31  C   UNL     1      64.003  31.703  55.746  1.00  0.00    -0.003 C 
ATOM     32  C   UNL     1      63.193  30.455  56.096  1.00  0.00     0.004 C 
ENDBRANCH  30  31
ENDBRANCH  29  30
ENDBRANCH  28  29
ENDBRANCH  27  28
ENDBRANCH  26  27
ENDBRANCH  25  26
ENDBRANCH  24  25
ENDBRANCH  23  24
ENDBRANCH  22  23
ENDBRANCH  21  22
ENDBRANCH  20  21
ENDBRANCH  19  20
ENDBRANCH  18  19
ENDBRANCH   1  18
TORSDOF 28
ENDMDL
MODEL 9
REMARK VINA RESULT:    -2.720      2.169      4.970
REMARK INTER + INTRA:         -13.312
REMARK INTER:                  -6.771
REMARK INTRA:                  -6.541
REMARK UNBOUND:                -6.140
REMARK SMILES CCCCCCCCCCCCCCCCCCCCCCCCCCCCCC(=O)[O-]
REMARK SMILES IDX 16 1 17 2 18 3 19 4 20 5 21 6 22 7 23 8 24 9 25 10 26 11
REMARK SMILES IDX 27 12 28 13 29 14 30 15 31 16 32 17 15 18 14 19 13 20 12 21
REMARK SMILES IDX 11 22 10 23 9 24 8 25 7 26 6 27 5 28 4 29 3 30 2 31 1 32
REMARK H PARENT
REMARK Flexibility Score: inf
ROOT
ATOM      1  C   UNL     1      60.479  33.712  58.387  1.00  0.00     0.000 C 
ENDROOT
BRANCH   1   2
ATOM      2  C   UNL     1      60.976  32.375  58.978  1.00  0.00     0.000 C 
BRANCH   2   3
ATOM      3  C   UNL     1      59.890  31.287  59.020  1.00  0.00     0.000 C 
BRANCH   3   4
ATOM      4  C   UNL     1      60.024  30.360  60.240  1.00  0.00     0.000 C 
BRANCH   4   5
ATOM      5  C   UNL     1      60.438  31.122  61.516  1.00  0.00     0.000 C 
BRANCH   5   6
ATOM      6  C   UNL     1      61.783  30.673  62.112  1.00  0.00     0.000 C 
BRANCH   6   7
ATOM      7  C   UNL     1      62.351  29.421  61.425  1.00  0.00     0.000 C 
BRANCH   7   8
ATOM      8  C   UNL     1      63.867  29.508  61.156  1.00  0.00     0.000 C 
BRANCH   8   9
ATOM      9  C   UNL     1      64.302  29.172  59.715  1.00  0.00     0.000 C 
BRANCH   9  10
ATOM     10  C   UNL     1      63.173  29.332  58.686  1.00  0.00     0.000 C 
BRANCH  10  11
ATOM     11  C   UNL     1      62.807  27.988  58.037  1.00  0.00     0.000 C 
BRANCH  11  12
ATOM     12  C   UNL     1      61.312  27.638  58.202  1.00  0.00     0.000 C 
BRANCH  12  13
ATOM     13  C   UNL     1      61.000  26.778  59.443  1.00  0.00     0.006 C 
BRANCH  13  14
ATOM     14  C   UNL     1      59.538  26.834  59.908  1.00  0.00     0.053 C 
BRANCH  14  15
ATOM     15  C   UNL     1      59.409  26.709  61.398  1.00  0.00     0.041 C 
ATOM     16  O   UNL     1      58.288  26.867  61.951  1.00  0.00    -0.550 OA
ATOM     17  O   UNL     1      60.525  26.419  62.175  1.00  0.00    -0.550 OA
ENDBRANCH  14  15
ENDBRANCH  13  14
ENDBRANCH  12  13
ENDBRANCH  11  12
ENDBRANCH  10  11
ENDBRANCH   9  10
ENDBRANCH   8   9
ENDBRANCH   7   8
ENDBRANCH   6   7
ENDBRANCH   5   6
ENDBRANCH   4   5
ENDBRANCH   3   4
ENDBRANCH   2   3
ENDBRANCH   1   2
BRANCH   1  18
ATOM     18  C   UNL     1      60.897  34.918  59.239  1.00  0.00     0.000 C 
BRANCH  18  19
ATOM     19  C   UNL     1      61.526  34.460  60.559  1.00  0.00     0.000 C 
BRANCH  19  20
ATOM     20  C   UNL     1      62.605  35.444  61.034  1.00  0.00     0.000 C 
BRANCH  20  21
ATOM     21  C   UNL     1      64.014  34.811  61.054  1.00  0.00     0.000 C 
BRANCH  21  22
ATOM     22  C   UNL     1      64.021  33.306  60.724  1.00  0.00     0.000 C 
BRANCH  22  23
ATOM     23  C   UNL     1      64.584  32.947  59.337  1.00  0.00     0.000 C 
BRANCH  23  24
ATOM     24  C   UNL     1      64.643  34.115  58.336  1.00  0.00    -0.000 C 
BRANCH  24  25
ATOM     25  C   UNL     1      63.952  33.798  57.002  1.00  0.00    -0.000 C 
BRANCH  25  26
ATOM     26  C   UNL     1      63.909  32.281  56.754  1.00  0.00    -0.000 C 
BRANCH  26  27
ATOM     27  C   UNL     1      63.187  31.911  55.448  1.00  0.00    -0.000 C 
BRANCH  27  28
ATOM     28  C   UNL     1      62.018  30.922  55.615  1.00  0.00    -0.000 C 
BRANCH  28  29
ATOM     29  C   UNL     1      60.632  31.542  55.335  1.00  0.00    -0.000 C 
BRANCH  29  30
ATOM     30  C   UNL     1      60.739  32.946  54.713  1.00  0.00    -0.000 C 
BRANCH  30  31
ATOM     31  C   UNL     1      60.333  32.977  53.232  1.00  0.00    -0.003 C 
ATOM     32  C   UNL     1      60.788  34.248  52.516  1.00  0.00     0.004 C 
ENDBRANCH  30  31
ENDBRANCH  29  30
ENDBRANCH  28  29
ENDBRANCH  27  28
ENDBRANCH  26  27
ENDBRANCH  25  26
ENDBRANCH  24  25
ENDBRANCH  23  24
ENDBRANCH  22  23
ENDBRANCH  21  22
ENDBRANCH  20  21
ENDBRANCH  19  20
ENDBRANCH  18  19
ENDBRANCH   1  18
TORSDOF 28
ENDMDL
