MODEL 1
REMARK VINA RESULT:    -4.233      0.000      0.000
REMARK INTER + INTRA:          -5.004
REMARK INTER:                  -4.976
REMARK INTRA:                  -0.028
REMARK UNBOUND:                -0.028
REMARK SMILES CCCCC(=O)[O-]
REMARK SMILES IDX 4 1 5 2 6 3 7 4 3 5 2 6 1 7
REMARK H PARENT
REMARK Flexibility Score: inf
ROOT
ATOM      1  C   UNL     1      -1.091  10.900 -38.250  1.00  0.00     0.053 C 
ENDROOT
BRANCH   1   2
ATOM      2  C   UNL     1      -0.142  11.853 -37.593  1.00  0.00     0.041 C 
ATOM      3  O   UNL     1      -0.562  12.676 -36.739  1.00  0.00    -0.550 OA
ATOM      4  O   UNL     1       1.201  11.855 -37.949  1.00  0.00    -0.550 OA
ENDBRANCH   1   2
BRANCH   1   5
ATOM      5  C   UNL     1      -0.507   9.481 -38.350  1.00  0.00     0.006 C 
BRANCH   5   6
ATOM      6  C   UNL     1      -1.393   8.490 -39.127  1.00  0.00    -0.003 C 
ATOM      7  C   UNL     1      -2.799   9.027 -39.387  1.00  0.00     0.004 C 
ENDBRANCH   5   6
ENDBRANCH   1   5
TORSDOF 3
ENDMDL
MODEL 2
REMARK VINA RESULT:    -4.124      1.430      1.689
REMARK INTER + INTRA:          -4.875
REMARK INTER:                  -4.857
REMARK INTRA:                  -0.018
REMARK UNBOUND:                -0.028
REMARK SMILES CCCCC(=O)[O-]
REMARK SMILES IDX 4 1 5 2 6 3 7 4 3 5 2 6 1 7
REMARK H PARENT
REMARK Flexibility Score: inf
ROOT
ATOM      1  C   UNL     1      -0.288  11.590 -37.758  1.00  0.00     0.053 C 
ENDROOT
BRANCH   1   2
ATOM      2  C   UNL     1      -0.980  12.779 -37.166  1.00  0.00     0.041 C 
ATOM      3  O   UNL     1      -1.381  12.749 -35.974  1.00  0.00    -0.550 OA
ATOM      4  O   UNL     1      -1.212  13.907 -37.943  1.00  0.00    -0.550 OA
ENDBRANCH   1   2
BRANCH   1   5
ATOM      5  C   UNL     1      -1.285  10.558 -38.310  1.00  0.00     0.006 C 
BRANCH   5   6
ATOM      6  C   UNL     1      -0.726   9.127 -38.397  1.00  0.00    -0.003 C 
ATOM      7  C   UNL     1      -1.438   8.273 -39.445  1.00  0.00     0.004 C 
ENDBRANCH   5   6
ENDBRANCH   1   5
TORSDOF 3
ENDMDL
MODEL 3
REMARK VINA RESULT:    -3.975      2.726      4.000
REMARK INTER + INTRA:          -4.700
REMARK INTER:                  -4.668
REMARK INTRA:                  -0.032
REMARK UNBOUND:                -0.028
REMARK SMILES CCCCC(=O)[O-]
REMARK SMILES IDX 4 1 5 2 6 3 7 4 3 5 2 6 1 7
REMARK H PARENT
REMARK Flexibility Score: inf
ROOT
ATOM      1  C   UNL     1      -1.450  10.263 -38.164  1.00  0.00     0.053 C 
ENDROOT
BRANCH   1   2
ATOM      2  C   UNL     1      -1.885   9.104 -39.008  1.00  0.00     0.041 C 
ATOM      3  O   UNL     1      -1.041   8.260 -39.407  1.00  0.00    -0.550 OA
ATOM      4  O   UNL     1      -3.217   8.976 -39.380  1.00  0.00    -0.550 OA
ENDBRANCH   1   2
BRANCH   1   5
ATOM      5  C   UNL     1       0.036  10.598 -38.366  1.00  0.00     0.006 C 
BRANCH   5   6
ATOM      6  C   UNL     1       0.452  11.974 -37.815  1.00  0.00    -0.003 C 
ATOM      7  C   UNL     1      -0.663  12.659 -37.025  1.00  0.00     0.004 C 
ENDBRANCH   5   6
ENDBRANCH   1   5
TORSDOF 3
ENDMDL
MODEL 4
REMARK VINA RESULT:    -3.776      4.708      5.809
REMARK INTER + INTRA:          -4.466
REMARK INTER:                  -4.450
REMARK INTRA:                  -0.015
REMARK UNBOUND:                -0.028
REMARK SMILES CCCCC(=O)[O-]
REMARK SMILES IDX 4 1 5 2 6 3 7 4 3 5 2 6 1 7
REMARK H PARENT
REMARK Flexibility Score: inf
ROOT
ATOM      1  C   UNL     1      -5.120   8.964 -38.759  1.00  0.00     0.053 C 
ENDROOT
BRANCH   1   2
ATOM      2  C   UNL     1      -6.410   8.995 -39.520  1.00  0.00     0.041 C 
ATOM      3  O   UNL     1      -6.929   7.923 -39.928  1.00  0.00    -0.550 OA
ATOM      4  O   UNL     1      -7.020  10.209 -39.806  1.00  0.00    -0.550 OA
ENDBRANCH   1   2
BRANCH   1   5
ATOM      5  C   UNL     1      -3.900   9.065 -39.688  1.00  0.00     0.006 C 
BRANCH   5   6
ATOM      6  C   UNL     1      -2.559   9.228 -38.950  1.00  0.00    -0.003 C 
ATOM      7  C   UNL     1      -1.521   8.186 -39.368  1.00  0.00     0.004 C 
ENDBRANCH   5   6
ENDBRANCH   1   5
TORSDOF 3
ENDMDL
MODEL 5
REMARK VINA RESULT:    -3.722      7.741      9.099
REMARK INTER + INTRA:          -4.402
REMARK INTER:                  -4.384
REMARK INTRA:                  -0.018
REMARK UNBOUND:                -0.028
REMARK SMILES CCCCC(=O)[O-]
REMARK SMILES IDX 4 1 5 2 6 3 7 4 3 5 2 6 1 7
REMARK H PARENT
REMARK Flexibility Score: inf
ROOT
ATOM      1  C   UNL     1      -7.639   6.068 -39.824  1.00  0.00     0.053 C 
ENDROOT
BRANCH   1   2
ATOM      2  C   UNL     1      -8.103   5.096 -40.864  1.00  0.00     0.041 C 
ATOM      3  O   UNL     1      -8.758   4.075 -40.527  1.00  0.00    -0.550 OA
ATOM      4  O   UNL     1      -7.783   5.300 -42.200  1.00  0.00    -0.550 OA
ENDBRANCH   1   2
BRANCH   1   5
ATOM      5  C   UNL     1      -7.292   7.438 -40.430  1.00  0.00     0.006 C 
BRANCH   5   6
ATOM      6  C   UNL     1      -7.004   8.532 -39.386  1.00  0.00    -0.003 C 
ATOM      7  C   UNL     1      -5.522   8.637 -39.028  1.00  0.00     0.004 C 
ENDBRANCH   5   6
ENDBRANCH   1   5
TORSDOF 3
ENDMDL
MODEL 6
REMARK VINA RESULT:    -3.678      4.690      5.505
REMARK INTER + INTRA:          -4.351
REMARK INTER:                  -4.326
REMARK INTRA:                  -0.024
REMARK UNBOUND:                -0.028
REMARK SMILES CCCCC(=O)[O-]
REMARK SMILES IDX 4 1 5 2 6 3 7 4 3 5 2 6 1 7
REMARK H PARENT
REMARK Flexibility Score: inf
ROOT
ATOM      1  C   UNL     1       0.075   7.464 -41.252  1.00  0.00     0.053 C 
ENDROOT
BRANCH   1   2
ATOM      2  C   UNL     1       0.657   6.137 -41.628  1.00  0.00     0.041 C 
ATOM      3  O   UNL     1       0.208   5.080 -41.112  1.00  0.00    -0.550 OA
ATOM      4  O   UNL     1       1.716   6.070 -42.524  1.00  0.00    -0.550 OA
ENDBRANCH   1   2
BRANCH   1   5
ATOM      5  C   UNL     1      -0.959   7.342 -40.122  1.00  0.00     0.006 C 
BRANCH   5   6
ATOM      6  C   UNL     1      -1.026   8.568 -39.193  1.00  0.00    -0.003 C 
ATOM      7  C   UNL     1      -2.438   9.137 -39.060  1.00  0.00     0.004 C 
ENDBRANCH   5   6
ENDBRANCH   1   5
TORSDOF 3
ENDMDL
MODEL 7
REMARK VINA RESULT:    -3.566      3.250      4.257
REMARK INTER + INTRA:          -4.220
REMARK INTER:                  -4.204
REMARK INTRA:                  -0.016
REMARK UNBOUND:                -0.028
REMARK SMILES CCCCC(=O)[O-]
REMARK SMILES IDX 4 1 5 2 6 3 7 4 3 5 2 6 1 7
REMARK H PARENT
REMARK Flexibility Score: inf
ROOT
ATOM      1  C   UNL     1      -3.663   9.211 -39.783  1.00  0.00     0.053 C 
ENDROOT
BRANCH   1   2
ATOM      2  C   UNL     1      -2.333   8.988 -39.130  1.00  0.00     0.041 C 
ATOM      3  O   UNL     1      -1.979   9.701 -38.156  1.00  0.00    -0.550 OA
ATOM      4  O   UNL     1      -1.472   8.015 -39.621  1.00  0.00    -0.550 OA
ENDBRANCH   1   2
BRANCH   1   5
ATOM      5  C   UNL     1      -4.830   8.866 -38.845  1.00  0.00     0.006 C 
BRANCH   5   6
ATOM      6  C   UNL     1      -6.222   9.115 -39.455  1.00  0.00    -0.003 C 
ATOM      7  C   UNL     1      -6.970   7.822 -39.776  1.00  0.00     0.004 C 
ENDBRANCH   5   6
ENDBRANCH   1   5
TORSDOF 3
ENDMDL
MODEL 8
REMARK VINA RESULT:    -3.543      3.307      4.139
REMARK INTER + INTRA:          -4.193
REMARK INTER:                  -4.176
REMARK INTRA:                  -0.016
REMARK UNBOUND:                -0.028
REMARK SMILES CCCCC(=O)[O-]
REMARK SMILES IDX 4 1 5 2 6 3 7 4 3 5 2 6 1 7
REMARK H PARENT
REMARK Flexibility Score: inf
ROOT
ATOM      1  C   UNL     1      -1.245   7.385 -39.755  1.00  0.00     0.053 C 
ENDROOT
BRANCH   1   2
ATOM      2  C   UNL     1      -1.544   8.717 -39.140  1.00  0.00     0.041 C 
ATOM      3  O   UNL     1      -2.675   9.247 -39.299  1.00  0.00    -0.550 OA
ATOM      4  O   UNL     1      -0.564   9.388 -38.421  1.00  0.00    -0.550 OA
ENDBRANCH   1   2
BRANCH   1   5
ATOM      5  C   UNL     1      -0.227   7.494 -40.901  1.00  0.00     0.006 C 
BRANCH   5   6
ATOM      6  C   UNL     1       0.320   6.140 -41.389  1.00  0.00    -0.003 C 
ATOM      7  C   UNL     1       1.510   6.286 -42.337  1.00  0.00     0.004 C 
ENDBRANCH   5   6
ENDBRANCH   1   5
TORSDOF 3
ENDMDL
MODEL 9
REMARK VINA RESULT:    -3.201     15.669     16.220
REMARK INTER + INTRA:          -3.790
REMARK INTER:                  -3.685
REMARK INTRA:                  -0.105
REMARK UNBOUND:                -0.028
REMARK SMILES CCCCC(=O)[O-]
REMARK SMILES IDX 4 1 5 2 6 3 7 4 3 5 2 6 1 7
REMARK H PARENT
REMARK Flexibility Score: inf
ROOT
ATOM      1  C   UNL     1     -10.717   6.737 -25.174  1.00  0.00     0.053 C 
ENDROOT
BRANCH   1   2
ATOM      2  C   UNL     1     -10.711   8.219 -24.962  1.00  0.00     0.041 C 
ATOM      3  O   UNL     1     -10.585   8.999 -25.942  1.00  0.00    -0.550 OA
ATOM      4  O   UNL     1     -10.810   8.739 -23.677  1.00  0.00    -0.550 OA
ENDBRANCH   1   2
BRANCH   1   5
ATOM      5  C   UNL     1     -10.153   6.350 -26.550  1.00  0.00     0.006 C 
BRANCH   5   6
ATOM      6  C   UNL     1     -11.169   5.650 -27.472  1.00  0.00    -0.003 C 
ATOM      7  C   UNL     1     -11.818   6.604 -28.474  1.00  0.00     0.004 C 
ENDBRANCH   5   6
ENDBRANCH   1   5
TORSDOF 3
ENDMDL
