MODEL 1
REMARK VINA RESULT:    -4.352      0.000      0.000
REMARK INTER + INTRA:          -9.616
REMARK INTER:                  -7.659
REMARK INTRA:                  -1.957
REMARK UNBOUND:                -1.957
REMARK SMILES CCCCCCCCCCCCCCC(=O)[O-]
REMARK SMILES IDX 9 1 10 2 11 3 12 4 13 5 14 6 15 7 16 8 17 9 8 10 7 11 6 12
REMARK SMILES IDX 5 13 4 14 3 15 2 16 1 17
REMARK H PARENT
REMARK Flexibility Score: inf
ROOT
ATOM      1  C   UNL     1     -34.073  20.486 -27.943  1.00  0.00     0.000 C 
ENDROOT
BRANCH   1   2
ATOM      2  C   UNL     1     -34.679  19.075 -28.022  1.00  0.00     0.000 C 
BRANCH   2   3
ATOM      3  C   UNL     1     -35.944  18.928 -27.162  1.00  0.00     0.000 C 
BRANCH   3   4
ATOM      4  C   UNL     1     -37.056  18.140 -27.872  1.00  0.00     0.000 C 
BRANCH   4   5
ATOM      5  C   UNL     1     -36.608  17.703 -29.275  1.00  0.00     0.006 C 
BRANCH   5   6
ATOM      6  C   UNL     1     -37.569  16.683 -29.901  1.00  0.00     0.053 C 
BRANCH   6   7
ATOM      7  C   UNL     1     -38.558  17.339 -30.815  1.00  0.00     0.041 C 
ATOM      8  O   UNL     1     -39.582  16.712 -31.193  1.00  0.00    -0.550 OA
ATOM      9  O   UNL     1     -38.364  18.652 -31.223  1.00  0.00    -0.550 OA
ENDBRANCH   6   7
ENDBRANCH   5   6
ENDBRANCH   4   5
ENDBRANCH   3   4
ENDBRANCH   2   3
ENDBRANCH   1   2
BRANCH   1  10
ATOM     10  C   UNL     1     -33.900  21.143 -29.325  1.00  0.00     0.000 C 
BRANCH  10  11
ATOM     11  C   UNL     1     -34.769  20.550 -30.449  1.00  0.00    -0.000 C 
BRANCH  11  12
ATOM     12  C   UNL     1     -35.970  21.441 -30.812  1.00  0.00    -0.000 C 
BRANCH  12  13
ATOM     13  C   UNL     1     -36.133  22.632 -29.853  1.00  0.00    -0.000 C 
BRANCH  13  14
ATOM     14  C   UNL     1     -37.353  22.490 -28.931  1.00  0.00    -0.000 C 
BRANCH  14  15
ATOM     15  C   UNL     1     -38.108  21.187 -29.218  1.00  0.00    -0.000 C 
BRANCH  15  16
ATOM     16  C   UNL     1     -39.579  21.300 -28.803  1.00  0.00    -0.003 C 
ATOM     17  C   UNL     1     -40.173  19.928 -28.493  1.00  0.00     0.004 C 
ENDBRANCH  15  16
ENDBRANCH  14  15
ENDBRANCH  13  14
ENDBRANCH  12  13
ENDBRANCH  11  12
ENDBRANCH  10  11
ENDBRANCH   1  10
TORSDOF 13
ENDMDL
MODEL 2
REMARK VINA RESULT:    -4.248      2.427      4.813
REMARK INTER + INTRA:          -9.433
REMARK INTER:                  -7.685
REMARK INTRA:                  -1.748
REMARK UNBOUND:                -1.957
REMARK SMILES CCCCCCCCCCCCCCC(=O)[O-]
REMARK SMILES IDX 9 1 10 2 11 3 12 4 13 5 14 6 15 7 16 8 17 9 8 10 7 11 6 12
REMARK SMILES IDX 5 13 4 14 3 15 2 16 1 17
REMARK H PARENT
REMARK Flexibility Score: inf
ROOT
ATOM      1  C   UNL     1     -36.353  21.323 -30.368  1.00  0.00     0.000 C 
ENDROOT
BRANCH   1   2
ATOM      2  C   UNL     1     -36.548  22.563 -29.478  1.00  0.00     0.000 C 
BRANCH   2   3
ATOM      3  C   UNL     1     -37.870  22.525 -28.696  1.00  0.00     0.000 C 
BRANCH   3   4
ATOM      4  C   UNL     1     -38.651  21.219 -28.912  1.00  0.00     0.000 C 
BRANCH   4   5
ATOM      5  C   UNL     1     -39.954  21.481 -29.680  1.00  0.00     0.006 C 
BRANCH   5   6
ATOM      6  C   UNL     1     -40.554  22.855 -29.357  1.00  0.00     0.053 C 
BRANCH   6   7
ATOM      7  C   UNL     1     -41.881  23.055 -30.025  1.00  0.00     0.041 C 
ATOM      8  O   UNL     1     -41.947  23.637 -31.139  1.00  0.00    -0.550 OA
ATOM      9  O   UNL     1     -43.039  22.568 -29.432  1.00  0.00    -0.550 OA
ENDBRANCH   6   7
ENDBRANCH   5   6
ENDBRANCH   4   5
ENDBRANCH   3   4
ENDBRANCH   2   3
ENDBRANCH   1   2
BRANCH   1  10
ATOM     10  C   UNL     1     -35.111  20.498 -29.984  1.00  0.00     0.000 C 
BRANCH  10  11
ATOM     11  C   UNL     1     -34.920  20.259 -28.475  1.00  0.00    -0.000 C 
BRANCH  11  12
ATOM     12  C   UNL     1     -35.180  18.800 -28.060  1.00  0.00    -0.000 C 
BRANCH  12  13
ATOM     13  C   UNL     1     -36.638  18.558 -27.638  1.00  0.00    -0.000 C 
BRANCH  13  14
ATOM     14  C   UNL     1     -37.216  17.257 -28.214  1.00  0.00    -0.000 C 
BRANCH  14  15
ATOM     15  C   UNL     1     -36.982  17.177 -29.727  1.00  0.00    -0.000 C 
BRANCH  15  16
ATOM     16  C   UNL     1     -38.025  18.000 -30.491  1.00  0.00    -0.003 C 
ATOM     17  C   UNL     1     -39.089  17.100 -31.115  1.00  0.00     0.004 C 
ENDBRANCH  15  16
ENDBRANCH  14  15
ENDBRANCH  13  14
ENDBRANCH  12  13
ENDBRANCH  11  12
ENDBRANCH  10  11
ENDBRANCH   1  10
TORSDOF 13
ENDMDL
MODEL 3
REMARK VINA RESULT:    -4.244      2.125      4.318
REMARK INTER + INTRA:          -9.426
REMARK INTER:                  -7.251
REMARK INTRA:                  -2.175
REMARK UNBOUND:                -1.957
REMARK SMILES CCCCCCCCCCCCCCC(=O)[O-]
REMARK SMILES IDX 9 1 10 2 11 3 12 4 13 5 14 6 15 7 16 8 17 9 8 10 7 11 6 12
REMARK SMILES IDX 5 13 4 14 3 15 2 16 1 17
REMARK H PARENT
REMARK Flexibility Score: inf
ROOT
ATOM      1  C   UNL     1     -35.613  22.793 -29.329  1.00  0.00     0.000 C 
ENDROOT
BRANCH   1   2
ATOM      2  C   UNL     1     -35.098  21.857 -30.437  1.00  0.00     0.000 C 
BRANCH   2   3
ATOM      3  C   UNL     1     -36.121  21.662 -31.566  1.00  0.00     0.000 C 
BRANCH   3   4
ATOM      4  C   UNL     1     -37.028  20.442 -31.341  1.00  0.00     0.000 C 
BRANCH   4   5
ATOM      5  C   UNL     1     -38.490  20.874 -31.152  1.00  0.00     0.006 C 
BRANCH   5   6
ATOM      6  C   UNL     1     -38.933  20.801 -29.685  1.00  0.00     0.053 C 
BRANCH   6   7
ATOM      7  C   UNL     1     -39.683  22.029 -29.268  1.00  0.00     0.041 C 
ATOM      8  O   UNL     1     -39.191  22.813 -28.415  1.00  0.00    -0.550 OA
ATOM      9  O   UNL     1     -40.911  22.325 -29.847  1.00  0.00    -0.550 OA
ENDBRANCH   6   7
ENDBRANCH   5   6
ENDBRANCH   4   5
ENDBRANCH   3   4
ENDBRANCH   2   3
ENDBRANCH   1   2
BRANCH   1  10
ATOM     10  C   UNL     1     -35.524  22.167 -27.925  1.00  0.00     0.000 C 
BRANCH  10  11
ATOM     11  C   UNL     1     -34.328  21.222 -27.700  1.00  0.00    -0.000 C 
BRANCH  11  12
ATOM     12  C   UNL     1     -34.752  19.820 -27.228  1.00  0.00    -0.000 C 
BRANCH  12  13
ATOM     13  C   UNL     1     -36.121  19.399 -27.786  1.00  0.00    -0.000 C 
BRANCH  13  14
ATOM     14  C   UNL     1     -36.039  18.154 -28.683  1.00  0.00    -0.000 C 
BRANCH  14  15
ATOM     15  C   UNL     1     -37.424  17.525 -28.876  1.00  0.00    -0.000 C 
BRANCH  15  16
ATOM     16  C   UNL     1     -37.548  16.882 -30.261  1.00  0.00    -0.003 C 
ATOM     17  C   UNL     1     -38.883  17.230 -30.914  1.00  0.00     0.004 C 
ENDBRANCH  15  16
ENDBRANCH  14  15
ENDBRANCH  13  14
ENDBRANCH  12  13
ENDBRANCH  11  12
ENDBRANCH  10  11
ENDBRANCH   1  10
TORSDOF 13
ENDMDL
MODEL 4
REMARK VINA RESULT:    -4.200      1.657      1.967
REMARK INTER + INTRA:          -9.349
REMARK INTER:                  -7.213
REMARK INTRA:                  -2.136
REMARK UNBOUND:                -1.957
REMARK SMILES CCCCCCCCCCCCCCC(=O)[O-]
REMARK SMILES IDX 9 1 10 2 11 3 12 4 13 5 14 6 15 7 16 8 17 9 8 10 7 11 6 12
REMARK SMILES IDX 5 13 4 14 3 15 2 16 1 17
REMARK H PARENT
REMARK Flexibility Score: inf
ROOT
ATOM      1  C   UNL     1     -34.889  21.215 -28.192  1.00  0.00     0.000 C 
ENDROOT
BRANCH   1   2
ATOM      2  C   UNL     1     -34.443  20.311 -27.030  1.00  0.00     0.000 C 
BRANCH   2   3
ATOM      3  C   UNL     1     -35.262  19.013 -26.946  1.00  0.00     0.000 C 
BRANCH   3   4
ATOM      4  C   UNL     1     -36.669  19.158 -27.549  1.00  0.00     0.000 C 
BRANCH   4   5
ATOM      5  C   UNL     1     -37.161  17.819 -28.118  1.00  0.00     0.006 C 
BRANCH   5   6
ATOM      6  C   UNL     1     -37.017  17.748 -29.644  1.00  0.00     0.053 C 
BRANCH   6   7
ATOM      7  C   UNL     1     -35.770  17.026 -30.053  1.00  0.00     0.041 C 
ATOM      8  O   UNL     1     -35.795  15.784 -30.256  1.00  0.00    -0.550 OA
ATOM      9  O   UNL     1     -34.588  17.731 -30.241  1.00  0.00    -0.550 OA
ENDBRANCH   6   7
ENDBRANCH   5   6
ENDBRANCH   4   5
ENDBRANCH   3   4
ENDBRANCH   2   3
ENDBRANCH   1   2
BRANCH   1  10
ATOM     10  C   UNL     1     -33.967  21.110 -29.422  1.00  0.00     0.000 C 
BRANCH  10  11
ATOM     11  C   UNL     1     -34.670  21.257 -30.784  1.00  0.00    -0.000 C 
BRANCH  11  12
ATOM     12  C   UNL     1     -36.137  21.703 -30.658  1.00  0.00    -0.000 C 
BRANCH  12  13
ATOM     13  C   UNL     1     -37.090  20.842 -31.503  1.00  0.00    -0.000 C 
BRANCH  13  14
ATOM     14  C   UNL     1     -38.531  20.855 -30.971  1.00  0.00    -0.000 C 
BRANCH  14  15
ATOM     15  C   UNL     1     -38.581  21.392 -29.536  1.00  0.00    -0.000 C 
BRANCH  15  16
ATOM     16  C   UNL     1     -39.978  21.214 -28.930  1.00  0.00    -0.003 C 
ATOM     17  C   UNL     1     -40.201  19.775 -28.471  1.00  0.00     0.004 C 
ENDBRANCH  15  16
ENDBRANCH  14  15
ENDBRANCH  13  14
ENDBRANCH  12  13
ENDBRANCH  11  12
ENDBRANCH  10  11
ENDBRANCH   1  10
TORSDOF 13
ENDMDL
MODEL 5
REMARK VINA RESULT:    -4.192      2.519      4.421
REMARK INTER + INTRA:          -9.335
REMARK INTER:                  -7.535
REMARK INTRA:                  -1.800
REMARK UNBOUND:                -1.957
REMARK SMILES CCCCCCCCCCCCCCC(=O)[O-]
REMARK SMILES IDX 9 1 10 2 11 3 12 4 13 5 14 6 15 7 16 8 17 9 8 10 7 11 6 12
REMARK SMILES IDX 5 13 4 14 3 15 2 16 1 17
REMARK H PARENT
REMARK Flexibility Score: inf
ROOT
ATOM      1  C   UNL     1     -36.789  17.093 -29.200  1.00  0.00     0.000 C 
ENDROOT
BRANCH   1   2
ATOM      2  C   UNL     1     -37.091  17.923 -27.940  1.00  0.00     0.000 C 
BRANCH   2   3
ATOM      3  C   UNL     1     -36.013  18.981 -27.660  1.00  0.00     0.000 C 
BRANCH   3   4
ATOM      4  C   UNL     1     -35.231  19.382 -28.921  1.00  0.00     0.000 C 
BRANCH   4   5
ATOM      5  C   UNL     1     -34.477  20.702 -28.701  1.00  0.00     0.006 C 
BRANCH   5   6
ATOM      6  C   UNL     1     -35.136  21.577 -27.626  1.00  0.00     0.053 C 
BRANCH   6   7
ATOM      7  C   UNL     1     -35.686  22.845 -28.203  1.00  0.00     0.041 C 
ATOM      8  O   UNL     1     -35.990  23.805 -27.446  1.00  0.00    -0.550 OA
ATOM      9  O   UNL     1     -35.833  22.979 -29.577  1.00  0.00    -0.550 OA
ENDBRANCH   6   7
ENDBRANCH   5   6
ENDBRANCH   4   5
ENDBRANCH   3   4
ENDBRANCH   2   3
ENDBRANCH   1   2
BRANCH   1  10
ATOM     10  C   UNL     1     -37.954  17.087 -30.208  1.00  0.00     0.000 C 
BRANCH  10  11
ATOM     11  C   UNL     1     -38.746  18.404 -30.306  1.00  0.00    -0.000 C 
BRANCH  11  12
ATOM     12  C   UNL     1     -38.047  19.461 -31.180  1.00  0.00    -0.000 C 
BRANCH  12  13
ATOM     13  C   UNL     1     -38.397  20.897 -30.760  1.00  0.00    -0.000 C 
BRANCH  13  14
ATOM     14  C   UNL     1     -38.755  21.011 -29.271  1.00  0.00    -0.000 C 
BRANCH  14  15
ATOM     15  C   UNL     1     -40.225  21.407 -29.089  1.00  0.00    -0.000 C 
BRANCH  15  16
ATOM     16  C   UNL     1     -40.482  22.825 -29.612  1.00  0.00    -0.003 C 
ATOM     17  C   UNL     1     -41.934  22.997 -30.049  1.00  0.00     0.004 C 
ENDBRANCH  15  16
ENDBRANCH  14  15
ENDBRANCH  13  14
ENDBRANCH  12  13
ENDBRANCH  11  12
ENDBRANCH  10  11
ENDBRANCH   1  10
TORSDOF 13
ENDMDL
MODEL 6
REMARK VINA RESULT:    -4.143      2.148      4.236
REMARK INTER + INTRA:          -9.249
REMARK INTER:                  -7.463
REMARK INTRA:                  -1.786
REMARK UNBOUND:                -1.957
REMARK SMILES CCCCCCCCCCCCCCC(=O)[O-]
REMARK SMILES IDX 9 1 10 2 11 3 12 4 13 5 14 6 15 7 16 8 17 9 8 10 7 11 6 12
REMARK SMILES IDX 5 13 4 14 3 15 2 16 1 17
REMARK H PARENT
REMARK Flexibility Score: inf
ROOT
ATOM      1  C   UNL     1     -36.193  16.327 -30.019  1.00  0.00     0.000 C 
ENDROOT
BRANCH   1   2
ATOM      2  C   UNL     1     -37.270  17.249 -29.422  1.00  0.00     0.000 C 
BRANCH   2   3
ATOM      3  C   UNL     1     -38.300  17.705 -30.466  1.00  0.00     0.000 C 
BRANCH   3   4
ATOM      4  C   UNL     1     -38.418  19.235 -30.556  1.00  0.00     0.000 C 
BRANCH   4   5
ATOM      5  C   UNL     1     -38.468  19.863 -29.155  1.00  0.00     0.006 C 
BRANCH   5   6
ATOM      6  C   UNL     1     -39.847  20.452 -28.830  1.00  0.00     0.053 C 
BRANCH   6   7
ATOM      7  C   UNL     1     -39.911  21.919 -29.128  1.00  0.00     0.041 C 
ATOM      8  O   UNL     1     -39.048  22.700 -28.648  1.00  0.00    -0.550 OA
ATOM      9  O   UNL     1     -40.903  22.417 -29.962  1.00  0.00    -0.550 OA
ENDBRANCH   6   7
ENDBRANCH   5   6
ENDBRANCH   4   5
ENDBRANCH   3   4
ENDBRANCH   2   3
ENDBRANCH   1   2
BRANCH   1  10
ATOM     10  C   UNL     1     -34.889  17.070 -30.362  1.00  0.00     0.000 C 
BRANCH  10  11
ATOM     11  C   UNL     1     -34.809  18.525 -29.862  1.00  0.00    -0.000 C 
BRANCH  11  12
ATOM     12  C   UNL     1     -34.255  18.638 -28.431  1.00  0.00    -0.000 C 
BRANCH  12  13
ATOM     13  C   UNL     1     -34.997  19.691 -27.593  1.00  0.00    -0.000 C 
BRANCH  13  14
ATOM     14  C   UNL     1     -34.537  21.125 -27.897  1.00  0.00    -0.000 C 
BRANCH  14  15
ATOM     15  C   UNL     1     -35.737  22.038 -28.176  1.00  0.00    -0.000 C 
BRANCH  15  16
ATOM     16  C   UNL     1     -35.546  22.814 -29.484  1.00  0.00    -0.003 C 
ATOM     17  C   UNL     1     -35.848  21.936 -30.695  1.00  0.00     0.004 C 
ENDBRANCH  15  16
ENDBRANCH  14  15
ENDBRANCH  13  14
ENDBRANCH  12  13
ENDBRANCH  11  12
ENDBRANCH  10  11
ENDBRANCH   1  10
TORSDOF 13
ENDMDL
MODEL 7
REMARK VINA RESULT:    -4.036     15.199     18.415
REMARK INTER + INTRA:          -9.061
REMARK INTER:                  -6.801
REMARK INTRA:                  -2.259
REMARK UNBOUND:                -1.957
REMARK SMILES CCCCCCCCCCCCCCC(=O)[O-]
REMARK SMILES IDX 9 1 10 2 11 3 12 4 13 5 14 6 15 7 16 8 17 9 8 10 7 11 6 12
REMARK SMILES IDX 5 13 4 14 3 15 2 16 1 17
REMARK H PARENT
REMARK Flexibility Score: inf
ROOT
ATOM      1  C   UNL     1     -50.818   6.333 -33.755  1.00  0.00     0.000 C 
ENDROOT
BRANCH   1   2
ATOM      2  C   UNL     1     -49.929   6.513 -32.513  1.00  0.00     0.000 C 
BRANCH   2   3
ATOM      3  C   UNL     1     -50.744   6.609 -31.214  1.00  0.00     0.000 C 
BRANCH   3   4
ATOM      4  C   UNL     1     -49.881   6.973 -29.996  1.00  0.00     0.000 C 
BRANCH   4   5
ATOM      5  C   UNL     1     -48.396   6.698 -30.275  1.00  0.00     0.006 C 
BRANCH   5   6
ATOM      6  C   UNL     1     -47.475   7.705 -29.573  1.00  0.00     0.053 C 
BRANCH   6   7
ATOM      7  C   UNL     1     -47.228   8.917 -30.419  1.00  0.00     0.041 C 
ATOM      8  O   UNL     1     -47.031  10.037 -29.878  1.00  0.00    -0.550 OA
ATOM      9  O   UNL     1     -47.183   8.803 -31.802  1.00  0.00    -0.550 OA
ENDBRANCH   6   7
ENDBRANCH   5   6
ENDBRANCH   4   5
ENDBRANCH   3   4
ENDBRANCH   2   3
ENDBRANCH   1   2
BRANCH   1  10
ATOM     10  C   UNL     1     -52.308   6.158 -33.407  1.00  0.00     0.000 C 
BRANCH  10  11
ATOM     11  C   UNL     1     -53.288   6.943 -34.297  1.00  0.00    -0.000 C 
BRANCH  11  12
ATOM     12  C   UNL     1     -53.438   8.415 -33.871  1.00  0.00    -0.000 C 
BRANCH  12  13
ATOM     13  C   UNL     1     -53.755   8.567 -32.375  1.00  0.00    -0.000 C 
BRANCH  13  14
ATOM     14  C   UNL     1     -52.800   9.535 -31.661  1.00  0.00    -0.000 C 
BRANCH  14  15
ATOM     15  C   UNL     1     -51.821  10.171 -32.654  1.00  0.00    -0.000 C 
BRANCH  15  16
ATOM     16  C   UNL     1     -50.391  10.161 -32.101  1.00  0.00    -0.003 C 
ATOM     17  C   UNL     1     -50.282  11.015 -30.840  1.00  0.00     0.004 C 
ENDBRANCH  15  16
ENDBRANCH  14  15
ENDBRANCH  13  14
ENDBRANCH  12  13
ENDBRANCH  11  12
ENDBRANCH  10  11
ENDBRANCH   1  10
TORSDOF 13
ENDMDL
MODEL 8
REMARK VINA RESULT:    -4.012      3.110      5.777
REMARK INTER + INTRA:          -9.018
REMARK INTER:                  -7.096
REMARK INTRA:                  -1.922
REMARK UNBOUND:                -1.957
REMARK SMILES CCCCCCCCCCCCCCC(=O)[O-]
REMARK SMILES IDX 9 1 10 2 11 3 12 4 13 5 14 6 15 7 16 8 17 9 8 10 7 11 6 12
REMARK SMILES IDX 5 13 4 14 3 15 2 16 1 17
REMARK H PARENT
REMARK Flexibility Score: inf
ROOT
ATOM      1  C   UNL     1     -38.358  20.441 -31.152  1.00  0.00     0.000 C 
ENDROOT
BRANCH   1   2
ATOM      2  C   UNL     1     -36.938  20.933 -31.483  1.00  0.00     0.000 C 
BRANCH   2   3
ATOM      3  C   UNL     1     -36.111  21.234 -30.223  1.00  0.00     0.000 C 
BRANCH   3   4
ATOM      4  C   UNL     1     -35.758  22.724 -30.086  1.00  0.00     0.000 C 
BRANCH   4   5
ATOM      5  C   UNL     1     -35.257  23.040 -28.669  1.00  0.00     0.006 C 
BRANCH   5   6
ATOM      6  C   UNL     1     -34.929  21.771 -27.872  1.00  0.00     0.053 C 
BRANCH   6   7
ATOM      7  C   UNL     1     -34.332  22.093 -26.536  1.00  0.00     0.041 C 
ATOM      8  O   UNL     1     -34.020  21.167 -25.742  1.00  0.00    -0.550 OA
ATOM      9  O   UNL     1     -34.090  23.414 -26.181  1.00  0.00    -0.550 OA
ENDBRANCH   6   7
ENDBRANCH   5   6
ENDBRANCH   4   5
ENDBRANCH   3   4
ENDBRANCH   2   3
ENDBRANCH   1   2
BRANCH   1  10
ATOM     10  C   UNL     1     -39.014  21.231 -30.004  1.00  0.00     0.000 C 
BRANCH  10  11
ATOM     11  C   UNL     1     -39.665  20.372 -28.904  1.00  0.00    -0.000 C 
BRANCH  11  12
ATOM     12  C   UNL     1     -38.994  18.998 -28.739  1.00  0.00    -0.000 C 
BRANCH  12  13
ATOM     13  C   UNL     1     -37.855  19.017 -27.707  1.00  0.00    -0.000 C 
BRANCH  13  14
ATOM     14  C   UNL     1     -36.775  17.962 -27.994  1.00  0.00    -0.000 C 
BRANCH  14  15
ATOM     15  C   UNL     1     -37.131  17.138 -29.237  1.00  0.00    -0.000 C 
BRANCH  15  16
ATOM     16  C   UNL     1     -35.888  16.864 -30.090  1.00  0.00    -0.003 C 
ATOM     17  C   UNL     1     -34.746  17.808 -29.721  1.00  0.00     0.004 C 
ENDBRANCH  15  16
ENDBRANCH  14  15
ENDBRANCH  13  14
ENDBRANCH  12  13
ENDBRANCH  11  12
ENDBRANCH  10  11
ENDBRANCH   1  10
TORSDOF 13
ENDMDL
MODEL 9
REMARK VINA RESULT:    -4.008     16.442     18.560
REMARK INTER + INTRA:          -9.012
REMARK INTER:                  -6.888
REMARK INTRA:                  -2.123
REMARK UNBOUND:                -1.957
REMARK SMILES CCCCCCCCCCCCCCC(=O)[O-]
REMARK SMILES IDX 9 1 10 2 11 3 12 4 13 5 14 6 15 7 16 8 17 9 8 10 7 11 6 12
REMARK SMILES IDX 5 13 4 14 3 15 2 16 1 17
REMARK H PARENT
REMARK Flexibility Score: inf
ROOT
ATOM      1  C   UNL     1     -49.831   9.694 -32.361  1.00  0.00     0.000 C 
ENDROOT
BRANCH   1   2
ATOM      2  C   UNL     1     -49.435   8.530 -33.285  1.00  0.00     0.000 C 
BRANCH   2   3
ATOM      3  C   UNL     1     -48.136   7.840 -32.839  1.00  0.00     0.000 C 
BRANCH   3   4
ATOM      4  C   UNL     1     -48.330   6.345 -32.542  1.00  0.00     0.000 C 
BRANCH   4   5
ATOM      5  C   UNL     1     -47.363   5.875 -31.445  1.00  0.00     0.006 C 
BRANCH   5   6
ATOM      6  C   UNL     1     -47.978   5.982 -30.043  1.00  0.00     0.053 C 
BRANCH   6   7
ATOM      7  C   UNL     1     -47.344   7.075 -29.239  1.00  0.00     0.041 C 
ATOM      8  O   UNL     1     -46.418   6.810 -28.428  1.00  0.00    -0.550 OA
ATOM      9  O   UNL     1     -47.754   8.392 -29.409  1.00  0.00    -0.550 OA
ENDBRANCH   6   7
ENDBRANCH   5   6
ENDBRANCH   4   5
ENDBRANCH   3   4
ENDBRANCH   2   3
ENDBRANCH   1   2
BRANCH   1  10
ATOM     10  C   UNL     1     -51.309   9.643 -31.930  1.00  0.00     0.000 C 
BRANCH  10  11
ATOM     11  C   UNL     1     -51.553   9.242 -30.463  1.00  0.00    -0.000 C 
BRANCH  11  12
ATOM     12  C   UNL     1     -51.211   7.769 -30.179  1.00  0.00    -0.000 C 
BRANCH  12  13
ATOM     13  C   UNL     1     -52.295   6.804 -30.683  1.00  0.00    -0.000 C 
BRANCH  13  14
ATOM     14  C   UNL     1     -51.816   5.934 -31.856  1.00  0.00    -0.000 C 
BRANCH  14  15
ATOM     15  C   UNL     1     -52.856   5.913 -32.982  1.00  0.00    -0.000 C 
BRANCH  15  16
ATOM     16  C   UNL     1     -52.477   6.892 -34.099  1.00  0.00    -0.003 C 
ATOM     17  C   UNL     1     -53.641   7.821 -34.437  1.00  0.00     0.004 C 
ENDBRANCH  15  16
ENDBRANCH  14  15
ENDBRANCH  13  14
ENDBRANCH  12  13
ENDBRANCH  11  12
ENDBRANCH  10  11
ENDBRANCH   1  10
TORSDOF 13
ENDMDL
