MODEL 1
REMARK VINA RESULT:    -6.073      0.000      0.000
REMARK INTER + INTRA:         -12.321
REMARK INTER:                 -10.689
REMARK INTRA:                  -1.631
REMARK UNBOUND:                -1.631
REMARK SMILES CCCCCCCCCCCCCCC(=O)[O-]
REMARK SMILES IDX 9 1 10 2 11 3 12 4 13 5 14 6 15 7 16 8 17 9 8 10 7 11 6 12
REMARK SMILES IDX 5 13 4 14 3 15 2 16 1 17
REMARK H PARENT
REMARK Flexibility Score: inf
ROOT
ATOM      1  C   UNL     1     -16.257  -8.033  -8.632  1.00  0.00     0.000 C 
ENDROOT
BRANCH   1   2
ATOM      2  C   UNL     1     -16.893  -8.837  -9.778  1.00  0.00     0.000 C 
BRANCH   2   3
ATOM      3  C   UNL     1     -18.012  -9.746  -9.251  1.00  0.00     0.000 C 
BRANCH   3   4
ATOM      4  C   UNL     1     -19.169  -9.906 -10.252  1.00  0.00     0.000 C 
BRANCH   4   5
ATOM      5  C   UNL     1     -18.679 -10.260 -11.667  1.00  0.00     0.006 C 
BRANCH   5   6
ATOM      6  C   UNL     1     -19.269 -11.585 -12.170  1.00  0.00     0.053 C 
BRANCH   6   7
ATOM      7  C   UNL     1     -20.524 -11.373 -12.961  1.00  0.00     0.041 C 
ATOM      8  O   UNL     1     -21.081 -10.243 -12.975  1.00  0.00    -0.550 OA
ATOM      9  O   UNL     1     -21.058 -12.413 -13.711  1.00  0.00    -0.550 OA
ENDBRANCH   6   7
ENDBRANCH   5   6
ENDBRANCH   4   5
ENDBRANCH   3   4
ENDBRANCH   2   3
ENDBRANCH   1   2
BRANCH   1  10
ATOM     10  C   UNL     1     -16.700  -8.525  -7.245  1.00  0.00     0.000 C 
BRANCH  10  11
ATOM     11  C   UNL     1     -15.516  -8.938  -6.358  1.00  0.00    -0.000 C 
BRANCH  11  12
ATOM     12  C   UNL     1     -14.206  -8.952  -7.162  1.00  0.00    -0.000 C 
BRANCH  12  13
ATOM     13  C   UNL     1     -13.736 -10.380  -7.500  1.00  0.00    -0.000 C 
BRANCH  13  14
ATOM     14  C   UNL     1     -14.705 -11.479  -7.021  1.00  0.00    -0.000 C 
BRANCH  14  15
ATOM     15  C   UNL     1     -14.988 -12.551  -8.098  1.00  0.00    -0.000 C 
BRANCH  15  16
ATOM     16  C   UNL     1     -14.563 -12.123  -9.513  1.00  0.00    -0.003 C 
ATOM     17  C   UNL     1     -15.708 -12.192 -10.521  1.00  0.00     0.004 C 
ENDBRANCH  15  16
ENDBRANCH  14  15
ENDBRANCH  13  14
ENDBRANCH  12  13
ENDBRANCH  11  12
ENDBRANCH  10  11
ENDBRANCH   1  10
TORSDOF 13
ENDMDL
MODEL 2
REMARK VINA RESULT:    -5.945      1.027      3.247
REMARK INTER + INTRA:         -12.094
REMARK INTER:                 -10.300
REMARK INTRA:                  -1.795
REMARK UNBOUND:                -1.631
REMARK SMILES CCCCCCCCCCCCCCC(=O)[O-]
REMARK SMILES IDX 9 1 10 2 11 3 12 4 13 5 14 6 15 7 16 8 17 9 8 10 7 11 6 12
REMARK SMILES IDX 5 13 4 14 3 15 2 16 1 17
REMARK H PARENT
REMARK Flexibility Score: inf
ROOT
ATOM      1  C   UNL     1     -15.052 -12.941  -8.646  1.00  0.00     0.000 C 
ENDROOT
BRANCH   1   2
ATOM      2  C   UNL     1     -14.557 -12.055  -9.800  1.00  0.00     0.000 C 
BRANCH   2   3
ATOM      3  C   UNL     1     -15.701 -11.195 -10.358  1.00  0.00     0.000 C 
BRANCH   3   4
ATOM      4  C   UNL     1     -16.815 -12.035 -11.004  1.00  0.00     0.000 C 
BRANCH   4   5
ATOM      5  C   UNL     1     -18.068 -11.202 -11.330  1.00  0.00     0.006 C 
BRANCH   5   6
ATOM      6  C   UNL     1     -19.179 -12.052 -11.962  1.00  0.00     0.053 C 
BRANCH   6   7
ATOM      7  C   UNL     1     -20.197 -11.206 -12.665  1.00  0.00     0.041 C 
ATOM      8  O   UNL     1     -20.802 -11.653 -13.675  1.00  0.00    -0.550 OA
ATOM      9  O   UNL     1     -20.504  -9.941 -12.182  1.00  0.00    -0.550 OA
ENDBRANCH   6   7
ENDBRANCH   5   6
ENDBRANCH   4   5
ENDBRANCH   3   4
ENDBRANCH   2   3
ENDBRANCH   1   2
BRANCH   1  10
ATOM     10  C   UNL     1     -15.242 -12.160  -7.336  1.00  0.00     0.000 C 
BRANCH  10  11
ATOM     11  C   UNL     1     -13.968 -11.423  -6.897  1.00  0.00    -0.000 C 
BRANCH  11  12
ATOM     12  C   UNL     1     -14.296 -10.002  -6.410  1.00  0.00    -0.000 C 
BRANCH  12  13
ATOM     13  C   UNL     1     -14.383  -8.988  -7.567  1.00  0.00    -0.000 C 
BRANCH  13  14
ATOM     14  C   UNL     1     -15.648  -8.109  -7.524  1.00  0.00    -0.000 C 
BRANCH  14  15
ATOM     15  C   UNL     1     -16.445  -8.124  -8.849  1.00  0.00    -0.000 C 
BRANCH  15  16
ATOM     16  C   UNL     1     -17.862  -8.702  -8.702  1.00  0.00    -0.003 C 
ATOM     17  C   UNL     1     -17.950  -9.789  -7.633  1.00  0.00     0.004 C 
ENDBRANCH  15  16
ENDBRANCH  14  15
ENDBRANCH  13  14
ENDBRANCH  12  13
ENDBRANCH  11  12
ENDBRANCH  10  11
ENDBRANCH   1  10
TORSDOF 13
ENDMDL
MODEL 3
REMARK VINA RESULT:    -5.931      4.142      6.350
REMARK INTER + INTRA:         -12.071
REMARK INTER:                 -10.314
REMARK INTRA:                  -1.757
REMARK UNBOUND:                -1.631
REMARK SMILES CCCCCCCCCCCCCCC(=O)[O-]
REMARK SMILES IDX 9 1 10 2 11 3 12 4 13 5 14 6 15 7 16 8 17 9 8 10 7 11 6 12
REMARK SMILES IDX 5 13 4 14 3 15 2 16 1 17
REMARK H PARENT
REMARK Flexibility Score: inf
ROOT
ATOM      1  C   UNL     1     -17.468  -9.769  -6.382  1.00  0.00     0.000 C 
ENDROOT
BRANCH   1   2
ATOM      2  C   UNL     1     -17.210 -11.278  -6.512  1.00  0.00     0.000 C 
BRANCH   2   3
ATOM      3  C   UNL     1     -15.706 -11.582  -6.452  1.00  0.00     0.000 C 
BRANCH   3   4
ATOM      4  C   UNL     1     -15.123 -11.972  -7.820  1.00  0.00     0.000 C 
BRANCH   4   5
ATOM      5  C   UNL     1     -14.092 -10.952  -8.334  1.00  0.00     0.006 C 
BRANCH   5   6
ATOM      6  C   UNL     1     -13.884  -9.792  -7.350  1.00  0.00     0.053 C 
BRANCH   6   7
ATOM      7  C   UNL     1     -12.591  -9.917  -6.604  1.00  0.00     0.041 C 
ATOM      8  O   UNL     1     -11.637  -9.134  -6.854  1.00  0.00    -0.550 OA
ATOM      9  O   UNL     1     -12.453 -10.874  -5.606  1.00  0.00    -0.550 OA
ENDBRANCH   6   7
ENDBRANCH   5   6
ENDBRANCH   4   5
ENDBRANCH   3   4
ENDBRANCH   2   3
ENDBRANCH   1   2
BRANCH   1  10
ATOM     10  C   UNL     1     -17.994  -9.142  -7.684  1.00  0.00     0.000 C 
BRANCH  10  11
ATOM     11  C   UNL     1     -16.955  -8.243  -8.369  1.00  0.00    -0.000 C 
BRANCH  11  12
ATOM     12  C   UNL     1     -16.625  -8.760  -9.778  1.00  0.00    -0.000 C 
BRANCH  12  13
ATOM     13  C   UNL     1     -17.765  -9.604 -10.380  1.00  0.00    -0.000 C 
BRANCH  13  14
ATOM     14  C   UNL     1     -17.364 -11.062 -10.676  1.00  0.00    -0.000 C 
BRANCH  14  15
ATOM     15  C   UNL     1     -18.422 -11.828 -11.503  1.00  0.00    -0.000 C 
BRANCH  15  16
ATOM     16  C   UNL     1     -19.594 -10.945 -11.962  1.00  0.00    -0.003 C 
ATOM     17  C   UNL     1     -20.274 -11.472 -13.225  1.00  0.00     0.004 C 
ENDBRANCH  15  16
ENDBRANCH  14  15
ENDBRANCH  13  14
ENDBRANCH  12  13
ENDBRANCH  11  12
ENDBRANCH  10  11
ENDBRANCH   1  10
TORSDOF 13
ENDMDL
MODEL 4
REMARK VINA RESULT:    -5.908      2.599      5.481
REMARK INTER + INTRA:         -12.030
REMARK INTER:                 -11.078
REMARK INTRA:                  -0.951
REMARK UNBOUND:                -1.631
REMARK SMILES CCCCCCCCCCCCCCC(=O)[O-]
REMARK SMILES IDX 9 1 10 2 11 3 12 4 13 5 14 6 15 7 16 8 17 9 8 10 7 11 6 12
REMARK SMILES IDX 5 13 4 14 3 15 2 16 1 17
REMARK H PARENT
REMARK Flexibility Score: inf
ROOT
ATOM      1  C   UNL     1     -15.963  -8.637  -6.459  1.00  0.00     0.000 C 
ENDROOT
BRANCH   1   2
ATOM      2  C   UNL     1     -14.788  -8.114  -7.300  1.00  0.00     0.000 C 
BRANCH   2   3
ATOM      3  C   UNL     1     -13.607  -9.094  -7.258  1.00  0.00     0.000 C 
BRANCH   3   4
ATOM      4  C   UNL     1     -13.871 -10.305  -6.348  1.00  0.00     0.000 C 
BRANCH   4   5
ATOM      5  C   UNL     1     -14.203 -11.580  -7.143  1.00  0.00     0.006 C 
BRANCH   5   6
ATOM      6  C   UNL     1     -14.451 -11.287  -8.629  1.00  0.00     0.053 C 
BRANCH   6   7
ATOM      7  C   UNL     1     -15.014 -12.476  -9.346  1.00  0.00     0.041 C 
ATOM      8  O   UNL     1     -15.341 -12.388 -10.560  1.00  0.00    -0.550 OA
ATOM      9  O   UNL     1     -15.143 -13.691  -8.686  1.00  0.00    -0.550 OA
ENDBRANCH   6   7
ENDBRANCH   5   6
ENDBRANCH   4   5
ENDBRANCH   3   4
ENDBRANCH   2   3
ENDBRANCH   1   2
BRANCH   1  10
ATOM     10  C   UNL     1     -17.165  -9.063  -7.317  1.00  0.00     0.000 C 
BRANCH  10  11
ATOM     11  C   UNL     1     -17.321  -8.208  -8.583  1.00  0.00    -0.000 C 
BRANCH  11  12
ATOM     12  C   UNL     1     -17.136  -9.061  -9.848  1.00  0.00    -0.000 C 
BRANCH  12  13
ATOM     13  C   UNL     1     -18.381  -9.907 -10.178  1.00  0.00    -0.000 C 
BRANCH  13  14
ATOM     14  C   UNL     1     -18.114 -11.021 -11.209  1.00  0.00    -0.000 C 
BRANCH  14  15
ATOM     15  C   UNL     1     -19.407 -11.698 -11.721  1.00  0.00    -0.000 C 
BRANCH  15  16
ATOM     16  C   UNL     1     -20.215 -10.816 -12.687  1.00  0.00    -0.003 C 
ATOM     17  C   UNL     1     -21.010 -11.629 -13.707  1.00  0.00     0.004 C 
ENDBRANCH  15  16
ENDBRANCH  14  15
ENDBRANCH  13  14
ENDBRANCH  12  13
ENDBRANCH  11  12
ENDBRANCH  10  11
ENDBRANCH   1  10
TORSDOF 13
ENDMDL
MODEL 5
REMARK VINA RESULT:    -5.740      1.220      2.503
REMARK INTER + INTRA:         -11.734
REMARK INTER:                 -10.089
REMARK INTRA:                  -1.645
REMARK UNBOUND:                -1.631
REMARK SMILES CCCCCCCCCCCCCCC(=O)[O-]
REMARK SMILES IDX 9 1 10 2 11 3 12 4 13 5 14 6 15 7 16 8 17 9 8 10 7 11 6 12
REMARK SMILES IDX 5 13 4 14 3 15 2 16 1 17
REMARK H PARENT
REMARK Flexibility Score: inf
ROOT
ATOM      1  C   UNL     1     -17.648  -8.507  -7.943  1.00  0.00     0.000 C 
ENDROOT
BRANCH   1   2
ATOM      2  C   UNL     1     -16.588  -8.198  -9.012  1.00  0.00     0.000 C 
BRANCH   2   3
ATOM      3  C   UNL     1     -16.580  -9.279 -10.102  1.00  0.00     0.000 C 
BRANCH   3   4
ATOM      4  C   UNL     1     -17.948  -9.960 -10.274  1.00  0.00     0.000 C 
BRANCH   4   5
ATOM      5  C   UNL     1     -17.952 -10.998 -11.410  1.00  0.00     0.006 C 
BRANCH   5   6
ATOM      6  C   UNL     1     -19.302 -11.719 -11.531  1.00  0.00     0.053 C 
BRANCH   6   7
ATOM      7  C   UNL     1     -20.159 -11.124 -12.606  1.00  0.00     0.041 C 
ATOM      8  O   UNL     1     -20.398 -11.774 -13.658  1.00  0.00    -0.550 OA
ATOM      9  O   UNL     1     -20.725  -9.868 -12.430  1.00  0.00    -0.550 OA
ENDBRANCH   6   7
ENDBRANCH   5   6
ENDBRANCH   4   5
ENDBRANCH   3   4
ENDBRANCH   2   3
ENDBRANCH   1   2
BRANCH   1  10
ATOM     10  C   UNL     1     -17.050  -9.150  -6.681  1.00  0.00     0.000 C 
BRANCH  10  11
ATOM     11  C   UNL     1     -17.494 -10.608  -6.492  1.00  0.00    -0.000 C 
BRANCH  11  12
ATOM     12  C   UNL     1     -16.282 -11.553  -6.471  1.00  0.00    -0.000 C 
BRANCH  12  13
ATOM     13  C   UNL     1     -15.748 -11.859  -7.883  1.00  0.00    -0.000 C 
BRANCH  13  14
ATOM     14  C   UNL     1     -14.211 -11.805  -7.987  1.00  0.00    -0.000 C 
BRANCH  14  15
ATOM     15  C   UNL     1     -13.550 -11.015  -6.833  1.00  0.00    -0.000 C 
BRANCH  15  16
ATOM     16  C   UNL     1     -13.296  -9.537  -7.173  1.00  0.00    -0.003 C 
ATOM     17  C   UNL     1     -11.899  -9.069  -6.771  1.00  0.00     0.004 C 
ENDBRANCH  15  16
ENDBRANCH  14  15
ENDBRANCH  13  14
ENDBRANCH  12  13
ENDBRANCH  11  12
ENDBRANCH  10  11
ENDBRANCH   1  10
TORSDOF 13
ENDMDL
MODEL 6
REMARK VINA RESULT:    -5.685      2.040      5.372
REMARK INTER + INTRA:         -11.637
REMARK INTER:                 -10.449
REMARK INTRA:                  -1.188
REMARK UNBOUND:                -1.631
REMARK SMILES CCCCCCCCCCCCCCC(=O)[O-]
REMARK SMILES IDX 9 1 10 2 11 3 12 4 13 5 14 6 15 7 16 8 17 9 8 10 7 11 6 12
REMARK SMILES IDX 5 13 4 14 3 15 2 16 1 17
REMARK H PARENT
REMARK Flexibility Score: inf
ROOT
ATOM      1  C   UNL     1     -14.858 -12.004  -7.505  1.00  0.00     0.000 C 
ENDROOT
BRANCH   1   2
ATOM      2  C   UNL     1     -14.008 -10.725  -7.549  1.00  0.00     0.000 C 
BRANCH   2   3
ATOM      3  C   UNL     1     -14.543  -9.678  -6.562  1.00  0.00     0.000 C 
BRANCH   3   4
ATOM      4  C   UNL     1     -15.001  -8.385  -7.257  1.00  0.00     0.000 C 
BRANCH   4   5
ATOM      5  C   UNL     1     -15.758  -8.657  -8.569  1.00  0.00     0.006 C 
BRANCH   5   6
ATOM      6  C   UNL     1     -17.175  -8.065  -8.553  1.00  0.00     0.053 C 
BRANCH   6   7
ATOM      7  C   UNL     1     -18.221  -9.125  -8.392  1.00  0.00     0.041 C 
ATOM      8  O   UNL     1     -18.101 -10.003  -7.496  1.00  0.00    -0.550 OA
ATOM      9  O   UNL     1     -19.347  -9.121  -9.205  1.00  0.00    -0.550 OA
ENDBRANCH   6   7
ENDBRANCH   5   6
ENDBRANCH   4   5
ENDBRANCH   3   4
ENDBRANCH   2   3
ENDBRANCH   1   2
BRANCH   1  10
ATOM     10  C   UNL     1     -14.844 -12.774  -8.836  1.00  0.00     0.000 C 
BRANCH  10  11
ATOM     11  C   UNL     1     -14.717 -11.848 -10.054  1.00  0.00    -0.000 C 
BRANCH  11  12
ATOM     12  C   UNL     1     -15.868 -12.084 -11.045  1.00  0.00    -0.000 C 
BRANCH  12  13
ATOM     13  C   UNL     1     -17.149 -11.322 -10.654  1.00  0.00    -0.000 C 
BRANCH  13  14
ATOM     14  C   UNL     1     -18.402 -11.786 -11.422  1.00  0.00    -0.000 C 
BRANCH  14  15
ATOM     15  C   UNL     1     -18.858 -10.782 -12.506  1.00  0.00    -0.000 C 
BRANCH  15  16
ATOM     16  C   UNL     1     -20.383 -10.598 -12.565  1.00  0.00    -0.003 C 
ATOM     17  C   UNL     1     -21.037 -11.422 -13.673  1.00  0.00     0.004 C 
ENDBRANCH  15  16
ENDBRANCH  14  15
ENDBRANCH  13  14
ENDBRANCH  12  13
ENDBRANCH  11  12
ENDBRANCH  10  11
ENDBRANCH   1  10
TORSDOF 13
ENDMDL
MODEL 7
REMARK VINA RESULT:    -5.671      0.894      3.113
REMARK INTER + INTRA:         -11.613
REMARK INTER:                 -10.310
REMARK INTRA:                  -1.303
REMARK UNBOUND:                -1.631
REMARK SMILES CCCCCCCCCCCCCCC(=O)[O-]
REMARK SMILES IDX 9 1 10 2 11 3 12 4 13 5 14 6 15 7 16 8 17 9 8 10 7 11 6 12
REMARK SMILES IDX 5 13 4 14 3 15 2 16 1 17
REMARK H PARENT
REMARK Flexibility Score: inf
ROOT
ATOM      1  C   UNL     1     -14.726 -12.790  -9.852  1.00  0.00     0.000 C 
ENDROOT
BRANCH   1   2
ATOM      2  C   UNL     1     -15.260 -11.450 -10.382  1.00  0.00     0.000 C 
BRANCH   2   3
ATOM      3  C   UNL     1     -16.741 -11.567 -10.768  1.00  0.00     0.000 C 
BRANCH   3   4
ATOM      4  C   UNL     1     -17.597 -10.426 -10.192  1.00  0.00     0.000 C 
BRANCH   4   5
ATOM      5  C   UNL     1     -18.819 -10.104 -11.070  1.00  0.00     0.006 C 
BRANCH   5   6
ATOM      6  C   UNL     1     -19.294 -11.324 -11.871  1.00  0.00     0.053 C 
BRANCH   6   7
ATOM      7  C   UNL     1     -20.429 -10.983 -12.788  1.00  0.00     0.041 C 
ATOM      8  O   UNL     1     -21.122  -9.952 -12.581  1.00  0.00    -0.550 OA
ATOM      9  O   UNL     1     -20.696 -11.782 -13.892  1.00  0.00    -0.550 OA
ENDBRANCH   6   7
ENDBRANCH   5   6
ENDBRANCH   4   5
ENDBRANCH   3   4
ENDBRANCH   2   3
ENDBRANCH   1   2
BRANCH   1  10
ATOM     10  C   UNL     1     -15.070 -13.023  -8.372  1.00  0.00     0.000 C 
BRANCH  10  11
ATOM     11  C   UNL     1     -15.146 -11.717  -7.569  1.00  0.00    -0.000 C 
BRANCH  11  12
ATOM     12  C   UNL     1     -13.796 -11.400  -6.906  1.00  0.00    -0.000 C 
BRANCH  12  13
ATOM     13  C   UNL     1     -13.559  -9.887  -6.740  1.00  0.00    -0.000 C 
BRANCH  13  14
ATOM     14  C   UNL     1     -14.411  -9.022  -7.690  1.00  0.00    -0.000 C 
BRANCH  14  15
ATOM     15  C   UNL     1     -15.447  -8.145  -6.949  1.00  0.00    -0.000 C 
BRANCH  15  16
ATOM     16  C   UNL     1     -16.894  -8.389  -7.411  1.00  0.00    -0.003 C 
ATOM     17  C   UNL     1     -17.555  -9.563  -6.693  1.00  0.00     0.004 C 
ENDBRANCH  15  16
ENDBRANCH  14  15
ENDBRANCH  13  14
ENDBRANCH  12  13
ENDBRANCH  11  12
ENDBRANCH  10  11
ENDBRANCH   1  10
TORSDOF 13
ENDMDL
MODEL 8
REMARK VINA RESULT:    -5.525      2.992      5.951
REMARK INTER + INTRA:         -11.355
REMARK INTER:                  -9.990
REMARK INTRA:                  -1.365
REMARK UNBOUND:                -1.631
REMARK SMILES CCCCCCCCCCCCCCC(=O)[O-]
REMARK SMILES IDX 9 1 10 2 11 3 12 4 13 5 14 6 15 7 16 8 17 9 8 10 7 11 6 12
REMARK SMILES IDX 5 13 4 14 3 15 2 16 1 17
REMARK H PARENT
REMARK Flexibility Score: inf
ROOT
ATOM      1  C   UNL     1     -17.696  -8.760  -8.766  1.00  0.00     0.000 C 
ENDROOT
BRANCH   1   2
ATOM      2  C   UNL     1     -17.161  -8.362  -7.381  1.00  0.00     0.000 C 
BRANCH   2   3
ATOM      3  C   UNL     1     -15.666  -8.017  -7.451  1.00  0.00     0.000 C 
BRANCH   3   4
ATOM      4  C   UNL     1     -14.804  -8.925  -6.560  1.00  0.00     0.000 C 
BRANCH   4   5
ATOM      5  C   UNL     1     -13.773  -9.736  -7.365  1.00  0.00     0.006 C 
BRANCH   5   6
ATOM      6  C   UNL     1     -13.712 -11.203  -6.917  1.00  0.00     0.053 C 
BRANCH   6   7
ATOM      7  C   UNL     1     -14.913 -11.975  -7.370  1.00  0.00     0.041 C 
ATOM      8  O   UNL     1     -16.033 -11.781  -6.828  1.00  0.00    -0.550 OA
ATOM      9  O   UNL     1     -14.804 -12.882  -8.417  1.00  0.00    -0.550 OA
ENDBRANCH   6   7
ENDBRANCH   5   6
ENDBRANCH   4   5
ENDBRANCH   3   4
ENDBRANCH   2   3
ENDBRANCH   1   2
BRANCH   1  10
ATOM     10  C   UNL     1     -16.618  -8.696  -9.860  1.00  0.00     0.000 C 
BRANCH  10  11
ATOM     11  C   UNL     1     -16.126 -10.085 -10.289  1.00  0.00    -0.000 C 
BRANCH  11  12
ATOM     12  C   UNL     1     -17.228 -11.140 -10.101  1.00  0.00    -0.000 C 
BRANCH  12  13
ATOM     13  C   UNL     1     -17.543 -11.903 -11.402  1.00  0.00    -0.000 C 
BRANCH  13  14
ATOM     14  C   UNL     1     -19.026 -11.831 -11.816  1.00  0.00    -0.000 C 
BRANCH  14  15
ATOM     15  C   UNL     1     -19.621 -10.408 -11.704  1.00  0.00    -0.000 C 
BRANCH  15  16
ATOM     16  C   UNL     1     -20.764 -10.145 -12.699  1.00  0.00    -0.003 C 
ATOM     17  C   UNL     1     -20.998 -11.313 -13.654  1.00  0.00     0.004 C 
ENDBRANCH  15  16
ENDBRANCH  14  15
ENDBRANCH  13  14
ENDBRANCH  12  13
ENDBRANCH  11  12
ENDBRANCH  10  11
ENDBRANCH   1  10
TORSDOF 13
ENDMDL
MODEL 9
REMARK VINA RESULT:    -5.428      4.147      6.840
REMARK INTER + INTRA:         -11.184
REMARK INTER:                 -10.138
REMARK INTRA:                  -1.047
REMARK UNBOUND:                -1.631
REMARK SMILES CCCCCCCCCCCCCCC(=O)[O-]
REMARK SMILES IDX 9 1 10 2 11 3 12 4 13 5 14 6 15 7 16 8 17 9 8 10 7 11 6 12
REMARK SMILES IDX 5 13 4 14 3 15 2 16 1 17
REMARK H PARENT
REMARK Flexibility Score: inf
ROOT
ATOM      1  C   UNL     1     -15.014 -12.339 -10.164  1.00  0.00     0.000 C 
ENDROOT
BRANCH   1   2
ATOM      2  C   UNL     1     -15.173 -12.984  -8.779  1.00  0.00     0.000 C 
BRANCH   2   3
ATOM      3  C   UNL     1     -14.499 -12.128  -7.697  1.00  0.00     0.000 C 
BRANCH   3   4
ATOM      4  C   UNL     1     -15.508 -11.317  -6.867  1.00  0.00     0.000 C 
BRANCH   4   5
ATOM      5  C   UNL     1     -14.961  -9.940  -6.453  1.00  0.00     0.006 C 
BRANCH   5   6
ATOM      6  C   UNL     1     -13.737  -9.530  -7.284  1.00  0.00     0.053 C 
BRANCH   6   7
ATOM      7  C   UNL     1     -12.458  -9.722  -6.527  1.00  0.00     0.041 C 
ATOM      8  O   UNL     1     -12.420 -10.497  -5.535  1.00  0.00    -0.550 OA
ATOM      9  O   UNL     1     -11.301  -9.076  -6.940  1.00  0.00    -0.550 OA
ENDBRANCH   6   7
ENDBRANCH   5   6
ENDBRANCH   4   5
ENDBRANCH   3   4
ENDBRANCH   2   3
ENDBRANCH   1   2
BRANCH   1  10
ATOM     10  C   UNL     1     -16.140 -11.344 -10.489  1.00  0.00     0.000 C 
BRANCH  10  11
ATOM     11  C   UNL     1     -15.741  -9.887 -10.214  1.00  0.00    -0.000 C 
BRANCH  11  12
ATOM     12  C   UNL     1     -16.972  -9.038  -9.856  1.00  0.00    -0.000 C 
BRANCH  12  13
ATOM     13  C   UNL     1     -18.217  -9.897  -9.566  1.00  0.00    -0.000 C 
BRANCH  13  14
ATOM     14  C   UNL     1     -19.237  -9.916 -10.722  1.00  0.00    -0.000 C 
BRANCH  14  15
ATOM     15  C   UNL     1     -19.348 -11.295 -11.413  1.00  0.00    -0.000 C 
BRANCH  15  16
ATOM     16  C   UNL     1     -19.352 -11.208 -12.949  1.00  0.00    -0.003 C 
ATOM     17  C   UNL     1     -20.737 -11.439 -13.551  1.00  0.00     0.004 C 
ENDBRANCH  15  16
ENDBRANCH  14  15
ENDBRANCH  13  14
ENDBRANCH  12  13
ENDBRANCH  11  12
ENDBRANCH  10  11
ENDBRANCH   1  10
TORSDOF 13
ENDMDL
