MODEL 1
REMARK VINA RESULT:    -5.120      0.000      0.000
REMARK INTER + INTRA:          -7.107
REMARK INTER:                  -6.317
REMARK INTRA:                  -0.791
REMARK UNBOUND:                -0.791
REMARK SMILES CC(C)=CCC[C@@H](C)c1ccc(C)cc1
REMARK SMILES IDX 6 1 7 2 8 3 9 4 13 5 12 6 11 7 14 8 10 9 15 10 5 11 4 12
REMARK SMILES IDX 2 13 1 14 3 15
REMARK H PARENT
REMARK Flexibility Score: inf
ROOT
ATOM      1  C   UNL     1      39.595 -38.979  23.585  1.00  0.00     0.012 C 
ENDROOT
BRANCH   1   2
ATOM      2  C   UNL     1      38.652 -38.883  22.361  1.00  0.00     0.016 C 
ATOM      3  C   UNL     1      38.898 -37.614  21.530  1.00  0.00     0.013 C 
BRANCH   2   4
ATOM      4  C   UNL     1      38.793 -40.122  21.494  1.00  0.00    -0.045 A 
ATOM      5  C   UNL     1      39.150 -43.616  18.979  1.00  0.00     0.044 C 
ATOM      6  C   UNL     1      39.052 -42.408  19.864  1.00  0.00    -0.051 A 
ATOM      7  C   UNL     1      39.500 -41.160  19.408  1.00  0.00     0.004 A 
ATOM      8  C   UNL     1      38.449 -42.505  21.125  1.00  0.00     0.004 A 
ATOM      9  C   UNL     1      39.376 -40.028  20.218  1.00  0.00     0.004 A 
ATOM     10  C   UNL     1      38.323 -41.374  21.936  1.00  0.00     0.004 A 
ENDBRANCH   2   4
ENDBRANCH   1   2
BRANCH   1  11
ATOM     11  C   UNL     1      40.390 -37.694  23.874  1.00  0.00     0.028 C 
BRANCH  11  12
ATOM     12  C   UNL     1      41.865 -37.959  24.060  1.00  0.00    -0.028 C 
ATOM     13  C   UNL     1      42.825 -37.623  23.171  1.00  0.00    -0.080 C 
ATOM     14  C   UNL     1      42.513 -36.875  21.895  1.00  0.00     0.039 C 
ATOM     15  C   UNL     1      44.253 -37.991  23.483  1.00  0.00     0.039 C 
ENDBRANCH  11  12
ENDBRANCH   1  11
TORSDOF 4
ENDMDL
MODEL 2
REMARK VINA RESULT:    -5.014      1.139      2.207
REMARK INTER + INTRA:          -6.977
REMARK INTER:                  -6.208
REMARK INTRA:                  -0.769
REMARK UNBOUND:                -0.791
REMARK SMILES CC(C)=CCC[C@@H](C)c1ccc(C)cc1
REMARK SMILES IDX 6 1 7 2 8 3 9 4 13 5 12 6 11 7 14 8 10 9 15 10 5 11 4 12
REMARK SMILES IDX 2 13 1 14 3 15
REMARK H PARENT
REMARK Flexibility Score: inf
ROOT
ATOM      1  C   UNL     1      40.837 -38.080  20.272  1.00  0.00     0.012 C 
ENDROOT
BRANCH   1   2
ATOM      2  C   UNL     1      39.340 -38.383  20.526  1.00  0.00     0.016 C 
ATOM      3  C   UNL     1      38.429 -37.788  19.442  1.00  0.00     0.013 C 
BRANCH   2   4
ATOM      4  C   UNL     1      39.122 -39.882  20.641  1.00  0.00    -0.045 A 
ATOM      5  C   UNL     1      38.556 -44.148  21.013  1.00  0.00     0.044 C 
ATOM      6  C   UNL     1      38.724 -42.664  20.877  1.00  0.00    -0.051 A 
ATOM      7  C   UNL     1      38.553 -41.828  21.989  1.00  0.00     0.004 A 
ATOM      8  C   UNL     1      39.122 -42.108  19.653  1.00  0.00     0.004 A 
ATOM      9  C   UNL     1      38.746 -40.448  21.871  1.00  0.00     0.004 A 
ATOM     10  C   UNL     1      39.315 -40.729  19.533  1.00  0.00     0.004 A 
ENDBRANCH   2   4
ENDBRANCH   1   2
BRANCH   1  11
ATOM     11  C   UNL     1      41.381 -36.875  21.060  1.00  0.00     0.028 C 
BRANCH  11  12
ATOM     12  C   UNL     1      42.537 -37.248  21.957  1.00  0.00    -0.028 C 
ATOM     13  C   UNL     1      42.412 -37.727  23.214  1.00  0.00    -0.080 C 
ATOM     14  C   UNL     1      41.065 -38.000  23.840  1.00  0.00     0.039 C 
ATOM     15  C   UNL     1      43.666 -38.016  23.999  1.00  0.00     0.039 C 
ENDBRANCH  11  12
ENDBRANCH   1  11
TORSDOF 4
ENDMDL
MODEL 3
REMARK VINA RESULT:    -4.873      3.709      5.966
REMARK INTER + INTRA:          -6.803
REMARK INTER:                  -6.221
REMARK INTRA:                  -0.583
REMARK UNBOUND:                -0.791
REMARK SMILES CC(C)=CCC[C@@H](C)c1ccc(C)cc1
REMARK SMILES IDX 6 1 7 2 8 3 9 4 13 5 12 6 11 7 14 8 10 9 15 10 5 11 4 12
REMARK SMILES IDX 2 13 1 14 3 15
REMARK H PARENT
REMARK Flexibility Score: inf
ROOT
ATOM      1  C   UNL     1      39.772 -41.096  19.486  1.00  0.00     0.012 C 
ENDROOT
BRANCH   1   2
ATOM      2  C   UNL     1      39.111 -42.495  19.548  1.00  0.00     0.016 C 
ATOM      3  C   UNL     1      40.069 -43.616  19.117  1.00  0.00     0.013 C 
BRANCH   2   4
ATOM      4  C   UNL     1      38.577 -42.760  20.945  1.00  0.00    -0.045 A 
ATOM      5  C   UNL     1      37.118 -43.487  24.945  1.00  0.00     0.044 C 
ATOM      6  C   UNL     1      37.597 -43.231  23.547  1.00  0.00    -0.051 A 
ATOM      7  C   UNL     1      37.895 -41.927  23.129  1.00  0.00     0.004 A 
ATOM      8  C   UNL     1      37.817 -44.302  22.670  1.00  0.00     0.004 A 
ATOM      9  C   UNL     1      38.376 -41.692  21.837  1.00  0.00     0.004 A 
ATOM     10  C   UNL     1      38.298 -44.070  21.378  1.00  0.00     0.004 A 
ENDBRANCH   2   4
ENDBRANCH   1   2
BRANCH   1  11
ATOM     11  C   UNL     1      38.921 -40.025  18.781  1.00  0.00     0.028 C 
BRANCH  11  12
ATOM     12  C   UNL     1      38.382 -40.501  17.452  1.00  0.00    -0.028 C 
ATOM     13  C   UNL     1      37.607 -39.763  16.628  1.00  0.00    -0.080 C 
ATOM     14  C   UNL     1      37.243 -38.330  16.936  1.00  0.00     0.039 C 
ATOM     15  C   UNL     1      37.115 -40.395  15.351  1.00  0.00     0.039 C 
ENDBRANCH  11  12
ENDBRANCH   1  11
TORSDOF 4
ENDMDL
MODEL 4
REMARK VINA RESULT:    -4.704      1.251      5.781
REMARK INTER + INTRA:          -6.595
REMARK INTER:                  -5.687
REMARK INTRA:                  -0.908
REMARK UNBOUND:                -0.791
REMARK SMILES CC(C)=CCC[C@@H](C)c1ccc(C)cc1
REMARK SMILES IDX 6 1 7 2 8 3 9 4 13 5 12 6 11 7 14 8 10 9 15 10 5 11 4 12
REMARK SMILES IDX 2 13 1 14 3 15
REMARK H PARENT
REMARK Flexibility Score: inf
ROOT
ATOM      1  C   UNL     1      40.262 -39.722  19.466  1.00  0.00     0.012 C 
ENDROOT
BRANCH   1   2
ATOM      2  C   UNL     1      39.987 -38.250  19.856  1.00  0.00     0.016 C 
ATOM      3  C   UNL     1      38.486 -37.923  19.892  1.00  0.00     0.013 C 
BRANCH   2   4
ATOM      4  C   UNL     1      40.632 -37.934  21.195  1.00  0.00    -0.045 A 
ATOM      5  C   UNL     1      42.523 -37.071  24.981  1.00  0.00     0.044 C 
ATOM      6  C   UNL     1      41.851 -37.346  23.668  1.00  0.00    -0.051 A 
ATOM      7  C   UNL     1      42.412 -36.875  22.474  1.00  0.00     0.004 A 
ATOM      8  C   UNL     1      40.693 -38.135  23.621  1.00  0.00     0.004 A 
ATOM      9  C   UNL     1      41.805 -37.162  21.247  1.00  0.00     0.004 A 
ATOM     10  C   UNL     1      40.085 -38.424  22.396  1.00  0.00     0.004 A 
ENDBRANCH   2   4
ENDBRANCH   1   2
BRANCH   1  11
ATOM     11  C   UNL     1      38.999 -40.535  19.133  1.00  0.00     0.028 C 
BRANCH  11  12
ATOM     12  C   UNL     1      39.103 -41.972  19.587  1.00  0.00    -0.028 C 
ATOM     13  C   UNL     1      38.720 -42.425  20.800  1.00  0.00    -0.080 C 
ATOM     14  C   UNL     1      38.077 -41.524  21.828  1.00  0.00     0.039 C 
ATOM     15  C   UNL     1      38.925 -43.884  21.118  1.00  0.00     0.039 C 
ENDBRANCH  11  12
ENDBRANCH   1  11
TORSDOF 4
ENDMDL
MODEL 5
REMARK VINA RESULT:    -4.647      8.895     11.895
REMARK INTER + INTRA:          -6.524
REMARK INTER:                  -5.660
REMARK INTRA:                  -0.864
REMARK UNBOUND:                -0.791
REMARK SMILES CC(C)=CCC[C@@H](C)c1ccc(C)cc1
REMARK SMILES IDX 6 1 7 2 8 3 9 4 13 5 12 6 11 7 14 8 10 9 15 10 5 11 4 12
REMARK SMILES IDX 2 13 1 14 3 15
REMARK H PARENT
REMARK Flexibility Score: inf
ROOT
ATOM      1  C   UNL     1      44.362 -43.626  32.042  1.00  0.00     0.012 C 
ENDROOT
BRANCH   1   2
ATOM      2  C   UNL     1      43.277 -42.522  32.048  1.00  0.00     0.016 C 
ATOM      3  C   UNL     1      42.420 -42.549  33.324  1.00  0.00     0.013 C 
BRANCH   2   4
ATOM      4  C   UNL     1      43.918 -41.157  31.867  1.00  0.00    -0.045 A 
ATOM      5  C   UNL     1      45.805 -37.305  31.358  1.00  0.00     0.044 C 
ATOM      6  C   UNL     1      45.127 -38.633  31.519  1.00  0.00    -0.051 A 
ATOM      7  C   UNL     1      45.359 -39.662  30.595  1.00  0.00     0.004 A 
ATOM      8  C   UNL     1      44.311 -38.878  32.632  1.00  0.00     0.004 A 
ATOM      9  C   UNL     1      44.755 -40.912  30.765  1.00  0.00     0.004 A 
ATOM     10  C   UNL     1      43.707 -40.127  32.804  1.00  0.00     0.004 A 
ENDBRANCH   2   4
ENDBRANCH   1   2
BRANCH   1  11
ATOM     11  C   UNL     1      44.312 -44.555  30.816  1.00  0.00     0.028 C 
BRANCH  11  12
ATOM     12  C   UNL     1      43.236 -44.155  29.835  1.00  0.00    -0.028 C 
ATOM     13  C   UNL     1      42.127 -44.881  29.571  1.00  0.00    -0.080 C 
ATOM     14  C   UNL     1      41.819 -46.170  30.297  1.00  0.00     0.039 C 
ATOM     15  C   UNL     1      41.163 -44.366  28.534  1.00  0.00     0.039 C 
ENDBRANCH  11  12
ENDBRANCH   1  11
TORSDOF 4
ENDMDL
MODEL 6
REMARK VINA RESULT:    -4.638      1.997      4.444
REMARK INTER + INTRA:          -6.513
REMARK INTER:                  -5.799
REMARK INTRA:                  -0.714
REMARK UNBOUND:                -0.791
REMARK SMILES CC(C)=CCC[C@@H](C)c1ccc(C)cc1
REMARK SMILES IDX 6 1 7 2 8 3 9 4 13 5 12 6 11 7 14 8 10 9 15 10 5 11 4 12
REMARK SMILES IDX 2 13 1 14 3 15
REMARK H PARENT
REMARK Flexibility Score: inf
ROOT
ATOM      1  C   UNL     1      39.889 -41.263  19.498  1.00  0.00     0.012 C 
ENDROOT
BRANCH   1   2
ATOM      2  C   UNL     1      38.773 -42.329  19.619  1.00  0.00     0.016 C 
ATOM      3  C   UNL     1      39.139 -43.645  18.914  1.00  0.00     0.013 C 
BRANCH   2   4
ATOM      4  C   UNL     1      38.447 -42.582  21.081  1.00  0.00    -0.045 A 
ATOM      5  C   UNL     1      37.455 -43.324  25.219  1.00  0.00     0.044 C 
ATOM      6  C   UNL     1      37.828 -43.071  23.788  1.00  0.00    -0.051 A 
ATOM      7  C   UNL     1      37.834 -44.124  22.863  1.00  0.00     0.004 A 
ATOM      8  C   UNL     1      38.104 -41.768  23.351  1.00  0.00     0.004 A 
ATOM      9  C   UNL     1      38.146 -43.883  21.521  1.00  0.00     0.004 A 
ATOM     10  C   UNL     1      38.416 -41.525  22.010  1.00  0.00     0.004 A 
ENDBRANCH   2   4
ENDBRANCH   1   2
BRANCH   1  11
ATOM     11  C   UNL     1      39.377 -39.839  19.224  1.00  0.00     0.028 C 
BRANCH  11  12
ATOM     12  C   UNL     1      40.248 -38.781  19.859  1.00  0.00    -0.028 C 
ATOM     13  C   UNL     1      39.832 -37.904  20.798  1.00  0.00    -0.080 C 
ATOM     14  C   UNL     1      38.431 -37.935  21.363  1.00  0.00     0.039 C 
ATOM     15  C   UNL     1      40.814 -36.879  21.307  1.00  0.00     0.039 C 
ENDBRANCH  11  12
ENDBRANCH   1  11
TORSDOF 4
ENDMDL
MODEL 7
REMARK VINA RESULT:    -4.590      8.946     10.469
REMARK INTER + INTRA:          -6.454
REMARK INTER:                  -4.920
REMARK INTRA:                  -1.534
REMARK UNBOUND:                -0.791
REMARK SMILES CC(C)=CCC[C@@H](C)c1ccc(C)cc1
REMARK SMILES IDX 6 1 7 2 8 3 9 4 13 5 12 6 11 7 14 8 10 9 15 10 5 11 4 12
REMARK SMILES IDX 2 13 1 14 3 15
REMARK H PARENT
REMARK Flexibility Score: inf
ROOT
ATOM      1  C   UNL     1      44.283 -42.412  30.362  1.00  0.00     0.012 C 
ENDROOT
BRANCH   1   2
ATOM      2  C   UNL     1      44.319 -43.922  30.020  1.00  0.00     0.016 C 
ATOM      3  C   UNL     1      45.006 -44.755  31.114  1.00  0.00     0.013 C 
BRANCH   2   4
ATOM      4  C   UNL     1      42.912 -44.435  29.766  1.00  0.00    -0.045 A 
ATOM      5  C   UNL     1      38.938 -45.950  29.015  1.00  0.00     0.044 C 
ATOM      6  C   UNL     1      40.308 -45.409  29.299  1.00  0.00    -0.051 A 
ATOM      7  C   UNL     1      41.191 -46.120  30.123  1.00  0.00     0.004 A 
ATOM      8  C   UNL     1      40.739 -44.224  28.687  1.00  0.00     0.004 A 
ATOM      9  C   UNL     1      42.481 -45.635  30.359  1.00  0.00     0.004 A 
ATOM     10  C   UNL     1      42.027 -43.737  28.922  1.00  0.00     0.004 A 
ENDBRANCH   2   4
ENDBRANCH   1   2
BRANCH   1  11
ATOM     11  C   UNL     1      43.871 -42.101  31.811  1.00  0.00     0.028 C 
BRANCH  11  12
ATOM     12  C   UNL     1      42.558 -41.359  31.889  1.00  0.00    -0.028 C 
ATOM     13  C   UNL     1      41.397 -41.893  32.326  1.00  0.00    -0.080 C 
ATOM     14  C   UNL     1      41.311 -43.307  32.850  1.00  0.00     0.039 C 
ATOM     15  C   UNL     1      40.160 -41.033  32.308  1.00  0.00     0.039 C 
ENDBRANCH  11  12
ENDBRANCH   1  11
TORSDOF 4
ENDMDL
MODEL 8
REMARK VINA RESULT:    -4.525      8.614      9.955
REMARK INTER + INTRA:          -6.374
REMARK INTER:                  -5.532
REMARK INTRA:                  -0.841
REMARK UNBOUND:                -0.791
REMARK SMILES CC(C)=CCC[C@@H](C)c1ccc(C)cc1
REMARK SMILES IDX 6 1 7 2 8 3 9 4 13 5 12 6 11 7 14 8 10 9 15 10 5 11 4 12
REMARK SMILES IDX 2 13 1 14 3 15
REMARK H PARENT
REMARK Flexibility Score: inf
ROOT
ATOM      1  C   UNL     1      43.847 -43.320  32.018  1.00  0.00     0.012 C 
ENDROOT
BRANCH   1   2
ATOM      2  C   UNL     1      43.592 -43.234  30.493  1.00  0.00     0.016 C 
ATOM      3  C   UNL     1      44.799 -43.709  29.668  1.00  0.00     0.013 C 
BRANCH   2   4
ATOM      4  C   UNL     1      42.351 -44.028  30.124  1.00  0.00    -0.045 A 
ATOM      5  C   UNL     1      38.789 -46.224  29.056  1.00  0.00     0.044 C 
ATOM      6  C   UNL     1      40.042 -45.485  29.421  1.00  0.00    -0.051 A 
ATOM      7  C   UNL     1      40.753 -44.773  28.446  1.00  0.00     0.004 A 
ATOM      8  C   UNL     1      40.472 -45.444  30.755  1.00  0.00     0.004 A 
ATOM      9  C   UNL     1      41.901 -44.055  28.793  1.00  0.00     0.004 A 
ATOM     10  C   UNL     1      41.619 -44.726  31.104  1.00  0.00     0.004 A 
ENDBRANCH   2   4
ENDBRANCH   1   2
BRANCH   1  11
ATOM     11  C   UNL     1      44.367 -42.015  32.647  1.00  0.00     0.028 C 
BRANCH  11  12
ATOM     12  C   UNL     1      43.600 -40.803  32.174  1.00  0.00    -0.028 C 
ATOM     13  C   UNL     1      44.075 -39.882  31.308  1.00  0.00    -0.080 C 
ATOM     14  C   UNL     1      45.435 -40.011  30.665  1.00  0.00     0.039 C 
ATOM     15  C   UNL     1      43.200 -38.704  30.963  1.00  0.00     0.039 C 
ENDBRANCH  11  12
ENDBRANCH   1  11
TORSDOF 4
ENDMDL
MODEL 9
REMARK VINA RESULT:    -4.490      3.411      6.117
REMARK INTER + INTRA:          -6.331
REMARK INTER:                  -5.686
REMARK INTRA:                  -0.645
REMARK UNBOUND:                -0.791
REMARK SMILES CC(C)=CCC[C@@H](C)c1ccc(C)cc1
REMARK SMILES IDX 6 1 7 2 8 3 9 4 13 5 12 6 11 7 14 8 10 9 15 10 5 11 4 12
REMARK SMILES IDX 2 13 1 14 3 15
REMARK H PARENT
REMARK Flexibility Score: inf
ROOT
ATOM      1  C   UNL     1      38.771 -43.999  21.391  1.00  0.00     0.012 C 
ENDROOT
BRANCH   1   2
ATOM      2  C   UNL     1      37.376 -44.335  21.972  1.00  0.00     0.016 C 
ATOM      3  C   UNL     1      36.878 -45.722  21.537  1.00  0.00     0.013 C 
BRANCH   2   4
ATOM      4  C   UNL     1      37.401 -44.231  23.488  1.00  0.00    -0.045 A 
ATOM      5  C   UNL     1      37.534 -43.894  27.791  1.00  0.00     0.044 C 
ATOM      6  C   UNL     1      37.459 -44.013  26.298  1.00  0.00    -0.051 A 
ATOM      7  C   UNL     1      37.330 -42.866  25.503  1.00  0.00     0.004 A 
ATOM      8  C   UNL     1      37.586 -45.267  25.684  1.00  0.00     0.004 A 
ATOM      9  C   UNL     1      37.297 -42.974  24.109  1.00  0.00     0.004 A 
ATOM     10  C   UNL     1      37.553 -45.377  24.291  1.00  0.00     0.004 A 
ENDBRANCH   2   4
ENDBRANCH   1   2
BRANCH   1  11
ATOM     11  C   UNL     1      38.781 -42.804  20.421  1.00  0.00     0.028 C 
BRANCH  11  12
ATOM     12  C   UNL     1      38.783 -41.477  21.143  1.00  0.00    -0.028 C 
ATOM     13  C   UNL     1      39.205 -40.311  20.607  1.00  0.00    -0.080 C 
ATOM     14  C   UNL     1      39.673 -40.208  19.175  1.00  0.00     0.039 C 
ATOM     15  C   UNL     1      39.182 -39.076  21.470  1.00  0.00     0.039 C 
ENDBRANCH  11  12
ENDBRANCH   1  11
TORSDOF 4
ENDMDL
