MODEL 1
REMARK VINA RESULT:    -4.292      0.000      0.000
REMARK INTER + INTRA:          -6.666
REMARK INTER:                  -6.551
REMARK INTRA:                  -0.115
REMARK UNBOUND:                -0.115
REMARK SMILES CC1=CCC[C@@H](C)C(=O)C[C@H](C(C)C)C(=O)C1
REMARK SMILES IDX 8 1 9 2 6 3 7 4 5 5 4 6 3 7 2 8 1 9 10 11 11 12 15 13 16 14
REMARK SMILES IDX 17 15 12 17 13 18 14 19
REMARK H PARENT
REMARK Flexibility Score: 70.00
ROOT
ATOM      1  C   UNL     1     -65.506 -77.739 223.332  1.00  0.00     0.136 C 
ATOM      2  O   UNL     1     -66.348 -76.914 222.998  1.00  0.00    -0.299 OA
ENDROOT
BRANCH   1   3
ATOM      3  C   UNL     1     -65.650 -78.455 224.662  1.00  0.00     0.053 C 
ATOM      4  C   UNL     1     -66.943 -78.022 225.367  1.00  0.00     0.016 C 
BRANCH   3   5
ATOM      5  C   UNL     1     -64.418 -78.190 225.557  1.00  0.00     0.015 C 
BRANCH   5   6
ATOM      6  C   UNL     1     -63.662 -79.493 225.883  1.00  0.00     0.028 C 
BRANCH   6   7
ATOM      7  C   UNL     1     -62.164 -79.315 225.933  1.00  0.00    -0.028 C 
ATOM      8  C   UNL     1     -61.340 -79.277 224.856  1.00  0.00    -0.070 CG0
ATOM      9  C   UNL     1     -59.856 -79.190 225.114  1.00  0.00     0.039 C 
ATOM     10  G   UNL     1     -61.834 -79.268 223.415  1.00  0.00     0.000 G0
ENDBRANCH   6   7
ENDBRANCH   5   6
ENDBRANCH   3   5
ENDBRANCH   1   3
BRANCH   1  11
ATOM     11  C   UNL     1     -64.353 -78.029 222.398  1.00  0.00     0.087 C 
BRANCH  11  12
ATOM     12  C   UNL     1     -63.134 -77.107 222.664  1.00  0.00     0.066 C 
BRANCH  12  13
ATOM     13  C   UNL     1     -61.840 -77.907 222.727  1.00  0.00     0.140 C 
ATOM     14  O   UNL     1     -60.799 -77.434 222.293  1.00  0.00    -0.299 OA
BRANCH  13  15
ATOM     15  C   UNL     1     -61.825 -79.267 223.381  1.00  0.00     0.106 CG0
ATOM     16  G   UNL     1     -61.337 -79.254 224.824  1.00  0.00     0.000 G0
ENDBRANCH  13  15
ENDBRANCH  12  13
BRANCH  12  17
ATOM     17  C   UNL     1     -63.030 -75.909 221.664  1.00  0.00    -0.006 C 
ATOM     18  C   UNL     1     -63.407 -76.271 220.215  1.00  0.00     0.008 C 
ATOM     19  C   UNL     1     -63.868 -74.708 222.133  1.00  0.00     0.008 C 
ENDBRANCH  12  17
ENDBRANCH  11  12
ENDBRANCH   1  11
TORSDOF 1
ENDMDL
MODEL 2
REMARK VINA RESULT:    -4.116      1.291      1.798
REMARK INTER + INTRA:          -6.397
REMARK INTER:                  -6.210
REMARK INTRA:                  -0.186
REMARK UNBOUND:                -0.115
REMARK SMILES CC1=CCC[C@@H](C)C(=O)C[C@H](C(C)C)C(=O)C1
REMARK SMILES IDX 8 1 9 2 6 3 7 4 5 5 4 6 3 7 2 8 1 9 10 11 11 12 15 13 16 14
REMARK SMILES IDX 17 15 12 17 13 18 14 19
REMARK H PARENT
REMARK Flexibility Score: 70.00
ROOT
ATOM      1  C   UNL     1     -66.168 -77.470 223.272  1.00  0.00     0.136 C 
ATOM      2  O   UNL     1     -66.681 -76.358 223.257  1.00  0.00    -0.299 OA
ENDROOT
BRANCH   1   3
ATOM      3  C   UNL     1     -66.727 -78.536 224.196  1.00  0.00     0.053 C 
ATOM      4  C   UNL     1     -68.182 -78.857 223.826  1.00  0.00     0.016 C 
BRANCH   3   5
ATOM      5  C   UNL     1     -66.620 -78.086 225.671  1.00  0.00     0.015 C 
BRANCH   5   6
ATOM      6  C   UNL     1     -65.294 -78.544 226.310  1.00  0.00     0.028 C 
BRANCH   6   7
ATOM      7  C   UNL     1     -64.756 -79.821 225.712  1.00  0.00    -0.028 C 
ATOM      8  C   UNL     1     -63.640 -79.921 224.947  1.00  0.00    -0.070 CG0
ATOM      9  C   UNL     1     -63.316 -81.272 224.357  1.00  0.00     0.039 C 
ATOM     10  G   UNL     1     -62.682 -78.764 224.695  1.00  0.00     0.000 G0
ENDBRANCH   6   7
ENDBRANCH   5   6
ENDBRANCH   3   5
ENDBRANCH   1   3
BRANCH   1  11
ATOM     11  C   UNL     1     -64.999 -77.751 222.357  1.00  0.00     0.087 C 
BRANCH  11  12
ATOM     12  C   UNL     1     -63.673 -77.150 222.894  1.00  0.00     0.066 C 
BRANCH  12  13
ATOM     13  C   UNL     1     -62.690 -78.245 223.289  1.00  0.00     0.140 C 
ATOM     14  O   UNL     1     -61.875 -78.666 222.480  1.00  0.00    -0.299 OA
BRANCH  13  15
ATOM     15  C   UNL     1     -62.680 -78.775 224.702  1.00  0.00     0.106 CG0
ATOM     16  G   UNL     1     -63.656 -79.919 224.941  1.00  0.00     0.000 G0
ENDBRANCH  13  15
ENDBRANCH  12  13
BRANCH  12  17
ATOM     17  C   UNL     1     -63.024 -76.108 221.925  1.00  0.00    -0.006 C 
ATOM     18  C   UNL     1     -63.246 -76.421 220.433  1.00  0.00     0.008 C 
ATOM     19  C   UNL     1     -63.502 -74.679 222.232  1.00  0.00     0.008 C 
ENDBRANCH  12  17
ENDBRANCH  11  12
ENDBRANCH   1  11
TORSDOF 1
ENDMDL
MODEL 3
REMARK VINA RESULT:    -4.035      1.882      4.672
REMARK INTER + INTRA:          -6.273
REMARK INTER:                  -6.042
REMARK INTRA:                  -0.231
REMARK UNBOUND:                -0.115
REMARK SMILES CC1=CCC[C@@H](C)C(=O)C[C@H](C(C)C)C(=O)C1
REMARK SMILES IDX 8 1 9 2 6 3 7 4 5 5 4 6 3 7 2 8 1 9 10 11 11 12 15 13 16 14
REMARK SMILES IDX 17 15 12 17 13 18 14 19
REMARK H PARENT
REMARK Flexibility Score: 70.00
ROOT
ATOM      1  C   UNL     1     -61.996 -77.712 222.213  1.00  0.00     0.136 C 
ATOM      2  O   UNL     1     -60.876 -77.263 222.010  1.00  0.00    -0.299 OA
ENDROOT
BRANCH   1   3
ATOM      3  C   UNL     1     -63.201 -77.015 221.607  1.00  0.00     0.053 C 
ATOM      4  C   UNL     1     -63.357 -75.606 222.196  1.00  0.00     0.016 C 
BRANCH   3   5
ATOM      5  C   UNL     1     -64.482 -77.851 221.831  1.00  0.00     0.015 C 
BRANCH   5   6
ATOM      6  C   UNL     1     -65.419 -77.189 222.860  1.00  0.00     0.028 C 
BRANCH   6   7
ATOM      7  C   UNL     1     -66.136 -78.185 223.739  1.00  0.00    -0.028 C 
ATOM      8  C   UNL     1     -65.660 -78.690 224.905  1.00  0.00    -0.070 CG0
ATOM      9  C   UNL     1     -66.481 -79.753 225.593  1.00  0.00     0.039 C 
ATOM     10  G   UNL     1     -64.377 -78.210 225.572  1.00  0.00     0.000 G0
ENDBRANCH   6   7
ENDBRANCH   5   6
ENDBRANCH   3   5
ENDBRANCH   1   3
BRANCH   1  11
ATOM     11  C   UNL     1     -62.145 -78.959 223.054  1.00  0.00     0.087 C 
BRANCH  11  12
ATOM     12  C   UNL     1     -61.973 -78.673 224.569  1.00  0.00     0.066 C 
BRANCH  12  13
ATOM     13  C   UNL     1     -63.187 -79.141 225.361  1.00  0.00     0.140 C 
ATOM     14  O   UNL     1     -63.195 -80.248 225.883  1.00  0.00    -0.299 OA
BRANCH  13  15
ATOM     15  C   UNL     1     -64.364 -78.217 225.555  1.00  0.00     0.106 CG0
ATOM     16  G   UNL     1     -65.653 -78.714 224.915  1.00  0.00     0.000 G0
ENDBRANCH  13  15
ENDBRANCH  12  13
BRANCH  12  17
ATOM     17  C   UNL     1     -60.639 -79.235 225.161  1.00  0.00    -0.006 C 
ATOM     18  C   UNL     1     -59.728 -79.909 224.118  1.00  0.00     0.008 C 
ATOM     19  C   UNL     1     -59.853 -78.146 225.910  1.00  0.00     0.008 C 
ENDBRANCH  12  17
ENDBRANCH  11  12
ENDBRANCH   1  11
TORSDOF 1
ENDMDL
MODEL 4
REMARK VINA RESULT:    -3.812      1.779      4.019
REMARK INTER + INTRA:          -5.932
REMARK INTER:                  -5.637
REMARK INTRA:                  -0.295
REMARK UNBOUND:                -0.115
REMARK SMILES CC1=CCC[C@@H](C)C(=O)C[C@H](C(C)C)C(=O)C1
REMARK SMILES IDX 8 1 9 2 6 3 7 4 5 5 4 6 3 7 2 8 1 9 10 11 11 12 15 13 16 14
REMARK SMILES IDX 17 15 12 17 13 18 14 19
REMARK H PARENT
REMARK Flexibility Score: 70.00
ROOT
ATOM      1  C   UNL     1     -61.527 -78.343 223.204  1.00  0.00     0.136 C 
ATOM      2  O   UNL     1     -60.547 -78.679 222.552  1.00  0.00    -0.299 OA
ENDROOT
BRANCH   1   3
ATOM      3  C   UNL     1     -61.804 -79.017 224.536  1.00  0.00     0.053 C 
ATOM      4  C   UNL     1     -60.590 -78.885 225.466  1.00  0.00     0.016 C 
BRANCH   3   5
ATOM      5  C   UNL     1     -62.176 -80.503 224.324  1.00  0.00     0.015 C 
BRANCH   5   6
ATOM      6  C   UNL     1     -63.675 -80.673 224.007  1.00  0.00     0.028 C 
BRANCH   6   7
ATOM      7  C   UNL     1     -64.576 -79.990 225.007  1.00  0.00    -0.028 C 
ATOM      8  C   UNL     1     -65.482 -79.022 224.716  1.00  0.00    -0.070 CG0
ATOM      9  C   UNL     1     -66.222 -78.389 225.869  1.00  0.00     0.039 C 
ATOM     10  G   UNL     1     -65.819 -78.579 223.299  1.00  0.00     0.000 G0
ENDBRANCH   6   7
ENDBRANCH   5   6
ENDBRANCH   3   5
ENDBRANCH   1   3
BRANCH   1  11
ATOM     11  C   UNL     1     -62.427 -77.254 222.668  1.00  0.00     0.087 C 
BRANCH  11  12
ATOM     12  C   UNL     1     -63.693 -77.823 221.975  1.00  0.00     0.066 C 
BRANCH  12  13
ATOM     13  C   UNL     1     -64.954 -77.470 222.753  1.00  0.00     0.140 C 
ATOM     14  O   UNL     1     -65.286 -76.301 222.894  1.00  0.00    -0.299 OA
BRANCH  13  15
ATOM     15  C   UNL     1     -65.833 -78.567 223.303  1.00  0.00     0.106 CG0
ATOM     16  G   UNL     1     -65.460 -79.011 224.711  1.00  0.00     0.000 G0
ENDBRANCH  13  15
ENDBRANCH  12  13
BRANCH  12  17
ATOM     17  C   UNL     1     -63.809 -77.426 220.467  1.00  0.00    -0.006 C 
ATOM     18  C   UNL     1     -62.691 -76.485 219.981  1.00  0.00     0.008 C 
ATOM     19  C   UNL     1     -63.872 -78.667 219.561  1.00  0.00     0.008 C 
ENDBRANCH  12  17
ENDBRANCH  11  12
ENDBRANCH   1  11
TORSDOF 1
ENDMDL
MODEL 5
REMARK VINA RESULT:    -3.582      1.765      2.298
REMARK INTER + INTRA:          -5.582
REMARK INTER:                  -5.445
REMARK INTRA:                  -0.137
REMARK UNBOUND:                -0.115
REMARK SMILES CC1=CCC[C@@H](C)C(=O)C[C@H](C(C)C)C(=O)C1
REMARK SMILES IDX 8 1 9 2 6 3 7 4 5 5 4 6 3 7 2 8 1 9 10 11 11 12 15 13 16 14
REMARK SMILES IDX 17 15 12 17 13 18 14 19
REMARK H PARENT
REMARK Flexibility Score: 70.00
ROOT
ATOM      1  C   UNL     1     -63.774 -78.432 223.976  1.00  0.00     0.136 C 
ATOM      2  O   UNL     1     -64.315 -77.489 224.539  1.00  0.00    -0.299 OA
ENDROOT
BRANCH   1   3
ATOM      3  C   UNL     1     -63.242 -79.588 224.802  1.00  0.00     0.053 C 
ATOM      4  C   UNL     1     -64.391 -80.302 225.528  1.00  0.00     0.016 C 
BRANCH   3   5
ATOM      5  C   UNL     1     -62.178 -79.093 225.808  1.00  0.00     0.015 C 
BRANCH   5   6
ATOM      6  C   UNL     1     -60.789 -78.969 225.151  1.00  0.00     0.028 C 
BRANCH   6   7
ATOM      7  C   UNL     1     -60.370 -80.213 224.406  1.00  0.00    -0.028 C 
ATOM      8  C   UNL     1     -60.122 -80.285 223.074  1.00  0.00    -0.070 CG0
ATOM      9  C   UNL     1     -59.810 -81.643 222.494  1.00  0.00     0.039 C 
ATOM     10  G   UNL     1     -60.096 -79.072 222.153  1.00  0.00     0.000 G0
ENDBRANCH   6   7
ENDBRANCH   5   6
ENDBRANCH   3   5
ENDBRANCH   1   3
BRANCH   1  11
ATOM     11  C   UNL     1     -63.663 -78.420 222.469  1.00  0.00     0.087 C 
BRANCH  11  12
ATOM     12  C   UNL     1     -62.344 -77.766 221.980  1.00  0.00     0.066 C 
BRANCH  12  13
ATOM     13  C   UNL     1     -61.382 -78.809 221.427  1.00  0.00     0.140 C 
ATOM     14  O   UNL     1     -61.636 -79.394 220.383  1.00  0.00    -0.299 OA
BRANCH  13  15
ATOM     15  C   UNL     1     -60.078 -79.085 222.137  1.00  0.00     0.106 CG0
ATOM     16  G   UNL     1     -60.127 -80.282 223.078  1.00  0.00     0.000 G0
ENDBRANCH  13  15
ENDBRANCH  12  13
BRANCH  12  17
ATOM     17  C   UNL     1     -62.567 -76.590 220.974  1.00  0.00    -0.006 C 
ATOM     18  C   UNL     1     -63.474 -76.951 219.783  1.00  0.00     0.008 C 
ATOM     19  C   UNL     1     -63.114 -75.339 221.681  1.00  0.00     0.008 C 
ENDBRANCH  12  17
ENDBRANCH  11  12
ENDBRANCH   1  11
TORSDOF 1
ENDMDL
MODEL 6
REMARK VINA RESULT:    -3.570      2.082      4.157
REMARK INTER + INTRA:          -5.563
REMARK INTER:                  -5.365
REMARK INTRA:                  -0.198
REMARK UNBOUND:                -0.115
REMARK SMILES CC1=CCC[C@@H](C)C(=O)C[C@H](C(C)C)C(=O)C1
REMARK SMILES IDX 8 1 9 2 6 3 7 4 5 5 4 6 3 7 2 8 1 9 10 11 11 12 15 13 16 14
REMARK SMILES IDX 17 15 12 17 13 18 14 19
REMARK H PARENT
REMARK Flexibility Score: 70.00
ROOT
ATOM      1  C   UNL     1     -62.582 -79.111 225.289  1.00  0.00     0.136 C 
ATOM      2  O   UNL     1     -62.312 -79.946 226.142  1.00  0.00    -0.299 OA
ENDROOT
BRANCH   1   3
ATOM      3  C   UNL     1     -64.029 -78.709 225.071  1.00  0.00     0.053 C 
ATOM      4  C   UNL     1     -64.736 -78.500 226.418  1.00  0.00     0.016 C 
BRANCH   3   5
ATOM      5  C   UNL     1     -64.766 -79.769 224.221  1.00  0.00     0.015 C 
BRANCH   5   6
ATOM      6  C   UNL     1     -65.380 -79.151 222.949  1.00  0.00     0.028 C 
BRANCH   6   7
ATOM      7  C   UNL     1     -65.174 -77.659 222.854  1.00  0.00    -0.028 C 
ATOM      8  C   UNL     1     -64.143 -77.047 222.218  1.00  0.00    -0.070 CG0
ATOM      9  C   UNL     1     -64.056 -75.544 222.316  1.00  0.00     0.039 C 
ATOM     10  G   UNL     1     -63.108 -77.788 221.381  1.00  0.00     0.000 G0
ENDBRANCH   6   7
ENDBRANCH   5   6
ENDBRANCH   3   5
ENDBRANCH   1   3
BRANCH   1  11
ATOM     11  C   UNL     1     -61.461 -78.496 224.484  1.00  0.00     0.087 C 
BRANCH  11  12
ATOM     12  C   UNL     1     -61.445 -78.996 223.016  1.00  0.00     0.066 C 
BRANCH  12  13
ATOM     13  C   UNL     1     -61.745 -77.864 222.043  1.00  0.00     0.140 C 
ATOM     14  O   UNL     1     -60.879 -77.048 221.757  1.00  0.00    -0.299 OA
BRANCH  13  15
ATOM     15  C   UNL     1     -63.098 -77.777 221.380  1.00  0.00     0.106 CG0
ATOM     16  G   UNL     1     -64.151 -77.059 222.213  1.00  0.00     0.000 G0
ENDBRANCH  13  15
ENDBRANCH  12  13
BRANCH  12  17
ATOM     17  C   UNL     1     -60.136 -79.762 222.633  1.00  0.00    -0.006 C 
ATOM     18  C   UNL     1     -59.622 -80.708 223.734  1.00  0.00     0.008 C 
ATOM     19  C   UNL     1     -60.302 -80.539 221.317  1.00  0.00     0.008 C 
ENDBRANCH  12  17
ENDBRANCH  11  12
ENDBRANCH   1  11
TORSDOF 1
ENDMDL
MODEL 7
REMARK VINA RESULT:    -3.537      1.949      4.055
REMARK INTER + INTRA:          -5.513
REMARK INTER:                  -5.340
REMARK INTRA:                  -0.173
REMARK UNBOUND:                -0.115
REMARK SMILES CC1=CCC[C@@H](C)C(=O)C[C@H](C(C)C)C(=O)C1
REMARK SMILES IDX 8 1 9 2 6 3 7 4 5 5 4 6 3 7 2 8 1 9 10 11 11 12 15 13 16 14
REMARK SMILES IDX 17 15 12 17 13 18 14 19
REMARK H PARENT
REMARK Flexibility Score: 70.00
ROOT
ATOM      1  C   UNL     1     -64.161 -77.080 223.192  1.00  0.00     0.136 C 
ATOM      2  O   UNL     1     -65.331 -76.933 222.861  1.00  0.00    -0.299 OA
ENDROOT
BRANCH   1   3
ATOM      3  C   UNL     1     -63.081 -76.281 222.488  1.00  0.00     0.053 C 
ATOM      4  C   UNL     1     -63.595 -74.880 222.132  1.00  0.00     0.016 C 
BRANCH   3   5
ATOM      5  C   UNL     1     -62.592 -77.026 221.224  1.00  0.00     0.015 C 
BRANCH   5   6
ATOM      6  C   UNL     1     -61.076 -77.299 221.276  1.00  0.00     0.028 C 
BRANCH   6   7
ATOM      7  C   UNL     1     -60.733 -78.766 221.187  1.00  0.00    -0.028 C 
ATOM      8  C   UNL     1     -60.503 -79.586 222.244  1.00  0.00    -0.070 CG0
ATOM      9  C   UNL     1     -60.075 -81.003 221.949  1.00  0.00     0.039 C 
ATOM     10  G   UNL     1     -60.699 -79.167 223.695  1.00  0.00     0.000 G0
ENDBRANCH   6   7
ENDBRANCH   5   6
ENDBRANCH   3   5
ENDBRANCH   1   3
BRANCH   1  11
ATOM     11  C   UNL     1     -63.831 -78.047 224.306  1.00  0.00     0.087 C 
BRANCH  11  12
ATOM     12  C   UNL     1     -63.317 -79.409 223.771  1.00  0.00     0.066 C 
BRANCH  12  13
ATOM     13  C   UNL     1     -61.944 -79.744 224.340  1.00  0.00     0.140 C 
ATOM     14  O   UNL     1     -61.838 -80.513 225.286  1.00  0.00    -0.299 OA
BRANCH  13  15
ATOM     15  C   UNL     1     -60.702 -79.173 223.701  1.00  0.00     0.106 CG0
ATOM     16  G   UNL     1     -60.511 -79.583 222.247  1.00  0.00     0.000 G0
ENDBRANCH  13  15
ENDBRANCH  12  13
BRANCH  12  17
ATOM     17  C   UNL     1     -64.333 -80.581 223.973  1.00  0.00    -0.006 C 
ATOM     18  C   UNL     1     -65.322 -80.356 225.131  1.00  0.00     0.008 C 
ATOM     19  C   UNL     1     -65.107 -80.884 222.680  1.00  0.00     0.008 C 
ENDBRANCH  12  17
ENDBRANCH  11  12
ENDBRANCH   1  11
TORSDOF 1
ENDMDL
MODEL 8
REMARK VINA RESULT:    -3.495      9.776     11.901
REMARK INTER + INTRA:          -5.449
REMARK INTER:                  -5.338
REMARK INTRA:                  -0.111
REMARK UNBOUND:                -0.115
REMARK SMILES CC1=CCC[C@@H](C)C(=O)C[C@H](C(C)C)C(=O)C1
REMARK SMILES IDX 8 1 9 2 6 3 7 4 5 5 4 6 3 7 2 8 1 9 10 11 11 12 15 13 16 14
REMARK SMILES IDX 17 15 12 17 13 18 14 19
REMARK H PARENT
REMARK Flexibility Score: 70.00
ROOT
ATOM      1  C   UNL     1     -68.255 -75.043 215.440  1.00  0.00     0.136 C 
ATOM      2  O   UNL     1     -67.508 -74.123 215.133  1.00  0.00    -0.299 OA
ENDROOT
BRANCH   1   3
ATOM      3  C   UNL     1     -67.923 -76.455 214.991  1.00  0.00     0.053 C 
ATOM      4  C   UNL     1     -66.523 -76.856 215.477  1.00  0.00     0.016 C 
BRANCH   3   5
ATOM      5  C   UNL     1     -68.028 -76.574 213.454  1.00  0.00     0.015 C 
BRANCH   5   6
ATOM      6  C   UNL     1     -69.325 -77.289 213.027  1.00  0.00     0.028 C 
BRANCH   6   7
ATOM      7  C   UNL     1     -69.676 -78.462 213.910  1.00  0.00    -0.028 C 
ATOM      8  C   UNL     1     -70.709 -78.503 214.788  1.00  0.00    -0.070 CG0
ATOM      9  C   UNL     1     -70.840 -79.731 215.656  1.00  0.00     0.039 C 
ATOM     10  G   UNL     1     -71.760 -77.406 214.908  1.00  0.00     0.000 G0
ENDBRANCH   6   7
ENDBRANCH   5   6
ENDBRANCH   3   5
ENDBRANCH   1   3
BRANCH   1  11
ATOM     11  C   UNL     1     -69.482 -74.746 216.271  1.00  0.00     0.087 C 
BRANCH  11  12
ATOM     12  C   UNL     1     -70.798 -75.033 215.501  1.00  0.00     0.066 C 
BRANCH  12  13
ATOM     13  C   UNL     1     -71.425 -76.347 215.949  1.00  0.00     0.140 C 
ATOM     14  O   UNL     1     -71.702 -76.530 217.127  1.00  0.00    -0.299 OA
BRANCH  13  15
ATOM     15  C   UNL     1     -71.761 -77.409 214.931  1.00  0.00     0.106 CG0
ATOM     16  G   UNL     1     -70.696 -78.488 214.787  1.00  0.00     0.000 G0
ENDBRANCH  13  15
ENDBRANCH  12  13
BRANCH  12  17
ATOM     17  C   UNL     1     -71.822 -73.852 215.555  1.00  0.00    -0.006 C 
ATOM     18  C   UNL     1     -71.346 -72.580 214.828  1.00  0.00     0.008 C 
ATOM     19  C   UNL     1     -73.199 -74.274 215.015  1.00  0.00     0.008 C 
ENDBRANCH  12  17
ENDBRANCH  11  12
ENDBRANCH   1  11
TORSDOF 1
ENDMDL
MODEL 9
REMARK VINA RESULT:    -3.341      2.527      4.650
REMARK INTER + INTRA:          -5.214
REMARK INTER:                  -4.870
REMARK INTRA:                  -0.344
REMARK UNBOUND:                -0.115
REMARK SMILES CC1=CCC[C@@H](C)C(=O)C[C@H](C(C)C)C(=O)C1
REMARK SMILES IDX 8 1 9 2 6 3 7 4 5 5 4 6 3 7 2 8 1 9 10 11 11 12 15 13 16 14
REMARK SMILES IDX 17 15 12 17 13 18 14 19
REMARK H PARENT
REMARK Flexibility Score: 70.00
ROOT
ATOM      1  C   UNL     1     -61.602 -77.347 219.986  1.00  0.00     0.136 C 
ATOM      2  O   UNL     1     -62.537 -77.009 219.272  1.00  0.00    -0.299 OA
ENDROOT
BRANCH   1   3
ATOM      3  C   UNL     1     -60.426 -78.086 219.373  1.00  0.00     0.053 C 
ATOM      4  C   UNL     1     -59.712 -77.199 218.344  1.00  0.00     0.016 C 
BRANCH   3   5
ATOM      5  C   UNL     1     -60.895 -79.411 218.728  1.00  0.00     0.015 C 
BRANCH   5   6
ATOM      6  C   UNL     1     -61.636 -80.305 219.741  1.00  0.00     0.028 C 
BRANCH   6   7
ATOM      7  C   UNL     1     -60.742 -80.830 220.838  1.00  0.00    -0.028 C 
ATOM      8  C   UNL     1     -60.995 -80.743 222.168  1.00  0.00    -0.070 CG0
ATOM      9  C   UNL     1     -59.931 -81.241 223.115  1.00  0.00     0.039 C 
ATOM     10  G   UNL     1     -62.302 -80.217 222.746  1.00  0.00     0.000 G0
ENDBRANCH   6   7
ENDBRANCH   5   6
ENDBRANCH   3   5
ENDBRANCH   1   3
BRANCH   1  11
ATOM     11  C   UNL     1     -61.640 -77.004 221.457  1.00  0.00     0.087 C 
BRANCH  11  12
ATOM     12  C   UNL     1     -62.804 -77.714 222.197  1.00  0.00     0.066 C 
BRANCH  12  13
ATOM     13  C   UNL     1     -62.283 -78.774 223.159  1.00  0.00     0.140 C 
ATOM     14  O   UNL     1     -61.894 -78.459 224.275  1.00  0.00    -0.299 OA
BRANCH  13  15
ATOM     15  C   UNL     1     -62.300 -80.229 222.759  1.00  0.00     0.106 CG0
ATOM     16  G   UNL     1     -60.993 -80.718 222.148  1.00  0.00     0.000 G0
ENDBRANCH  13  15
ENDBRANCH  12  13
BRANCH  12  17
ATOM     17  C   UNL     1     -63.791 -76.725 222.900  1.00  0.00    -0.006 C 
ATOM     18  C   UNL     1     -63.778 -75.304 222.307  1.00  0.00     0.008 C 
ATOM     19  C   UNL     1     -65.228 -77.271 222.906  1.00  0.00     0.008 C 
ENDBRANCH  12  17
ENDBRANCH  11  12
ENDBRANCH   1  11
TORSDOF 1
ENDMDL
