MODEL 1
REMARK VINA RESULT:    -3.918      0.000      0.000
REMARK INTER + INTRA:          -6.269
REMARK INTER:                  -5.980
REMARK INTRA:                  -0.289
REMARK UNBOUND:                -0.289
REMARK SMILES CC1=CCC[C@@H](C)C(=O)C[C@@H](C(C)C)C(=O)C1
REMARK SMILES IDX 8 1 9 2 6 3 7 4 5 5 4 6 3 7 2 8 1 9 10 11 11 12 15 13 16 14
REMARK SMILES IDX 17 15 12 17 13 18 14 19
REMARK H PARENT
REMARK Flexibility Score: 70.00
ROOT
ATOM      1  C   UNL     1      15.834  46.242  20.346  1.00  0.00     0.136 C 
ATOM      2  O   UNL     1      14.721  46.280  20.850  1.00  0.00    -0.299 OA
ENDROOT
BRANCH   1   3
ATOM      3  C   UNL     1      15.977  45.713  18.930  1.00  0.00     0.053 C 
ATOM      4  C   UNL     1      14.982  46.413  17.998  1.00  0.00     0.016 C 
BRANCH   3   5
ATOM      5  C   UNL     1      15.817  44.181  18.852  1.00  0.00     0.015 C 
BRANCH   5   6
ATOM      6  C   UNL     1      16.131  43.498  20.195  1.00  0.00     0.028 C 
BRANCH   6   7
ATOM      7  C   UNL     1      17.402  42.686  20.158  1.00  0.00    -0.028 C 
ATOM      8  C   UNL     1      18.605  43.070  20.653  1.00  0.00    -0.070 CG0
ATOM      9  C   UNL     1      19.777  42.149  20.408  1.00  0.00     0.039 C 
ATOM     10  G   UNL     1      18.832  44.328  21.486  1.00  0.00     0.000 G0
ENDBRANCH   6   7
ENDBRANCH   5   6
ENDBRANCH   3   5
ENDBRANCH   1   3
BRANCH   1  11
ATOM     11  C   UNL     1      17.027  46.661  21.178  1.00  0.00     0.087 C 
BRANCH  11  12
ATOM     12  C   UNL     1      18.352  46.681  20.366  1.00  0.00     0.066 C 
BRANCH  12  13
ATOM     13  C   UNL     1      19.288  45.519  20.688  1.00  0.00     0.140 C 
ATOM     14  O   UNL     1      20.470  45.625  20.392  1.00  0.00    -0.299 OA
BRANCH  13  15
ATOM     15  C   UNL     1      18.851  44.315  21.490  1.00  0.00     0.106 CG0
ATOM     16  G   UNL     1      18.610  43.059  20.658  1.00  0.00     0.000 G0
ENDBRANCH  13  15
ENDBRANCH  12  13
BRANCH  12  17
ATOM     17  C   UNL     1      19.109  48.048  20.435  1.00  0.00    -0.006 C 
ATOM     18  C   UNL     1      18.972  48.779  21.782  1.00  0.00     0.008 C 
ATOM     19  C   UNL     1      18.681  48.986  19.293  1.00  0.00     0.008 C 
ENDBRANCH  12  17
ENDBRANCH  11  12
ENDBRANCH   1  11
TORSDOF 1
ENDMDL
MODEL 2
REMARK VINA RESULT:    -3.601      1.680      3.819
REMARK INTER + INTRA:          -5.785
REMARK INTER:                  -6.076
REMARK INTRA:                   0.290
REMARK UNBOUND:                -0.289
REMARK SMILES CC1=CCC[C@@H](C)C(=O)C[C@@H](C(C)C)C(=O)C1
REMARK SMILES IDX 8 1 9 2 6 3 7 4 5 5 4 6 3 7 2 8 1 9 10 11 11 12 15 13 16 14
REMARK SMILES IDX 17 15 12 17 13 18 14 19
REMARK H PARENT
REMARK Flexibility Score: 70.00
ROOT
ATOM      1  C   UNL     1      19.831  44.549  21.009  1.00  0.00     0.136 C 
ATOM      2  O   UNL     1      20.974  44.331  21.386  1.00  0.00    -0.299 OA
ENDROOT
BRANCH   1   3
ATOM      3  C   UNL     1      18.732  43.583  21.417  1.00  0.00     0.053 C 
ATOM      4  C   UNL     1      19.193  42.723  22.599  1.00  0.00     0.016 C 
BRANCH   3   5
ATOM      5  C   UNL     1      18.256  42.699  20.247  1.00  0.00     0.015 C 
BRANCH   5   6
ATOM      6  C   UNL     1      17.423  43.492  19.225  1.00  0.00     0.028 C 
BRANCH   6   7
ATOM      7  C   UNL     1      16.136  44.025  19.804  1.00  0.00    -0.028 C 
ATOM      8  C   UNL     1      15.849  45.331  20.034  1.00  0.00    -0.070 CG0
ATOM      9  C   UNL     1      14.543  45.638  20.728  1.00  0.00     0.039 C 
ATOM     10  G   UNL     1      16.723  46.498  19.582  1.00  0.00     0.000 G0
ENDBRANCH   6   7
ENDBRANCH   5   6
ENDBRANCH   3   5
ENDBRANCH   1   3
BRANCH   1  11
ATOM     11  C   UNL     1      19.575  45.730  20.099  1.00  0.00     0.087 C 
BRANCH  11  12
ATOM     12  C   UNL     1      19.019  46.967  20.858  1.00  0.00     0.066 C 
BRANCH  12  13
ATOM     13  C   UNL     1      17.517  47.173  20.682  1.00  0.00     0.140 C 
ATOM     14  O   UNL     1      16.959  48.011  21.376  1.00  0.00    -0.299 OA
BRANCH  13  15
ATOM     15  C   UNL     1      16.722  46.499  19.588  1.00  0.00     0.106 CG0
ATOM     16  G   UNL     1      15.871  45.324  20.061  1.00  0.00     0.000 G0
ENDBRANCH  13  15
ENDBRANCH  12  13
BRANCH  12  17
ATOM     17  C   UNL     1      19.806  48.288  20.567  1.00  0.00    -0.006 C 
ATOM     18  C   UNL     1      19.911  49.239  21.771  1.00  0.00     0.008 C 
ATOM     19  C   UNL     1      19.214  49.041  19.364  1.00  0.00     0.008 C 
ENDBRANCH  12  17
ENDBRANCH  11  12
ENDBRANCH   1  11
TORSDOF 1
ENDMDL
MODEL 3
REMARK VINA RESULT:    -3.518      1.639      3.779
REMARK INTER + INTRA:          -5.658
REMARK INTER:                  -5.596
REMARK INTRA:                  -0.063
REMARK UNBOUND:                -0.289
REMARK SMILES CC1=CCC[C@@H](C)C(=O)C[C@@H](C(C)C)C(=O)C1
REMARK SMILES IDX 8 1 9 2 6 3 7 4 5 5 4 6 3 7 2 8 1 9 10 11 11 12 15 13 16 14
REMARK SMILES IDX 17 15 12 17 13 18 14 19
REMARK H PARENT
REMARK Flexibility Score: 70.00
ROOT
ATOM      1  C   UNL     1      17.676  46.835  20.862  1.00  0.00     0.136 C 
ATOM      2  O   UNL     1      17.058  47.244  21.835  1.00  0.00    -0.299 OA
ENDROOT
BRANCH   1   3
ATOM      3  C   UNL     1      19.139  47.215  20.714  1.00  0.00     0.053 C 
ATOM      4  C   UNL     1      19.276  48.477  19.857  1.00  0.00     0.016 C 
BRANCH   3   5
ATOM      5  C   UNL     1      19.994  46.066  20.140  1.00  0.00     0.015 C 
BRANCH   5   6
ATOM      6  C   UNL     1      20.311  44.997  21.200  1.00  0.00     0.028 C 
BRANCH   6   7
ATOM      7  C   UNL     1      20.366  43.602  20.629  1.00  0.00    -0.028 C 
ATOM      8  C   UNL     1      19.378  42.674  20.698  1.00  0.00    -0.070 CG0
ATOM      9  C   UNL     1      19.685  41.298  20.158  1.00  0.00     0.039 C 
ATOM     10  G   UNL     1      17.972  42.952  21.222  1.00  0.00     0.000 G0
ENDBRANCH   6   7
ENDBRANCH   5   6
ENDBRANCH   3   5
ENDBRANCH   1   3
BRANCH   1  11
ATOM     11  C   UNL     1      16.939  46.026  19.817  1.00  0.00     0.087 C 
BRANCH  11  12
ATOM     12  C   UNL     1      16.210  44.790  20.414  1.00  0.00     0.066 C 
BRANCH  12  13
ATOM     13  C   UNL     1      16.968  43.478  20.226  1.00  0.00     0.140 C 
ATOM     14  O   UNL     1      16.861  42.893  19.157  1.00  0.00    -0.299 OA
BRANCH  13  15
ATOM     15  C   UNL     1      17.960  42.954  21.238  1.00  0.00     0.106 CG0
ATOM     16  G   UNL     1      19.352  42.686  20.674  1.00  0.00     0.000 G0
ENDBRANCH  13  15
ENDBRANCH  12  13
BRANCH  12  17
ATOM     17  C   UNL     1      14.724  44.652  19.947  1.00  0.00    -0.006 C 
ATOM     18  C   UNL     1      14.456  45.184  18.528  1.00  0.00     0.008 C 
ATOM     19  C   UNL     1      13.757  45.321  20.938  1.00  0.00     0.008 C 
ENDBRANCH  12  17
ENDBRANCH  11  12
ENDBRANCH   1  11
TORSDOF 1
ENDMDL
MODEL 4
REMARK VINA RESULT:    -3.473      2.449      4.846
REMARK INTER + INTRA:          -5.589
REMARK INTER:                  -5.235
REMARK INTRA:                  -0.354
REMARK UNBOUND:                -0.289
REMARK SMILES CC1=CCC[C@@H](C)C(=O)C[C@@H](C(C)C)C(=O)C1
REMARK SMILES IDX 8 1 9 2 6 3 7 4 5 5 4 6 3 7 2 8 1 9 10 11 11 12 15 13 16 14
REMARK SMILES IDX 17 15 12 17 13 18 14 19
REMARK H PARENT
REMARK Flexibility Score: 70.00
ROOT
ATOM      1  C   UNL     1      19.004  41.215  20.239  1.00  0.00     0.136 C 
ATOM      2  O   UNL     1      19.124  40.702  19.135  1.00  0.00    -0.299 OA
ENDROOT
BRANCH   1   3
ATOM      3  C   UNL     1      17.612  41.360  20.829  1.00  0.00     0.053 C 
ATOM      4  C   UNL     1      17.170  40.044  21.477  1.00  0.00     0.016 C 
BRANCH   3   5
ATOM      5  C   UNL     1      16.576  41.836  19.790  1.00  0.00     0.015 C 
BRANCH   5   6
ATOM      6  C   UNL     1      17.043  43.099  19.045  1.00  0.00     0.028 C 
BRANCH   6   7
ATOM      7  C   UNL     1      16.894  44.355  19.867  1.00  0.00    -0.028 C 
ATOM      8  C   UNL     1      17.907  45.074  20.412  1.00  0.00    -0.070 CG0
ATOM      9  C   UNL     1      17.528  46.238  21.296  1.00  0.00     0.039 C 
ATOM     10  G   UNL     1      19.386  44.823  20.136  1.00  0.00     0.000 G0
ENDBRANCH   6   7
ENDBRANCH   5   6
ENDBRANCH   3   5
ENDBRANCH   1   3
BRANCH   1  11
ATOM     11  C   UNL     1      20.239  41.742  20.937  1.00  0.00     0.087 C 
BRANCH  11  12
ATOM     12  C   UNL     1      19.931  42.926  21.896  1.00  0.00     0.066 C 
BRANCH  12  13
ATOM     13  C   UNL     1      20.194  44.299  21.282  1.00  0.00     0.140 C 
ATOM     14  O   UNL     1      21.171  44.929  21.664  1.00  0.00    -0.299 OA
BRANCH  13  15
ATOM     15  C   UNL     1      19.394  44.844  20.123  1.00  0.00     0.106 CG0
ATOM     16  G   UNL     1      17.915  45.067  20.428  1.00  0.00     0.000 G0
ENDBRANCH  13  15
ENDBRANCH  12  13
BRANCH  12  17
ATOM     17  C   UNL     1      20.617  42.794  23.295  1.00  0.00    -0.006 C 
ATOM     18  C   UNL     1      21.819  41.834  23.321  1.00  0.00     0.008 C 
ATOM     19  C   UNL     1      19.608  42.386  24.381  1.00  0.00     0.008 C 
ENDBRANCH  12  17
ENDBRANCH  11  12
ENDBRANCH   1  11
TORSDOF 1
ENDMDL
MODEL 5
REMARK VINA RESULT:    -3.349      2.499      5.825
REMARK INTER + INTRA:          -5.401
REMARK INTER:                  -5.138
REMARK INTRA:                  -0.263
REMARK UNBOUND:                -0.289
REMARK SMILES CC1=CCC[C@@H](C)C(=O)C[C@@H](C(C)C)C(=O)C1
REMARK SMILES IDX 8 1 9 2 6 3 7 4 5 5 4 6 3 7 2 8 1 9 10 11 11 12 15 13 16 14
REMARK SMILES IDX 17 15 12 17 13 18 14 19
REMARK H PARENT
REMARK Flexibility Score: 70.00
ROOT
ATOM      1  C   UNL     1      19.599  42.450  22.823  1.00  0.00     0.136 C 
ATOM      2  O   UNL     1      19.438  42.809  23.981  1.00  0.00    -0.299 OA
ENDROOT
BRANCH   1   3
ATOM      3  C   UNL     1      20.752  43.040  22.029  1.00  0.00     0.053 C 
ATOM      4  C   UNL     1      22.067  42.872  22.798  1.00  0.00     0.016 C 
BRANCH   3   5
ATOM      5  C   UNL     1      20.518  44.518  21.657  1.00  0.00     0.015 C 
BRANCH   5   6
ATOM      6  C   UNL     1      19.905  44.670  20.254  1.00  0.00     0.028 C 
BRANCH   6   7
ATOM      7  C   UNL     1      18.507  45.237  20.282  1.00  0.00    -0.028 C 
ATOM      8  C   UNL     1      17.411  44.681  19.708  1.00  0.00    -0.070 CG0
ATOM      9  C   UNL     1      16.127  45.475  19.759  1.00  0.00     0.039 C 
ATOM     10  G   UNL     1      17.380  43.291  19.079  1.00  0.00     0.000 G0
ENDBRANCH   6   7
ENDBRANCH   5   6
ENDBRANCH   3   5
ENDBRANCH   1   3
BRANCH   1  11
ATOM     11  C   UNL     1      18.605  41.485  22.214  1.00  0.00     0.087 C 
BRANCH  11  12
ATOM     12  C   UNL     1      18.594  41.533  20.660  1.00  0.00     0.066 C 
BRANCH  12  13
ATOM     13  C   UNL     1      17.330  42.156  20.073  1.00  0.00     0.140 C 
ATOM     14  O   UNL     1      16.247  41.806  20.521  1.00  0.00    -0.299 OA
BRANCH  13  15
ATOM     15  C   UNL     1      17.364  43.291  19.077  1.00  0.00     0.106 CG0
ATOM     16  G   UNL     1      17.418  44.680  19.706  1.00  0.00     0.000 G0
ENDBRANCH  13  15
ENDBRANCH  12  13
BRANCH  12  17
ATOM     17  C   UNL     1      18.906  40.155  19.988  1.00  0.00    -0.006 C 
ATOM     18  C   UNL     1      20.060  39.379  20.647  1.00  0.00     0.008 C 
ATOM     19  C   UNL     1      19.182  40.312  18.484  1.00  0.00     0.008 C 
ENDBRANCH  12  17
ENDBRANCH  11  12
ENDBRANCH   1  11
TORSDOF 1
ENDMDL
MODEL 6
REMARK VINA RESULT:    -3.325      1.841      4.776
REMARK INTER + INTRA:          -5.364
REMARK INTER:                  -5.468
REMARK INTRA:                   0.104
REMARK UNBOUND:                -0.289
REMARK SMILES CC1=CCC[C@@H](C)C(=O)C[C@@H](C(C)C)C(=O)C1
REMARK SMILES IDX 8 1 9 2 6 3 7 4 5 5 4 6 3 7 2 8 1 9 10 11 11 12 15 13 16 14
REMARK SMILES IDX 17 15 12 17 13 18 14 19
REMARK H PARENT
REMARK Flexibility Score: 70.00
ROOT
ATOM      1  C   UNL     1      19.045  45.907  20.640  1.00  0.00     0.136 C 
ATOM      2  O   UNL     1      20.222  46.081  20.358  1.00  0.00    -0.299 OA
ENDROOT
BRANCH   1   3
ATOM      3  C   UNL     1      18.067  47.049  20.426  1.00  0.00     0.053 C 
ATOM      4  C   UNL     1      18.438  48.240  21.315  1.00  0.00     0.016 C 
BRANCH   3   5
ATOM      5  C   UNL     1      16.602  46.625  20.658  1.00  0.00     0.015 C 
BRANCH   5   6
ATOM      6  C   UNL     1      15.859  46.367  19.337  1.00  0.00     0.028 C 
BRANCH   6   7
ATOM      7  C   UNL     1      14.690  45.426  19.495  1.00  0.00    -0.028 C 
ATOM      8  C   UNL     1      14.710  44.088  19.272  1.00  0.00    -0.070 CG0
ATOM      9  C   UNL     1      13.396  43.351  19.380  1.00  0.00     0.039 C 
ATOM     10  G   UNL     1      15.973  43.282  18.986  1.00  0.00     0.000 G0
ENDBRANCH   6   7
ENDBRANCH   5   6
ENDBRANCH   3   5
ENDBRANCH   1   3
BRANCH   1  11
ATOM     11  C   UNL     1      18.628  44.587  21.251  1.00  0.00     0.087 C 
BRANCH  11  12
ATOM     12  C   UNL     1      18.335  43.495  20.184  1.00  0.00     0.066 C 
BRANCH  12  13
ATOM     13  C   UNL     1      16.879  43.038  20.156  1.00  0.00     0.140 C 
ATOM     14  O   UNL     1      16.393  42.580  21.182  1.00  0.00    -0.299 OA
BRANCH  13  15
ATOM     15  C   UNL     1      15.972  43.267  18.970  1.00  0.00     0.106 CG0
ATOM     16  G   UNL     1      14.721  44.083  19.283  1.00  0.00     0.000 G0
ENDBRANCH  13  15
ENDBRANCH  12  13
BRANCH  12  17
ATOM     17  C   UNL     1      19.307  42.271  20.257  1.00  0.00    -0.006 C 
ATOM     18  C   UNL     1      18.926  41.106  19.326  1.00  0.00     0.008 C 
ATOM     19  C   UNL     1      19.454  41.754  21.697  1.00  0.00     0.008 C 
ENDBRANCH  12  17
ENDBRANCH  11  12
ENDBRANCH   1  11
TORSDOF 1
ENDMDL
MODEL 7
REMARK VINA RESULT:    -3.286      1.981      5.281
REMARK INTER + INTRA:          -5.304
REMARK INTER:                  -5.462
REMARK INTRA:                   0.158
REMARK UNBOUND:                -0.289
REMARK SMILES CC1=CCC[C@@H](C)C(=O)C[C@@H](C(C)C)C(=O)C1
REMARK SMILES IDX 8 1 9 2 6 3 7 4 5 5 4 6 3 7 2 8 1 9 10 11 11 12 15 13 16 14
REMARK SMILES IDX 17 15 12 17 13 18 14 19
REMARK H PARENT
REMARK Flexibility Score: 70.00
ROOT
ATOM      1  C   UNL     1      19.499  43.116  21.459  1.00  0.00     0.136 C 
ATOM      2  O   UNL     1      19.431  41.931  21.751  1.00  0.00    -0.299 OA
ENDROOT
BRANCH   1   3
ATOM      3  C   UNL     1      20.853  43.701  21.094  1.00  0.00     0.053 C 
ATOM      4  C   UNL     1      21.693  43.923  22.356  1.00  0.00     0.016 C 
BRANCH   3   5
ATOM      5  C   UNL     1      20.734  45.005  20.279  1.00  0.00     0.015 C 
BRANCH   5   6
ATOM      6  C   UNL     1      20.650  46.247  21.183  1.00  0.00     0.028 C 
BRANCH   6   7
ATOM      7  C   UNL     1      20.081  47.452  20.475  1.00  0.00    -0.028 C 
ATOM      8  C   UNL     1      18.764  47.718  20.292  1.00  0.00    -0.070 CG0
ATOM      9  C   UNL     1      18.414  48.925  19.454  1.00  0.00     0.039 C 
ATOM     10  G   UNL     1      17.628  46.921  20.927  1.00  0.00     0.000 G0
ENDBRANCH   6   7
ENDBRANCH   5   6
ENDBRANCH   3   5
ENDBRANCH   1   3
BRANCH   1  11
ATOM     11  C   UNL     1      18.246  43.961  21.540  1.00  0.00     0.087 C 
BRANCH  11  12
ATOM     12  C   UNL     1      17.701  44.367  20.142  1.00  0.00     0.066 C 
BRANCH  12  13
ATOM     13  C   UNL     1      17.096  45.767  20.101  1.00  0.00     0.140 C 
ATOM     14  O   UNL     1      16.072  45.940  19.454  1.00  0.00    -0.299 OA
BRANCH  13  15
ATOM     15  C   UNL     1      17.616  46.908  20.943  1.00  0.00     0.106 CG0
ATOM     16  G   UNL     1      18.747  47.703  20.296  1.00  0.00     0.000 G0
ENDBRANCH  13  15
ENDBRANCH  12  13
BRANCH  12  17
ATOM     17  C   UNL     1      16.726  43.314  19.520  1.00  0.00    -0.006 C 
ATOM     18  C   UNL     1      15.807  42.623  20.542  1.00  0.00     0.008 C 
ATOM     19  C   UNL     1      17.487  42.251  18.711  1.00  0.00     0.008 C 
ENDBRANCH  12  17
ENDBRANCH  11  12
ENDBRANCH   1  11
TORSDOF 1
ENDMDL
MODEL 8
REMARK VINA RESULT:    -3.141      2.909      5.490
REMARK INTER + INTRA:          -5.083
REMARK INTER:                  -4.826
REMARK INTRA:                  -0.257
REMARK UNBOUND:                -0.289
REMARK SMILES CC1=CCC[C@@H](C)C(=O)C[C@@H](C(C)C)C(=O)C1
REMARK SMILES IDX 8 1 9 2 6 3 7 4 5 5 4 6 3 7 2 8 1 9 10 11 11 12 15 13 16 14
REMARK SMILES IDX 17 15 12 17 13 18 14 19
REMARK H PARENT
REMARK Flexibility Score: 70.00
ROOT
ATOM      1  C   UNL     1      18.083  43.148  19.646  1.00  0.00     0.136 C 
ATOM      2  O   UNL     1      17.253  43.336  18.768  1.00  0.00    -0.299 OA
ENDROOT
BRANCH   1   3
ATOM      3  C   UNL     1      18.454  44.303  20.559  1.00  0.00     0.053 C 
ATOM      4  C   UNL     1      17.376  45.390  20.505  1.00  0.00     0.016 C 
BRANCH   3   5
ATOM      5  C   UNL     1      19.843  44.891  20.236  1.00  0.00     0.015 C 
BRANCH   5   6
ATOM      6  C   UNL     1      20.972  44.137  20.960  1.00  0.00     0.028 C 
BRANCH   6   7
ATOM      7  C   UNL     1      20.639  43.819  22.397  1.00  0.00    -0.028 C 
ATOM      8  C   UNL     1      20.380  42.585  22.898  1.00  0.00    -0.070 CG0
ATOM      9  C   UNL     1      19.955  42.504  24.345  1.00  0.00     0.039 C 
ATOM     10  G   UNL     1      20.553  41.285  22.118  1.00  0.00     0.000 G0
ENDBRANCH   6   7
ENDBRANCH   5   6
ENDBRANCH   3   5
ENDBRANCH   1   3
BRANCH   1  11
ATOM     11  C   UNL     1      18.752  41.793  19.740  1.00  0.00     0.087 C 
BRANCH  11  12
ATOM     12  C   UNL     1      18.205  40.931  20.912  1.00  0.00     0.066 C 
BRANCH  12  13
ATOM     13  C   UNL     1      19.279  40.488  21.902  1.00  0.00     0.140 C 
ATOM     14  O   UNL     1      19.159  39.396  22.440  1.00  0.00    -0.299 OA
BRANCH  13  15
ATOM     15  C   UNL     1      20.553  41.268  22.130  1.00  0.00     0.106 CG0
ATOM     16  G   UNL     1      20.362  42.577  22.890  1.00  0.00     0.000 G0
ENDBRANCH  13  15
ENDBRANCH  12  13
BRANCH  12  17
ATOM     17  C   UNL     1      17.336  39.717  20.445  1.00  0.00    -0.006 C 
ATOM     18  C   UNL     1      17.851  39.026  19.170  1.00  0.00     0.008 C 
ATOM     19  C   UNL     1      15.864  40.119  20.254  1.00  0.00     0.008 C 
ENDBRANCH  12  17
ENDBRANCH  11  12
ENDBRANCH   1  11
TORSDOF 1
ENDMDL
MODEL 9
REMARK VINA RESULT:    -3.038      8.921     10.304
REMARK INTER + INTRA:          -4.926
REMARK INTER:                  -4.788
REMARK INTRA:                  -0.138
REMARK UNBOUND:                -0.289
REMARK SMILES CC1=CCC[C@@H](C)C(=O)C[C@@H](C(C)C)C(=O)C1
REMARK SMILES IDX 8 1 9 2 6 3 7 4 5 5 4 6 3 7 2 8 1 9 10 11 11 12 15 13 16 14
REMARK SMILES IDX 17 15 12 17 13 18 14 19
REMARK H PARENT
REMARK Flexibility Score: 70.00
ROOT
ATOM      1  C   UNL     1      15.429  39.663  29.319  1.00  0.00     0.136 C 
ATOM      2  O   UNL     1      14.812  39.338  30.324  1.00  0.00    -0.299 OA
ENDROOT
BRANCH   1   3
ATOM      3  C   UNL     1      14.761  40.593  28.321  1.00  0.00     0.053 C 
ATOM      4  C   UNL     1      14.586  41.988  28.929  1.00  0.00     0.016 C 
BRANCH   3   5
ATOM      5  C   UNL     1      13.414  40.043  27.810  1.00  0.00     0.015 C 
BRANCH   5   6
ATOM      6  C   UNL     1      13.394  38.505  27.774  1.00  0.00     0.028 C 
BRANCH   6   7
ATOM      7  C   UNL     1      13.676  37.947  26.401  1.00  0.00    -0.028 C 
ATOM      8  C   UNL     1      14.758  37.206  26.051  1.00  0.00    -0.070 CG0
ATOM      9  C   UNL     1      14.902  36.844  24.592  1.00  0.00     0.039 C 
ATOM     10  G   UNL     1      15.790  36.670  27.038  1.00  0.00     0.000 G0
ENDBRANCH   6   7
ENDBRANCH   5   6
ENDBRANCH   3   5
ENDBRANCH   1   3
BRANCH   1  11
ATOM     11  C   UNL     1      16.802  39.072  29.083  1.00  0.00     0.087 C 
BRANCH  11  12
ATOM     12  C   UNL     1      17.137  38.909  27.574  1.00  0.00     0.066 C 
BRANCH  12  13
ATOM     13  C   UNL     1      17.074  37.465  27.083  1.00  0.00     0.140 C 
ATOM     14  O   UNL     1      18.124  36.888  26.838  1.00  0.00    -0.299 OA
BRANCH  13  15
ATOM     15  C   UNL     1      15.788  36.674  27.032  1.00  0.00     0.106 CG0
ATOM     16  G   UNL     1      14.760  37.208  26.039  1.00  0.00     0.000 G0
ENDBRANCH  13  15
ENDBRANCH  12  13
BRANCH  12  17
ATOM     17  C   UNL     1      18.482  39.588  27.154  1.00  0.00    -0.006 C 
ATOM     18  C   UNL     1      18.869  40.806  28.010  1.00  0.00     0.008 C 
ATOM     19  C   UNL     1      18.473  39.985  25.668  1.00  0.00     0.008 C 
ENDBRANCH  12  17
ENDBRANCH  11  12
ENDBRANCH   1  11
TORSDOF 1
ENDMDL
