MODEL 1
REMARK VINA RESULT:    -6.588      0.000      0.000
REMARK INTER + INTRA:          -8.216
REMARK INTER:                  -7.936
REMARK INTRA:                  -0.280
REMARK UNBOUND:                -0.280
REMARK SMILES O=c1c(O)c(-c2ccc(O)c(O)c2)oc2cc(O)cc(O)c12
REMARK SMILES IDX 5 1 3 2 2 3 1 4 22 5 20 6 19 7 17 8 16 9 15 10 14 11 6 12
REMARK SMILES IDX 7 13 8 14 9 15 13 16 11 17 10 18 12 20 4 22 21 24 18 26
REMARK H PARENT 10 19 12 21 4 23 21 25 18 27
REMARK Flexibility Score: inf
ROOT
ATOM      1  C   UNL     1     133.113 141.871 140.879  1.00  0.00     0.180 A 
ATOM      2  C   UNL     1     134.225 142.694 140.616  1.00  0.00     0.208 A 
ATOM      3  C   UNL     1     135.406 142.492 141.348  1.00  0.00     0.238 A 
ATOM      4  O   UNL     1     136.404 143.231 141.129  1.00  0.00    -0.285 OA
ATOM      5  C   UNL     1     135.463 141.464 142.310  1.00  0.00     0.111 A 
ATOM      6  C   UNL     1     136.615 141.193 143.087  1.00  0.00     0.134 A 
ATOM      7  C   UNL     1     136.595 140.145 144.019  1.00  0.00     0.093 A 
ATOM      8  C   UNL     1     135.446 139.363 144.189  1.00  0.00     0.123 A 
ATOM      9  C   UNL     1     134.308 139.628 143.425  1.00  0.00     0.094 A 
ATOM     10  C   UNL     1     134.307 140.668 142.492  1.00  0.00     0.146 A 
ATOM     11  O   UNL     1     133.207 140.901 141.784  1.00  0.00    -0.452 OA
ENDROOT
BRANCH   1  12
ATOM     12  C   UNL     1     131.828 142.034 140.162  1.00  0.00     0.025 A 
ATOM     13  C   UNL     1     130.774 142.723 140.783  1.00  0.00     0.016 A 
ATOM     14  C   UNL     1     129.559 142.907 140.118  1.00  0.00     0.051 A 
ATOM     15  C   UNL     1     129.383 142.422 138.820  1.00  0.00     0.157 A 
ATOM     16  C   UNL     1     131.656 141.565 138.848  1.00  0.00     0.062 A 
ATOM     17  C   UNL     1     130.439 141.752 138.177  1.00  0.00     0.158 A 
BRANCH  15  18
ATOM     18  O   UNL     1     128.159 142.620 138.182  1.00  0.00    -0.504 OA
ATOM     19  H   UNL     1     127.415 141.933 138.220  1.00  0.00     0.293 HD
ENDBRANCH  15  18
BRANCH  17  20
ATOM     20  O   UNL     1     130.275 141.278 136.877  1.00  0.00    -0.504 OA
ATOM     21  H   UNL     1     129.454 141.506 136.328  1.00  0.00     0.293 HD
ENDBRANCH  17  20
ENDBRANCH   1  12
BRANCH   2  22
ATOM     22  O   UNL     1     134.159 143.673 139.622  1.00  0.00    -0.502 OA
ATOM     23  H   UNL     1     133.296 144.150 139.388  1.00  0.00     0.293 HD
ENDBRANCH   2  22
BRANCH   6  24
ATOM     24  O   UNL     1     137.776 141.954 142.940  1.00  0.00    -0.507 OA
ATOM     25  H   UNL     1     137.791 142.799 142.382  1.00  0.00     0.293 HD
ENDBRANCH   6  24
BRANCH   8  26
ATOM     26  O   UNL     1     135.426 138.322 145.113  1.00  0.00    -0.508 OA
ATOM     27  H   UNL     1     134.891 138.385 145.971  1.00  0.00     0.293 HD
ENDBRANCH   8  26
TORSDOF 6
ENDMDL
MODEL 2
REMARK VINA RESULT:    -6.573      6.730     12.311
REMARK INTER + INTRA:          -8.198
REMARK INTER:                  -8.062
REMARK INTRA:                  -0.136
REMARK UNBOUND:                -0.280
REMARK SMILES O=c1c(O)c(-c2ccc(O)c(O)c2)oc2cc(O)cc(O)c12
REMARK SMILES IDX 5 1 3 2 2 3 1 4 22 5 20 6 19 7 17 8 16 9 15 10 14 11 6 12
REMARK SMILES IDX 7 13 8 14 9 15 13 16 11 17 10 18 12 20 4 22 21 24 18 26
REMARK H PARENT 10 19 12 21 4 23 21 25 18 27
REMARK Flexibility Score: inf
ROOT
ATOM      1  C   UNL     1     137.004 134.675 148.284  1.00  0.00     0.180 A 
ATOM      2  C   UNL     1     135.639 134.501 147.981  1.00  0.00     0.208 A 
ATOM      3  C   UNL     1     134.991 135.465 147.195  1.00  0.00     0.238 A 
ATOM      4  O   UNL     1     133.766 135.325 146.927  1.00  0.00    -0.285 OA
ATOM      5  C   UNL     1     135.716 136.571 146.708  1.00  0.00     0.111 A 
ATOM      6  C   UNL     1     135.138 137.585 145.906  1.00  0.00     0.134 A 
ATOM      7  C   UNL     1     135.931 138.651 145.455  1.00  0.00     0.093 A 
ATOM      8  C   UNL     1     137.288 138.721 145.787  1.00  0.00     0.123 A 
ATOM      9  C   UNL     1     137.862 137.724 146.578  1.00  0.00     0.094 A 
ATOM     10  C   UNL     1     137.089 136.655 147.040  1.00  0.00     0.146 A 
ATOM     11  O   UNL     1     137.660 135.724 147.796  1.00  0.00    -0.452 OA
ENDROOT
BRANCH   1  12
ATOM     12  C   UNL     1     137.752 133.712 149.122  1.00  0.00     0.025 A 
ATOM     13  C   UNL     1     138.908 133.102 148.609  1.00  0.00     0.016 A 
ATOM     14  C   UNL     1     139.642 132.205 149.390  1.00  0.00     0.051 A 
ATOM     15  C   UNL     1     139.244 131.917 150.698  1.00  0.00     0.157 A 
ATOM     16  C   UNL     1     137.365 133.437 150.446  1.00  0.00     0.062 A 
ATOM     17  C   UNL     1     138.103 132.539 151.232  1.00  0.00     0.158 A 
BRANCH  15  18
ATOM     18  O   UNL     1     139.996 131.017 151.453  1.00  0.00    -0.504 OA
ATOM     19  H   UNL     1     140.858 130.613 151.107  1.00  0.00     0.293 HD
ENDBRANCH  15  18
BRANCH  17  20
ATOM     20  O   UNL     1     137.709 132.267 152.541  1.00  0.00    -0.504 OA
ATOM     21  H   UNL     1     137.512 131.322 152.851  1.00  0.00     0.293 HD
ENDBRANCH  17  20
ENDBRANCH   1  12
BRANCH   2  22
ATOM     22  O   UNL     1     134.955 133.369 148.434  1.00  0.00    -0.502 OA
ATOM     23  H   UNL     1     135.370 132.445 148.423  1.00  0.00     0.293 HD
ENDBRANCH   2  22
BRANCH   6  24
ATOM     24  O   UNL     1     133.788 137.542 145.557  1.00  0.00    -0.507 OA
ATOM     25  H   UNL     1     133.057 137.746 146.228  1.00  0.00     0.293 HD
ENDBRANCH   6  24
BRANCH   8  26
ATOM     26  O   UNL     1     138.075 139.778 145.338  1.00  0.00    -0.508 OA
ATOM     27  H   UNL     1     138.950 140.018 145.790  1.00  0.00     0.293 HD
ENDBRANCH   8  26
TORSDOF 6
ENDMDL
MODEL 3
REMARK VINA RESULT:    -6.430      6.922     10.851
REMARK INTER + INTRA:          -8.026
REMARK INTER:                  -7.878
REMARK INTRA:                  -0.148
REMARK UNBOUND:                -0.280
REMARK SMILES O=c1c(O)c(-c2ccc(O)c(O)c2)oc2cc(O)cc(O)c12
REMARK SMILES IDX 5 1 3 2 2 3 1 4 22 5 20 6 19 7 17 8 16 9 15 10 14 11 6 12
REMARK SMILES IDX 7 13 8 14 9 15 13 16 11 17 10 18 12 20 4 22 21 24 18 26
REMARK H PARENT 10 19 12 21 4 23 21 25 18 27
REMARK Flexibility Score: inf
ROOT
ATOM      1  C   UNL     1     137.976 135.258 147.397  1.00  0.00     0.180 A 
ATOM      2  C   UNL     1     139.022 134.566 146.756  1.00  0.00     0.208 A 
ATOM      3  C   UNL     1     139.646 133.505 147.431  1.00  0.00     0.238 A 
ATOM      4  O   UNL     1     140.591 132.885 146.871  1.00  0.00    -0.285 OA
ATOM      5  C   UNL     1     139.205 133.142 148.720  1.00  0.00     0.111 A 
ATOM      6  C   UNL     1     139.777 132.084 149.465  1.00  0.00     0.134 A 
ATOM      7  C   UNL     1     139.275 131.779 150.739  1.00  0.00     0.093 A 
ATOM      8  C   UNL     1     138.212 132.511 151.280  1.00  0.00     0.123 A 
ATOM      9  C   UNL     1     137.644 133.555 150.549  1.00  0.00     0.094 A 
ATOM     10  C   UNL     1     138.131 133.876 149.278  1.00  0.00     0.146 A 
ATOM     11  O   UNL     1     137.576 134.879 148.607  1.00  0.00    -0.452 OA
ENDROOT
BRANCH   1  12
ATOM     12  C   UNL     1     137.281 136.399 146.758  1.00  0.00     0.025 A 
ATOM     13  C   UNL     1     135.891 136.342 146.569  1.00  0.00     0.016 A 
ATOM     14  C   UNL     1     135.211 137.415 145.987  1.00  0.00     0.051 A 
ATOM     15  C   UNL     1     135.905 138.566 145.601  1.00  0.00     0.157 A 
ATOM     16  C   UNL     1     137.974 137.565 146.389  1.00  0.00     0.062 A 
ATOM     17  C   UNL     1     137.293 138.645 145.807  1.00  0.00     0.158 A 
BRANCH  15  18
ATOM     18  O   UNL     1     135.200 139.620 145.022  1.00  0.00    -0.504 OA
ATOM     19  H   UNL     1     135.340 139.896 144.057  1.00  0.00     0.293 HD
ENDBRANCH  15  18
BRANCH  17  20
ATOM     20  O   UNL     1     137.988 139.795 145.438  1.00  0.00    -0.504 OA
ATOM     21  H   UNL     1     137.512 140.675 145.277  1.00  0.00     0.293 HD
ENDBRANCH  17  20
ENDBRANCH   1  12
BRANCH   2  22
ATOM     22  O   UNL     1     139.407 134.913 145.459  1.00  0.00    -0.502 OA
ATOM     23  H   UNL     1     139.778 134.235 144.804  1.00  0.00     0.293 HD
ENDBRANCH   2  22
BRANCH   6  24
ATOM     24  O   UNL     1     140.838 131.336 148.952  1.00  0.00    -0.507 OA
ATOM     25  H   UNL     1     141.791 131.476 149.267  1.00  0.00     0.293 HD
ENDBRANCH   6  24
BRANCH   8  26
ATOM     26  O   UNL     1     137.712 132.207 152.544  1.00  0.00    -0.508 OA
ATOM     27  H   UNL     1     138.296 132.255 153.371  1.00  0.00     0.293 HD
ENDBRANCH   8  26
TORSDOF 6
ENDMDL
MODEL 4
REMARK VINA RESULT:    -6.395      8.168     13.778
REMARK INTER + INTRA:          -7.983
REMARK INTER:                  -7.775
REMARK INTRA:                  -0.208
REMARK UNBOUND:                -0.280
REMARK SMILES O=c1c(O)c(-c2ccc(O)c(O)c2)oc2cc(O)cc(O)c12
REMARK SMILES IDX 5 1 3 2 2 3 1 4 22 5 20 6 19 7 17 8 16 9 15 10 14 11 6 12
REMARK SMILES IDX 7 13 8 14 9 15 13 16 11 17 10 18 12 20 4 22 21 24 18 26
REMARK H PARENT 10 19 12 21 4 23 21 25 18 27
REMARK Flexibility Score: inf
ROOT
ATOM      1  C   UNL     1     137.869 133.114 148.881  1.00  0.00     0.180 A 
ATOM      2  C   UNL     1     136.996 132.301 148.131  1.00  0.00     0.208 A 
ATOM      3  C   UNL     1     136.188 132.898 147.151  1.00  0.00     0.238 A 
ATOM      4  O   UNL     1     135.395 132.181 146.481  1.00  0.00    -0.285 OA
ATOM      5  C   UNL     1     136.279 134.286 146.922  1.00  0.00     0.111 A 
ATOM      6  C   UNL     1     135.504 134.964 145.951  1.00  0.00     0.134 A 
ATOM      7  C   UNL     1     135.659 136.347 145.778  1.00  0.00     0.093 A 
ATOM      8  C   UNL     1     136.575 137.064 146.556  1.00  0.00     0.123 A 
ATOM      9  C   UNL     1     137.342 136.400 147.515  1.00  0.00     0.094 A 
ATOM     10  C   UNL     1     137.201 135.022 147.704  1.00  0.00     0.146 A 
ATOM     11  O   UNL     1     137.939 134.417 148.628  1.00  0.00    -0.452 OA
ENDROOT
BRANCH   1  12
ATOM     12  C   UNL     1     138.738 132.561 149.944  1.00  0.00     0.025 A 
ATOM     13  C   UNL     1     138.157 132.072 151.125  1.00  0.00     0.016 A 
ATOM     14  C   UNL     1     138.956 131.528 152.134  1.00  0.00     0.051 A 
ATOM     15  C   UNL     1     140.342 131.448 151.973  1.00  0.00     0.157 A 
ATOM     16  C   UNL     1     140.130 132.461 149.775  1.00  0.00     0.062 A 
ATOM     17  C   UNL     1     140.933 131.912 150.785  1.00  0.00     0.158 A 
BRANCH  15  18
ATOM     18  O   UNL     1     141.114 130.900 152.997  1.00  0.00    -0.504 OA
ATOM     19  H   UNL     1     142.117 130.789 152.915  1.00  0.00     0.293 HD
ENDBRANCH  15  18
BRANCH  17  20
ATOM     20  O   UNL     1     142.314 131.822 150.612  1.00  0.00    -0.504 OA
ATOM     21  H   UNL     1     142.867 132.626 150.337  1.00  0.00     0.293 HD
ENDBRANCH  17  20
ENDBRANCH   1  12
BRANCH   2  22
ATOM     22  O   UNL     1     136.961 130.921 148.343  1.00  0.00    -0.502 OA
ATOM     23  H   UNL     1     137.535 130.465 149.042  1.00  0.00     0.293 HD
ENDBRANCH   2  22
BRANCH   6  24
ATOM     24  O   UNL     1     134.583 134.276 145.159  1.00  0.00    -0.507 OA
ATOM     25  H   UNL     1     133.584 134.390 145.282  1.00  0.00     0.293 HD
ENDBRANCH   6  24
BRANCH   8  26
ATOM     26  O   UNL     1     136.731 138.437 146.383  1.00  0.00    -0.508 OA
ATOM     27  H   UNL     1     136.737 138.859 145.462  1.00  0.00     0.293 HD
ENDBRANCH   8  26
TORSDOF 6
ENDMDL
MODEL 5
REMARK VINA RESULT:    -6.365      1.943      7.276
REMARK INTER + INTRA:          -7.948
REMARK INTER:                  -7.761
REMARK INTRA:                  -0.187
REMARK UNBOUND:                -0.280
REMARK SMILES O=c1c(O)c(-c2ccc(O)c(O)c2)oc2cc(O)cc(O)c12
REMARK SMILES IDX 5 1 3 2 2 3 1 4 22 5 20 6 19 7 17 8 16 9 15 10 14 11 6 12
REMARK SMILES IDX 7 13 8 14 9 15 13 16 11 17 10 18 12 20 4 22 21 24 18 26
REMARK H PARENT 10 19 12 21 4 23 21 25 18 27
REMARK Flexibility Score: inf
ROOT
ATOM      1  C   UNL     1     136.011 140.320 142.556  1.00  0.00     0.180 A 
ATOM      2  C   UNL     1     136.532 141.591 142.243  1.00  0.00     0.208 A 
ATOM      3  C   UNL     1     135.812 142.422 141.371  1.00  0.00     0.238 A 
ATOM      4  O   UNL     1     136.274 143.558 141.075  1.00  0.00    -0.285 OA
ATOM      5  C   UNL     1     134.581 141.982 140.844  1.00  0.00     0.111 A 
ATOM      6  C   UNL     1     133.792 142.759 139.962  1.00  0.00     0.134 A 
ATOM      7  C   UNL     1     132.573 142.252 139.488  1.00  0.00     0.093 A 
ATOM      8  C   UNL     1     132.128 140.985 139.879  1.00  0.00     0.123 A 
ATOM      9  C   UNL     1     132.902 140.214 140.748  1.00  0.00     0.094 A 
ATOM     10  C   UNL     1     134.120 140.700 141.231  1.00  0.00     0.146 A 
ATOM     11  O   UNL     1     134.840 139.943 142.051  1.00  0.00    -0.452 OA
ENDROOT
BRANCH   1  12
ATOM     12  C   UNL     1     136.720 139.379 143.452  1.00  0.00     0.025 A 
ATOM     13  C   UNL     1     137.286 138.211 142.918  1.00  0.00     0.016 A 
ATOM     14  C   UNL     1     137.978 137.318 143.741  1.00  0.00     0.051 A 
ATOM     15  C   UNL     1     138.130 137.587 145.104  1.00  0.00     0.157 A 
ATOM     16  C   UNL     1     136.892 139.658 144.820  1.00  0.00     0.062 A 
ATOM     17  C   UNL     1     137.589 138.765 145.647  1.00  0.00     0.158 A 
BRANCH  15  18
ATOM     18  O   UNL     1     138.824 136.677 145.901  1.00  0.00    -0.504 OA
ATOM     19  H   UNL     1     139.206 136.934 146.804  1.00  0.00     0.293 HD
ENDBRANCH  15  18
BRANCH  17  20
ATOM     20  O   UNL     1     137.749 139.045 147.003  1.00  0.00    -0.504 OA
ATOM     21  H   UNL     1     138.513 139.620 147.340  1.00  0.00     0.293 HD
ENDBRANCH  17  20
ENDBRANCH   1  12
BRANCH   2  22
ATOM     22  O   UNL     1     137.729 142.024 142.817  1.00  0.00    -0.502 OA
ATOM     23  H   UNL     1     138.322 142.718 142.378  1.00  0.00     0.293 HD
ENDBRANCH   2  22
BRANCH   6  24
ATOM     24  O   UNL     1     134.209 144.027 139.555  1.00  0.00    -0.507 OA
ATOM     25  H   UNL     1     133.556 144.795 139.450  1.00  0.00     0.293 HD
ENDBRANCH   6  24
BRANCH   8  26
ATOM     26  O   UNL     1     130.917 140.482 139.410  1.00  0.00    -0.508 OA
ATOM     27  H   UNL     1     130.612 140.638 138.456  1.00  0.00     0.293 HD
ENDBRANCH   8  26
TORSDOF 6
ENDMDL
MODEL 6
REMARK VINA RESULT:    -6.319      9.160     13.289
REMARK INTER + INTRA:          -7.892
REMARK INTER:                  -8.037
REMARK INTRA:                   0.144
REMARK UNBOUND:                -0.280
REMARK SMILES O=c1c(O)c(-c2ccc(O)c(O)c2)oc2cc(O)cc(O)c12
REMARK SMILES IDX 5 1 3 2 2 3 1 4 22 5 20 6 19 7 17 8 16 9 15 10 14 11 6 12
REMARK SMILES IDX 7 13 8 14 9 15 13 16 11 17 10 18 12 20 4 22 21 24 18 26
REMARK H PARENT 10 19 12 21 4 23 21 25 18 27
REMARK Flexibility Score: inf
ROOT
ATOM      1  C   UNL     1     138.062 133.379 149.525  1.00  0.00     0.180 A 
ATOM      2  C   UNL     1     137.849 132.857 150.816  1.00  0.00     0.208 A 
ATOM      3  C   UNL     1     138.883 132.139 151.436  1.00  0.00     0.238 A 
ATOM      4  O   UNL     1     138.699 131.658 152.587  1.00  0.00    -0.285 OA
ATOM      5  C   UNL     1     140.113 131.972 150.769  1.00  0.00     0.111 A 
ATOM      6  C   UNL     1     141.207 131.265 151.325  1.00  0.00     0.134 A 
ATOM      7  C   UNL     1     142.402 131.150 150.600  1.00  0.00     0.093 A 
ATOM      8  C   UNL     1     142.525 131.729 149.332  1.00  0.00     0.123 A 
ATOM      9  C   UNL     1     141.450 132.426 148.779  1.00  0.00     0.094 A 
ATOM     10  C   UNL     1     140.249 132.551 149.484  1.00  0.00     0.146 A 
ATOM     11  O   UNL     1     139.240 133.214 148.932  1.00  0.00    -0.452 OA
ENDROOT
BRANCH   1  12
ATOM     12  C   UNL     1     137.014 134.131 148.799  1.00  0.00     0.025 A 
ATOM     13  C   UNL     1     137.383 135.196 147.962  1.00  0.00     0.016 A 
ATOM     14  C   UNL     1     136.413 135.907 147.251  1.00  0.00     0.051 A 
ATOM     15  C   UNL     1     135.064 135.556 147.350  1.00  0.00     0.157 A 
ATOM     16  C   UNL     1     135.658 133.765 148.881  1.00  0.00     0.062 A 
ATOM     17  C   UNL     1     134.684 134.476 148.165  1.00  0.00     0.158 A 
BRANCH  15  18
ATOM     18  O   UNL     1     134.118 136.284 146.629  1.00  0.00    -0.504 OA
ATOM     19  H   UNL     1     134.357 137.135 146.133  1.00  0.00     0.293 HD
ENDBRANCH  15  18
BRANCH  17  20
ATOM     20  O   UNL     1     133.342 134.111 148.257  1.00  0.00    -0.504 OA
ATOM     21  H   UNL     1     133.009 133.218 147.913  1.00  0.00     0.293 HD
ENDBRANCH  17  20
ENDBRANCH   1  12
BRANCH   2  22
ATOM     22  O   UNL     1     136.638 133.080 151.476  1.00  0.00    -0.502 OA
ATOM     23  H   UNL     1     136.248 132.414 152.132  1.00  0.00     0.293 HD
ENDBRANCH   2  22
BRANCH   6  24
ATOM     24  O   UNL     1     141.115 130.679 152.588  1.00  0.00    -0.507 OA
ATOM     25  H   UNL     1     140.289 130.169 152.880  1.00  0.00     0.293 HD
ENDBRANCH   6  24
BRANCH   8  26
ATOM     26  O   UNL     1     143.712 131.616 148.613  1.00  0.00    -0.508 OA
ATOM     27  H   UNL     1     143.828 130.919 147.886  1.00  0.00     0.293 HD
ENDBRANCH   8  26
TORSDOF 6
ENDMDL
MODEL 7
REMARK VINA RESULT:    -6.238     13.785     15.239
REMARK INTER + INTRA:          -7.795
REMARK INTER:                  -7.607
REMARK INTRA:                  -0.188
REMARK UNBOUND:                -0.280
REMARK SMILES O=c1c(O)c(-c2ccc(O)c(O)c2)oc2cc(O)cc(O)c12
REMARK SMILES IDX 5 1 3 2 2 3 1 4 22 5 20 6 19 7 17 8 16 9 15 10 14 11 6 12
REMARK SMILES IDX 7 13 8 14 9 15 13 16 11 17 10 18 12 20 4 22 21 24 18 26
REMARK H PARENT 10 19 12 21 4 23 21 25 18 27
REMARK Flexibility Score: inf
ROOT
ATOM      1  C   UNL     1     141.951 132.096 148.150  1.00  0.00     0.180 A 
ATOM      2  C   UNL     1     142.808 131.521 149.110  1.00  0.00     0.208 A 
ATOM      3  C   UNL     1     142.306 131.254 150.392  1.00  0.00     0.238 A 
ATOM      4  O   UNL     1     143.068 130.750 151.263  1.00  0.00    -0.285 OA
ATOM      5  C   UNL     1     140.959 131.543 150.689  1.00  0.00     0.111 A 
ATOM      6  C   UNL     1     140.375 131.301 151.956  1.00  0.00     0.134 A 
ATOM      7  C   UNL     1     139.024 131.609 152.170  1.00  0.00     0.093 A 
ATOM      8  C   UNL     1     138.245 132.154 151.142  1.00  0.00     0.123 A 
ATOM      9  C   UNL     1     138.817 132.396 149.892  1.00  0.00     0.094 A 
ATOM     10  C   UNL     1     140.163 132.097 149.659  1.00  0.00     0.146 A 
ATOM     11  O   UNL     1     140.682 132.343 148.461  1.00  0.00    -0.452 OA
ENDROOT
BRANCH   1  12
ATOM     12  C   UNL     1     142.411 132.425 146.782  1.00  0.00     0.025 A 
ATOM     13  C   UNL     1     143.370 133.434 146.600  1.00  0.00     0.016 A 
ATOM     14  C   UNL     1     143.834 133.747 145.320  1.00  0.00     0.051 A 
ATOM     15  C   UNL     1     143.362 133.048 144.206  1.00  0.00     0.157 A 
ATOM     16  C   UNL     1     141.953 131.708 145.662  1.00  0.00     0.062 A 
ATOM     17  C   UNL     1     142.421 132.019 144.377  1.00  0.00     0.158 A 
BRANCH  15  18
ATOM     18  O   UNL     1     143.843 133.384 142.941  1.00  0.00    -0.504 OA
ATOM     19  H   UNL     1     143.732 134.313 142.552  1.00  0.00     0.293 HD
ENDBRANCH  15  18
BRANCH  17  20
ATOM     20  O   UNL     1     141.956 131.308 143.272  1.00  0.00    -0.504 OA
ATOM     21  H   UNL     1     142.540 131.150 142.458  1.00  0.00     0.293 HD
ENDBRANCH  17  20
ENDBRANCH   1  12
BRANCH   2  22
ATOM     22  O   UNL     1     144.125 131.197 148.775  1.00  0.00    -0.502 OA
ATOM     23  H   UNL     1     144.921 131.587 149.266  1.00  0.00     0.293 HD
ENDBRANCH   2  22
BRANCH   6  24
ATOM     24  O   UNL     1     141.125 130.757 153.000  1.00  0.00    -0.507 OA
ATOM     25  H   UNL     1     140.793 129.964 153.538  1.00  0.00     0.293 HD
ENDBRANCH   6  24
BRANCH   8  26
ATOM     26  O   UNL     1     136.903 132.459 151.353  1.00  0.00    -0.508 OA
ATOM     27  H   UNL     1     136.409 133.116 150.761  1.00  0.00     0.293 HD
ENDBRANCH   8  26
TORSDOF 6
ENDMDL
MODEL 8
REMARK VINA RESULT:    -6.077      7.151     11.141
REMARK INTER + INTRA:          -7.600
REMARK INTER:                  -7.279
REMARK INTRA:                  -0.321
REMARK UNBOUND:                -0.280
REMARK SMILES O=c1c(O)c(-c2ccc(O)c(O)c2)oc2cc(O)cc(O)c12
REMARK SMILES IDX 5 1 3 2 2 3 1 4 22 5 20 6 19 7 17 8 16 9 15 10 14 11 6 12
REMARK SMILES IDX 7 13 8 14 9 15 13 16 11 17 10 18 12 20 4 22 21 24 18 26
REMARK H PARENT 10 19 12 21 4 23 21 25 18 27
REMARK Flexibility Score: inf
ROOT
ATOM      1  C   UNL     1     137.297 134.744 147.265  1.00  0.00     0.180 A 
ATOM      2  C   UNL     1     137.013 133.596 146.500  1.00  0.00     0.208 A 
ATOM      3  C   UNL     1     137.017 132.343 147.132  1.00  0.00     0.238 A 
ATOM      4  O   UNL     1     136.776 131.306 146.455  1.00  0.00    -0.285 OA
ATOM      5  C   UNL     1     137.283 132.259 148.514  1.00  0.00     0.111 A 
ATOM      6  C   UNL     1     137.302 131.036 149.227  1.00  0.00     0.134 A 
ATOM      7  C   UNL     1     137.566 131.037 150.604  1.00  0.00     0.093 A 
ATOM      8  C   UNL     1     137.811 132.237 151.282  1.00  0.00     0.123 A 
ATOM      9  C   UNL     1     137.793 133.445 150.583  1.00  0.00     0.094 A 
ATOM     10  C   UNL     1     137.533 133.465 149.210  1.00  0.00     0.146 A 
ATOM     11  O   UNL     1     137.529 134.629 148.569  1.00  0.00    -0.452 OA
ENDROOT
BRANCH   1  12
ATOM     12  C   UNL     1     137.330 136.098 146.667  1.00  0.00     0.025 A 
ATOM     13  C   UNL     1     138.508 136.553 146.055  1.00  0.00     0.016 A 
ATOM     14  C   UNL     1     138.557 137.820 145.466  1.00  0.00     0.051 A 
ATOM     15  C   UNL     1     137.427 138.642 145.465  1.00  0.00     0.157 A 
ATOM     16  C   UNL     1     136.188 136.919 146.647  1.00  0.00     0.062 A 
ATOM     17  C   UNL     1     136.234 138.189 146.053  1.00  0.00     0.158 A 
BRANCH  15  18
ATOM     18  O   UNL     1     137.506 139.902 144.870  1.00  0.00    -0.504 OA
ATOM     19  H   UNL     1     137.057 140.716 145.273  1.00  0.00     0.293 HD
ENDBRANCH  15  18
BRANCH  17  20
ATOM     20  O   UNL     1     135.100 138.999 146.043  1.00  0.00    -0.504 OA
ATOM     21  H   UNL     1     134.439 138.978 145.274  1.00  0.00     0.293 HD
ENDBRANCH  17  20
ENDBRANCH   1  12
BRANCH   2  22
ATOM     22  O   UNL     1     136.704 133.711 145.143  1.00  0.00    -0.502 OA
ATOM     23  H   UNL     1     136.852 134.569 144.624  1.00  0.00     0.293 HD
ENDBRANCH   2  22
BRANCH   6  24
ATOM     24  O   UNL     1     137.061 129.823 148.579  1.00  0.00    -0.507 OA
ATOM     25  H   UNL     1     136.234 129.271 148.772  1.00  0.00     0.293 HD
ENDBRANCH   6  24
BRANCH   8  26
ATOM     26  O   UNL     1     138.072 132.239 152.650  1.00  0.00    -0.508 OA
ATOM     27  H   UNL     1     137.332 132.114 153.331  1.00  0.00     0.293 HD
ENDBRANCH   8  26
TORSDOF 6
ENDMDL
MODEL 9
REMARK VINA RESULT:    -6.011      9.184     12.618
REMARK INTER + INTRA:          -7.521
REMARK INTER:                  -7.705
REMARK INTRA:                   0.184
REMARK UNBOUND:                -0.280
REMARK SMILES O=c1c(O)c(-c2ccc(O)c(O)c2)oc2cc(O)cc(O)c12
REMARK SMILES IDX 5 1 3 2 2 3 1 4 22 5 20 6 19 7 17 8 16 9 15 10 14 11 6 12
REMARK SMILES IDX 7 13 8 14 9 15 13 16 11 17 10 18 12 20 4 22 21 24 18 26
REMARK H PARENT 10 19 12 21 4 23 21 25 18 27
REMARK Flexibility Score: inf
ROOT
ATOM      1  C   UNL     1     138.708 133.680 148.352  1.00  0.00     0.180 A 
ATOM      2  C   UNL     1     139.762 133.703 147.417  1.00  0.00     0.208 A 
ATOM      3  C   UNL     1     140.978 133.087 147.751  1.00  0.00     0.238 A 
ATOM      4  O   UNL     1     141.932 133.112 146.926  1.00  0.00    -0.285 OA
ATOM      5  C   UNL     1     141.115 132.444 148.998  1.00  0.00     0.111 A 
ATOM      6  C   UNL     1     142.305 131.797 149.409  1.00  0.00     0.134 A 
ATOM      7  C   UNL     1     142.359 131.172 150.664  1.00  0.00     0.093 A 
ATOM      8  C   UNL     1     141.247 131.180 151.513  1.00  0.00     0.123 A 
ATOM      9  C   UNL     1     140.071 131.818 151.112  1.00  0.00     0.094 A 
ATOM     10  C   UNL     1     139.997 132.448 149.866  1.00  0.00     0.146 A 
ATOM     11  O   UNL     1     138.869 133.052 149.513  1.00  0.00    -0.452 OA
ENDROOT
BRANCH   1  12
ATOM     12  C   UNL     1     137.403 134.323 148.081  1.00  0.00     0.025 A 
ATOM     13  C   UNL     1     137.366 135.549 147.398  1.00  0.00     0.016 A 
ATOM     14  C   UNL     1     136.145 136.165 147.113  1.00  0.00     0.051 A 
ATOM     15  C   UNL     1     134.943 135.559 147.489  1.00  0.00     0.157 A 
ATOM     16  C   UNL     1     136.192 133.704 148.440  1.00  0.00     0.062 A 
ATOM     17  C   UNL     1     134.965 134.319 148.151  1.00  0.00     0.158 A 
BRANCH  15  18
ATOM     18  O   UNL     1     133.739 136.197 147.192  1.00  0.00    -0.504 OA
ATOM     19  H   UNL     1     133.504 137.107 147.572  1.00  0.00     0.293 HD
ENDBRANCH  15  18
BRANCH  17  20
ATOM     20  O   UNL     1     133.769 133.703 148.517  1.00  0.00    -0.504 OA
ATOM     21  H   UNL     1     133.100 134.160 149.126  1.00  0.00     0.293 HD
ENDBRANCH  17  20
ENDBRANCH   1  12
BRANCH   2  22
ATOM     22  O   UNL     1     139.584 134.304 146.168  1.00  0.00    -0.502 OA
ATOM     23  H   UNL     1     138.668 134.541 145.807  1.00  0.00     0.293 HD
ENDBRANCH   2  22
BRANCH   6  24
ATOM     24  O   UNL     1     143.430 131.771 148.584  1.00  0.00    -0.507 OA
ATOM     25  H   UNL     1     144.191 132.431 148.699  1.00  0.00     0.293 HD
ENDBRANCH   6  24
BRANCH   8  26
ATOM     26  O   UNL     1     141.299 130.559 152.758  1.00  0.00    -0.508 OA
ATOM     27  H   UNL     1     140.570 130.692 153.449  1.00  0.00     0.293 HD
ENDBRANCH   8  26
TORSDOF 6
ENDMDL
