MODEL 1
REMARK VINA RESULT:    -5.914      0.000      0.000
REMARK INTER + INTRA:          -5.914
REMARK INTER:                  -5.914
REMARK INTRA:                   0.000
REMARK UNBOUND:                 0.000
REMARK SMILES CC(C)=C1CC[C@H](C)CC1=O
REMARK SMILES IDX 8 1 7 2 6 3 5 4 4 5 2 6 1 7 3 8 10 9 11 10 9 11
REMARK H PARENT
REMARK Flexibility Score: inf
ROOT
ATOM      1  C   UNL     1      -0.294  12.857  31.738  1.00  0.00     0.008 C 
ATOM      2  C   UNL     1       0.946  12.696  30.852  1.00  0.00    -0.006 C 
ATOM      3  C   UNL     1       0.671  13.221  29.434  1.00  0.00     0.008 C 
ATOM      4  C   UNL     1       1.867  12.975  28.505  1.00  0.00     0.039 C 
ATOM      5  C   UNL     1       3.173  13.506  29.082  1.00  0.00    -0.006 C 
ATOM      6  C   UNL     1       4.166  13.979  28.272  1.00  0.00    -0.070 C 
ATOM      7  C   UNL     1       5.442  14.560  28.835  1.00  0.00     0.039 C 
ATOM      8  C   UNL     1       4.017  13.979  26.768  1.00  0.00     0.039 C 
ATOM      9  C   UNL     1       3.341  13.368  30.560  1.00  0.00     0.159 C 
ATOM     10  O   UNL     1       4.477  13.187  31.075  1.00  0.00    -0.295 OA
ATOM     11  C   UNL     1       2.144  13.439  31.463  1.00  0.00     0.084 C 
ENDROOT
TORSDOF 0
ENDMDL
MODEL 2
REMARK VINA RESULT:    -5.834      1.560      4.669
REMARK INTER + INTRA:          -5.834
REMARK INTER:                  -5.834
REMARK INTRA:                   0.000
REMARK UNBOUND:                 0.000
REMARK SMILES CC(C)=C1CC[C@H](C)CC1=O
REMARK SMILES IDX 8 1 7 2 6 3 5 4 4 5 2 6 1 7 3 8 10 9 11 10 9 11
REMARK H PARENT
REMARK Flexibility Score: inf
ROOT
ATOM      1  C   UNL     1       6.785  15.197  28.315  1.00  0.00     0.008 C 
ATOM      2  C   UNL     1       5.650  14.289  28.800  1.00  0.00    -0.006 C 
ATOM      3  C   UNL     1       5.186  14.704  30.205  1.00  0.00     0.008 C 
ATOM      4  C   UNL     1       4.121  13.744  30.748  1.00  0.00     0.039 C 
ATOM      5  C   UNL     1       2.959  13.553  29.781  1.00  0.00    -0.006 C 
ATOM      6  C   UNL     1       1.692  13.315  30.232  1.00  0.00    -0.070 C 
ATOM      7  C   UNL     1       0.523  13.179  29.285  1.00  0.00     0.039 C 
ATOM      8  C   UNL     1       1.392  13.214  31.710  1.00  0.00     0.039 C 
ATOM      9  C   UNL     1       3.312  13.524  28.330  1.00  0.00     0.159 C 
ATOM     10  O   UNL     1       2.659  12.822  27.511  1.00  0.00    -0.295 OA
ATOM     11  C   UNL     1       4.467  14.336  27.821  1.00  0.00     0.084 C 
ENDROOT
TORSDOF 0
ENDMDL
MODEL 3
REMARK VINA RESULT:    -5.746      2.233      3.344
REMARK INTER + INTRA:          -5.746
REMARK INTER:                  -5.746
REMARK INTRA:                   0.000
REMARK UNBOUND:                 0.000
REMARK SMILES CC(C)=C1CC[C@H](C)CC1=O
REMARK SMILES IDX 8 1 7 2 6 3 5 4 4 5 2 6 1 7 3 8 10 9 11 10 9 11
REMARK H PARENT
REMARK Flexibility Score: inf
ROOT
ATOM      1  C   UNL     1       2.315  10.196  30.311  1.00  0.00     0.008 C 
ATOM      2  C   UNL     1       2.729  11.668  30.406  1.00  0.00    -0.006 C 
ATOM      3  C   UNL     1       3.337  11.972  31.784  1.00  0.00     0.008 C 
ATOM      4  C   UNL     1       3.663  13.464  31.934  1.00  0.00     0.039 C 
ATOM      5  C   UNL     1       4.516  13.993  30.788  1.00  0.00    -0.006 C 
ATOM      6  C   UNL     1       5.420  14.998  30.982  1.00  0.00    -0.070 C 
ATOM      7  C   UNL     1       6.311  15.494  29.867  1.00  0.00     0.039 C 
ATOM      8  C   UNL     1       5.599  15.640  32.339  1.00  0.00     0.039 C 
ATOM      9  C   UNL     1       4.219  13.432  29.436  1.00  0.00     0.159 C 
ATOM     10  O   UNL     1       4.363  14.125  28.393  1.00  0.00    -0.295 OA
ATOM     11  C   UNL     1       3.735  12.017  29.299  1.00  0.00     0.084 C 
ENDROOT
TORSDOF 0
ENDMDL
MODEL 4
REMARK VINA RESULT:    -5.725      1.662      2.559
REMARK INTER + INTRA:          -5.725
REMARK INTER:                  -5.725
REMARK INTRA:                   0.000
REMARK UNBOUND:                 0.000
REMARK SMILES CC(C)=C1CC[C@H](C)CC1=O
REMARK SMILES IDX 8 1 7 2 6 3 5 4 4 5 2 6 1 7 3 8 10 9 11 10 9 11
REMARK H PARENT
REMARK Flexibility Score: inf
ROOT
ATOM      1  C   UNL     1       1.544  11.769  32.127  1.00  0.00     0.008 C 
ATOM      2  C   UNL     1       2.213  12.848  31.269  1.00  0.00    -0.006 C 
ATOM      3  C   UNL     1       3.740  12.805  31.436  1.00  0.00     0.008 C 
ATOM      4  C   UNL     1       4.419  13.944  30.664  1.00  0.00     0.039 C 
ATOM      5  C   UNL     1       3.992  13.994  29.203  1.00  0.00    -0.006 C 
ATOM      6  C   UNL     1       4.846  14.425  28.228  1.00  0.00    -0.070 C 
ATOM      7  C   UNL     1       4.453  14.428  26.769  1.00  0.00     0.039 C 
ATOM      8  C   UNL     1       6.246  14.887  28.561  1.00  0.00     0.039 C 
ATOM      9  C   UNL     1       2.562  13.660  28.926  1.00  0.00     0.159 C 
ATOM     10  O   UNL     1       1.936  14.201  27.975  1.00  0.00    -0.295 OA
ATOM     11  C   UNL     1       1.841  12.667  29.789  1.00  0.00     0.084 C 
ENDROOT
TORSDOF 0
ENDMDL
MODEL 5
REMARK VINA RESULT:    -5.619      1.986      4.525
REMARK INTER + INTRA:          -5.619
REMARK INTER:                  -5.619
REMARK INTRA:                   0.000
REMARK UNBOUND:                 0.000
REMARK SMILES CC(C)=C1CC[C@H](C)CC1=O
REMARK SMILES IDX 8 1 7 2 6 3 5 4 4 5 2 6 1 7 3 8 10 9 11 10 9 11
REMARK H PARENT
REMARK Flexibility Score: inf
ROOT
ATOM      1  C   UNL     1       4.492  14.392  26.815  1.00  0.00     0.008 C 
ATOM      2  C   UNL     1       3.675  13.390  27.636  1.00  0.00    -0.006 C 
ATOM      3  C   UNL     1       4.544  12.746  28.728  1.00  0.00     0.008 C 
ATOM      4  C   UNL     1       3.770  11.666  29.494  1.00  0.00     0.039 C 
ATOM      5  C   UNL     1       2.438  12.172  30.030  1.00  0.00    -0.006 C 
ATOM      6  C   UNL     1       1.910  11.686  31.193  1.00  0.00    -0.070 C 
ATOM      7  C   UNL     1       0.617  12.220  31.764  1.00  0.00     0.039 C 
ATOM      8  C   UNL     1       2.619  10.613  31.987  1.00  0.00     0.039 C 
ATOM      9  C   UNL     1       1.700  13.131  29.154  1.00  0.00     0.159 C 
ATOM     10  O   UNL     1       0.440  13.163  29.134  1.00  0.00    -0.295 OA
ATOM     11  C   UNL     1       2.458  14.080  28.272  1.00  0.00     0.084 C 
ENDROOT
TORSDOF 0
ENDMDL
MODEL 6
REMARK VINA RESULT:    -5.590      2.244      3.493
REMARK INTER + INTRA:          -5.590
REMARK INTER:                  -5.590
REMARK INTRA:                   0.000
REMARK UNBOUND:                 0.000
REMARK SMILES CC(C)=C1CC[C@H](C)CC1=O
REMARK SMILES IDX 8 1 7 2 6 3 5 4 4 5 2 6 1 7 3 8 10 9 11 10 9 11
REMARK H PARENT
REMARK Flexibility Score: inf
ROOT
ATOM      1  C   UNL     1       5.309  15.256  32.978  1.00  0.00     0.008 C 
ATOM      2  C   UNL     1       5.234  14.431  31.689  1.00  0.00    -0.006 C 
ATOM      3  C   UNL     1       3.837  13.813  31.522  1.00  0.00     0.008 C 
ATOM      4  C   UNL     1       3.773  12.900  30.290  1.00  0.00     0.039 C 
ATOM      5  C   UNL     1       4.262  13.593  29.025  1.00  0.00    -0.006 C 
ATOM      6  C   UNL     1       3.742  13.284  27.801  1.00  0.00    -0.070 C 
ATOM      7  C   UNL     1       4.178  14.003  26.546  1.00  0.00     0.039 C 
ATOM      8  C   UNL     1       2.671  12.228  27.648  1.00  0.00     0.039 C 
ATOM      9  C   UNL     1       5.411  14.532  29.193  1.00  0.00     0.159 C 
ATOM     10  O   UNL     1       6.265  14.692  28.280  1.00  0.00    -0.295 OA
ATOM     11  C   UNL     1       5.571  15.304  30.471  1.00  0.00     0.084 C 
ENDROOT
TORSDOF 0
ENDMDL
MODEL 7
REMARK VINA RESULT:    -5.537      2.333      3.542
REMARK INTER + INTRA:          -5.537
REMARK INTER:                  -5.537
REMARK INTRA:                   0.000
REMARK UNBOUND:                 0.000
REMARK SMILES CC(C)=C1CC[C@H](C)CC1=O
REMARK SMILES IDX 8 1 7 2 6 3 5 4 4 5 2 6 1 7 3 8 10 9 11 10 9 11
REMARK H PARENT
REMARK Flexibility Score: inf
ROOT
ATOM      1  C   UNL     1       5.215  15.096  32.826  1.00  0.00     0.008 C 
ATOM      2  C   UNL     1       4.303  14.318  31.870  1.00  0.00    -0.006 C 
ATOM      3  C   UNL     1       4.843  14.383  30.433  1.00  0.00     0.008 C 
ATOM      4  C   UNL     1       3.890  13.696  29.446  1.00  0.00     0.039 C 
ATOM      5  C   UNL     1       3.530  12.279  29.872  1.00  0.00    -0.006 C 
ATOM      6  C   UNL     1       3.272  11.305  28.951  1.00  0.00    -0.070 C 
ATOM      7  C   UNL     1       2.969   9.882  29.360  1.00  0.00     0.039 C 
ATOM      8  C   UNL     1       3.317  11.597  27.469  1.00  0.00     0.039 C 
ATOM      9  C   UNL     1       3.362  12.059  31.340  1.00  0.00     0.159 C 
ATOM     10  O   UNL     1       2.540  11.213  31.786  1.00  0.00    -0.295 OA
ATOM     11  C   UNL     1       4.177  12.854  32.318  1.00  0.00     0.084 C 
ENDROOT
TORSDOF 0
ENDMDL
MODEL 8
REMARK VINA RESULT:    -5.534      2.213      3.774
REMARK INTER + INTRA:          -5.534
REMARK INTER:                  -5.534
REMARK INTRA:                   0.000
REMARK UNBOUND:                 0.000
REMARK SMILES CC(C)=C1CC[C@H](C)CC1=O
REMARK SMILES IDX 8 1 7 2 6 3 5 4 4 5 2 6 1 7 3 8 10 9 11 10 9 11
REMARK H PARENT
REMARK Flexibility Score: inf
ROOT
ATOM      1  C   UNL     1       2.998  11.739  26.212  1.00  0.00     0.008 C 
ATOM      2  C   UNL     1       3.812  12.089  27.462  1.00  0.00    -0.006 C 
ATOM      3  C   UNL     1       4.266  13.557  27.420  1.00  0.00     0.008 C 
ATOM      4  C   UNL     1       5.167  13.898  28.613  1.00  0.00     0.039 C 
ATOM      5  C   UNL     1       4.538  13.519  29.947  1.00  0.00    -0.006 C 
ATOM      6  C   UNL     1       4.788  14.239  31.080  1.00  0.00    -0.070 C 
ATOM      7  C   UNL     1       4.126  13.907  32.397  1.00  0.00     0.039 C 
ATOM      8  C   UNL     1       5.714  15.433  31.061  1.00  0.00     0.039 C 
ATOM      9  C   UNL     1       3.737  12.258  29.960  1.00  0.00     0.159 C 
ATOM     10  O   UNL     1       3.678  11.530  30.987  1.00  0.00    -0.295 OA
ATOM     11  C   UNL     1       2.986  11.831  28.732  1.00  0.00     0.084 C 
ENDROOT
TORSDOF 0
ENDMDL
MODEL 9
REMARK VINA RESULT:    -5.261      1.940      2.561
REMARK INTER + INTRA:          -5.261
REMARK INTER:                  -5.261
REMARK INTRA:                   0.000
REMARK UNBOUND:                 0.000
REMARK SMILES CC(C)=C1CC[C@H](C)CC1=O
REMARK SMILES IDX 8 1 7 2 6 3 5 4 4 5 2 6 1 7 3 8 10 9 11 10 9 11
REMARK H PARENT
REMARK Flexibility Score: inf
ROOT
ATOM      1  C   UNL     1      -0.872  12.838  32.169  1.00  0.00     0.008 C 
ATOM      2  C   UNL     1       0.474  12.999  31.455  1.00  0.00    -0.006 C 
ATOM      3  C   UNL     1       1.300  11.706  31.557  1.00  0.00     0.008 C 
ATOM      4  C   UNL     1       2.692  11.882  30.936  1.00  0.00     0.039 C 
ATOM      5  C   UNL     1       2.632  12.428  29.515  1.00  0.00    -0.006 C 
ATOM      6  C   UNL     1       3.570  12.085  28.583  1.00  0.00    -0.070 C 
ATOM      7  C   UNL     1       3.490  12.575  27.156  1.00  0.00     0.039 C 
ATOM      8  C   UNL     1       4.716  11.163  28.928  1.00  0.00     0.039 C 
ATOM      9  C   UNL     1       1.567  13.440  29.245  1.00  0.00     0.159 C 
ATOM     10  O   UNL     1       1.741  14.366  28.408  1.00  0.00    -0.295 OA
ATOM     11  C   UNL     1       0.259  13.370  29.979  1.00  0.00     0.084 C 
ENDROOT
TORSDOF 0
ENDMDL
