MODEL 1
REMARK VINA RESULT:    -3.359      0.000      0.000
REMARK INTER + INTRA:          -4.036
REMARK INTER:                  -3.948
REMARK INTRA:                  -0.089
REMARK UNBOUND:                -0.089
REMARK SMILES O=C([O-])CCC(=O)[O-]
REMARK SMILES IDX 4 1 2 2 1 3 3 4 5 5 6 6 7 7 8 8
REMARK H PARENT
REMARK Flexibility Score: inf
ROOT
ATOM      1  C   UNL     1      16.379  -8.668 -27.973  1.00  0.00     0.059 C 
ENDROOT
BRANCH   1   2
ATOM      2  C   UNL     1      16.580  -9.712 -26.921  1.00  0.00     0.042 C 
ATOM      3  O   UNL     1      16.149 -10.882 -27.098  1.00  0.00    -0.550 OA
ATOM      4  O   UNL     1      17.287  -9.407 -25.764  1.00  0.00    -0.550 OA
ENDBRANCH   1   2
BRANCH   1   5
ATOM      5  C   UNL     1      15.368  -9.146 -29.015  1.00  0.00     0.059 C 
BRANCH   5   6
ATOM      6  C   UNL     1      13.991  -8.680 -28.661  1.00  0.00     0.042 C 
ATOM      7  O   UNL     1      13.542  -7.606 -29.142  1.00  0.00    -0.550 OA
ATOM      8  O   UNL     1      13.221  -9.406 -27.761  1.00  0.00    -0.550 OA
ENDBRANCH   5   6
ENDBRANCH   1   5
TORSDOF 3
ENDMDL
MODEL 2
REMARK VINA RESULT:    -3.291      1.506      3.784
REMARK INTER + INTRA:          -3.957
REMARK INTER:                  -3.913
REMARK INTRA:                  -0.044
REMARK UNBOUND:                -0.089
REMARK SMILES O=C([O-])CCC(=O)[O-]
REMARK SMILES IDX 4 1 2 2 1 3 3 4 5 5 6 6 7 7 8 8
REMARK H PARENT
REMARK Flexibility Score: inf
ROOT
ATOM      1  C   UNL     1      15.142  -8.873 -28.601  1.00  0.00     0.059 C 
ENDROOT
BRANCH   1   2
ATOM      2  C   UNL     1      15.317  -8.551 -30.051  1.00  0.00     0.042 C 
ATOM      3  O   UNL     1      14.496  -8.985 -30.901  1.00  0.00    -0.550 OA
ATOM      4  O   UNL     1      16.360  -7.729 -30.459  1.00  0.00    -0.550 OA
ENDBRANCH   1   2
BRANCH   1   5
ATOM      5  C   UNL     1      16.485  -8.814 -27.873  1.00  0.00     0.059 C 
BRANCH   5   6
ATOM      6  C   UNL     1      16.527  -9.824 -26.770  1.00  0.00     0.042 C 
ATOM      7  O   UNL     1      17.207  -9.602 -25.733  1.00  0.00    -0.550 OA
ATOM      8  O   UNL     1      15.854 -11.032 -26.906  1.00  0.00    -0.550 OA
ENDBRANCH   5   6
ENDBRANCH   1   5
TORSDOF 3
ENDMDL
MODEL 3
REMARK VINA RESULT:    -3.290      0.755      3.557
REMARK INTER + INTRA:          -3.956
REMARK INTER:                  -3.856
REMARK INTRA:                  -0.100
REMARK UNBOUND:                -0.089
REMARK SMILES O=C([O-])CCC(=O)[O-]
REMARK SMILES IDX 4 1 2 2 1 3 3 4 5 5 6 6 7 7 8 8
REMARK H PARENT
REMARK Flexibility Score: inf
ROOT
ATOM      1  C   UNL     1      15.227  -7.885 -28.319  1.00  0.00     0.059 C 
ENDROOT
BRANCH   1   2
ATOM      2  C   UNL     1      14.011  -8.637 -28.757  1.00  0.00     0.042 C 
ATOM      3  O   UNL     1      13.672  -8.644 -29.970  1.00  0.00    -0.550 OA
ATOM      4  O   UNL     1      13.278  -9.373 -27.834  1.00  0.00    -0.550 OA
ENDBRANCH   1   2
BRANCH   1   5
ATOM      5  C   UNL     1      16.467  -8.775 -28.404  1.00  0.00     0.059 C 
BRANCH   5   6
ATOM      6  C   UNL     1      16.675  -9.508 -27.117  1.00  0.00     0.042 C 
ATOM      7  O   UNL     1      17.384  -9.003 -26.207  1.00  0.00    -0.550 OA
ATOM      8  O   UNL     1      16.126 -10.772 -26.939  1.00  0.00    -0.550 OA
ENDBRANCH   5   6
ENDBRANCH   1   5
TORSDOF 3
ENDMDL
MODEL 4
REMARK VINA RESULT:    -3.277      1.532      1.777
REMARK INTER + INTRA:          -3.940
REMARK INTER:                  -3.894
REMARK INTRA:                  -0.046
REMARK UNBOUND:                -0.089
REMARK SMILES O=C([O-])CCC(=O)[O-]
REMARK SMILES IDX 4 1 2 2 1 3 3 4 5 5 6 6 7 7 8 8
REMARK H PARENT
REMARK Flexibility Score: inf
ROOT
ATOM      1  C   UNL     1      16.529  -8.827 -28.003  1.00  0.00     0.059 C 
ENDROOT
BRANCH   1   2
ATOM      2  C   UNL     1      16.565  -9.769 -26.843  1.00  0.00     0.042 C 
ATOM      3  O   UNL     1      16.001 -10.893 -26.920  1.00  0.00    -0.550 OA
ATOM      4  O   UNL     1      17.263  -9.429 -25.691  1.00  0.00    -0.550 OA
ENDBRANCH   1   2
BRANCH   1   5
ATOM      5  C   UNL     1      15.153  -8.850 -28.669  1.00  0.00     0.059 C 
BRANCH   5   6
ATOM      6  C   UNL     1      15.274  -8.561 -30.132  1.00  0.00     0.042 C 
ATOM      7  O   UNL     1      16.187  -7.803 -30.555  1.00  0.00    -0.550 OA
ATOM      8  O   UNL     1      14.349  -9.088 -31.024  1.00  0.00    -0.550 OA
ENDBRANCH   5   6
ENDBRANCH   1   5
TORSDOF 3
ENDMDL
MODEL 5
REMARK VINA RESULT:    -3.157      1.064      1.846
REMARK INTER + INTRA:          -3.799
REMARK INTER:                  -3.752
REMARK INTRA:                  -0.047
REMARK UNBOUND:                -0.089
REMARK SMILES O=C([O-])CCC(=O)[O-]
REMARK SMILES IDX 4 1 2 2 1 3 3 4 5 5 6 6 7 7 8 8
REMARK H PARENT
REMARK Flexibility Score: inf
ROOT
ATOM      1  C   UNL     1      16.568  -8.775 -27.920  1.00  0.00     0.059 C 
ENDROOT
BRANCH   1   2
ATOM      2  C   UNL     1      16.587  -9.790 -26.821  1.00  0.00     0.042 C 
ATOM      3  O   UNL     1      17.195  -9.549 -25.745  1.00  0.00    -0.550 OA
ATOM      4  O   UNL     1      15.891 -10.983 -26.965  1.00  0.00    -0.550 OA
ENDBRANCH   1   2
BRANCH   1   5
ATOM      5  C   UNL     1      15.304  -8.924 -28.765  1.00  0.00     0.059 C 
BRANCH   5   6
ATOM      6  C   UNL     1      14.682  -7.588 -29.018  1.00  0.00     0.042 C 
ATOM      7  O   UNL     1      13.531  -7.509 -29.524  1.00  0.00    -0.550 OA
ATOM      8  O   UNL     1      15.393  -6.426 -28.743  1.00  0.00    -0.550 OA
ENDBRANCH   5   6
ENDBRANCH   1   5
TORSDOF 3
ENDMDL
MODEL 6
REMARK VINA RESULT:    -3.028     16.655     17.615
REMARK INTER + INTRA:          -3.647
REMARK INTER:                  -3.568
REMARK INTRA:                  -0.079
REMARK UNBOUND:                -0.089
REMARK SMILES O=C([O-])CCC(=O)[O-]
REMARK SMILES IDX 4 1 2 2 1 3 3 4 5 5 6 6 7 7 8 8
REMARK H PARENT
REMARK Flexibility Score: inf
ROOT
ATOM      1  C   UNL     1      26.967 -20.664 -35.116  1.00  0.00     0.059 C 
ENDROOT
BRANCH   1   2
ATOM      2  C   UNL     1      28.245 -20.904 -35.856  1.00  0.00     0.042 C 
ATOM      3  O   UNL     1      28.222 -21.352 -37.033  1.00  0.00    -0.550 OA
ATOM      4  O   UNL     1      29.461 -20.585 -35.265  1.00  0.00    -0.550 OA
ENDBRANCH   1   2
BRANCH   1   5
ATOM      5  C   UNL     1      26.185 -19.518 -35.756  1.00  0.00     0.059 C 
BRANCH   5   6
ATOM      6  C   UNL     1      26.044 -18.379 -34.796  1.00  0.00     0.042 C 
ATOM      7  O   UNL     1      26.545 -18.456 -33.643  1.00  0.00    -0.550 OA
ATOM      8  O   UNL     1      25.316 -17.252 -35.156  1.00  0.00    -0.550 OA
ENDBRANCH   5   6
ENDBRANCH   1   5
TORSDOF 3
ENDMDL
MODEL 7
REMARK VINA RESULT:    -2.988     16.676     17.856
REMARK INTER + INTRA:          -3.600
REMARK INTER:                  -3.519
REMARK INTRA:                  -0.081
REMARK UNBOUND:                -0.089
REMARK SMILES O=C([O-])CCC(=O)[O-]
REMARK SMILES IDX 4 1 2 2 1 3 3 4 5 5 6 6 7 7 8 8
REMARK H PARENT
REMARK Flexibility Score: inf
ROOT
ATOM      1  C   UNL     1      26.217 -19.514 -35.766  1.00  0.00     0.059 C 
ENDROOT
BRANCH   1   2
ATOM      2  C   UNL     1      26.060 -18.394 -34.787  1.00  0.00     0.042 C 
ATOM      3  O   UNL     1      26.567 -18.481 -33.637  1.00  0.00    -0.550 OA
ATOM      4  O   UNL     1      25.396 -17.232 -35.160  1.00  0.00    -0.550 OA
ENDBRANCH   1   2
BRANCH   1   5
ATOM      5  C   UNL     1      26.971 -20.681 -35.128  1.00  0.00     0.059 C 
BRANCH   5   6
ATOM      6  C   UNL     1      28.274 -20.907 -35.826  1.00  0.00     0.042 C 
ATOM      7  O   UNL     1      28.296 -21.409 -36.981  1.00  0.00    -0.550 OA
ATOM      8  O   UNL     1      29.469 -20.610 -35.183  1.00  0.00    -0.550 OA
ENDBRANCH   5   6
ENDBRANCH   1   5
TORSDOF 3
ENDMDL
MODEL 8
REMARK VINA RESULT:    -2.792     13.870     14.895
REMARK INTER + INTRA:          -3.370
REMARK INTER:                  -3.330
REMARK INTRA:                  -0.041
REMARK UNBOUND:                -0.089
REMARK SMILES O=C([O-])CCC(=O)[O-]
REMARK SMILES IDX 4 1 2 2 1 3 3 4 5 5 6 6 7 7 8 8
REMARK H PARENT
REMARK Flexibility Score: inf
ROOT
ATOM      1  C   UNL     1      29.219  -5.681 -31.030  1.00  0.00     0.059 C 
ENDROOT
BRANCH   1   2
ATOM      2  C   UNL     1      30.399  -6.520 -31.404  1.00  0.00     0.042 C 
ATOM      3  O   UNL     1      31.125  -6.194 -32.380  1.00  0.00    -0.550 OA
ATOM      4  O   UNL     1      30.728  -7.635 -30.644  1.00  0.00    -0.550 OA
ENDBRANCH   1   2
BRANCH   1   5
ATOM      5  C   UNL     1      28.947  -4.629 -32.106  1.00  0.00     0.059 C 
BRANCH   5   6
ATOM      6  C   UNL     1      27.658  -3.921 -31.832  1.00  0.00     0.042 C 
ATOM      7  O   UNL     1      27.070  -4.077 -30.729  1.00  0.00    -0.550 OA
ATOM      8  O   UNL     1      27.079  -3.126 -32.814  1.00  0.00    -0.550 OA
ENDBRANCH   5   6
ENDBRANCH   1   5
TORSDOF 3
ENDMDL
MODEL 9
REMARK VINA RESULT:    -2.770      1.837      2.780
REMARK INTER + INTRA:          -3.344
REMARK INTER:                  -3.160
REMARK INTRA:                  -0.184
REMARK UNBOUND:                -0.089
REMARK SMILES O=C([O-])CCC(=O)[O-]
REMARK SMILES IDX 4 1 2 2 1 3 3 4 5 5 6 6 7 7 8 8
REMARK H PARENT
REMARK Flexibility Score: inf
ROOT
ATOM      1  C   UNL     1      14.956  -8.690 -29.894  1.00  0.00     0.059 C 
ENDROOT
BRANCH   1   2
ATOM      2  C   UNL     1      14.809  -9.125 -28.471  1.00  0.00     0.042 C 
ATOM      3  O   UNL     1      13.664  -9.303 -27.977  1.00  0.00    -0.550 OA
ATOM      4  O   UNL     1      15.937  -9.383 -27.702  1.00  0.00    -0.550 OA
ENDBRANCH   1   2
BRANCH   1   5
ATOM      5  C   UNL     1      15.712  -7.364 -29.973  1.00  0.00     0.059 C 
BRANCH   5   6
ATOM      6  C   UNL     1      14.932  -6.276 -29.307  1.00  0.00     0.042 C 
ATOM      7  O   UNL     1      15.412  -5.669 -28.312  1.00  0.00    -0.550 OA
ATOM      8  O   UNL     1      13.653  -5.964 -29.751  1.00  0.00    -0.550 OA
ENDBRANCH   5   6
ENDBRANCH   1   5
TORSDOF 3
ENDMDL
