MODEL 1
REMARK VINA RESULT:    -6.656      0.000      0.000
REMARK INTER + INTRA:          -8.370
REMARK INTER:                  -8.018
REMARK INTRA:                  -0.352
REMARK UNBOUND:                -0.352
REMARK SMILES Oc1cc(O)c2cc(O)c(-c3ccc(O)c(O)c3)[o+]c2c1.[Cl-]
REMARK SMILES IDX 10 1 19 2 20 3 21 4 2 5 3 6 4 7 6 8 7 9 8 10 11 11 12 12
REMARK SMILES IDX 13 13 14 14 18 15 16 16 15 17 17 19 9 21 1 23 5 25
REMARK H PARENT 15 18 17 20 9 22 1 24 5 26
REMARK Flexibility Score: inf
ROOT
ATOM      1  C   UNL     1      22.805   0.605 103.013  1.00  0.00     0.402 A 
ATOM      2  O   UNL     1      23.776   0.035 103.721  1.00  0.00    -0.202 OA
ATOM      3  C   UNL     1      24.327  -1.130 103.397  1.00  0.00     0.368 A 
ATOM      4  C   UNL     1      25.344  -1.650 104.203  1.00  0.00     0.162 A 
ATOM      5  C   UNL     1      25.943  -2.871 103.882  1.00  0.00     0.128 A 
ATOM      6  C   UNL     1      25.524  -3.576 102.752  1.00  0.00     0.093 A 
ATOM      7  C   UNL     1      24.507  -3.078 101.929  1.00  0.00     0.136 A 
ATOM      8  C   UNL     1      23.893  -1.839 102.250  1.00  0.00     0.125 A 
ATOM      9  C   UNL     1      22.859  -1.270 101.490  1.00  0.00     0.078 A 
ATOM     10  C   UNL     1      22.300  -0.047 101.874  1.00  0.00     0.223 A 
ENDROOT
BRANCH   1  11
ATOM     11  C   UNL     1      22.279   1.911 103.472  1.00  0.00     0.087 A 
ATOM     12  C   UNL     1      22.788   3.124 102.972  1.00  0.00     0.022 A 
ATOM     13  C   UNL     1      22.291   4.343 103.437  1.00  0.00     0.051 A 
ATOM     14  C   UNL     1      21.292   4.374 104.416  1.00  0.00     0.157 A 
ATOM     15  C   UNL     1      21.291   1.947 104.469  1.00  0.00     0.068 A 
ATOM     16  C   UNL     1      20.791   3.170 104.937  1.00  0.00     0.158 A 
BRANCH  14  17
ATOM     17  O   UNL     1      20.815   5.608 104.859  1.00  0.00    -0.504 OA
ATOM     18  H   UNL     1      21.212   6.080 105.663  1.00  0.00     0.293 HD
ENDBRANCH  14  17
BRANCH  16  19
ATOM     19  O   UNL     1      19.799   3.193 105.917  1.00  0.00    -0.504 OA
ATOM     20  H   UNL     1      19.983   2.887 106.865  1.00  0.00     0.293 HD
ENDBRANCH  16  19
ENDBRANCH   1  11
BRANCH  10  21
ATOM     21  O   UNL     1      21.239   0.495 101.147  1.00  0.00    -0.500 OA
ATOM     22  H   UNL     1      21.041   1.489 101.155  1.00  0.00     0.294 HD
ENDBRANCH  10  21
BRANCH   5  23
ATOM     23  O   UNL     1      26.958  -3.395 104.682  1.00  0.00    -0.507 OA
ATOM     24  H   UNL     1      27.900  -3.021 104.655  1.00  0.00     0.293 HD
ENDBRANCH   5  23
BRANCH   7  25
ATOM     25  O   UNL     1      24.148  -3.843 100.815  1.00  0.00    -0.507 OA
ATOM     26  H   UNL     1      24.159  -4.853 100.789  1.00  0.00     0.293 HD
ENDBRANCH   7  25
TORSDOF 6
ENDMDL
MODEL 2
REMARK VINA RESULT:    -6.593      4.358      5.644
REMARK INTER + INTRA:          -8.293
REMARK INTER:                  -7.941
REMARK INTRA:                  -0.352
REMARK UNBOUND:                -0.352
REMARK SMILES Oc1cc(O)c2cc(O)c(-c3ccc(O)c(O)c3)[o+]c2c1.[Cl-]
REMARK SMILES IDX 10 1 19 2 20 3 21 4 2 5 3 6 4 7 6 8 7 9 8 10 11 11 12 12
REMARK SMILES IDX 13 13 14 14 18 15 16 16 15 17 17 19 9 21 1 23 5 25
REMARK H PARENT 15 18 17 20 9 22 1 24 5 26
REMARK Flexibility Score: inf
ROOT
ATOM      1  C   UNL     1      25.769   3.746 102.912  1.00  0.00     0.402 A 
ATOM      2  O   UNL     1      26.311   2.800 102.151  1.00  0.00    -0.202 OA
ATOM      3  C   UNL     1      27.500   2.259 102.396  1.00  0.00     0.368 A 
ATOM      4  C   UNL     1      27.985   1.268 101.539  1.00  0.00     0.162 A 
ATOM      5  C   UNL     1      29.231   0.679 101.776  1.00  0.00     0.128 A 
ATOM      6  C   UNL     1      29.994   1.084 102.873  1.00  0.00     0.093 A 
ATOM      7  C   UNL     1      29.531   2.077 103.746  1.00  0.00     0.136 A 
ATOM      8  C   UNL     1      28.267   2.678 103.509  1.00  0.00     0.125 A 
ATOM      9  C   UNL     1      27.729   3.688 104.323  1.00  0.00     0.078 A 
ATOM     10  C   UNL     1      26.479   4.237 104.023  1.00  0.00     0.223 A 
ENDROOT
BRANCH   1  11
ATOM     11  C   UNL     1      24.432   4.263 102.541  1.00  0.00     0.087 A 
ATOM     12  C   UNL     1      23.257   3.727 103.098  1.00  0.00     0.022 A 
ATOM     13  C   UNL     1      22.006   4.216 102.715  1.00  0.00     0.051 A 
ATOM     14  C   UNL     1      21.906   5.234 101.761  1.00  0.00     0.157 A 
ATOM     15  C   UNL     1      24.326   5.272 101.569  1.00  0.00     0.068 A 
ATOM     16  C   UNL     1      23.071   5.763 101.183  1.00  0.00     0.158 A 
BRANCH  14  17
ATOM     17  O   UNL     1      20.642   5.702 101.400  1.00  0.00    -0.504 OA
ATOM     18  H   UNL     1      20.465   6.683 101.218  1.00  0.00     0.293 HD
ENDBRANCH  14  17
BRANCH  16  19
ATOM     19  O   UNL     1      22.978   6.775 100.228  1.00  0.00    -0.504 OA
ATOM     20  H   UNL     1      23.198   6.606  99.253  1.00  0.00     0.293 HD
ENDBRANCH  16  19
ENDBRANCH   1  11
BRANCH  10  21
ATOM     21  O   UNL     1      25.965   5.274 104.803  1.00  0.00    -0.500 OA
ATOM     22  H   UNL     1      25.032   5.232 105.198  1.00  0.00     0.294 HD
ENDBRANCH  10  21
BRANCH   5  23
ATOM     23  O   UNL     1      29.722  -0.310 100.925  1.00  0.00    -0.507 OA
ATOM     24  H   UNL     1      30.167  -0.078 100.045  1.00  0.00     0.293 HD
ENDBRANCH   5  23
BRANCH   7  25
ATOM     25  O   UNL     1      30.354   2.422 104.821  1.00  0.00    -0.507 OA
ATOM     26  H   UNL     1      30.220   2.098 105.769  1.00  0.00     0.293 HD
ENDBRANCH   7  25
TORSDOF 6
ENDMDL
MODEL 3
REMARK VINA RESULT:    -5.965      2.909      3.456
REMARK INTER + INTRA:          -7.538
REMARK INTER:                  -7.324
REMARK INTRA:                  -0.214
REMARK UNBOUND:                -0.352
REMARK SMILES Oc1cc(O)c2cc(O)c(-c3ccc(O)c(O)c3)[o+]c2c1.[Cl-]
REMARK SMILES IDX 10 1 19 2 20 3 21 4 2 5 3 6 4 7 6 8 7 9 8 10 11 11 12 12
REMARK SMILES IDX 13 13 14 14 18 15 16 16 15 17 17 19 9 21 1 23 5 25
REMARK H PARENT 15 18 17 20 9 22 1 24 5 26
REMARK Flexibility Score: inf
ROOT
ATOM      1  C   UNL     1      23.922   2.586 102.979  1.00  0.00     0.402 A 
ATOM      2  O   UNL     1      25.184   3.003 102.978  1.00  0.00    -0.202 OA
ATOM      3  C   UNL     1      26.226   2.178 102.951  1.00  0.00     0.368 A 
ATOM      4  C   UNL     1      27.517   2.712 102.951  1.00  0.00     0.162 A 
ATOM      5  C   UNL     1      28.630   1.866 102.918  1.00  0.00     0.128 A 
ATOM      6  C   UNL     1      28.450   0.482 102.887  1.00  0.00     0.093 A 
ATOM      7  C   UNL     1      27.167  -0.079 102.887  1.00  0.00     0.136 A 
ATOM      8  C   UNL     1      26.034   0.775 102.922  1.00  0.00     0.125 A 
ATOM      9  C   UNL     1      24.711   0.303 102.937  1.00  0.00     0.078 A 
ATOM     10  C   UNL     1      23.645   1.206 102.977  1.00  0.00     0.223 A 
ENDROOT
BRANCH   1  11
ATOM     11  C   UNL     1      22.847   3.604 103.001  1.00  0.00     0.087 A 
ATOM     12  C   UNL     1      22.634   4.469 101.913  1.00  0.00     0.022 A 
ATOM     13  C   UNL     1      21.628   5.438 101.967  1.00  0.00     0.051 A 
ATOM     14  C   UNL     1      20.832   5.568 103.109  1.00  0.00     0.157 A 
ATOM     15  C   UNL     1      22.059   3.753 104.154  1.00  0.00     0.068 A 
ATOM     16  C   UNL     1      21.049   4.724 104.209  1.00  0.00     0.158 A 
BRANCH  14  17
ATOM     17  O   UNL     1      19.835   6.544 103.131  1.00  0.00    -0.504 OA
ATOM     18  H   UNL     1      18.859   6.318 102.979  1.00  0.00     0.293 HD
ENDBRANCH  14  17
BRANCH  16  19
ATOM     19  O   UNL     1      20.263   4.852 105.354  1.00  0.00    -0.504 OA
ATOM     20  H   UNL     1      20.608   5.315 106.186  1.00  0.00     0.293 HD
ENDBRANCH  16  19
ENDBRANCH   1  11
BRANCH  10  21
ATOM     21  O   UNL     1      22.333   0.737 103.042  1.00  0.00    -0.500 OA
ATOM     22  H   UNL     1      21.540   1.369 103.048  1.00  0.00     0.294 HD
ENDBRANCH  10  21
BRANCH   5  23
ATOM     23  O   UNL     1      29.921   2.392 102.918  1.00  0.00    -0.507 OA
ATOM     24  H   UNL     1      30.366   2.702 103.774  1.00  0.00     0.293 HD
ENDBRANCH   5  23
BRANCH   7  25
ATOM     25  O   UNL     1      27.074  -1.473 102.851  1.00  0.00    -0.507 OA
ATOM     26  H   UNL     1      26.490  -2.022 103.466  1.00  0.00     0.293 HD
ENDBRANCH   7  25
TORSDOF 6
ENDMDL
MODEL 4
REMARK VINA RESULT:    -5.954      2.160      3.037
REMARK INTER + INTRA:          -7.524
REMARK INTER:                  -7.320
REMARK INTRA:                  -0.204
REMARK UNBOUND:                -0.352
REMARK SMILES Oc1cc(O)c2cc(O)c(-c3ccc(O)c(O)c3)[o+]c2c1.[Cl-]
REMARK SMILES IDX 10 1 19 2 20 3 21 4 2 5 3 6 4 7 6 8 7 9 8 10 11 11 12 12
REMARK SMILES IDX 13 13 14 14 18 15 16 16 15 17 17 19 9 21 1 23 5 25
REMARK H PARENT 15 18 17 20 9 22 1 24 5 26
REMARK Flexibility Score: inf
ROOT
ATOM      1  C   UNL     1      23.938   2.590 102.981  1.00  0.00     0.402 A 
ATOM      2  O   UNL     1      23.591   1.306 102.980  1.00  0.00    -0.202 OA
ATOM      3  C   UNL     1      24.473   0.312 102.973  1.00  0.00     0.368 A 
ATOM      4  C   UNL     1      24.011  -1.007 102.975  1.00  0.00     0.162 A 
ATOM      5  C   UNL     1      24.917  -2.072 102.971  1.00  0.00     0.128 A 
ATOM      6  C   UNL     1      26.290  -1.817 102.965  1.00  0.00     0.093 A 
ATOM      7  C   UNL     1      26.778  -0.504 102.963  1.00  0.00     0.136 A 
ATOM      8  C   UNL     1      25.863   0.581 102.964  1.00  0.00     0.125 A 
ATOM      9  C   UNL     1      26.261   1.927 102.950  1.00  0.00     0.078 A 
ATOM     10  C   UNL     1      25.300   2.942 102.947  1.00  0.00     0.223 A 
ENDROOT
BRANCH   1  11
ATOM     11  C   UNL     1      22.862   3.606 102.999  1.00  0.00     0.087 A 
ATOM     12  C   UNL     1      22.654   4.475 101.913  1.00  0.00     0.022 A 
ATOM     13  C   UNL     1      21.647   5.442 101.963  1.00  0.00     0.051 A 
ATOM     14  C   UNL     1      20.843   5.567 103.100  1.00  0.00     0.157 A 
ATOM     15  C   UNL     1      22.065   3.749 104.147  1.00  0.00     0.068 A 
ATOM     16  C   UNL     1      21.054   4.719 104.199  1.00  0.00     0.158 A 
BRANCH  14  17
ATOM     17  O   UNL     1      19.844   6.541 103.120  1.00  0.00    -0.504 OA
ATOM     18  H   UNL     1      19.870   7.350 102.511  1.00  0.00     0.293 HD
ENDBRANCH  14  17
BRANCH  16  19
ATOM     19  O   UNL     1      20.260   4.842 105.339  1.00  0.00    -0.504 OA
ATOM     20  H   UNL     1      19.248   4.841 105.284  1.00  0.00     0.293 HD
ENDBRANCH  16  19
ENDBRANCH   1  11
BRANCH  10  21
ATOM     21  O   UNL     1      25.694   4.279 102.882  1.00  0.00    -0.500 OA
ATOM     22  H   UNL     1      26.295   4.692 103.586  1.00  0.00     0.294 HD
ENDBRANCH  10  21
BRANCH   5  23
ATOM     23  O   UNL     1      24.463  -3.390 102.973  1.00  0.00    -0.507 OA
ATOM     24  H   UNL     1      23.494  -3.616 102.781  1.00  0.00     0.293 HD
ENDBRANCH   5  23
BRANCH   7  25
ATOM     25  O   UNL     1      28.165  -0.334 102.961  1.00  0.00    -0.507 OA
ATOM     26  H   UNL     1      28.748  -0.390 103.784  1.00  0.00     0.293 HD
ENDBRANCH   7  25
TORSDOF 6
ENDMDL
MODEL 5
REMARK VINA RESULT:    -5.609      9.841     11.017
REMARK INTER + INTRA:          -7.108
REMARK INTER:                  -7.027
REMARK INTRA:                  -0.082
REMARK UNBOUND:                -0.352
REMARK SMILES Oc1cc(O)c2cc(O)c(-c3ccc(O)c(O)c3)[o+]c2c1.[Cl-]
REMARK SMILES IDX 10 1 19 2 20 3 21 4 2 5 3 6 4 7 6 8 7 9 8 10 11 11 12 12
REMARK SMILES IDX 13 13 14 14 18 15 16 16 15 17 17 19 9 21 1 23 5 25
REMARK H PARENT 15 18 17 20 9 22 1 24 5 26
REMARK Flexibility Score: inf
ROOT
ATOM      1  C   UNL     1      32.658   2.911 102.591  1.00  0.00     0.402 A 
ATOM      2  O   UNL     1      32.025   3.390 103.658  1.00  0.00    -0.202 OA
ATOM      3  C   UNL     1      32.158   2.879 104.877  1.00  0.00     0.368 A 
ATOM      4  C   UNL     1      31.452   3.453 105.937  1.00  0.00     0.162 A 
ATOM      5  C   UNL     1      31.577   2.937 107.230  1.00  0.00     0.128 A 
ATOM      6  C   UNL     1      32.411   1.841 107.463  1.00  0.00     0.093 A 
ATOM      7  C   UNL     1      33.128   1.246 106.418  1.00  0.00     0.136 A 
ATOM      8  C   UNL     1      33.004   1.766 105.103  1.00  0.00     0.125 A 
ATOM      9  C   UNL     1      33.675   1.227 103.993  1.00  0.00     0.078 A 
ATOM     10  C   UNL     1      33.498   1.790 102.726  1.00  0.00     0.223 A 
ENDROOT
BRANCH   1  11
ATOM     11  C   UNL     1      32.435   3.575 101.287  1.00  0.00     0.087 A 
ATOM     12  C   UNL     1      32.000   2.853 100.161  1.00  0.00     0.022 A 
ATOM     13  C   UNL     1      31.819   3.498  98.935  1.00  0.00     0.051 A 
ATOM     14  C   UNL     1      32.082   4.866  98.809  1.00  0.00     0.157 A 
ATOM     15  C   UNL     1      32.718   4.944 101.151  1.00  0.00     0.068 A 
ATOM     16  C   UNL     1      32.537   5.593  99.921  1.00  0.00     0.158 A 
BRANCH  14  17
ATOM     17  O   UNL     1      31.891   5.482  97.572  1.00  0.00    -0.504 OA
ATOM     18  H   UNL     1      31.555   6.434  97.492  1.00  0.00     0.293 HD
ENDBRANCH  14  17
BRANCH  16  19
ATOM     19  O   UNL     1      32.808   6.955  99.801  1.00  0.00    -0.504 OA
ATOM     20  H   UNL     1      33.174   7.351  98.944  1.00  0.00     0.293 HD
ENDBRANCH  16  19
ENDBRANCH   1  11
BRANCH  10  21
ATOM     21  O   UNL     1      34.125   1.225 101.616  1.00  0.00    -0.500 OA
ATOM     22  H   UNL     1      33.595   0.821 100.852  1.00  0.00     0.294 HD
ENDBRANCH  10  21
BRANCH   5  23
ATOM     23  O   UNL     1      30.876   3.505 108.292  1.00  0.00    -0.507 OA
ATOM     24  H   UNL     1      30.621   2.962 109.109  1.00  0.00     0.293 HD
ENDBRANCH   5  23
BRANCH   7  25
ATOM     25  O   UNL     1      33.943   0.156 106.736  1.00  0.00    -0.507 OA
ATOM     26  H   UNL     1      34.869   0.007 106.360  1.00  0.00     0.293 HD
ENDBRANCH   7  25
TORSDOF 6
ENDMDL
MODEL 6
REMARK VINA RESULT:    -5.577      1.497      2.043
REMARK INTER + INTRA:          -7.069
REMARK INTER:                  -6.789
REMARK INTRA:                  -0.280
REMARK UNBOUND:                -0.352
REMARK SMILES Oc1cc(O)c2cc(O)c(-c3ccc(O)c(O)c3)[o+]c2c1.[Cl-]
REMARK SMILES IDX 10 1 19 2 20 3 21 4 2 5 3 6 4 7 6 8 7 9 8 10 11 11 12 12
REMARK SMILES IDX 13 13 14 14 18 15 16 16 15 17 17 19 9 21 1 23 5 25
REMARK H PARENT 15 18 17 20 9 22 1 24 5 26
REMARK Flexibility Score: inf
ROOT
ATOM      1  C   UNL     1      22.782   1.431 102.704  1.00  0.00     0.402 A 
ATOM      2  O   UNL     1      23.998   1.210 103.192  1.00  0.00    -0.202 OA
ATOM      3  C   UNL     1      24.649   0.062 103.037  1.00  0.00     0.368 A 
ATOM      4  C   UNL     1      25.927  -0.076 103.586  1.00  0.00     0.162 A 
ATOM      5  C   UNL     1      26.635  -1.271 103.434  1.00  0.00     0.128 A 
ATOM      6  C   UNL     1      26.063  -2.333 102.731  1.00  0.00     0.093 A 
ATOM      7  C   UNL     1      24.784  -2.222 102.171  1.00  0.00     0.136 A 
ATOM      8  C   UNL     1      24.060  -1.011 102.324  1.00  0.00     0.125 A 
ATOM      9  C   UNL     1      22.769  -0.813 101.809  1.00  0.00     0.078 A 
ATOM     10  C   UNL     1      22.116   0.408 102.005  1.00  0.00     0.223 A 
ENDROOT
BRANCH   1  11
ATOM     11  C   UNL     1      22.164   2.757 102.935  1.00  0.00     0.087 A 
ATOM     12  C   UNL     1      21.643   3.115 104.192  1.00  0.00     0.022 A 
ATOM     13  C   UNL     1      21.044   4.363 104.379  1.00  0.00     0.051 A 
ATOM     14  C   UNL     1      20.943   5.266 103.316  1.00  0.00     0.157 A 
ATOM     15  C   UNL     1      22.042   3.659 101.865  1.00  0.00     0.068 A 
ATOM     16  C   UNL     1      21.441   4.912 102.051  1.00  0.00     0.158 A 
BRANCH  14  17
ATOM     17  O   UNL     1      20.341   6.505 103.534  1.00  0.00    -0.504 OA
ATOM     18  H   UNL     1      20.638   7.341 103.044  1.00  0.00     0.293 HD
ENDBRANCH  14  17
BRANCH  16  19
ATOM     19  O   UNL     1      21.338   5.804 100.985  1.00  0.00    -0.504 OA
ATOM     20  H   UNL     1      21.815   5.640 100.107  1.00  0.00     0.293 HD
ENDBRANCH  16  19
ENDBRANCH   1  11
BRANCH  10  21
ATOM     21  O   UNL     1      20.814   0.587 101.536  1.00  0.00    -0.500 OA
ATOM     22  H   UNL     1      20.360  -0.101 100.947  1.00  0.00     0.294 HD
ENDBRANCH  10  21
BRANCH   5  23
ATOM     23  O   UNL     1      27.910  -1.415 103.980  1.00  0.00    -0.507 OA
ATOM     24  H   UNL     1      28.395  -0.633 104.405  1.00  0.00     0.293 HD
ENDBRANCH   5  23
BRANCH   7  25
ATOM     25  O   UNL     1      24.286  -3.329 101.480  1.00  0.00    -0.507 OA
ATOM     26  H   UNL     1      24.738  -4.232 101.447  1.00  0.00     0.293 HD
ENDBRANCH   7  25
TORSDOF 6
ENDMDL
MODEL 7
REMARK VINA RESULT:    -5.524      6.580      8.216
REMARK INTER + INTRA:          -7.006
REMARK INTER:                  -6.797
REMARK INTRA:                  -0.209
REMARK UNBOUND:                -0.352
REMARK SMILES Oc1cc(O)c2cc(O)c(-c3ccc(O)c(O)c3)[o+]c2c1.[Cl-]
REMARK SMILES IDX 10 1 19 2 20 3 21 4 2 5 3 6 4 7 6 8 7 9 8 10 11 11 12 12
REMARK SMILES IDX 13 13 14 14 18 15 16 16 15 17 17 19 9 21 1 23 5 25
REMARK H PARENT 15 18 17 20 9 22 1 24 5 26
REMARK Flexibility Score: inf
ROOT
ATOM      1  C   UNL     1      29.439   2.304 103.740  1.00  0.00     0.402 A 
ATOM      2  O   UNL     1      29.026   1.857 102.558  1.00  0.00    -0.202 OA
ATOM      3  C   UNL     1      28.013   1.008 102.412  1.00  0.00     0.368 A 
ATOM      4  C   UNL     1      27.651   0.596 101.127  1.00  0.00     0.162 A 
ATOM      5  C   UNL     1      26.588  -0.293 100.945  1.00  0.00     0.128 A 
ATOM      6  C   UNL     1      25.884  -0.772 102.053  1.00  0.00     0.093 A 
ATOM      7  C   UNL     1      26.228  -0.375 103.351  1.00  0.00     0.136 A 
ATOM      8  C   UNL     1      27.308   0.526 103.541  1.00  0.00     0.125 A 
ATOM      9  C   UNL     1      27.731   0.969 104.805  1.00  0.00     0.078 A 
ATOM     10  C   UNL     1      28.808   1.854 104.914  1.00  0.00     0.223 A 
ENDROOT
BRANCH   1  11
ATOM     11  C   UNL     1      30.573   3.256 103.771  1.00  0.00     0.087 A 
ATOM     12  C   UNL     1      30.423   4.560 104.278  1.00  0.00     0.022 A 
ATOM     13  C   UNL     1      31.502   5.447 104.275  1.00  0.00     0.051 A 
ATOM     14  C   UNL     1      32.739   5.055 103.756  1.00  0.00     0.157 A 
ATOM     15  C   UNL     1      31.812   2.873 103.232  1.00  0.00     0.068 A 
ATOM     16  C   UNL     1      32.896   3.763 103.229  1.00  0.00     0.158 A 
BRANCH  14  17
ATOM     17  O   UNL     1      33.798   5.963 103.769  1.00  0.00    -0.504 OA
ATOM     18  H   UNL     1      34.008   6.555 102.974  1.00  0.00     0.293 HD
ENDBRANCH  14  17
BRANCH  16  19
ATOM     19  O   UNL     1      34.125   3.367 102.703  1.00  0.00    -0.504 OA
ATOM     20  H   UNL     1      34.554   2.486 102.961  1.00  0.00     0.293 HD
ENDBRANCH  16  19
ENDBRANCH   1  11
BRANCH  10  21
ATOM     21  O   UNL     1      29.259   2.255 106.172  1.00  0.00    -0.500 OA
ATOM     22  H   UNL     1      29.928   1.704 106.698  1.00  0.00     0.294 HD
ENDBRANCH  10  21
BRANCH   5  23
ATOM     23  O   UNL     1      26.221  -0.708  99.666  1.00  0.00    -0.507 OA
ATOM     24  H   UNL     1      25.285  -0.556  99.309  1.00  0.00     0.293 HD
ENDBRANCH   5  23
BRANCH   7  25
ATOM     25  O   UNL     1      25.472  -0.896 104.404  1.00  0.00    -0.507 OA
ATOM     26  H   UNL     1      25.492  -1.863 104.696  1.00  0.00     0.293 HD
ENDBRANCH   7  25
TORSDOF 6
ENDMDL
MODEL 8
REMARK VINA RESULT:    -5.516      6.054      7.337
REMARK INTER + INTRA:          -6.996
REMARK INTER:                  -6.645
REMARK INTRA:                  -0.351
REMARK UNBOUND:                -0.352
REMARK SMILES Oc1cc(O)c2cc(O)c(-c3ccc(O)c(O)c3)[o+]c2c1.[Cl-]
REMARK SMILES IDX 10 1 19 2 20 3 21 4 2 5 3 6 4 7 6 8 7 9 8 10 11 11 12 12
REMARK SMILES IDX 13 13 14 14 18 15 16 16 15 17 17 19 9 21 1 23 5 25
REMARK H PARENT 15 18 17 20 9 22 1 24 5 26
REMARK Flexibility Score: inf
ROOT
ATOM      1  C   UNL     1      24.248  -4.805 101.376  1.00  0.00     0.402 A 
ATOM      2  O   UNL     1      24.706  -4.889 102.621  1.00  0.00    -0.202 OA
ATOM      3  C   UNL     1      23.997  -5.389 103.627  1.00  0.00     0.368 A 
ATOM      4  C   UNL     1      24.566  -5.438 104.902  1.00  0.00     0.162 A 
ATOM      5  C   UNL     1      23.843  -5.962 105.978  1.00  0.00     0.128 A 
ATOM      6  C   UNL     1      22.546  -6.439 105.777  1.00  0.00     0.093 A 
ATOM      7  C   UNL     1      21.953  -6.401 104.509  1.00  0.00     0.136 A 
ATOM      8  C   UNL     1      22.682  -5.868 103.414  1.00  0.00     0.125 A 
ATOM      9  C   UNL     1      22.163  -5.778 102.112  1.00  0.00     0.078 A 
ATOM     10  C   UNL     1      22.941  -5.235 101.085  1.00  0.00     0.223 A 
ENDROOT
BRANCH   1  11
ATOM     11  C   UNL     1      25.139  -4.237 100.338  1.00  0.00     0.087 A 
ATOM     12  C   UNL     1      25.914  -5.063  99.504  1.00  0.00     0.022 A 
ATOM     13  C   UNL     1      26.765  -4.503  98.548  1.00  0.00     0.051 A 
ATOM     14  C   UNL     1      26.867  -3.114  98.419  1.00  0.00     0.157 A 
ATOM     15  C   UNL     1      25.260  -2.843 100.218  1.00  0.00     0.068 A 
ATOM     16  C   UNL     1      26.113  -2.279  99.259  1.00  0.00     0.158 A 
BRANCH  14  17
ATOM     17  O   UNL     1      27.724  -2.585  97.454  1.00  0.00    -0.504 OA
ATOM     18  H   UNL     1      27.416  -2.397  96.507  1.00  0.00     0.293 HD
ENDBRANCH  14  17
BRANCH  16  19
ATOM     19  O   UNL     1      26.215  -0.894  99.140  1.00  0.00    -0.504 OA
ATOM     20  H   UNL     1      27.006  -0.385  99.514  1.00  0.00     0.293 HD
ENDBRANCH  16  19
ENDBRANCH   1  11
BRANCH  10  21
ATOM     21  O   UNL     1      22.408  -5.100  99.802  1.00  0.00    -0.500 OA
ATOM     22  H   UNL     1      22.750  -4.399  99.155  1.00  0.00     0.294 HD
ENDBRANCH  10  21
BRANCH   5  23
ATOM     23  O   UNL     1      24.405  -6.014 107.253  1.00  0.00    -0.507 OA
ATOM     24  H   UNL     1      25.131  -5.367 107.538  1.00  0.00     0.293 HD
ENDBRANCH   5  23
BRANCH   7  25
ATOM     25  O   UNL     1      20.653  -6.901 104.392  1.00  0.00    -0.507 OA
ATOM     26  H   UNL     1      20.429  -7.861 104.175  1.00  0.00     0.293 HD
ENDBRANCH   7  25
TORSDOF 6
ENDMDL
MODEL 9
REMARK VINA RESULT:    -5.355      6.849      7.832
REMARK INTER + INTRA:          -6.802
REMARK INTER:                  -6.842
REMARK INTRA:                   0.040
REMARK UNBOUND:                -0.352
REMARK SMILES Oc1cc(O)c2cc(O)c(-c3ccc(O)c(O)c3)[o+]c2c1.[Cl-]
REMARK SMILES IDX 10 1 19 2 20 3 21 4 2 5 3 6 4 7 6 8 7 9 8 10 11 11 12 12
REMARK SMILES IDX 13 13 14 14 18 15 16 16 15 17 17 19 9 21 1 23 5 25
REMARK H PARENT 15 18 17 20 9 22 1 24 5 26
REMARK Flexibility Score: inf
ROOT
ATOM      1  C   UNL     1      23.628  -5.992 102.816  1.00  0.00     0.402 A 
ATOM      2  O   UNL     1      22.948  -5.432 101.820  1.00  0.00    -0.202 OA
ATOM      3  C   UNL     1      23.376  -5.419 100.561  1.00  0.00     0.368 A 
ATOM      4  C   UNL     1      22.589  -4.806  99.582  1.00  0.00     0.162 A 
ATOM      5  C   UNL     1      23.014  -4.781  98.251  1.00  0.00     0.128 A 
ATOM      6  C   UNL     1      24.230  -5.370  97.897  1.00  0.00     0.093 A 
ATOM      7  C   UNL     1      25.037  -5.989  98.860  1.00  0.00     0.136 A 
ATOM      8  C   UNL     1      24.612  -6.016 100.214  1.00  0.00     0.125 A 
ATOM      9  C   UNL     1      25.360  -6.603 101.247  1.00  0.00     0.078 A 
ATOM     10  C   UNL     1      24.877  -6.585 102.558  1.00  0.00     0.223 A 
ENDROOT
BRANCH   1  11
ATOM     11  C   UNL     1      23.041  -5.951 104.175  1.00  0.00     0.087 A 
ATOM     12  C   UNL     1      23.811  -5.597 105.297  1.00  0.00     0.022 A 
ATOM     13  C   UNL     1      23.240  -5.589 106.572  1.00  0.00     0.051 A 
ATOM     14  C   UNL     1      21.900  -5.946 106.749  1.00  0.00     0.157 A 
ATOM     15  C   UNL     1      21.700  -6.329 104.360  1.00  0.00     0.068 A 
ATOM     16  C   UNL     1      21.126  -6.321 105.639  1.00  0.00     0.158 A 
BRANCH  14  17
ATOM     17  O   UNL     1      21.358  -5.926 108.034  1.00  0.00    -0.504 OA
ATOM     18  H   UNL     1      20.765  -6.672 108.379  1.00  0.00     0.293 HD
ENDBRANCH  14  17
BRANCH  16  19
ATOM     19  O   UNL     1      19.791  -6.684 105.809  1.00  0.00    -0.504 OA
ATOM     20  H   UNL     1      19.202  -6.930 105.022  1.00  0.00     0.293 HD
ENDBRANCH  16  19
ENDBRANCH   1  11
BRANCH  10  21
ATOM     21  O   UNL     1      25.643  -7.124 103.593  1.00  0.00    -0.500 OA
ATOM     22  H   UNL     1      25.230  -7.695 104.321  1.00  0.00     0.294 HD
ENDBRANCH  10  21
BRANCH   5  23
ATOM     23  O   UNL     1      22.234  -4.172  97.268  1.00  0.00    -0.507 OA
ATOM     24  H   UNL     1      21.253  -4.401  97.154  1.00  0.00     0.293 HD
ENDBRANCH   5  23
BRANCH   7  25
ATOM     25  O   UNL     1      26.237  -6.558  98.423  1.00  0.00    -0.507 OA
ATOM     26  H   UNL     1      26.510  -7.515  98.594  1.00  0.00     0.293 HD
ENDBRANCH   7  25
TORSDOF 6
ENDMDL
