MODEL 1
REMARK VINA RESULT:    -3.130      0.000      0.000
REMARK INTER + INTRA:          -3.745
REMARK INTER:                  -3.679
REMARK INTRA:                  -0.066
REMARK UNBOUND:                -0.066
REMARK SMILES CCCCC(=O)[O-]
REMARK SMILES IDX 4 1 5 2 6 3 7 4 3 5 2 6 1 7
REMARK H PARENT
REMARK Flexibility Score: inf
ROOT
ATOM      1  C   UNL     1     105.072  11.230  14.819  1.00  0.00     0.053 C 
ENDROOT
BRANCH   1   2
ATOM      2  C   UNL     1     103.760  11.603  15.433  1.00  0.00     0.041 C 
ATOM      3  O   UNL     1     102.776  11.889  14.700  1.00  0.00    -0.550 OA
ATOM      4  O   UNL     1     103.635  11.685  16.814  1.00  0.00    -0.550 OA
ENDBRANCH   1   2
BRANCH   1   5
ATOM      5  C   UNL     1     106.232  11.725  15.693  1.00  0.00     0.006 C 
BRANCH   5   6
ATOM      6  C   UNL     1     107.023  10.573  16.331  1.00  0.00    -0.003 C 
ATOM      7  C   UNL     1     107.516  10.903  17.739  1.00  0.00     0.004 C 
ENDBRANCH   5   6
ENDBRANCH   1   5
TORSDOF 3
ENDMDL
MODEL 2
REMARK VINA RESULT:    -2.943      3.149      4.084
REMARK INTER + INTRA:          -3.525
REMARK INTER:                  -3.470
REMARK INTRA:                  -0.055
REMARK UNBOUND:                -0.066
REMARK SMILES CCCCC(=O)[O-]
REMARK SMILES IDX 4 1 5 2 6 3 7 4 3 5 2 6 1 7
REMARK H PARENT
REMARK Flexibility Score: inf
ROOT
ATOM      1  C   UNL     1     106.932  11.194  17.210  1.00  0.00     0.053 C 
ENDROOT
BRANCH   1   2
ATOM      2  C   UNL     1     107.759   9.972  17.463  1.00  0.00     0.041 C 
ATOM      3  O   UNL     1     108.125   9.245  16.502  1.00  0.00    -0.550 OA
ATOM      4  O   UNL     1     108.084   9.610  18.763  1.00  0.00    -0.550 OA
ENDBRANCH   1   2
BRANCH   1   5
ATOM      5  C   UNL     1     106.492  11.247  15.742  1.00  0.00     0.006 C 
BRANCH   5   6
ATOM      6  C   UNL     1     104.999  11.577  15.586  1.00  0.00    -0.003 C 
ATOM      7  C   UNL     1     104.382  12.139  16.866  1.00  0.00     0.004 C 
ENDBRANCH   5   6
ENDBRANCH   1   5
TORSDOF 3
ENDMDL
MODEL 3
REMARK VINA RESULT:    -2.888     14.381     14.931
REMARK INTER + INTRA:          -3.461
REMARK INTER:                  -3.431
REMARK INTRA:                  -0.030
REMARK UNBOUND:                -0.066
REMARK SMILES CCCCC(=O)[O-]
REMARK SMILES IDX 4 1 5 2 6 3 7 4 3 5 2 6 1 7
REMARK H PARENT
REMARK Flexibility Score: inf
ROOT
ATOM      1  C   UNL     1      96.275   3.765  24.036  1.00  0.00     0.053 C 
ENDROOT
BRANCH   1   2
ATOM      2  C   UNL     1      96.690   2.335  24.188  1.00  0.00     0.041 C 
ATOM      3  O   UNL     1      96.082   1.428  23.560  1.00  0.00    -0.550 OA
ATOM      4  O   UNL     1      97.715   1.997  25.062  1.00  0.00    -0.550 OA
ENDBRANCH   1   2
BRANCH   1   5
ATOM      5  C   UNL     1      96.116   4.425  25.411  1.00  0.00     0.006 C 
BRANCH   5   6
ATOM      6  C   UNL     1      95.377   5.770  25.337  1.00  0.00    -0.003 C 
ATOM      7  C   UNL     1      95.230   6.285  23.906  1.00  0.00     0.004 C 
ENDBRANCH   5   6
ENDBRANCH   1   5
TORSDOF 3
ENDMDL
MODEL 4
REMARK VINA RESULT:    -2.865     13.658     14.237
REMARK INTER + INTRA:          -3.434
REMARK INTER:                  -3.414
REMARK INTRA:                  -0.020
REMARK UNBOUND:                -0.066
REMARK SMILES CCCCC(=O)[O-]
REMARK SMILES IDX 4 1 5 2 6 3 7 4 3 5 2 6 1 7
REMARK H PARENT
REMARK Flexibility Score: inf
ROOT
ATOM      1  C   UNL     1      96.297   4.891  23.461  1.00  0.00     0.053 C 
ENDROOT
BRANCH   1   2
ATOM      2  C   UNL     1      96.204   3.643  24.281  1.00  0.00     0.041 C 
ATOM      3  O   UNL     1      96.385   3.688  25.527  1.00  0.00    -0.550 OA
ATOM      4  O   UNL     1      95.965   2.422  23.665  1.00  0.00    -0.550 OA
ENDBRANCH   1   2
BRANCH   1   5
ATOM      5  C   UNL     1      95.372   5.975  24.029  1.00  0.00     0.006 C 
BRANCH   5   6
ATOM      6  C   UNL     1      95.392   7.264  23.193  1.00  0.00    -0.003 C 
ATOM      7  C   UNL     1      94.623   7.128  21.880  1.00  0.00     0.004 C 
ENDBRANCH   5   6
ENDBRANCH   1   5
TORSDOF 3
ENDMDL
MODEL 5
REMARK VINA RESULT:    -2.847     14.073     14.832
REMARK INTER + INTRA:          -3.413
REMARK INTER:                  -3.309
REMARK INTRA:                  -0.103
REMARK UNBOUND:                -0.066
REMARK SMILES CCCCC(=O)[O-]
REMARK SMILES IDX 4 1 5 2 6 3 7 4 3 5 2 6 1 7
REMARK H PARENT
REMARK Flexibility Score: inf
ROOT
ATOM      1  C   UNL     1      96.112   3.024  24.102  1.00  0.00     0.053 C 
ENDROOT
BRANCH   1   2
ATOM      2  C   UNL     1      97.317   2.297  24.612  1.00  0.00     0.041 C 
ATOM      3  O   UNL     1      98.034   2.812  25.510  1.00  0.00    -0.550 OA
ATOM      4  O   UNL     1      97.676   1.074  24.061  1.00  0.00    -0.550 OA
ENDBRANCH   1   2
BRANCH   1   5
ATOM      5  C   UNL     1      96.498   4.428  23.620  1.00  0.00     0.006 C 
BRANCH   5   6
ATOM      6  C   UNL     1      95.593   5.522  24.205  1.00  0.00    -0.003 C 
ATOM      7  C   UNL     1      95.343   5.344  25.702  1.00  0.00     0.004 C 
ENDBRANCH   5   6
ENDBRANCH   1   5
TORSDOF 3
ENDMDL
MODEL 6
REMARK VINA RESULT:    -2.813     14.313     14.715
REMARK INTER + INTRA:          -3.372
REMARK INTER:                  -3.330
REMARK INTRA:                  -0.042
REMARK UNBOUND:                -0.066
REMARK SMILES CCCCC(=O)[O-]
REMARK SMILES IDX 4 1 5 2 6 3 7 4 3 5 2 6 1 7
REMARK H PARENT
REMARK Flexibility Score: inf
ROOT
ATOM      1  C   UNL     1      97.967   3.072  24.241  1.00  0.00     0.053 C 
ENDROOT
BRANCH   1   2
ATOM      2  C   UNL     1      96.470   3.084  24.238  1.00  0.00     0.041 C 
ATOM      3  O   UNL     1      95.830   2.169  23.654  1.00  0.00    -0.550 OA
ATOM      4  O   UNL     1      95.781   4.130  24.838  1.00  0.00    -0.550 OA
ENDBRANCH   1   2
BRANCH   1   5
ATOM      5  C   UNL     1      98.491   1.878  25.049  1.00  0.00     0.006 C 
BRANCH   5   6
ATOM      6  C   UNL     1      99.011   0.744  24.154  1.00  0.00    -0.003 C 
ATOM      7  C   UNL     1      99.886  -0.253  24.913  1.00  0.00     0.004 C 
ENDBRANCH   5   6
ENDBRANCH   1   5
TORSDOF 3
ENDMDL
MODEL 7
REMARK VINA RESULT:    -2.725     13.210     13.710
REMARK INTER + INTRA:          -3.269
REMARK INTER:                  -3.170
REMARK INTRA:                  -0.098
REMARK UNBOUND:                -0.066
REMARK SMILES CCCCC(=O)[O-]
REMARK SMILES IDX 4 1 5 2 6 3 7 4 3 5 2 6 1 7
REMARK H PARENT
REMARK Flexibility Score: inf
ROOT
ATOM      1  C   UNL     1      97.810   3.235  25.203  1.00  0.00     0.053 C 
ENDROOT
BRANCH   1   2
ATOM      2  C   UNL     1      96.448   3.358  24.595  1.00  0.00     0.041 C 
ATOM      3  O   UNL     1      95.709   4.334  24.890  1.00  0.00    -0.550 OA
ATOM      4  O   UNL     1      95.975   2.371  23.740  1.00  0.00    -0.550 OA
ENDBRANCH   1   2
BRANCH   1   5
ATOM      5  C   UNL     1      98.666   4.457  24.850  1.00  0.00     0.006 C 
BRANCH   5   6
ATOM      6  C   UNL     1      99.143   4.441  23.389  1.00  0.00    -0.003 C 
ATOM      7  C   UNL     1     100.241   3.409  23.138  1.00  0.00     0.004 C 
ENDBRANCH   5   6
ENDBRANCH   1   5
TORSDOF 3
ENDMDL
MODEL 8
REMARK VINA RESULT:    -2.717     13.840     14.451
REMARK INTER + INTRA:          -3.260
REMARK INTER:                  -3.160
REMARK INTRA:                  -0.100
REMARK UNBOUND:                -0.066
REMARK SMILES CCCCC(=O)[O-]
REMARK SMILES IDX 4 1 5 2 6 3 7 4 3 5 2 6 1 7
REMARK H PARENT
REMARK Flexibility Score: inf
ROOT
ATOM      1  C   UNL     1      96.547   4.494  23.853  1.00  0.00     0.053 C 
ENDROOT
BRANCH   1   2
ATOM      2  C   UNL     1      95.528   5.446  24.398  1.00  0.00     0.041 C 
ATOM      3  O   UNL     1      95.187   5.385  25.609  1.00  0.00    -0.550 OA
ATOM      4  O   UNL     1      94.918   6.368  23.557  1.00  0.00    -0.550 OA
ENDBRANCH   1   2
BRANCH   1   5
ATOM      5  C   UNL     1      96.113   3.045  24.105  1.00  0.00     0.006 C 
BRANCH   5   6
ATOM      6  C   UNL     1      97.185   2.229  24.844  1.00  0.00    -0.003 C 
ATOM      7  C   UNL     1      97.928   3.048  25.898  1.00  0.00     0.004 C 
ENDBRANCH   5   6
ENDBRANCH   1   5
TORSDOF 3
ENDMDL
MODEL 9
REMARK VINA RESULT:    -2.681     13.895     14.424
REMARK INTER + INTRA:          -3.218
REMARK INTER:                  -3.088
REMARK INTRA:                  -0.130
REMARK UNBOUND:                -0.066
REMARK SMILES CCCCC(=O)[O-]
REMARK SMILES IDX 4 1 5 2 6 3 7 4 3 5 2 6 1 7
REMARK H PARENT
REMARK Flexibility Score: inf
ROOT
ATOM      1  C   UNL     1      95.700   4.844  25.432  1.00  0.00     0.053 C 
ENDROOT
BRANCH   1   2
ATOM      2  C   UNL     1      96.092   4.258  24.112  1.00  0.00     0.041 C 
ATOM      3  O   UNL     1      96.392   5.011  23.149  1.00  0.00    -0.550 OA
ATOM      4  O   UNL     1      96.080   2.881  23.931  1.00  0.00    -0.550 OA
ENDBRANCH   1   2
BRANCH   1   5
ATOM      5  C   UNL     1      96.882   5.598  26.055  1.00  0.00     0.006 C 
BRANCH   5   6
ATOM      6  C   UNL     1      98.110   4.699  26.264  1.00  0.00    -0.003 C 
ATOM      7  C   UNL     1      97.910   3.676  27.381  1.00  0.00     0.004 C 
ENDBRANCH   5   6
ENDBRANCH   1   5
TORSDOF 3
ENDMDL
