MODEL 1
REMARK VINA RESULT:    -4.226      0.000      0.000
REMARK INTER + INTRA:          -4.788
REMARK INTER:                  -4.720
REMARK INTRA:                  -0.069
REMARK UNBOUND:                -0.069
REMARK SMILES COc1cc2ccc(=O)oc2c(O)c1O
REMARK SMILES IDX 3 1 14 2 12 3 11 4 5 5 4 6 6 7 7 8 8 9 9 10 10 11 2 12 1 13
REMARK SMILES IDX 15 14 13 16
REMARK H PARENT 15 15 13 17
REMARK Flexibility Score: inf
ROOT
ATOM      1  C   UNL     1      15.602 -13.041 -38.932  1.00  0.00     0.165 A 
ATOM      2  C   UNL     1      15.984 -11.758 -38.507  1.00  0.00     0.204 A 
ATOM      3  C   UNL     1      17.168 -11.575 -37.770  1.00  0.00     0.205 A 
ATOM      4  C   UNL     1      17.973 -12.682 -37.455  1.00  0.00     0.184 A 
ATOM      5  C   UNL     1      17.591 -13.972 -37.881  1.00  0.00     0.025 A 
ATOM      6  C   UNL     1      16.411 -14.148 -38.614  1.00  0.00     0.062 A 
ATOM      7  C   UNL     1      18.413 -15.056 -37.553  1.00  0.00     0.020 A 
ATOM      8  C   UNL     1      19.578 -14.835 -36.821  1.00  0.00     0.094 A 
ATOM      9  C   UNL     1      19.896 -13.531 -36.432  1.00  0.00     0.336 A 
ATOM     10  O   UNL     1      20.944 -13.310 -35.771  1.00  0.00    -0.246 OA
ATOM     11  O   UNL     1      19.097 -12.518 -36.757  1.00  0.00    -0.419 OA
ENDROOT
BRANCH   1  12
ATOM     12  O   UNL     1      14.411 -13.173 -39.665  1.00  0.00    -0.493 OA
ATOM     13  C   UNL     1      13.232 -13.809 -39.182  1.00  0.00     0.278 C 
ENDBRANCH   1  12
BRANCH   2  14
ATOM     14  O   UNL     1      15.170 -10.671 -38.830  1.00  0.00    -0.502 OA
ATOM     15  H   UNL     1      15.258  -9.774 -38.367  1.00  0.00     0.293 HD
ENDBRANCH   2  14
BRANCH   3  16
ATOM     16  O   UNL     1      17.531 -10.292 -37.358  1.00  0.00    -0.502 OA
ATOM     17  H   UNL     1      18.045 -10.125 -36.501  1.00  0.00     0.293 HD
ENDBRANCH   3  16
TORSDOF 3
ENDMDL
MODEL 2
REMARK VINA RESULT:    -4.216     10.528     12.667
REMARK INTER + INTRA:          -4.778
REMARK INTER:                  -4.727
REMARK INTRA:                  -0.051
REMARK UNBOUND:                -0.069
REMARK SMILES COc1cc2ccc(=O)oc2c(O)c1O
REMARK SMILES IDX 3 1 14 2 12 3 11 4 5 5 4 6 6 7 7 8 8 9 9 10 10 11 2 12 1 13
REMARK SMILES IDX 15 14 13 16
REMARK H PARENT 15 15 13 17
REMARK Flexibility Score: inf
ROOT
ATOM      1  C   UNL     1      24.256  -7.387 -31.152  1.00  0.00     0.165 A 
ATOM      2  C   UNL     1      25.624  -7.088 -31.063  1.00  0.00     0.204 A 
ATOM      3  C   UNL     1      26.136  -5.910 -31.639  1.00  0.00     0.205 A 
ATOM      4  C   UNL     1      25.272  -5.029 -32.309  1.00  0.00     0.184 A 
ATOM      5  C   UNL     1      23.895  -5.328 -32.399  1.00  0.00     0.025 A 
ATOM      6  C   UNL     1      23.393  -6.501 -31.824  1.00  0.00     0.062 A 
ATOM      7  C   UNL     1      23.058  -4.431 -33.072  1.00  0.00     0.020 A 
ATOM      8  C   UNL     1      23.602  -3.275 -33.631  1.00  0.00     0.094 A 
ATOM      9  C   UNL     1      24.974  -3.042 -33.504  1.00  0.00     0.336 A 
ATOM     10  O   UNL     1      25.483  -2.004 -34.001  1.00  0.00    -0.246 OA
ATOM     11  O   UNL     1      25.747  -3.911 -32.859  1.00  0.00    -0.419 OA
ENDROOT
BRANCH   1  12
ATOM     12  O   UNL     1      23.793  -8.574 -30.560  1.00  0.00    -0.493 OA
ATOM     13  C   UNL     1      22.420  -8.908 -30.389  1.00  0.00     0.278 C 
ENDBRANCH   1  12
BRANCH   2  14
ATOM     14  O   UNL     1      26.467  -7.977 -30.394  1.00  0.00    -0.502 OA
ATOM     15  H   UNL     1      27.280  -7.665 -29.876  1.00  0.00     0.293 HD
ENDBRANCH   2  14
BRANCH   3  16
ATOM     16  O   UNL     1      27.500  -5.631 -31.541  1.00  0.00    -0.502 OA
ATOM     17  H   UNL     1      28.172  -5.978 -32.214  1.00  0.00     0.293 HD
ENDBRANCH   3  16
TORSDOF 3
ENDMDL
MODEL 3
REMARK VINA RESULT:    -4.082     15.823     17.207
REMARK INTER + INTRA:          -4.627
REMARK INTER:                  -4.575
REMARK INTRA:                  -0.052
REMARK UNBOUND:                -0.069
REMARK SMILES COc1cc2ccc(=O)oc2c(O)c1O
REMARK SMILES IDX 3 1 14 2 12 3 11 4 5 5 4 6 6 7 7 8 8 9 9 10 10 11 2 12 1 13
REMARK SMILES IDX 15 14 13 16
REMARK H PARENT 15 15 13 17
REMARK Flexibility Score: inf
ROOT
ATOM      1  C   UNL     1      17.979  -1.105 -27.987  1.00  0.00     0.165 A 
ATOM      2  C   UNL     1      17.578   0.229 -28.160  1.00  0.00     0.204 A 
ATOM      3  C   UNL     1      18.330   1.279 -27.601  1.00  0.00     0.205 A 
ATOM      4  C   UNL     1      19.490   0.990 -26.863  1.00  0.00     0.184 A 
ATOM      5  C   UNL     1      19.895  -0.351 -26.688  1.00  0.00     0.025 A 
ATOM      6  C   UNL     1      19.142  -1.390 -27.247  1.00  0.00     0.062 A 
ATOM      7  C   UNL     1      21.055  -0.608 -25.948  1.00  0.00     0.020 A 
ATOM      8  C   UNL     1      21.774   0.457 -25.409  1.00  0.00     0.094 A 
ATOM      9  C   UNL     1      21.315   1.760 -25.622  1.00  0.00     0.336 A 
ATOM     10  O   UNL     1      21.950   2.735 -25.144  1.00  0.00    -0.246 OA
ATOM     11  O   UNL     1      20.209   1.977 -26.329  1.00  0.00    -0.419 OA
ENDROOT
BRANCH   1  12
ATOM     12  O   UNL     1      17.195  -2.117 -28.565  1.00  0.00    -0.493 OA
ATOM     13  C   UNL     1      17.681  -3.405 -28.928  1.00  0.00     0.278 C 
ENDBRANCH   1  12
BRANCH   2  14
ATOM     14  O   UNL     1      16.422   0.496 -28.896  1.00  0.00    -0.502 OA
ATOM     15  H   UNL     1      15.553   0.003 -28.734  1.00  0.00     0.293 HD
ENDBRANCH   2  14
BRANCH   3  16
ATOM     16  O   UNL     1      17.915   2.598 -27.784  1.00  0.00    -0.502 OA
ATOM     17  H   UNL     1      18.251   3.169 -28.551  1.00  0.00     0.293 HD
ENDBRANCH   3  16
TORSDOF 3
ENDMDL
MODEL 4
REMARK VINA RESULT:    -4.005      1.210      4.739
REMARK INTER + INTRA:          -4.542
REMARK INTER:                  -4.476
REMARK INTRA:                  -0.066
REMARK UNBOUND:                -0.069
REMARK SMILES COc1cc2ccc(=O)oc2c(O)c1O
REMARK SMILES IDX 3 1 14 2 12 3 11 4 5 5 4 6 6 7 7 8 8 9 9 10 10 11 2 12 1 13
REMARK SMILES IDX 15 14 13 16
REMARK H PARENT 15 15 13 17
REMARK Flexibility Score: inf
ROOT
ATOM      1  C   UNL     1      18.402 -13.592 -37.656  1.00  0.00     0.165 A 
ATOM      2  C   UNL     1      18.416 -12.214 -37.384  1.00  0.00     0.204 A 
ATOM      3  C   UNL     1      17.283 -11.424 -37.648  1.00  0.00     0.205 A 
ATOM      4  C   UNL     1      16.130 -12.015 -38.190  1.00  0.00     0.184 A 
ATOM      5  C   UNL     1      16.114 -13.400 -38.464  1.00  0.00     0.025 A 
ATOM      6  C   UNL     1      17.245 -14.181 -38.199  1.00  0.00     0.062 A 
ATOM      7  C   UNL     1      14.951 -13.962 -39.003  1.00  0.00     0.020 A 
ATOM      8  C   UNL     1      13.848 -13.146 -39.252  1.00  0.00     0.094 A 
ATOM      9  C   UNL     1      13.934 -11.783 -38.956  1.00  0.00     0.336 A 
ATOM     10  O   UNL     1      12.949 -11.030 -39.173  1.00  0.00    -0.246 OA
ATOM     11  O   UNL     1      15.052 -11.274 -38.444  1.00  0.00    -0.419 OA
ENDROOT
BRANCH   1  12
ATOM     12  O   UNL     1      19.558 -14.338 -37.375  1.00  0.00    -0.493 OA
ATOM     13  C   UNL     1      19.617 -15.415 -36.445  1.00  0.00     0.278 C 
ENDBRANCH   1  12
BRANCH   2  14
ATOM     14  O   UNL     1      19.572 -11.645 -36.846  1.00  0.00    -0.502 OA
ATOM     15  H   UNL     1      19.983 -10.799 -37.222  1.00  0.00     0.293 HD
ENDBRANCH   2  14
BRANCH   3  16
ATOM     16  O   UNL     1      17.317 -10.056 -37.371  1.00  0.00    -0.502 OA
ATOM     17  H   UNL     1      16.611  -9.603 -36.804  1.00  0.00     0.293 HD
ENDBRANCH   3  16
TORSDOF 3
ENDMDL
MODEL 5
REMARK VINA RESULT:    -3.936      1.208      1.545
REMARK INTER + INTRA:          -4.465
REMARK INTER:                  -4.408
REMARK INTRA:                  -0.057
REMARK UNBOUND:                -0.069
REMARK SMILES COc1cc2ccc(=O)oc2c(O)c1O
REMARK SMILES IDX 3 1 14 2 12 3 11 4 5 5 4 6 6 7 7 8 8 9 9 10 10 11 2 12 1 13
REMARK SMILES IDX 15 14 13 16
REMARK H PARENT 15 15 13 17
REMARK Flexibility Score: inf
ROOT
ATOM      1  C   UNL     1      14.230 -13.028 -39.222  1.00  0.00     0.165 A 
ATOM      2  C   UNL     1      14.422 -11.689 -38.849  1.00  0.00     0.204 A 
ATOM      3  C   UNL     1      15.643 -11.272 -38.288  1.00  0.00     0.205 A 
ATOM      4  C   UNL     1      16.678 -12.204 -38.099  1.00  0.00     0.184 A 
ATOM      5  C   UNL     1      16.487 -13.551 -38.474  1.00  0.00     0.025 A 
ATOM      6  C   UNL     1      15.270 -13.958 -39.031  1.00  0.00     0.062 A 
ATOM      7  C   UNL     1      17.536 -14.456 -38.274  1.00  0.00     0.020 A 
ATOM      8  C   UNL     1      18.731 -14.006 -37.715  1.00  0.00     0.094 A 
ATOM      9  C   UNL     1      18.850 -12.658 -37.367  1.00  0.00     0.336 A 
ATOM     10  O   UNL     1      19.922 -12.233 -36.861  1.00  0.00    -0.246 OA
ATOM     11  O   UNL     1      17.838 -11.819 -37.567  1.00  0.00    -0.419 OA
ENDROOT
BRANCH   1  12
ATOM     12  O   UNL     1      12.994 -13.395 -39.778  1.00  0.00    -0.493 OA
ATOM     13  C   UNL     1      12.282 -14.584 -39.451  1.00  0.00     0.278 C 
ENDBRANCH   1  12
BRANCH   2  14
ATOM     14  O   UNL     1      13.381 -10.779 -39.044  1.00  0.00    -0.502 OA
ATOM     15  H   UNL     1      13.098 -10.120 -38.329  1.00  0.00     0.293 HD
ENDBRANCH   2  14
BRANCH   3  16
ATOM     16  O   UNL     1      15.814  -9.936 -37.923  1.00  0.00    -0.502 OA
ATOM     17  H   UNL     1      16.709  -9.468 -37.989  1.00  0.00     0.293 HD
ENDBRANCH   3  16
TORSDOF 3
ENDMDL
MODEL 6
REMARK VINA RESULT:    -3.832     16.471     17.932
REMARK INTER + INTRA:          -4.348
REMARK INTER:                  -4.279
REMARK INTRA:                  -0.069
REMARK UNBOUND:                -0.069
REMARK SMILES COc1cc2ccc(=O)oc2c(O)c1O
REMARK SMILES IDX 3 1 14 2 12 3 11 4 5 5 4 6 6 7 7 8 8 9 9 10 10 11 2 12 1 13
REMARK SMILES IDX 15 14 13 16
REMARK H PARENT 15 15 13 17
REMARK Flexibility Score: inf
ROOT
ATOM      1  C   UNL     1      18.202   0.705 -28.237  1.00  0.00     0.165 A 
ATOM      2  C   UNL     1      19.011   1.129 -29.304  1.00  0.00     0.204 A 
ATOM      3  C   UNL     1      20.268   1.711 -29.058  1.00  0.00     0.205 A 
ATOM      4  C   UNL     1      20.717   1.871 -27.737  1.00  0.00     0.184 A 
ATOM      5  C   UNL     1      19.906   1.445 -26.663  1.00  0.00     0.025 A 
ATOM      6  C   UNL     1      18.656   0.866 -26.915  1.00  0.00     0.062 A 
ATOM      7  C   UNL     1      20.380   1.616 -25.358  1.00  0.00     0.020 A 
ATOM      8  C   UNL     1      21.630   2.198 -25.154  1.00  0.00     0.094 A 
ATOM      9  C   UNL     1      22.380   2.596 -26.264  1.00  0.00     0.336 A 
ATOM     10  O   UNL     1      23.512   3.122 -26.101  1.00  0.00    -0.246 OA
ATOM     11  O   UNL     1      21.906   2.422 -27.495  1.00  0.00    -0.419 OA
ENDROOT
BRANCH   1  12
ATOM     12  O   UNL     1      16.956   0.129 -28.533  1.00  0.00    -0.493 OA
ATOM     13  C   UNL     1      16.683  -1.268 -28.501  1.00  0.00     0.278 C 
ENDBRANCH   1  12
BRANCH   2  14
ATOM     14  O   UNL     1      18.546   0.962 -30.610  1.00  0.00    -0.502 OA
ATOM     15  H   UNL     1      18.117   0.100 -30.925  1.00  0.00     0.293 HD
ENDBRANCH   2  14
BRANCH   3  16
ATOM     16  O   UNL     1      21.056   2.126 -30.133  1.00  0.00    -0.502 OA
ATOM     17  H   UNL     1      20.995   1.693 -31.046  1.00  0.00     0.293 HD
ENDBRANCH   3  16
TORSDOF 3
ENDMDL
MODEL 7
REMARK VINA RESULT:    -3.783     17.112     17.807
REMARK INTER + INTRA:          -4.294
REMARK INTER:                  -4.227
REMARK INTRA:                  -0.067
REMARK UNBOUND:                -0.069
REMARK SMILES COc1cc2ccc(=O)oc2c(O)c1O
REMARK SMILES IDX 3 1 14 2 12 3 11 4 5 5 4 6 6 7 7 8 8 9 9 10 10 11 2 12 1 13
REMARK SMILES IDX 15 14 13 16
REMARK H PARENT 15 15 13 17
REMARK Flexibility Score: inf
ROOT
ATOM      1  C   UNL     1      16.003 -10.676 -20.527  1.00  0.00     0.165 A 
ATOM      2  C   UNL     1      17.151  -9.869 -20.512  1.00  0.00     0.204 A 
ATOM      3  C   UNL     1      17.078  -8.516 -20.890  1.00  0.00     0.205 A 
ATOM      4  C   UNL     1      15.846  -7.968 -21.286  1.00  0.00     0.184 A 
ATOM      5  C   UNL     1      14.690  -8.778 -21.302  1.00  0.00     0.025 A 
ATOM      6  C   UNL     1      14.771 -10.123 -20.925  1.00  0.00     0.062 A 
ATOM      7  C   UNL     1      13.478  -8.205 -21.701  1.00  0.00     0.020 A 
ATOM      8  C   UNL     1      13.444  -6.861 -22.070  1.00  0.00     0.094 A 
ATOM      9  C   UNL     1      14.627  -6.118 -22.030  1.00  0.00     0.336 A 
ATOM     10  O   UNL     1      14.617  -4.903 -22.358  1.00  0.00    -0.246 OA
ATOM     11  O   UNL     1      15.767  -6.687 -21.647  1.00  0.00    -0.419 OA
ENDROOT
BRANCH   1  12
ATOM     12  O   UNL     1      16.127 -12.021 -20.141  1.00  0.00    -0.493 OA
ATOM     13  C   UNL     1      15.882 -13.132 -20.997  1.00  0.00     0.278 C 
ENDBRANCH   1  12
BRANCH   2  14
ATOM     14  O   UNL     1      18.366 -10.432 -20.115  1.00  0.00    -0.502 OA
ATOM     15  H   UNL     1      19.239 -10.216 -20.580  1.00  0.00     0.293 HD
ENDBRANCH   2  14
BRANCH   3  16
ATOM     16  O   UNL     1      18.231  -7.731 -20.868  1.00  0.00    -0.502 OA
ATOM     17  H   UNL     1      19.014  -7.903 -21.487  1.00  0.00     0.293 HD
ENDBRANCH   3  16
TORSDOF 3
ENDMDL
MODEL 8
REMARK VINA RESULT:    -3.749     12.092     14.237
REMARK INTER + INTRA:          -4.256
REMARK INTER:                  -4.203
REMARK INTRA:                  -0.053
REMARK UNBOUND:                -0.069
REMARK SMILES COc1cc2ccc(=O)oc2c(O)c1O
REMARK SMILES IDX 3 1 14 2 12 3 11 4 5 5 4 6 6 7 7 8 8 9 9 10 10 11 2 12 1 13
REMARK SMILES IDX 15 14 13 16
REMARK H PARENT 15 15 13 17
REMARK Flexibility Score: inf
ROOT
ATOM      1  C   UNL     1      25.726  -6.117 -30.683  1.00  0.00     0.165 A 
ATOM      2  C   UNL     1      26.065  -5.092 -29.786  1.00  0.00     0.204 A 
ATOM      3  C   UNL     1      26.048  -3.747 -30.201  1.00  0.00     0.205 A 
ATOM      4  C   UNL     1      25.692  -3.428 -31.522  1.00  0.00     0.184 A 
ATOM      5  C   UNL     1      25.351  -4.458 -32.425  1.00  0.00     0.025 A 
ATOM      6  C   UNL     1      25.369  -5.794 -32.006  1.00  0.00     0.062 A 
ATOM      7  C   UNL     1      24.999  -4.110 -33.734  1.00  0.00     0.020 A 
ATOM      8  C   UNL     1      24.995  -2.767 -34.108  1.00  0.00     0.094 A 
ATOM      9  C   UNL     1      25.343  -1.800 -33.162  1.00  0.00     0.336 A 
ATOM     10  O   UNL     1      25.345  -0.582 -33.480  1.00  0.00    -0.246 OA
ATOM     11  O   UNL     1      25.674  -2.158 -31.924  1.00  0.00    -0.419 OA
ENDROOT
BRANCH   1  12
ATOM     12  O   UNL     1      25.758  -7.443 -30.222  1.00  0.00    -0.493 OA
ATOM     13  C   UNL     1      24.936  -8.492 -30.724  1.00  0.00     0.278 C 
ENDBRANCH   1  12
BRANCH   2  14
ATOM     14  O   UNL     1      26.417  -5.429 -28.478  1.00  0.00    -0.502 OA
ATOM     15  H   UNL     1      27.367  -5.665 -28.218  1.00  0.00     0.293 HD
ENDBRANCH   2  14
BRANCH   3  16
ATOM     16  O   UNL     1      26.388  -2.742 -29.294  1.00  0.00    -0.502 OA
ATOM     17  H   UNL     1      27.350  -2.488 -29.105  1.00  0.00     0.293 HD
ENDBRANCH   3  16
TORSDOF 3
ENDMDL
MODEL 9
REMARK VINA RESULT:    -3.682     17.895     19.476
REMARK INTER + INTRA:          -4.181
REMARK INTER:                  -4.130
REMARK INTRA:                  -0.051
REMARK UNBOUND:                -0.069
REMARK SMILES COc1cc2ccc(=O)oc2c(O)c1O
REMARK SMILES IDX 3 1 14 2 12 3 11 4 5 5 4 6 6 7 7 8 8 9 9 10 10 11 2 12 1 13
REMARK SMILES IDX 15 14 13 16
REMARK H PARENT 15 15 13 17
REMARK Flexibility Score: inf
ROOT
ATOM      1  C   UNL     1      22.984  -1.787 -22.639  1.00  0.00     0.165 A 
ATOM      2  C   UNL     1      21.903  -2.675 -22.753  1.00  0.00     0.204 A 
ATOM      3  C   UNL     1      20.820  -2.374 -23.600  1.00  0.00     0.205 A 
ATOM      4  C   UNL     1      20.819  -1.177 -24.335  1.00  0.00     0.184 A 
ATOM      5  C   UNL     1      21.906  -0.283 -24.221  1.00  0.00     0.025 A 
ATOM      6  C   UNL     1      22.980  -0.588 -23.377  1.00  0.00     0.062 A 
ATOM      7  C   UNL     1      21.878   0.902 -24.965  1.00  0.00     0.020 A 
ATOM      8  C   UNL     1      20.787   1.165 -25.792  1.00  0.00     0.094 A 
ATOM      9  C   UNL     1      19.746   0.235 -25.857  1.00  0.00     0.336 A 
ATOM     10  O   UNL     1      18.753   0.454 -26.598  1.00  0.00    -0.246 OA
ATOM     11  O   UNL     1      19.797  -0.883 -25.138  1.00  0.00    -0.419 OA
ENDROOT
BRANCH   1  12
ATOM     12  O   UNL     1      24.041  -2.131 -21.781  1.00  0.00    -0.493 OA
ATOM     13  C   UNL     1      25.204  -1.336 -21.572  1.00  0.00     0.278 C 
ENDBRANCH   1  12
BRANCH   2  14
ATOM     14  O   UNL     1      21.922  -3.859 -22.015  1.00  0.00    -0.502 OA
ATOM     15  H   UNL     1      22.577  -4.014 -21.258  1.00  0.00     0.293 HD
ENDBRANCH   2  14
BRANCH   3  16
ATOM     16  O   UNL     1      19.754  -3.271 -23.700  1.00  0.00    -0.502 OA
ATOM     17  H   UNL     1      18.927  -3.191 -23.122  1.00  0.00     0.293 HD
ENDBRANCH   3  16
TORSDOF 3
ENDMDL
