MODEL 1
REMARK VINA RESULT:    -6.644      0.000      0.000
REMARK INTER + INTRA:          -9.698
REMARK INTER:                  -8.780
REMARK INTRA:                  -0.917
REMARK UNBOUND:                -0.917
REMARK SMILES CC[C@@H](C=C[C@H](C)[C@H]1CC[C@@H]2[C@H]3CC[C@H]4C[C@@H](O)CC[C@]4(C)[C@@H]3CC[C@@]21C)C(C)C
REMARK SMILES IDX 6 1 7 2 5 3 4 4 3 5 2 6 1 7 28 8 29 9 30 10 8 11 9 12 26 13
REMARK SMILES IDX 10 14 11 15 25 16 27 17 12 18 24 19 23 20 13 21 21 22 14 23
REMARK SMILES IDX 15 24 20 25 22 26 16 27 19 28 17 29 18 30
REMARK H PARENT 18 31
REMARK Flexibility Score: inf
ROOT
ATOM      1  C   UNL     1     132.386 127.396 137.762  1.00  0.00     0.012 C 
ATOM      2  C   UNL     1     131.127 126.952 136.996  1.00  0.00     0.012 C 
ENDROOT
BRANCH   1   3
ATOM      3  C   UNL     1     133.591 126.567 137.320  1.00  0.00    -0.028 C 
ATOM      4  C   UNL     1     134.529 126.850 136.385  1.00  0.00    -0.027 C 
BRANCH   4   5
ATOM      5  C   UNL     1     134.610 128.062 135.467  1.00  0.00     0.014 C 
BRANCH   5   6
ATOM      6  C   UNL     1     134.814 127.574 134.004  1.00  0.00     0.004 C 
ATOM      7  C   UNL     1     135.698 126.334 133.869  1.00  0.00     0.004 C 
ENDBRANCH   5   6
BRANCH   5   8
ATOM      8  C   UNL     1     135.811 128.972 135.901  1.00  0.00    -0.011 C 
ATOM      9  C   UNL     1     137.067 128.160 136.268  1.00  0.00     0.008 C 
ATOM     10  C   UNL     1     136.196 130.003 134.826  1.00  0.00     0.008 C 
ENDBRANCH   5   8
ENDBRANCH   4   5
ENDBRANCH   1   3
BRANCH   1  11
ATOM     11  C   UNL     1     132.668 128.946 137.763  1.00  0.00     0.002 C 
ATOM     12  C   UNL     1     131.388 129.799 137.861  1.00  0.00     0.005 C 
ATOM     13  C   UNL     1     133.524 129.488 138.966  1.00  0.00    -0.026 C 
ATOM     14  C   UNL     1     131.166 130.096 139.339  1.00  0.00     0.005 C 
ATOM     15  C   UNL     1     132.456 129.694 140.080  1.00  0.00    -0.001 C 
ATOM     16  C   UNL     1     134.225 130.839 138.534  1.00  0.00     0.007 C 
ATOM     17  C   UNL     1     134.613 128.493 139.449  1.00  0.00     0.012 C 
ATOM     18  C   UNL     1     132.826 130.682 141.242  1.00  0.00    -0.004 C 
ATOM     19  C   UNL     1     134.008 132.037 139.475  1.00  0.00     0.005 C 
ATOM     20  C   UNL     1     134.039 131.589 140.941  1.00  0.00    -0.001 C 
ATOM     21  C   UNL     1     133.072 129.950 142.593  1.00  0.00     0.004 C 
ATOM     22  C   UNL     1     134.231 132.743 142.017  1.00  0.00    -0.026 C 
ATOM     23  C   UNL     1     133.660 130.873 143.699  1.00  0.00     0.004 C 
ATOM     24  C   UNL     1     133.474 132.358 143.339  1.00  0.00    -0.002 C 
ATOM     25  C   UNL     1     133.646 134.118 141.577  1.00  0.00     0.010 C 
ATOM     26  C   UNL     1     135.767 132.896 142.243  1.00  0.00     0.012 C 
ATOM     27  C   UNL     1     133.748 133.347 144.480  1.00  0.00     0.036 C 
ATOM     28  C   UNL     1     133.772 135.204 142.675  1.00  0.00     0.032 C 
ATOM     29  C   UNL     1     133.248 134.751 144.062  1.00  0.00     0.114 C 
BRANCH  29  30
ATOM     30  O   UNL     1     133.571 135.702 145.045  1.00  0.00    -0.393 OA
ATOM     31  H   UNL     1     132.891 136.423 145.000  1.00  0.00     0.210 HD
ENDBRANCH  29  30
ENDBRANCH   1  11
TORSDOF 6
ENDMDL
MODEL 2
REMARK VINA RESULT:    -6.606      0.857      1.521
REMARK INTER + INTRA:          -9.647
REMARK INTER:                  -8.102
REMARK INTRA:                  -1.545
REMARK UNBOUND:                -0.917
REMARK SMILES CC[C@@H](C=C[C@H](C)[C@H]1CC[C@@H]2[C@H]3CC[C@H]4C[C@@H](O)CC[C@]4(C)[C@@H]3CC[C@@]21C)C(C)C
REMARK SMILES IDX 6 1 7 2 5 3 4 4 3 5 2 6 1 7 28 8 29 9 30 10 8 11 9 12 26 13
REMARK SMILES IDX 10 14 11 15 25 16 27 17 12 18 24 19 23 20 13 21 21 22 14 23
REMARK SMILES IDX 15 24 20 25 22 26 16 27 19 28 17 29 18 30
REMARK H PARENT 18 31
REMARK Flexibility Score: inf
ROOT
ATOM      1  C   UNL     1     132.677 128.004 136.787  1.00  0.00     0.012 C 
ATOM      2  C   UNL     1     131.196 127.651 137.015  1.00  0.00     0.012 C 
ENDROOT
BRANCH   1   3
ATOM      3  C   UNL     1     133.134 127.503 135.418  1.00  0.00    -0.028 C 
ATOM      4  C   UNL     1     134.370 127.528 134.865  1.00  0.00    -0.027 C 
BRANCH   4   5
ATOM      5  C   UNL     1     135.649 128.119 135.442  1.00  0.00     0.014 C 
BRANCH   5   6
ATOM      6  C   UNL     1     136.128 129.278 134.523  1.00  0.00     0.004 C 
ATOM      7  C   UNL     1     136.494 130.563 135.265  1.00  0.00     0.004 C 
ENDBRANCH   5   6
BRANCH   5   8
ATOM      8  C   UNL     1     136.753 127.008 135.523  1.00  0.00    -0.011 C 
ATOM      9  C   UNL     1     136.875 126.396 136.931  1.00  0.00     0.008 C 
ATOM     10  C   UNL     1     136.524 125.866 134.517  1.00  0.00     0.008 C 
ENDBRANCH   5   8
ENDBRANCH   4   5
ENDBRANCH   1   3
BRANCH   1  11
ATOM     11  C   UNL     1     133.065 129.507 137.056  1.00  0.00     0.002 C 
ATOM     12  C   UNL     1     131.850 130.455 137.090  1.00  0.00     0.005 C 
ATOM     13  C   UNL     1     133.757 129.801 138.439  1.00  0.00    -0.026 C 
ATOM     14  C   UNL     1     131.419 130.570 138.547  1.00  0.00     0.005 C 
ATOM     15  C   UNL     1     132.544 129.954 139.402  1.00  0.00    -0.001 C 
ATOM     16  C   UNL     1     134.612 131.127 138.316  1.00  0.00     0.007 C 
ATOM     17  C   UNL     1     134.682 128.653 138.925  1.00  0.00     0.012 C 
ATOM     18  C   UNL     1     132.794 130.739 140.737  1.00  0.00    -0.004 C 
ATOM     19  C   UNL     1     134.335 132.202 139.381  1.00  0.00     0.005 C 
ATOM     20  C   UNL     1     134.102 131.562 140.754  1.00  0.00    -0.001 C 
ATOM     21  C   UNL     1     132.771 129.813 141.988  1.00  0.00     0.004 C 
ATOM     22  C   UNL     1     134.203 132.538 142.004  1.00  0.00    -0.026 C 
ATOM     23  C   UNL     1     133.241 130.521 143.292  1.00  0.00     0.004 C 
ATOM     24  C   UNL     1     133.221 132.052 143.129  1.00  0.00    -0.002 C 
ATOM     25  C   UNL     1     133.794 134.008 141.689  1.00  0.00     0.010 C 
ATOM     26  C   UNL     1     135.691 132.516 142.472  1.00  0.00     0.012 C 
ATOM     27  C   UNL     1     133.381 132.850 144.432  1.00  0.00     0.036 C 
ATOM     28  C   UNL     1     133.822 134.921 142.941  1.00  0.00     0.032 C 
ATOM     29  C   UNL     1     133.055 134.337 144.155  1.00  0.00     0.114 C 
BRANCH  29  30
ATOM     30  O   UNL     1     133.285 135.113 145.303  1.00  0.00    -0.393 OA
ATOM     31  H   UNL     1     132.522 134.968 145.921  1.00  0.00     0.210 HD
ENDBRANCH  29  30
ENDBRANCH   1  11
TORSDOF 6
ENDMDL
MODEL 3
REMARK VINA RESULT:    -6.408      1.377      2.071
REMARK INTER + INTRA:          -9.386
REMARK INTER:                  -8.269
REMARK INTRA:                  -1.117
REMARK UNBOUND:                -0.917
REMARK SMILES CC[C@@H](C=C[C@H](C)[C@H]1CC[C@@H]2[C@H]3CC[C@H]4C[C@@H](O)CC[C@]4(C)[C@@H]3CC[C@@]21C)C(C)C
REMARK SMILES IDX 6 1 7 2 5 3 4 4 3 5 2 6 1 7 28 8 29 9 30 10 8 11 9 12 26 13
REMARK SMILES IDX 10 14 11 15 25 16 27 17 12 18 24 19 23 20 13 21 21 22 14 23
REMARK SMILES IDX 15 24 20 25 22 26 16 27 19 28 17 29 18 30
REMARK H PARENT 18 31
REMARK Flexibility Score: inf
ROOT
ATOM      1  C   UNL     1     132.106 128.075 137.575  1.00  0.00     0.012 C 
ATOM      2  C   UNL     1     130.785 127.287 137.631  1.00  0.00     0.012 C 
ENDROOT
BRANCH   1   3
ATOM      3  C   UNL     1     132.886 127.708 136.313  1.00  0.00    -0.028 C 
ATOM      4  C   UNL     1     134.083 127.085 136.196  1.00  0.00    -0.027 C 
BRANCH   4   5
ATOM      5  C   UNL     1     135.017 126.621 137.305  1.00  0.00     0.014 C 
BRANCH   5   6
ATOM      6  C   UNL     1     136.188 125.816 136.674  1.00  0.00     0.004 C 
ATOM      7  C   UNL     1     136.297 125.945 135.155  1.00  0.00     0.004 C 
ENDBRANCH   5   6
BRANCH   5   8
ATOM      8  C   UNL     1     134.228 125.718 138.315  1.00  0.00    -0.011 C 
ATOM      9  C   UNL     1     134.527 124.219 138.130  1.00  0.00     0.008 C 
ATOM     10  C   UNL     1     134.499 126.089 139.784  1.00  0.00     0.008 C 
ENDBRANCH   5   8
ENDBRANCH   4   5
ENDBRANCH   1   3
BRANCH   1  11
ATOM     11  C   UNL     1     131.979 129.630 137.792  1.00  0.00     0.002 C 
ATOM     12  C   UNL     1     130.682 130.041 138.516  1.00  0.00     0.005 C 
ATOM     13  C   UNL     1     133.087 130.292 138.690  1.00  0.00    -0.026 C 
ATOM     14  C   UNL     1     131.010 130.117 140.003  1.00  0.00     0.005 C 
ATOM     15  C   UNL     1     132.545 130.059 140.130  1.00  0.00    -0.001 C 
ATOM     16  C   UNL     1     133.203 131.826 138.321  1.00  0.00     0.007 C 
ATOM     17  C   UNL     1     134.485 129.634 138.534  1.00  0.00     0.012 C 
ATOM     18  C   UNL     1     133.099 130.999 141.258  1.00  0.00    -0.004 C 
ATOM     19  C   UNL     1     133.100 132.808 139.502  1.00  0.00     0.005 C 
ATOM     20  C   UNL     1     133.828 132.257 140.733  1.00  0.00    -0.001 C 
ATOM     21  C   UNL     1     134.039 130.254 142.249  1.00  0.00     0.004 C 
ATOM     22  C   UNL     1     134.150 133.308 141.880  1.00  0.00    -0.026 C 
ATOM     23  C   UNL     1     134.780 131.204 143.233  1.00  0.00     0.004 C 
ATOM     24  C   UNL     1     134.109 132.589 143.277  1.00  0.00    -0.002 C 
ATOM     25  C   UNL     1     133.122 134.475 141.972  1.00  0.00     0.010 C 
ATOM     26  C   UNL     1     135.560 133.899 141.564  1.00  0.00     0.012 C 
ATOM     27  C   UNL     1     134.571 133.504 144.420  1.00  0.00     0.036 C 
ATOM     28  C   UNL     1     133.412 135.440 143.149  1.00  0.00     0.032 C 
ATOM     29  C   UNL     1     133.620 134.722 144.507  1.00  0.00     0.114 C 
BRANCH  29  30
ATOM     30  O   UNL     1     134.070 135.630 145.480  1.00  0.00    -0.393 OA
ATOM     31  H   UNL     1     133.292 135.874 146.046  1.00  0.00     0.210 HD
ENDBRANCH  29  30
ENDBRANCH   1  11
TORSDOF 6
ENDMDL
MODEL 4
REMARK VINA RESULT:    -6.108      2.973      8.301
REMARK INTER + INTRA:          -8.990
REMARK INTER:                  -9.125
REMARK INTRA:                   0.136
REMARK UNBOUND:                -0.917
REMARK SMILES CC[C@@H](C=C[C@H](C)[C@H]1CC[C@@H]2[C@H]3CC[C@H]4C[C@@H](O)CC[C@]4(C)[C@@H]3CC[C@@]21C)C(C)C
REMARK SMILES IDX 6 1 7 2 5 3 4 4 3 5 2 6 1 7 28 8 29 9 30 10 8 11 9 12 26 13
REMARK SMILES IDX 10 14 11 15 25 16 27 17 12 18 24 19 23 20 13 21 21 22 14 23
REMARK SMILES IDX 15 24 20 25 22 26 16 27 19 28 17 29 18 30
REMARK H PARENT 18 31
REMARK Flexibility Score: inf
ROOT
ATOM      1  C   UNL     1     133.125 131.023 143.260  1.00  0.00     0.012 C 
ATOM      2  C   UNL     1     133.114 129.537 143.665  1.00  0.00     0.012 C 
ENDROOT
BRANCH   1   3
ATOM      3  C   UNL     1     133.307 131.904 144.495  1.00  0.00    -0.028 C 
ATOM      4  C   UNL     1     133.397 133.253 144.579  1.00  0.00    -0.027 C 
BRANCH   4   5
ATOM      5  C   UNL     1     133.395 134.271 143.446  1.00  0.00     0.014 C 
BRANCH   5   6
ATOM      6  C   UNL     1     134.723 134.137 142.647  1.00  0.00     0.004 C 
ATOM      7  C   UNL     1     134.652 134.662 141.214  1.00  0.00     0.004 C 
ENDBRANCH   5   6
BRANCH   5   8
ATOM      8  C   UNL     1     133.268 135.717 144.038  1.00  0.00    -0.011 C 
ATOM      9  C   UNL     1     131.995 135.901 144.886  1.00  0.00     0.008 C 
ATOM     10  C   UNL     1     134.482 136.120 144.894  1.00  0.00     0.008 C 
ENDBRANCH   5   8
ENDBRANCH   4   5
ENDBRANCH   1   3
BRANCH   1  11
ATOM     11  C   UNL     1     134.104 131.398 142.083  1.00  0.00     0.002 C 
ATOM     12  C   UNL     1     135.400 130.565 142.079  1.00  0.00     0.005 C 
ATOM     13  C   UNL     1     133.551 131.163 140.629  1.00  0.00    -0.026 C 
ATOM     14  C   UNL     1     135.158 129.374 141.159  1.00  0.00     0.005 C 
ATOM     15  C   UNL     1     133.855 129.656 140.386  1.00  0.00    -0.001 C 
ATOM     16  C   UNL     1     134.321 132.113 139.625  1.00  0.00     0.007 C 
ATOM     17  C   UNL     1     132.026 131.427 140.496  1.00  0.00     0.012 C 
ATOM     18  C   UNL     1     133.916 129.178 138.893  1.00  0.00    -0.004 C 
ATOM     19  C   UNL     1     134.947 131.424 138.400  1.00  0.00     0.005 C 
ATOM     20  C   UNL     1     134.025 130.324 137.863  1.00  0.00    -0.001 C 
ATOM     21  C   UNL     1     132.710 128.272 138.507  1.00  0.00     0.004 C 
ATOM     22  C   UNL     1     134.338 129.808 136.393  1.00  0.00    -0.026 C 
ATOM     23  C   UNL     1     132.623 127.973 136.982  1.00  0.00     0.004 C 
ATOM     24  C   UNL     1     133.956 128.288 136.279  1.00  0.00    -0.002 C 
ATOM     25  C   UNL     1     135.844 129.898 136.003  1.00  0.00     0.010 C 
ATOM     26  C   UNL     1     133.508 130.698 135.417  1.00  0.00     0.012 C 
ATOM     27  C   UNL     1     134.078 127.760 134.842  1.00  0.00     0.036 C 
ATOM     28  C   UNL     1     136.136 129.313 134.598  1.00  0.00     0.032 C 
ATOM     29  C   UNL     1     135.549 127.896 134.379  1.00  0.00     0.114 C 
BRANCH  29  30
ATOM     30  O   UNL     1     135.678 127.511 133.034  1.00  0.00    -0.393 OA
ATOM     31  H   UNL     1     135.564 126.526 132.991  1.00  0.00     0.210 HD
ENDBRANCH  29  30
ENDBRANCH   1  11
TORSDOF 6
ENDMDL
MODEL 5
REMARK VINA RESULT:    -6.054      1.635      3.393
REMARK INTER + INTRA:          -8.918
REMARK INTER:                  -8.833
REMARK INTRA:                  -0.085
REMARK UNBOUND:                -0.917
REMARK SMILES CC[C@@H](C=C[C@H](C)[C@H]1CC[C@@H]2[C@H]3CC[C@H]4C[C@@H](O)CC[C@]4(C)[C@@H]3CC[C@@]21C)C(C)C
REMARK SMILES IDX 6 1 7 2 5 3 4 4 3 5 2 6 1 7 28 8 29 9 30 10 8 11 9 12 26 13
REMARK SMILES IDX 10 14 11 15 25 16 27 17 12 18 24 19 23 20 13 21 21 22 14 23
REMARK SMILES IDX 15 24 20 25 22 26 16 27 19 28 17 29 18 30
REMARK H PARENT 18 31
REMARK Flexibility Score: inf
ROOT
ATOM      1  C   UNL     1     134.613 125.237 138.423  1.00  0.00     0.012 C 
ATOM      2  C   UNL     1     134.219 123.781 138.119  1.00  0.00     0.012 C 
ENDROOT
BRANCH   1   3
ATOM      3  C   UNL     1     134.209 126.145 137.262  1.00  0.00    -0.028 C 
ATOM      4  C   UNL     1     134.990 126.899 136.452  1.00  0.00    -0.027 C 
BRANCH   4   5
ATOM      5  C   UNL     1     136.499 127.092 136.509  1.00  0.00     0.014 C 
BRANCH   5   6
ATOM      6  C   UNL     1     136.839 128.543 136.065  1.00  0.00     0.004 C 
ATOM      7  C   UNL     1     135.669 129.302 135.440  1.00  0.00     0.004 C 
ENDBRANCH   5   6
BRANCH   5   8
ATOM      8  C   UNL     1     137.198 126.061 135.557  1.00  0.00    -0.011 C 
ATOM      9  C   UNL     1     137.506 124.723 136.255  1.00  0.00     0.008 C 
ATOM     10  C   UNL     1     136.377 125.769 134.289  1.00  0.00     0.008 C 
ENDBRANCH   5   8
ENDBRANCH   4   5
ENDBRANCH   1   3
BRANCH   1  11
ATOM     11  C   UNL     1     134.153 125.786 139.826  1.00  0.00     0.002 C 
ATOM     12  C   UNL     1     135.307 125.907 140.842  1.00  0.00     0.005 C 
ATOM     13  C   UNL     1     133.549 127.239 139.832  1.00  0.00    -0.026 C 
ATOM     14  C   UNL     1     135.836 127.333 140.742  1.00  0.00     0.005 C 
ATOM     15  C   UNL     1     134.818 128.137 139.910  1.00  0.00    -0.001 C 
ATOM     16  C   UNL     1     132.607 127.401 141.093  1.00  0.00     0.007 C 
ATOM     17  C   UNL     1     132.735 127.576 138.554  1.00  0.00     0.012 C 
ATOM     18  C   UNL     1     134.619 129.601 140.439  1.00  0.00    -0.004 C 
ATOM     19  C   UNL     1     132.895 128.616 141.991  1.00  0.00     0.005 C 
ATOM     20  C   UNL     1     133.268 129.840 141.148  1.00  0.00    -0.001 C 
ATOM     21  C   UNL     1     134.792 130.668 139.319  1.00  0.00     0.004 C 
ATOM     22  C   UNL     1     133.200 131.244 141.890  1.00  0.00    -0.026 C 
ATOM     23  C   UNL     1     134.377 132.101 139.761  1.00  0.00     0.004 C 
ATOM     24  C   UNL     1     134.290 132.205 141.295  1.00  0.00    -0.002 C 
ATOM     25  C   UNL     1     133.492 131.163 143.419  1.00  0.00     0.010 C 
ATOM     26  C   UNL     1     131.754 131.793 141.680  1.00  0.00     0.012 C 
ATOM     27  C   UNL     1     134.178 133.633 141.849  1.00  0.00     0.036 C 
ATOM     28  C   UNL     1     133.500 132.553 144.103  1.00  0.00     0.032 C 
ATOM     29  C   UNL     1     134.390 133.598 143.382  1.00  0.00     0.114 C 
BRANCH  29  30
ATOM     30  O   UNL     1     134.197 134.875 143.934  1.00  0.00    -0.393 OA
ATOM     31  H   UNL     1     135.075 135.190 144.275  1.00  0.00     0.210 HD
ENDBRANCH  29  30
ENDBRANCH   1  11
TORSDOF 6
ENDMDL
MODEL 6
REMARK VINA RESULT:    -5.931      1.769      3.720
REMARK INTER + INTRA:          -8.755
REMARK INTER:                  -8.936
REMARK INTRA:                   0.181
REMARK UNBOUND:                -0.917
REMARK SMILES CC[C@@H](C=C[C@H](C)[C@H]1CC[C@@H]2[C@H]3CC[C@H]4C[C@@H](O)CC[C@]4(C)[C@@H]3CC[C@@]21C)C(C)C
REMARK SMILES IDX 6 1 7 2 5 3 4 4 3 5 2 6 1 7 28 8 29 9 30 10 8 11 9 12 26 13
REMARK SMILES IDX 10 14 11 15 25 16 27 17 12 18 24 19 23 20 13 21 21 22 14 23
REMARK SMILES IDX 15 24 20 25 22 26 16 27 19 28 17 29 18 30
REMARK H PARENT 18 31
REMARK Flexibility Score: inf
ROOT
ATOM      1  C   UNL     1     134.795 128.882 134.435  1.00  0.00     0.012 C 
ATOM      2  C   UNL     1     136.203 129.478 134.615  1.00  0.00     0.012 C 
ENDROOT
BRANCH   1   3
ATOM      3  C   UNL     1     134.889 127.491 133.808  1.00  0.00    -0.028 C 
ATOM      4  C   UNL     1     135.459 126.366 134.301  1.00  0.00    -0.027 C 
BRANCH   4   5
ATOM      5  C   UNL     1     136.219 126.189 135.609  1.00  0.00     0.014 C 
BRANCH   5   6
ATOM      6  C   UNL     1     137.745 126.218 135.312  1.00  0.00     0.004 C 
ATOM      7  C   UNL     1     138.530 127.232 136.144  1.00  0.00     0.004 C 
ENDBRANCH   5   6
BRANCH   5   8
ATOM      8  C   UNL     1     135.825 124.820 136.265  1.00  0.00    -0.011 C 
ATOM      9  C   UNL     1     136.962 123.783 136.200  1.00  0.00     0.008 C 
ATOM     10  C   UNL     1     135.386 124.966 137.732  1.00  0.00     0.008 C 
ENDBRANCH   5   8
ENDBRANCH   4   5
ENDBRANCH   1   3
BRANCH   1  11
ATOM     11  C   UNL     1     133.872 128.925 135.710  1.00  0.00     0.002 C 
ATOM     12  C   UNL     1     134.363 128.013 136.851  1.00  0.00     0.005 C 
ATOM     13  C   UNL     1     133.752 130.321 136.426  1.00  0.00    -0.026 C 
ATOM     14  C   UNL     1     135.231 128.874 137.763  1.00  0.00     0.005 C 
ATOM     15  C   UNL     1     135.006 130.341 137.348  1.00  0.00    -0.001 C 
ATOM     16  C   UNL     1     132.395 130.371 137.237  1.00  0.00     0.007 C 
ATOM     17  C   UNL     1     133.793 131.525 135.445  1.00  0.00     0.012 C 
ATOM     18  C   UNL     1     134.970 131.322 138.572  1.00  0.00    -0.004 C 
ATOM     19  C   UNL     1     132.516 130.765 138.719  1.00  0.00     0.005 C 
ATOM     20  C   UNL     1     133.564 131.868 138.905  1.00  0.00    -0.001 C 
ATOM     21  C   UNL     1     135.945 132.523 138.403  1.00  0.00     0.004 C 
ATOM     22  C   UNL     1     133.516 132.648 140.289  1.00  0.00    -0.026 C 
ATOM     23  C   UNL     1     135.764 133.625 139.487  1.00  0.00     0.004 C 
ATOM     24  C   UNL     1     134.968 133.091 140.692  1.00  0.00    -0.002 C 
ATOM     25  C   UNL     1     132.988 131.789 141.478  1.00  0.00     0.010 C 
ATOM     26  C   UNL     1     132.564 133.868 140.085  1.00  0.00     0.012 C 
ATOM     27  C   UNL     1     134.982 133.991 141.936  1.00  0.00     0.036 C 
ATOM     28  C   UNL     1     133.028 132.546 142.830  1.00  0.00     0.032 C 
ATOM     29  C   UNL     1     134.397 133.205 143.134  1.00  0.00     0.114 C 
BRANCH  29  30
ATOM     30  O   UNL     1     134.305 134.031 144.267  1.00  0.00    -0.393 OA
ATOM     31  H   UNL     1     135.213 134.389 144.452  1.00  0.00     0.210 HD
ENDBRANCH  29  30
ENDBRANCH   1  11
TORSDOF 6
ENDMDL
MODEL 7
REMARK VINA RESULT:    -5.891      1.309      2.773
REMARK INTER + INTRA:          -8.702
REMARK INTER:                  -8.767
REMARK INTRA:                   0.065
REMARK UNBOUND:                -0.917
REMARK SMILES CC[C@@H](C=C[C@H](C)[C@H]1CC[C@@H]2[C@H]3CC[C@H]4C[C@@H](O)CC[C@]4(C)[C@@H]3CC[C@@]21C)C(C)C
REMARK SMILES IDX 6 1 7 2 5 3 4 4 3 5 2 6 1 7 28 8 29 9 30 10 8 11 9 12 26 13
REMARK SMILES IDX 10 14 11 15 25 16 27 17 12 18 24 19 23 20 13 21 21 22 14 23
REMARK SMILES IDX 15 24 20 25 22 26 16 27 19 28 17 29 18 30
REMARK H PARENT 18 31
REMARK Flexibility Score: inf
ROOT
ATOM      1  C   UNL     1     133.653 126.029 138.101  1.00  0.00     0.012 C 
ATOM      2  C   UNL     1     132.565 126.769 137.301  1.00  0.00     0.012 C 
ENDROOT
BRANCH   1   3
ATOM      3  C   UNL     1     134.991 126.105 137.366  1.00  0.00    -0.028 C 
ATOM      4  C   UNL     1     135.373 126.933 136.364  1.00  0.00    -0.027 C 
BRANCH   4   5
ATOM      5  C   UNL     1     134.546 127.994 135.651  1.00  0.00     0.014 C 
BRANCH   5   6
ATOM      6  C   UNL     1     134.803 127.889 134.121  1.00  0.00     0.004 C 
ATOM      7  C   UNL     1     135.702 126.723 133.710  1.00  0.00     0.004 C 
ENDBRANCH   5   6
BRANCH   5   8
ATOM      8  C   UNL     1     134.957 129.417 136.168  1.00  0.00    -0.011 C 
ATOM      9  C   UNL     1     136.263 129.925 135.528  1.00  0.00     0.008 C 
ATOM     10  C   UNL     1     133.862 130.473 135.939  1.00  0.00     0.008 C 
ENDBRANCH   5   8
ENDBRANCH   4   5
ENDBRANCH   1   3
BRANCH   1  11
ATOM     11  C   UNL     1     133.761 126.422 139.623  1.00  0.00     0.002 C 
ATOM     12  C   UNL     1     135.213 126.607 140.104  1.00  0.00     0.005 C 
ATOM     13  C   UNL     1     133.098 127.789 140.028  1.00  0.00    -0.026 C 
ATOM     14  C   UNL     1     135.541 128.088 139.961  1.00  0.00     0.005 C 
ATOM     15  C   UNL     1     134.213 128.823 139.695  1.00  0.00    -0.001 C 
ATOM     16  C   UNL     1     132.738 127.752 141.569  1.00  0.00     0.007 C 
ATOM     17  C   UNL     1     131.811 128.116 139.223  1.00  0.00     0.012 C 
ATOM     18  C   UNL     1     134.130 130.213 140.418  1.00  0.00    -0.004 C 
ATOM     19  C   UNL     1     133.269 128.928 142.408  1.00  0.00     0.005 C 
ATOM     20  C   UNL     1     133.169 130.242 141.627  1.00  0.00    -0.001 C 
ATOM     21  C   UNL     1     133.749 131.368 139.448  1.00  0.00     0.004 C 
ATOM     22  C   UNL     1     133.296 131.574 142.486  1.00  0.00    -0.026 C 
ATOM     23  C   UNL     1     133.436 132.709 140.174  1.00  0.00     0.004 C 
ATOM     24  C   UNL     1     133.971 132.695 141.617  1.00  0.00    -0.002 C 
ATOM     25  C   UNL     1     134.189 131.422 143.754  1.00  0.00     0.010 C 
ATOM     26  C   UNL     1     131.851 131.963 142.929  1.00  0.00     0.012 C 
ATOM     27  C   UNL     1     133.980 134.058 142.324  1.00  0.00     0.036 C 
ATOM     28  C   UNL     1     134.364 132.753 144.528  1.00  0.00     0.032 C 
ATOM     29  C   UNL     1     134.798 133.942 143.634  1.00  0.00     0.114 C 
BRANCH  29  30
ATOM     30  O   UNL     1     134.745 135.146 144.355  1.00  0.00    -0.393 OA
ATOM     31  H   UNL     1     135.536 135.171 144.955  1.00  0.00     0.210 HD
ENDBRANCH  29  30
ENDBRANCH   1  11
TORSDOF 6
ENDMDL
MODEL 8
REMARK VINA RESULT:    -5.878      3.403      8.338
REMARK INTER + INTRA:          -8.685
REMARK INTER:                  -7.064
REMARK INTRA:                  -1.621
REMARK UNBOUND:                -0.917
REMARK SMILES CC[C@@H](C=C[C@H](C)[C@H]1CC[C@@H]2[C@H]3CC[C@H]4C[C@@H](O)CC[C@]4(C)[C@@H]3CC[C@@]21C)C(C)C
REMARK SMILES IDX 6 1 7 2 5 3 4 4 3 5 2 6 1 7 28 8 29 9 30 10 8 11 9 12 26 13
REMARK SMILES IDX 10 14 11 15 25 16 27 17 12 18 24 19 23 20 13 21 21 22 14 23
REMARK SMILES IDX 15 24 20 25 22 26 16 27 19 28 17 29 18 30
REMARK H PARENT 18 31
REMARK Flexibility Score: inf
ROOT
ATOM      1  C   UNL     1     131.980 130.559 140.827  1.00  0.00     0.012 C 
ATOM      2  C   UNL     1     130.540 130.460 140.293  1.00  0.00     0.012 C 
ENDROOT
BRANCH   1   3
ATOM      3  C   UNL     1     131.992 131.252 142.188  1.00  0.00    -0.028 C 
ATOM      4  C   UNL     1     133.028 131.814 142.855  1.00  0.00    -0.027 C 
BRANCH   4   5
ATOM      5  C   UNL     1     134.495 131.863 142.449  1.00  0.00     0.014 C 
BRANCH   5   6
ATOM      6  C   UNL     1     135.337 131.104 143.513  1.00  0.00     0.004 C 
ATOM      7  C   UNL     1     134.973 129.628 143.671  1.00  0.00     0.004 C 
ENDBRANCH   5   6
BRANCH   5   8
ATOM      8  C   UNL     1     134.966 133.356 142.357  1.00  0.00    -0.011 C 
ATOM      9  C   UNL     1     134.886 133.916 140.925  1.00  0.00     0.008 C 
ATOM     10  C   UNL     1     134.173 134.290 143.288  1.00  0.00     0.008 C 
ENDBRANCH   5   8
ENDBRANCH   4   5
ENDBRANCH   1   3
BRANCH   1  11
ATOM     11  C   UNL     1     132.805 129.216 140.809  1.00  0.00     0.002 C 
ATOM     12  C   UNL     1     131.943 127.975 140.505  1.00  0.00     0.005 C 
ATOM     13  C   UNL     1     133.932 129.116 139.717  1.00  0.00    -0.026 C 
ATOM     14  C   UNL     1     132.017 127.743 139.001  1.00  0.00     0.005 C 
ATOM     15  C   UNL     1     133.149 128.638 138.460  1.00  0.00    -0.001 C 
ATOM     16  C   UNL     1     135.021 128.072 140.194  1.00  0.00     0.007 C 
ATOM     17  C   UNL     1     134.633 130.471 139.425  1.00  0.00     0.012 C 
ATOM     18  C   UNL     1     133.984 127.946 137.326  1.00  0.00    -0.004 C 
ATOM     19  C   UNL     1     135.365 126.958 139.189  1.00  0.00     0.005 C 
ATOM     20  C   UNL     1     135.401 127.508 137.759  1.00  0.00    -0.001 C 
ATOM     21  C   UNL     1     134.102 128.827 136.049  1.00  0.00     0.004 C 
ATOM     22  C   UNL     1     136.122 126.591 136.679  1.00  0.00    -0.026 C 
ATOM     23  C   UNL     1     135.109 128.269 135.002  1.00  0.00     0.004 C 
ATOM     24  C   UNL     1     135.435 126.790 135.280  1.00  0.00    -0.002 C 
ATOM     25  C   UNL     1     136.030 125.066 136.985  1.00  0.00     0.010 C 
ATOM     26  C   UNL     1     137.624 127.014 136.662  1.00  0.00     0.012 C 
ATOM     27  C   UNL     1     136.180 126.061 134.153  1.00  0.00     0.036 C 
ATOM     28  C   UNL     1     136.668 124.192 135.877  1.00  0.00     0.032 C 
ATOM     29  C   UNL     1     136.180 124.542 134.448  1.00  0.00     0.114 C 
BRANCH  29  30
ATOM     30  O   UNL     1     136.938 123.854 133.486  1.00  0.00    -0.393 OA
ATOM     31  H   UNL     1     137.518 124.518 133.029  1.00  0.00     0.210 HD
ENDBRANCH  29  30
ENDBRANCH   1  11
TORSDOF 6
ENDMDL
MODEL 9
REMARK VINA RESULT:    -5.284      3.548      5.786
REMARK INTER + INTRA:          -7.900
REMARK INTER:                  -7.248
REMARK INTRA:                  -0.652
REMARK UNBOUND:                -0.917
REMARK SMILES CC[C@@H](C=C[C@H](C)[C@H]1CC[C@@H]2[C@H]3CC[C@H]4C[C@@H](O)CC[C@]4(C)[C@@H]3CC[C@@]21C)C(C)C
REMARK SMILES IDX 6 1 7 2 5 3 4 4 3 5 2 6 1 7 28 8 29 9 30 10 8 11 9 12 26 13
REMARK SMILES IDX 10 14 11 15 25 16 27 17 12 18 24 19 23 20 13 21 21 22 14 23
REMARK SMILES IDX 15 24 20 25 22 26 16 27 19 28 17 29 18 30
REMARK H PARENT 18 31
REMARK Flexibility Score: inf
ROOT
ATOM      1  C   UNL     1     131.493 128.141 138.286  1.00  0.00     0.012 C 
ATOM      2  C   UNL     1     130.258 127.364 137.795  1.00  0.00     0.012 C 
ENDROOT
BRANCH   1   3
ATOM      3  C   UNL     1     131.091 129.136 139.373  1.00  0.00    -0.028 C 
ATOM      4  C   UNL     1     131.471 130.426 139.538  1.00  0.00    -0.027 C 
BRANCH   4   5
ATOM      5  C   UNL     1     132.458 131.232 138.705  1.00  0.00     0.014 C 
BRANCH   5   6
ATOM      6  C   UNL     1     132.891 132.488 139.513  1.00  0.00     0.004 C 
ATOM      7  C   UNL     1     133.528 132.179 140.867  1.00  0.00     0.004 C 
ENDBRANCH   5   6
BRANCH   5   8
ATOM      8  C   UNL     1     131.779 131.666 137.360  1.00  0.00    -0.011 C 
ATOM      9  C   UNL     1     131.402 133.160 137.341  1.00  0.00     0.008 C 
ATOM     10  C   UNL     1     132.654 131.371 136.128  1.00  0.00     0.008 C 
ENDBRANCH   5   8
ENDBRANCH   4   5
ENDBRANCH   1   3
BRANCH   1  11
ATOM     11  C   UNL     1     132.737 127.260 138.684  1.00  0.00     0.002 C 
ATOM     12  C   UNL     1     134.079 127.851 138.212  1.00  0.00     0.005 C 
ATOM     13  C   UNL     1     132.979 127.070 140.226  1.00  0.00    -0.026 C 
ATOM     14  C   UNL     1     134.624 128.687 139.364  1.00  0.00     0.005 C 
ATOM     15  C   UNL     1     133.779 128.349 140.607  1.00  0.00    -0.001 C 
ATOM     16  C   UNL     1     133.804 125.740 140.459  1.00  0.00     0.007 C 
ATOM     17  C   UNL     1     131.668 126.995 141.055  1.00  0.00     0.012 C 
ATOM     18  C   UNL     1     134.630 128.287 141.924  1.00  0.00    -0.004 C 
ATOM     19  C   UNL     1     135.077 125.884 141.312  1.00  0.00     0.005 C 
ATOM     20  C   UNL     1     134.849 126.859 142.471  1.00  0.00    -0.001 C 
ATOM     21  C   UNL     1     134.039 129.172 143.059  1.00  0.00     0.004 C 
ATOM     22  C   UNL     1     135.915 126.804 143.648  1.00  0.00    -0.026 C 
ATOM     23  C   UNL     1     134.727 128.953 144.438  1.00  0.00     0.004 C 
ATOM     24  C   UNL     1     136.079 128.236 144.274  1.00  0.00    -0.002 C 
ATOM     25  C   UNL     1     137.341 126.376 143.186  1.00  0.00     0.010 C 
ATOM     26  C   UNL     1     135.387 125.766 144.686  1.00  0.00     0.012 C 
ATOM     27  C   UNL     1     136.972 128.230 145.524  1.00  0.00     0.036 C 
ATOM     28  C   UNL     1     138.380 126.410 144.336  1.00  0.00     0.032 C 
ATOM     29  C   UNL     1     138.387 127.741 145.131  1.00  0.00     0.114 C 
BRANCH  29  30
ATOM     30  O   UNL     1     139.203 127.630 146.269  1.00  0.00    -0.393 OA
ATOM     31  H   UNL     1     139.547 126.700 146.302  1.00  0.00     0.210 HD
ENDBRANCH  29  30
ENDBRANCH   1  11
TORSDOF 6
ENDMDL
