MODEL 1
REMARK VINA RESULT:    -8.453      0.000      0.000
REMARK INTER + INTRA:         -10.239
REMARK INTER:                  -9.936
REMARK INTRA:                  -0.304
REMARK UNBOUND:                -0.304
REMARK SMILES O=c1cc(-c2ccc(O)c(O)c2)oc2cc(O)cc(O)c12
REMARK SMILES IDX 4 1 3 2 2 3 1 4 21 5 19 6 18 7 16 8 15 9 14 10 13 11 5 12
REMARK SMILES IDX 6 13 7 14 8 15 12 16 10 17 9 18 11 20 20 22 17 24
REMARK H PARENT 9 19 11 21 20 23 17 25
REMARK Flexibility Score: inf
ROOT
ATOM      1  C   UNL     1       5.270 -55.600 -28.890  1.00  0.00     0.138 A 
ATOM      2  C   UNL     1       4.924 -55.393 -30.232  1.00  0.00     0.100 A 
ATOM      3  C   UNL     1       5.929 -55.229 -31.187  1.00  0.00     0.197 A 
ATOM      4  O   UNL     1       5.586 -54.990 -32.373  1.00  0.00    -0.289 OA
ATOM      5  C   UNL     1       7.288 -55.307 -30.799  1.00  0.00     0.107 A 
ATOM      6  C   UNL     1       8.397 -55.189 -31.690  1.00  0.00     0.134 A 
ATOM      7  C   UNL     1       9.699 -55.185 -31.174  1.00  0.00     0.093 A 
ATOM      8  C   UNL     1       9.936 -55.353 -29.810  1.00  0.00     0.123 A 
ATOM      9  C   UNL     1       8.861 -55.520 -28.936  1.00  0.00     0.094 A 
ATOM     10  C   UNL     1       7.548 -55.494 -29.414  1.00  0.00     0.146 A 
ATOM     11  O   UNL     1       6.553 -55.639 -28.547  1.00  0.00    -0.456 OA
ENDROOT
BRANCH   1  12
ATOM     12  C   UNL     1       4.242 -55.785 -27.834  1.00  0.00     0.021 A 
ATOM     13  C   UNL     1       3.009 -55.112 -27.875  1.00  0.00     0.016 A 
ATOM     14  C   UNL     1       2.067 -55.297 -26.862  1.00  0.00     0.051 A 
ATOM     15  C   UNL     1       2.333 -56.149 -25.786  1.00  0.00     0.157 A 
ATOM     16  C   UNL     1       4.515 -56.630 -26.745  1.00  0.00     0.062 A 
ATOM     17  C   UNL     1       3.574 -56.823 -25.724  1.00  0.00     0.158 A 
BRANCH  15  18
ATOM     18  O   UNL     1       1.346 -56.293 -24.808  1.00  0.00    -0.504 OA
ATOM     19  H   UNL     1       0.985 -57.182 -24.497  1.00  0.00     0.293 HD
ENDBRANCH  15  18
BRANCH  17  20
ATOM     20  O   UNL     1       3.914 -57.684 -24.680  1.00  0.00    -0.504 OA
ATOM     21  H   UNL     1       3.717 -57.498 -23.707  1.00  0.00     0.293 HD
ENDBRANCH  17  20
ENDBRANCH   1  12
BRANCH   6  22
ATOM     22  O   UNL     1       8.279 -55.097 -33.080  1.00  0.00    -0.507 OA
ATOM     23  H   UNL     1       7.590 -54.548 -33.569  1.00  0.00     0.293 HD
ENDBRANCH   6  22
BRANCH   8  24
ATOM     24  O   UNL     1      11.244 -55.359 -29.335  1.00  0.00    -0.508 OA
ATOM     25  H   UNL     1      11.776 -54.502 -29.234  1.00  0.00     0.293 HD
ENDBRANCH   8  24
TORSDOF 5
ENDMDL
MODEL 2
REMARK VINA RESULT:    -8.412      1.496      6.709
REMARK INTER + INTRA:         -10.190
REMARK INTER:                  -9.874
REMARK INTRA:                  -0.316
REMARK UNBOUND:                -0.304
REMARK SMILES O=c1cc(-c2ccc(O)c(O)c2)oc2cc(O)cc(O)c12
REMARK SMILES IDX 4 1 3 2 2 3 1 4 21 5 19 6 18 7 16 8 15 9 14 10 13 11 5 12
REMARK SMILES IDX 6 13 7 14 8 15 12 16 10 17 9 18 11 20 20 22 17 24
REMARK H PARENT 9 19 11 21 20 23 17 25
REMARK Flexibility Score: inf
ROOT
ATOM      1  C   UNL     1       5.547 -55.888 -29.086  1.00  0.00     0.138 A 
ATOM      2  C   UNL     1       4.243 -55.391 -28.957  1.00  0.00     0.100 A 
ATOM      3  C   UNL     1       3.516 -55.651 -27.794  1.00  0.00     0.197 A 
ATOM      4  O   UNL     1       2.329 -55.239 -27.732  1.00  0.00    -0.289 OA
ATOM      5  C   UNL     1       4.112 -56.385 -26.741  1.00  0.00     0.107 A 
ATOM      6  C   UNL     1       3.480 -56.683 -25.496  1.00  0.00     0.134 A 
ATOM      7  C   UNL     1       4.134 -57.502 -24.568  1.00  0.00     0.093 A 
ATOM      8  C   UNL     1       5.419 -57.986 -24.812  1.00  0.00     0.123 A 
ATOM      9  C   UNL     1       6.067 -57.660 -26.004  1.00  0.00     0.094 A 
ATOM     10  C   UNL     1       5.428 -56.873 -26.966  1.00  0.00     0.146 A 
ATOM     11  O   UNL     1       6.072 -56.600 -28.095  1.00  0.00    -0.456 OA
ENDROOT
BRANCH   1  12
ATOM     12  C   UNL     1       6.366 -55.638 -30.298  1.00  0.00     0.021 A 
ATOM     13  C   UNL     1       5.801 -55.134 -31.483  1.00  0.00     0.016 A 
ATOM     14  C   UNL     1       6.595 -54.919 -32.610  1.00  0.00     0.051 A 
ATOM     15  C   UNL     1       7.963 -55.205 -32.586  1.00  0.00     0.157 A 
ATOM     16  C   UNL     1       7.739 -55.939 -30.279  1.00  0.00     0.062 A 
ATOM     17  C   UNL     1       8.543 -55.725 -31.406  1.00  0.00     0.158 A 
BRANCH  15  18
ATOM     18  O   UNL     1       8.702 -54.965 -33.747  1.00  0.00    -0.504 OA
ATOM     19  H   UNL     1       9.708 -54.888 -33.770  1.00  0.00     0.293 HD
ENDBRANCH  15  18
BRANCH  17  20
ATOM     20  O   UNL     1       9.900 -56.040 -31.307  1.00  0.00    -0.504 OA
ATOM     21  H   UNL     1      10.523 -56.106 -32.098  1.00  0.00     0.293 HD
ENDBRANCH  17  20
ENDBRANCH   1  12
BRANCH   6  22
ATOM     22  O   UNL     1       2.230 -56.186 -25.113  1.00  0.00    -0.507 OA
ATOM     23  H   UNL     1       2.040 -55.232 -24.853  1.00  0.00     0.293 HD
ENDBRANCH   6  22
BRANCH   8  24
ATOM     24  O   UNL     1       6.045 -58.785 -23.860  1.00  0.00    -0.508 OA
ATOM     25  H   UNL     1       6.892 -59.299 -24.072  1.00  0.00     0.293 HD
ENDBRANCH   8  24
TORSDOF 5
ENDMDL
MODEL 3
REMARK VINA RESULT:    -8.204      1.539      6.926
REMARK INTER + INTRA:          -9.946
REMARK INTER:                  -9.661
REMARK INTRA:                  -0.286
REMARK UNBOUND:                -0.304
REMARK SMILES O=c1cc(-c2ccc(O)c(O)c2)oc2cc(O)cc(O)c12
REMARK SMILES IDX 4 1 3 2 2 3 1 4 21 5 19 6 18 7 16 8 15 9 14 10 13 11 5 12
REMARK SMILES IDX 6 13 7 14 8 15 12 16 10 17 9 18 11 20 20 22 17 24
REMARK H PARENT 9 19 11 21 20 23 17 25
REMARK Flexibility Score: inf
ROOT
ATOM      1  C   UNL     1       6.554 -55.859 -29.215  1.00  0.00     0.138 A 
ATOM      2  C   UNL     1       5.249 -55.380 -29.388  1.00  0.00     0.100 A 
ATOM      3  C   UNL     1       4.280 -55.648 -28.420  1.00  0.00     0.197 A 
ATOM      4  O   UNL     1       3.105 -55.252 -28.632  1.00  0.00    -0.289 OA
ATOM      5  C   UNL     1       4.630 -56.371 -27.255  1.00  0.00     0.107 A 
ATOM      6  C   UNL     1       3.736 -56.675 -26.185  1.00  0.00     0.134 A 
ATOM      7  C   UNL     1       4.173 -57.482 -25.127  1.00  0.00     0.093 A 
ATOM      8  C   UNL     1       5.486 -57.948 -25.071  1.00  0.00     0.123 A 
ATOM      9  C   UNL     1       6.384 -57.616 -26.086  1.00  0.00     0.094 A 
ATOM     10  C   UNL     1       5.969 -56.841 -27.172  1.00  0.00     0.146 A 
ATOM     11  O   UNL     1       6.850 -56.561 -28.126  1.00  0.00    -0.456 OA
ENDROOT
BRANCH   1  12
ATOM     12  C   UNL     1       7.625 -55.600 -30.211  1.00  0.00     0.021 A 
ATOM     13  C   UNL     1       8.973 -55.478 -29.834  1.00  0.00     0.016 A 
ATOM     14  C   UNL     1       9.956 -55.224 -30.792  1.00  0.00     0.051 A 
ATOM     15  C   UNL     1       9.618 -55.079 -32.141  1.00  0.00     0.157 A 
ATOM     16  C   UNL     1       7.284 -55.440 -31.565  1.00  0.00     0.062 A 
ATOM     17  C   UNL     1       8.264 -55.186 -32.533  1.00  0.00     0.158 A 
BRANCH  15  18
ATOM     18  O   UNL     1      10.650 -54.829 -33.049  1.00  0.00    -0.504 OA
ATOM     19  H   UNL     1      11.609 -55.104 -32.903  1.00  0.00     0.293 HD
ENDBRANCH  15  18
BRANCH  17  20
ATOM     20  O   UNL     1       7.849 -55.048 -33.859  1.00  0.00    -0.504 OA
ATOM     21  H   UNL     1       7.353 -54.244 -34.215  1.00  0.00     0.293 HD
ENDBRANCH  17  20
ENDBRANCH   1  12
BRANCH   6  22
ATOM     22  O   UNL     1       2.425 -56.195 -26.099  1.00  0.00    -0.507 OA
ATOM     23  H   UNL     1       1.719 -56.544 -25.471  1.00  0.00     0.293 HD
ENDBRANCH   6  22
BRANCH   8  24
ATOM     24  O   UNL     1       5.890 -58.737 -23.996  1.00  0.00    -0.508 OA
ATOM     25  H   UNL     1       5.924 -58.369 -23.052  1.00  0.00     0.293 HD
ENDBRANCH   8  24
TORSDOF 5
ENDMDL
MODEL 4
REMARK VINA RESULT:    -8.186      1.361      7.237
REMARK INTER + INTRA:          -9.925
REMARK INTER:                  -9.637
REMARK INTRA:                  -0.288
REMARK UNBOUND:                -0.304
REMARK SMILES O=c1cc(-c2ccc(O)c(O)c2)oc2cc(O)cc(O)c12
REMARK SMILES IDX 4 1 3 2 2 3 1 4 21 5 19 6 18 7 16 8 15 9 14 10 13 11 5 12
REMARK SMILES IDX 6 13 7 14 8 15 12 16 10 17 9 18 11 20 20 22 17 24
REMARK H PARENT 9 19 11 21 20 23 17 25
REMARK Flexibility Score: inf
ROOT
ATOM      1  C   UNL     1       5.764 -55.978 -28.710  1.00  0.00     0.138 A 
ATOM      2  C   UNL     1       6.222 -56.878 -27.738  1.00  0.00     0.100 A 
ATOM      3  C   UNL     1       5.435 -57.141 -26.615  1.00  0.00     0.197 A 
ATOM      4  O   UNL     1       5.900 -57.910 -25.734  1.00  0.00    -0.289 OA
ATOM      5  C   UNL     1       4.168 -56.526 -26.483  1.00  0.00     0.107 A 
ATOM      6  C   UNL     1       3.266 -56.744 -25.398  1.00  0.00     0.134 A 
ATOM      7  C   UNL     1       2.080 -56.002 -25.327  1.00  0.00     0.093 A 
ATOM      8  C   UNL     1       1.736 -55.094 -26.328  1.00  0.00     0.123 A 
ATOM      9  C   UNL     1       2.587 -54.908 -27.418  1.00  0.00     0.094 A 
ATOM     10  C   UNL     1       3.793 -55.608 -27.501  1.00  0.00     0.146 A 
ATOM     11  O   UNL     1       4.583 -55.390 -28.547  1.00  0.00    -0.456 OA
ENDROOT
BRANCH   1  12
ATOM     12  C   UNL     1       6.556 -55.664 -29.925  1.00  0.00     0.021 A 
ATOM     13  C   UNL     1       5.947 -55.231 -31.115  1.00  0.00     0.016 A 
ATOM     14  C   UNL     1       6.718 -54.953 -32.245  1.00  0.00     0.051 A 
ATOM     15  C   UNL     1       8.108 -55.107 -32.218  1.00  0.00     0.157 A 
ATOM     16  C   UNL     1       7.952 -55.832 -29.902  1.00  0.00     0.062 A 
ATOM     17  C   UNL     1       8.733 -55.555 -31.032  1.00  0.00     0.158 A 
BRANCH  15  18
ATOM     18  O   UNL     1       8.821 -54.810 -33.381  1.00  0.00    -0.504 OA
ATOM     19  H   UNL     1       9.745 -55.162 -33.583  1.00  0.00     0.293 HD
ENDBRANCH  15  18
BRANCH  17  20
ATOM     20  O   UNL     1      10.114 -55.737 -30.929  1.00  0.00    -0.504 OA
ATOM     21  H   UNL     1      10.666 -55.434 -30.140  1.00  0.00     0.293 HD
ENDBRANCH  17  20
ENDBRANCH   1  12
BRANCH   6  22
ATOM     22  O   UNL     1       3.471 -57.686 -24.386  1.00  0.00    -0.507 OA
ATOM     23  H   UNL     1       4.244 -58.331 -24.342  1.00  0.00     0.293 HD
ENDBRANCH   6  22
BRANCH   8  24
ATOM     24  O   UNL     1       0.542 -54.385 -26.230  1.00  0.00    -0.508 OA
ATOM     25  H   UNL     1      -0.030 -54.195 -27.045  1.00  0.00     0.293 HD
ENDBRANCH   8  24
TORSDOF 5
ENDMDL
MODEL 5
REMARK VINA RESULT:    -8.020      1.395      7.466
REMARK INTER + INTRA:          -9.730
REMARK INTER:                  -9.428
REMARK INTRA:                  -0.302
REMARK UNBOUND:                -0.304
REMARK SMILES O=c1cc(-c2ccc(O)c(O)c2)oc2cc(O)cc(O)c12
REMARK SMILES IDX 4 1 3 2 2 3 1 4 21 5 19 6 18 7 16 8 15 9 14 10 13 11 5 12
REMARK SMILES IDX 6 13 7 14 8 15 12 16 10 17 9 18 11 20 20 22 17 24
REMARK H PARENT 9 19 11 21 20 23 17 25
REMARK Flexibility Score: inf
ROOT
ATOM      1  C   UNL     1       5.114 -55.993 -27.948  1.00  0.00     0.138 A 
ATOM      2  C   UNL     1       5.203 -57.010 -26.988  1.00  0.00     0.100 A 
ATOM      3  C   UNL     1       4.252 -57.083 -25.969  1.00  0.00     0.197 A 
ATOM      4  O   UNL     1       4.391 -57.974 -25.091  1.00  0.00    -0.289 OA
ATOM      5  C   UNL     1       3.187 -56.152 -25.931  1.00  0.00     0.107 A 
ATOM      6  C   UNL     1       2.141 -56.149 -24.959  1.00  0.00     0.134 A 
ATOM      7  C   UNL     1       1.195 -55.117 -24.966  1.00  0.00     0.093 A 
ATOM      8  C   UNL     1       1.221 -54.121 -25.942  1.00  0.00     0.123 A 
ATOM      9  C   UNL     1       2.209 -54.142 -26.927  1.00  0.00     0.094 A 
ATOM     10  C   UNL     1       3.188 -55.139 -26.927  1.00  0.00     0.146 A 
ATOM     11  O   UNL     1       4.121 -55.113 -27.872  1.00  0.00    -0.456 OA
ENDROOT
BRANCH   1  12
ATOM     12  C   UNL     1       6.095 -55.870 -29.055  1.00  0.00     0.021 A 
ATOM     13  C   UNL     1       7.459 -56.155 -28.871  1.00  0.00     0.016 A 
ATOM     14  C   UNL     1       8.359 -56.021 -29.929  1.00  0.00     0.051 A 
ATOM     15  C   UNL     1       7.925 -55.595 -31.188  1.00  0.00     0.157 A 
ATOM     16  C   UNL     1       5.661 -55.428 -30.317  1.00  0.00     0.062 A 
ATOM     17  C   UNL     1       6.558 -55.291 -31.385  1.00  0.00     0.158 A 
BRANCH  15  18
ATOM     18  O   UNL     1       8.876 -55.484 -32.204  1.00  0.00    -0.504 OA
ATOM     19  H   UNL     1       9.088 -56.220 -32.862  1.00  0.00     0.293 HD
ENDBRANCH  15  18
BRANCH  17  20
ATOM     20  O   UNL     1       6.050 -54.855 -32.610  1.00  0.00    -0.504 OA
ATOM     21  H   UNL     1       5.610 -55.462 -33.287  1.00  0.00     0.293 HD
ENDBRANCH  17  20
ENDBRANCH   1  12
BRANCH   6  22
ATOM     22  O   UNL     1       1.973 -57.140 -23.987  1.00  0.00    -0.507 OA
ATOM     23  H   UNL     1       1.778 -58.110 -24.175  1.00  0.00     0.293 HD
ENDBRANCH   6  22
BRANCH   8  24
ATOM     24  O   UNL     1       0.255 -53.119 -25.927  1.00  0.00    -0.508 OA
ATOM     25  H   UNL     1      -0.728 -53.331 -25.801  1.00  0.00     0.293 HD
ENDBRANCH   8  24
TORSDOF 5
ENDMDL
MODEL 6
REMARK VINA RESULT:    -7.783      1.146      2.643
REMARK INTER + INTRA:          -9.452
REMARK INTER:                  -9.161
REMARK INTRA:                  -0.291
REMARK UNBOUND:                -0.304
REMARK SMILES O=c1cc(-c2ccc(O)c(O)c2)oc2cc(O)cc(O)c12
REMARK SMILES IDX 4 1 3 2 2 3 1 4 21 5 19 6 18 7 16 8 15 9 14 10 13 11 5 12
REMARK SMILES IDX 6 13 7 14 8 15 12 16 10 17 9 18 11 20 20 22 17 24
REMARK H PARENT 9 19 11 21 20 23 17 25
REMARK Flexibility Score: inf
ROOT
ATOM      1  C   UNL     1       5.812 -55.767 -28.659  1.00  0.00     0.138 A 
ATOM      2  C   UNL     1       7.065 -56.055 -28.099  1.00  0.00     0.100 A 
ATOM      3  C   UNL     1       8.203 -56.039 -28.908  1.00  0.00     0.197 A 
ATOM      4  O   UNL     1       9.303 -56.356 -28.387  1.00  0.00    -0.289 OA
ATOM      5  C   UNL     1       8.090 -55.698 -30.276  1.00  0.00     0.107 A 
ATOM      6  C   UNL     1       9.184 -55.616 -31.189  1.00  0.00     0.134 A 
ATOM      7  C   UNL     1       8.936 -55.364 -32.544  1.00  0.00     0.093 A 
ATOM      8  C   UNL     1       7.642 -55.135 -33.010  1.00  0.00     0.123 A 
ATOM      9  C   UNL     1       6.569 -55.163 -32.119  1.00  0.00     0.094 A 
ATOM     10  C   UNL     1       6.780 -55.445 -30.766  1.00  0.00     0.146 A 
ATOM     11  O   UNL     1       5.729 -55.480 -29.954  1.00  0.00    -0.456 OA
ENDROOT
BRANCH   1  12
ATOM     12  C   UNL     1       4.570 -55.767 -27.846  1.00  0.00     0.021 A 
ATOM     13  C   UNL     1       3.416 -55.079 -28.258  1.00  0.00     0.016 A 
ATOM     14  C   UNL     1       2.266 -55.088 -27.466  1.00  0.00     0.051 A 
ATOM     15  C   UNL     1       2.242 -55.774 -26.248  1.00  0.00     0.157 A 
ATOM     16  C   UNL     1       4.551 -56.444 -26.614  1.00  0.00     0.062 A 
ATOM     17  C   UNL     1       3.401 -56.459 -25.814  1.00  0.00     0.158 A 
BRANCH  15  18
ATOM     18  O   UNL     1       1.060 -55.746 -25.506  1.00  0.00    -0.504 OA
ATOM     19  H   UNL     1       0.730 -54.937 -24.999  1.00  0.00     0.293 HD
ENDBRANCH  15  18
BRANCH  17  20
ATOM     20  O   UNL     1       3.455 -57.160 -24.608  1.00  0.00    -0.504 OA
ATOM     21  H   UNL     1       2.722 -57.769 -24.276  1.00  0.00     0.293 HD
ENDBRANCH  17  20
ENDBRANCH   1  12
BRANCH   6  22
ATOM     22  O   UNL     1      10.526 -55.749 -30.817  1.00  0.00    -0.507 OA
ATOM     23  H   UNL     1      11.293 -55.895 -31.453  1.00  0.00     0.293 HD
ENDBRANCH   6  22
BRANCH   8  24
ATOM     24  O   UNL     1       7.436 -54.873 -34.362  1.00  0.00    -0.508 OA
ATOM     25  H   UNL     1       6.988 -54.019 -34.674  1.00  0.00     0.293 HD
ENDBRANCH   8  24
TORSDOF 5
ENDMDL
MODEL 7
REMARK VINA RESULT:    -7.712      2.157      4.401
REMARK INTER + INTRA:          -9.368
REMARK INTER:                  -9.056
REMARK INTRA:                  -0.312
REMARK UNBOUND:                -0.304
REMARK SMILES O=c1cc(-c2ccc(O)c(O)c2)oc2cc(O)cc(O)c12
REMARK SMILES IDX 4 1 3 2 2 3 1 4 21 5 19 6 18 7 16 8 15 9 14 10 13 11 5 12
REMARK SMILES IDX 6 13 7 14 8 15 12 16 10 17 9 18 11 20 20 22 17 24
REMARK H PARENT 9 19 11 21 20 23 17 25
REMARK Flexibility Score: inf
ROOT
ATOM      1  C   UNL     1       3.111 -55.961 -26.595  1.00  0.00     0.138 A 
ATOM      2  C   UNL     1       4.230 -56.603 -26.049  1.00  0.00     0.100 A 
ATOM      3  C   UNL     1       5.375 -56.776 -26.827  1.00  0.00     0.197 A 
ATOM      4  O   UNL     1       6.342 -57.406 -26.326  1.00  0.00    -0.289 OA
ATOM      5  C   UNL     1       5.412 -56.272 -28.149  1.00  0.00     0.107 A 
ATOM      6  C   UNL     1       6.536 -56.360 -29.024  1.00  0.00     0.134 A 
ATOM      7  C   UNL     1       6.420 -55.911 -30.345  1.00  0.00     0.093 A 
ATOM      8  C   UNL     1       5.241 -55.324 -30.807  1.00  0.00     0.123 A 
ATOM      9  C   UNL     1       4.152 -55.188 -29.946  1.00  0.00     0.094 A 
ATOM     10  C   UNL     1       4.225 -55.657 -28.632  1.00  0.00     0.146 A 
ATOM     11  O   UNL     1       3.160 -55.523 -27.849  1.00  0.00    -0.456 OA
ENDROOT
BRANCH   1  12
ATOM     12  C   UNL     1       1.868 -55.746 -25.812  1.00  0.00     0.021 A 
ATOM     13  C   UNL     1       1.550 -56.540 -24.696  1.00  0.00     0.016 A 
ATOM     14  C   UNL     1       0.369 -56.321 -23.985  1.00  0.00     0.051 A 
ATOM     15  C   UNL     1      -0.522 -55.316 -24.372  1.00  0.00     0.157 A 
ATOM     16  C   UNL     1       0.965 -54.745 -26.209  1.00  0.00     0.062 A 
ATOM     17  C   UNL     1      -0.222 -54.518 -25.500  1.00  0.00     0.158 A 
BRANCH  15  18
ATOM     18  O   UNL     1      -1.685 -55.147 -23.616  1.00  0.00    -0.504 OA
ATOM     19  H   UNL     1      -1.703 -55.119 -22.608  1.00  0.00     0.293 HD
ENDBRANCH  15  18
BRANCH  17  20
ATOM     20  O   UNL     1      -1.065 -53.500 -25.950  1.00  0.00    -0.504 OA
ATOM     21  H   UNL     1      -2.066 -53.498 -25.823  1.00  0.00     0.293 HD
ENDBRANCH  17  20
ENDBRANCH   1  12
BRANCH   6  22
ATOM     22  O   UNL     1       7.788 -56.855 -28.644  1.00  0.00    -0.507 OA
ATOM     23  H   UNL     1       8.020 -57.830 -28.542  1.00  0.00     0.293 HD
ENDBRANCH   6  22
BRANCH   8  24
ATOM     24  O   UNL     1       5.167 -54.875 -32.123  1.00  0.00    -0.508 OA
ATOM     25  H   UNL     1       5.890 -54.291 -32.525  1.00  0.00     0.293 HD
ENDBRANCH   8  24
TORSDOF 5
ENDMDL
MODEL 8
REMARK VINA RESULT:    -7.214      2.104      2.797
REMARK INTER + INTRA:          -8.782
REMARK INTER:                  -8.465
REMARK INTRA:                  -0.318
REMARK UNBOUND:                -0.304
REMARK SMILES O=c1cc(-c2ccc(O)c(O)c2)oc2cc(O)cc(O)c12
REMARK SMILES IDX 4 1 3 2 2 3 1 4 21 5 19 6 18 7 16 8 15 9 14 10 13 11 5 12
REMARK SMILES IDX 6 13 7 14 8 15 12 16 10 17 9 18 11 20 20 22 17 24
REMARK H PARENT 9 19 11 21 20 23 17 25
REMARK Flexibility Score: inf
ROOT
ATOM      1  C   UNL     1       6.328 -56.489 -28.372  1.00  0.00     0.138 A 
ATOM      2  C   UNL     1       5.226 -56.010 -29.094  1.00  0.00     0.100 A 
ATOM      3  C   UNL     1       5.417 -55.468 -30.366  1.00  0.00     0.197 A 
ATOM      4  O   UNL     1       4.416 -54.997 -30.965  1.00  0.00    -0.289 OA
ATOM      5  C   UNL     1       6.714 -55.438 -30.931  1.00  0.00     0.107 A 
ATOM      6  C   UNL     1       7.024 -54.940 -32.233  1.00  0.00     0.134 A 
ATOM      7  C   UNL     1       8.360 -54.872 -32.646  1.00  0.00     0.093 A 
ATOM      8  C   UNL     1       9.392 -55.335 -31.830  1.00  0.00     0.123 A 
ATOM      9  C   UNL     1       9.097 -55.869 -30.575  1.00  0.00     0.094 A 
ATOM     10  C   UNL     1       7.777 -55.921 -30.120  1.00  0.00     0.146 A 
ATOM     11  O   UNL     1       7.539 -56.421 -28.913  1.00  0.00    -0.456 OA
ENDROOT
BRANCH   1  12
ATOM     12  C   UNL     1       6.182 -57.078 -27.017  1.00  0.00     0.021 A 
ATOM     13  C   UNL     1       4.965 -57.030 -26.316  1.00  0.00     0.016 A 
ATOM     14  C   UNL     1       4.862 -57.584 -25.039  1.00  0.00     0.051 A 
ATOM     15  C   UNL     1       5.965 -58.190 -24.431  1.00  0.00     0.157 A 
ATOM     16  C   UNL     1       7.295 -57.675 -26.400  1.00  0.00     0.062 A 
ATOM     17  C   UNL     1       7.199 -58.234 -25.119  1.00  0.00     0.158 A 
BRANCH  15  18
ATOM     18  O   UNL     1       5.794 -58.728 -23.153  1.00  0.00    -0.504 OA
ATOM     19  H   UNL     1       4.944 -58.644 -22.615  1.00  0.00     0.293 HD
ENDBRANCH  15  18
BRANCH  17  20
ATOM     20  O   UNL     1       8.346 -58.817 -24.575  1.00  0.00    -0.504 OA
ATOM     21  H   UNL     1       8.332 -59.536 -23.867  1.00  0.00     0.293 HD
ENDBRANCH  17  20
ENDBRANCH   1  12
BRANCH   6  22
ATOM     22  O   UNL     1       6.064 -54.526 -33.162  1.00  0.00    -0.507 OA
ATOM     23  H   UNL     1       5.403 -55.131 -33.622  1.00  0.00     0.293 HD
ENDBRANCH   6  22
BRANCH   8  24
ATOM     24  O   UNL     1      10.708 -55.264 -32.279  1.00  0.00    -0.508 OA
ATOM     25  H   UNL     1      11.183 -54.376 -32.391  1.00  0.00     0.293 HD
ENDBRANCH   8  24
TORSDOF 5
ENDMDL
MODEL 9
REMARK VINA RESULT:    -7.210      2.605      7.846
REMARK INTER + INTRA:          -8.778
REMARK INTER:                  -8.515
REMARK INTRA:                  -0.262
REMARK UNBOUND:                -0.304
REMARK SMILES O=c1cc(-c2ccc(O)c(O)c2)oc2cc(O)cc(O)c12
REMARK SMILES IDX 4 1 3 2 2 3 1 4 21 5 19 6 18 7 16 8 15 9 14 10 13 11 5 12
REMARK SMILES IDX 6 13 7 14 8 15 12 16 10 17 9 18 11 20 20 22 17 24
REMARK H PARENT 9 19 11 21 20 23 17 25
REMARK Flexibility Score: inf
ROOT
ATOM      1  C   UNL     1       3.486 -55.472 -26.375  1.00  0.00     0.138 A 
ATOM      2  C   UNL     1       2.879 -56.590 -25.786  1.00  0.00     0.100 A 
ATOM      3  C   UNL     1       2.151 -56.438 -24.605  1.00  0.00     0.197 A 
ATOM      4  O   UNL     1       1.665 -57.470 -24.072  1.00  0.00    -0.289 OA
ATOM      5  C   UNL     1       2.002 -55.155 -24.029  1.00  0.00     0.107 A 
ATOM      6  C   UNL     1       1.255 -54.874 -22.845  1.00  0.00     0.134 A 
ATOM      7  C   UNL     1       1.261 -53.577 -22.316  1.00  0.00     0.093 A 
ATOM      8  C   UNL     1       1.938 -52.540 -22.957  1.00  0.00     0.123 A 
ATOM      9  C   UNL     1       2.631 -52.791 -24.142  1.00  0.00     0.094 A 
ATOM     10  C   UNL     1       2.672 -54.081 -24.677  1.00  0.00     0.146 A 
ATOM     11  O   UNL     1       3.357 -54.283 -25.797  1.00  0.00    -0.456 OA
ENDROOT
BRANCH   1  12
ATOM     12  C   UNL     1       4.269 -55.575 -27.633  1.00  0.00     0.021 A 
ATOM     13  C   UNL     1       3.730 -55.192 -28.873  1.00  0.00     0.016 A 
ATOM     14  C   UNL     1       4.486 -55.310 -30.040  1.00  0.00     0.051 A 
ATOM     15  C   UNL     1       5.789 -55.817 -30.000  1.00  0.00     0.157 A 
ATOM     16  C   UNL     1       5.573 -56.098 -27.594  1.00  0.00     0.062 A 
ATOM     17  C   UNL     1       6.339 -56.219 -28.761  1.00  0.00     0.158 A 
BRANCH  15  18
ATOM     18  O   UNL     1       6.492 -55.907 -31.203  1.00  0.00    -0.504 OA
ATOM     19  H   UNL     1       7.435 -55.571 -31.332  1.00  0.00     0.293 HD
ENDBRANCH  15  18
BRANCH  17  20
ATOM     20  O   UNL     1       7.630 -56.739 -28.641  1.00  0.00    -0.504 OA
ATOM     21  H   UNL     1       7.951 -57.273 -27.848  1.00  0.00     0.293 HD
ENDBRANCH  17  20
ENDBRANCH   1  12
BRANCH   6  22
ATOM     22  O   UNL     1       0.477 -55.818 -22.168  1.00  0.00    -0.507 OA
ATOM     23  H   UNL     1       0.728 -56.783 -22.027  1.00  0.00     0.293 HD
ENDBRANCH   6  22
BRANCH   8  24
ATOM     24  O   UNL     1       1.910 -51.260 -22.409  1.00  0.00    -0.508 OA
ATOM     25  H   UNL     1       1.450 -50.491 -22.882  1.00  0.00     0.293 HD
ENDBRANCH   8  24
TORSDOF 5
ENDMDL
