MODEL 1
REMARK VINA RESULT:    -4.180      0.000      0.000
REMARK INTER + INTRA:          -7.030
REMARK INTER:                  -6.134
REMARK INTRA:                  -0.895
REMARK UNBOUND:                -0.895
REMARK SMILES O=c1c(O[C@@H]2O[C@@H](CO)[C@H](O)[C@H](O)[C@@H]2O)c(-c2ccc(O)c(O)c2)oc2cc(O)cc(O)c12
REMARK SMILES IDX 4 1 3 2 16 3 25 4 2 5 26 6 1 7 33 8 27 9 31 10 28 11 30 12
REMARK SMILES IDX 17 13 18 14 19 15 20 16 24 17 22 18 21 19 23 21 32 23 29 25
REMARK SMILES IDX 5 27 14 28 6 29 12 30 7 31 10 32 15 33 13 35 8 37 9 38 11 40
REMARK H PARENT 21 20 23 22 32 24 29 26 15 34 13 36 9 39 11 41
REMARK Flexibility Score: inf
ROOT
ATOM      1  O   UNL     1      -2.587  15.556 -27.587  1.00  0.00    -0.454 OA
ENDROOT
BRANCH   1   2
ATOM      2  C   UNL     1      -3.759  15.981 -28.225  1.00  0.00     0.214 A 
ATOM      3  C   UNL     1      -4.867  15.127 -28.386  1.00  0.00     0.180 A 
ATOM      4  O   UNL     1      -5.931  15.552 -29.058  1.00  0.00    -0.452 OA
ATOM      5  C   UNL     1      -3.831  17.287 -28.718  1.00  0.00     0.239 A 
ATOM      6  C   UNL     1      -6.028  16.769 -29.581  1.00  0.00     0.146 A 
ATOM      7  O   UNL     1      -2.874  18.069 -28.478  1.00  0.00    -0.285 OA
ATOM      8  C   UNL     1      -4.966  17.703 -29.455  1.00  0.00     0.111 A 
ATOM      9  C   UNL     1      -7.207  17.118 -30.243  1.00  0.00     0.094 A 
ATOM     10  C   UNL     1      -5.119  18.990 -30.055  1.00  0.00     0.134 A 
ATOM     11  C   UNL     1      -7.365  18.395 -30.780  1.00  0.00     0.123 A 
ATOM     12  C   UNL     1      -6.328  19.322 -30.679  1.00  0.00     0.093 A 
BRANCH   3  13
ATOM     13  C   UNL     1      -4.907  13.768 -27.806  1.00  0.00     0.025 A 
ATOM     14  C   UNL     1      -4.360  12.674 -28.491  1.00  0.00     0.016 A 
ATOM     15  C   UNL     1      -4.399  11.399 -27.927  1.00  0.00     0.051 A 
ATOM     16  C   UNL     1      -4.967  11.194 -26.666  1.00  0.00     0.157 A 
ATOM     17  C   UNL     1      -5.454  13.573 -26.529  1.00  0.00     0.062 A 
ATOM     18  C   UNL     1      -5.497  12.297 -25.954  1.00  0.00     0.158 A 
BRANCH  16  19
ATOM     19  O   UNL     1      -4.983   9.892 -26.160  1.00  0.00    -0.504 OA
ATOM     20  H   UNL     1      -5.353   9.642 -25.254  1.00  0.00     0.293 HD
ENDBRANCH  16  19
BRANCH  18  21
ATOM     21  O   UNL     1      -6.069  12.173 -24.686  1.00  0.00    -0.504 OA
ATOM     22  H   UNL     1      -5.599  12.425 -23.828  1.00  0.00     0.293 HD
ENDBRANCH  18  21
ENDBRANCH   3  13
BRANCH  10  23
ATOM     23  O   UNL     1      -4.115  19.963 -30.089  1.00  0.00    -0.507 OA
ATOM     24  H   UNL     1      -4.275  20.959 -30.110  1.00  0.00     0.293 HD
ENDBRANCH  10  23
BRANCH  11  25
ATOM     25  O   UNL     1      -8.547  18.755 -31.424  1.00  0.00    -0.508 OA
ATOM     26  H   UNL     1      -8.541  19.176 -32.346  1.00  0.00     0.293 HD
ENDBRANCH  11  25
ENDBRANCH   1   2
BRANCH   1  27
ATOM     27  C   UNL     1      -2.570  15.035 -26.252  1.00  0.00     0.339 C 
ATOM     28  C   UNL     1      -1.171  14.498 -25.885  1.00  0.00     0.214 C 
ATOM     29  O   UNL     1      -3.002  16.015 -25.323  1.00  0.00    -0.332 OA
ATOM     30  C   UNL     1      -0.157  15.649 -25.772  1.00  0.00     0.180 C 
ATOM     31  C   UNL     1      -2.143  17.144 -25.313  1.00  0.00     0.179 C 
ATOM     32  C   UNL     1      -0.720  16.747 -24.852  1.00  0.00     0.177 C 
BRANCH  28  33
ATOM     33  O   UNL     1      -0.734  13.564 -26.838  1.00  0.00    -0.384 OA
ATOM     34  H   UNL     1      -0.888  13.971 -27.731  1.00  0.00     0.211 HD
ENDBRANCH  28  33
BRANCH  30  35
ATOM     35  O   UNL     1       0.125  16.190 -27.039  1.00  0.00    -0.387 OA
ATOM     36  H   UNL     1       0.557  15.472 -27.572  1.00  0.00     0.211 HD
ENDBRANCH  30  35
BRANCH  31  37
ATOM     37  C   UNL     1      -2.756  18.208 -24.392  1.00  0.00     0.191 C 
BRANCH  37  38
ATOM     38  O   UNL     1      -1.963  18.383 -23.250  1.00  0.00    -0.394 OA
ATOM     39  H   UNL     1      -1.719  17.472 -22.943  1.00  0.00     0.210 HD
ENDBRANCH  37  38
ENDBRANCH  31  37
BRANCH  32  40
ATOM     40  O   UNL     1       0.123  17.872 -24.877  1.00  0.00    -0.387 OA
ATOM     41  H   UNL     1      -0.454  18.657 -25.072  1.00  0.00     0.211 HD
ENDBRANCH  32  40
ENDBRANCH   1  27
TORSDOF 12
ENDMDL
MODEL 2
REMARK VINA RESULT:    -3.584      1.609      6.540
REMARK INTER + INTRA:          -6.155
REMARK INTER:                  -6.993
REMARK INTRA:                   0.837
REMARK UNBOUND:                -0.895
REMARK SMILES O=c1c(O[C@@H]2O[C@@H](CO)[C@H](O)[C@H](O)[C@@H]2O)c(-c2ccc(O)c(O)c2)oc2cc(O)cc(O)c12
REMARK SMILES IDX 4 1 3 2 16 3 25 4 2 5 26 6 1 7 33 8 27 9 31 10 28 11 30 12
REMARK SMILES IDX 17 13 18 14 19 15 20 16 24 17 22 18 21 19 23 21 32 23 29 25
REMARK SMILES IDX 5 27 14 28 6 29 12 30 7 31 10 32 15 33 13 35 8 37 9 38 11 40
REMARK H PARENT 21 20 23 22 32 24 29 26 15 34 13 36 9 39 11 41
REMARK Flexibility Score: inf
ROOT
ATOM      1  O   UNL     1      -3.471  14.720 -29.396  1.00  0.00    -0.454 OA
ENDROOT
BRANCH   1   2
ATOM      2  C   UNL     1      -3.136  15.540 -28.311  1.00  0.00     0.214 A 
ATOM      3  C   UNL     1      -3.764  16.782 -28.098  1.00  0.00     0.180 A 
ATOM      4  O   UNL     1      -3.365  17.556 -27.096  1.00  0.00    -0.452 OA
ATOM      5  C   UNL     1      -2.149  15.117 -27.415  1.00  0.00     0.239 A 
ATOM      6  C   UNL     1      -2.404  17.216 -26.246  1.00  0.00     0.146 A 
ATOM      7  O   UNL     1      -1.669  13.962 -27.560  1.00  0.00    -0.285 OA
ATOM      8  C   UNL     1      -1.724  15.975 -26.373  1.00  0.00     0.111 A 
ATOM      9  C   UNL     1      -2.086  18.097 -25.211  1.00  0.00     0.094 A 
ATOM     10  C   UNL     1      -0.685  15.671 -25.442  1.00  0.00     0.134 A 
ATOM     11  C   UNL     1      -1.105  17.766 -24.277  1.00  0.00     0.123 A 
ATOM     12  C   UNL     1      -0.417  16.559 -24.393  1.00  0.00     0.093 A 
BRANCH   3  13
ATOM     13  C   UNL     1      -4.884  17.254 -28.940  1.00  0.00     0.025 A 
ATOM     14  C   UNL     1      -6.068  16.511 -29.049  1.00  0.00     0.016 A 
ATOM     15  C   UNL     1      -7.119  16.972 -29.843  1.00  0.00     0.051 A 
ATOM     16  C   UNL     1      -7.015  18.187 -30.528  1.00  0.00     0.157 A 
ATOM     17  C   UNL     1      -4.784  18.485 -29.603  1.00  0.00     0.062 A 
ATOM     18  C   UNL     1      -5.834  18.957 -30.402  1.00  0.00     0.158 A 
BRANCH  16  19
ATOM     19  O   UNL     1      -8.098  18.590 -31.311  1.00  0.00    -0.504 OA
ATOM     20  H   UNL     1      -9.038  18.706 -30.961  1.00  0.00     0.293 HD
ENDBRANCH  16  19
BRANCH  18  21
ATOM     21  O   UNL     1      -5.661  20.186 -31.045  1.00  0.00    -0.504 OA
ATOM     22  H   UNL     1      -6.297  20.554 -31.738  1.00  0.00     0.293 HD
ENDBRANCH  18  21
ENDBRANCH   3  13
BRANCH  10  23
ATOM     23  O   UNL     1       0.125  14.533 -25.515  1.00  0.00    -0.507 OA
ATOM     24  H   UNL     1       0.311  13.906 -24.748  1.00  0.00     0.293 HD
ENDBRANCH  10  23
BRANCH  11  25
ATOM     25  O   UNL     1      -0.798  18.634 -23.230  1.00  0.00    -0.508 OA
ATOM     26  H   UNL     1      -0.106  18.395 -22.529  1.00  0.00     0.293 HD
ENDBRANCH  11  25
ENDBRANCH   1   2
BRANCH   1  27
ATOM     27  C   UNL     1      -4.638  13.889 -29.414  1.00  0.00     0.339 C 
ATOM     28  C   UNL     1      -4.424  12.652 -30.311  1.00  0.00     0.214 C 
ATOM     29  O   UNL     1      -5.008  13.509 -28.098  1.00  0.00    -0.332 OA
ATOM     30  C   UNL     1      -3.387  11.700 -29.690  1.00  0.00     0.180 C 
ATOM     31  C   UNL     1      -3.993  12.743 -27.468  1.00  0.00     0.179 C 
ATOM     32  C   UNL     1      -3.759  11.414 -28.224  1.00  0.00     0.177 C 
BRANCH  28  33
ATOM     33  O   UNL     1      -4.012  13.039 -31.596  1.00  0.00    -0.384 OA
ATOM     34  H   UNL     1      -4.735  13.608 -31.970  1.00  0.00     0.211 HD
ENDBRANCH  28  33
BRANCH  30  35
ATOM     35  O   UNL     1      -2.098  12.261 -29.751  1.00  0.00    -0.387 OA
ATOM     36  H   UNL     1      -1.457  11.546 -29.497  1.00  0.00     0.211 HD
ENDBRANCH  30  35
BRANCH  31  37
ATOM     37  C   UNL     1      -4.409  12.497 -26.012  1.00  0.00     0.191 C 
BRANCH  37  38
ATOM     38  O   UNL     1      -5.229  13.538 -25.554  1.00  0.00    -0.394 OA
ATOM     39  H   UNL     1      -4.797  14.379 -25.853  1.00  0.00     0.210 HD
ENDBRANCH  37  38
ENDBRANCH  31  37
BRANCH  32  40
ATOM     40  O   UNL     1      -2.731  10.683 -27.603  1.00  0.00    -0.387 OA
ATOM     41  H   UNL     1      -1.975  10.650 -28.246  1.00  0.00     0.211 HD
ENDBRANCH  32  40
ENDBRANCH   1  27
TORSDOF 12
ENDMDL
MODEL 3
REMARK VINA RESULT:    -3.230      1.367      2.687
REMARK INTER + INTRA:          -5.635
REMARK INTER:                  -4.481
REMARK INTRA:                  -1.155
REMARK UNBOUND:                -0.895
REMARK SMILES O=c1c(O[C@@H]2O[C@@H](CO)[C@H](O)[C@H](O)[C@@H]2O)c(-c2ccc(O)c(O)c2)oc2cc(O)cc(O)c12
REMARK SMILES IDX 4 1 3 2 16 3 25 4 2 5 26 6 1 7 33 8 27 9 31 10 28 11 30 12
REMARK SMILES IDX 17 13 18 14 19 15 20 16 24 17 22 18 21 19 23 21 32 23 29 25
REMARK SMILES IDX 5 27 14 28 6 29 12 30 7 31 10 32 15 33 13 35 8 37 9 38 11 40
REMARK H PARENT 21 20 23 22 32 24 29 26 15 34 13 36 9 39 11 41
REMARK Flexibility Score: inf
ROOT
ATOM      1  O   UNL     1      -2.883  17.060 -27.140  1.00  0.00    -0.454 OA
ENDROOT
BRANCH   1   2
ATOM      2  C   UNL     1      -3.992  17.198 -27.983  1.00  0.00     0.214 A 
ATOM      3  C   UNL     1      -4.945  16.172 -28.130  1.00  0.00     0.180 A 
ATOM      4  O   UNL     1      -5.944  16.322 -28.992  1.00  0.00    -0.452 OA
ATOM      5  C   UNL     1      -4.159  18.387 -28.701  1.00  0.00     0.239 A 
ATOM      6  C   UNL     1      -6.118  17.414 -29.727  1.00  0.00     0.146 A 
ATOM      7  O   UNL     1      -3.356  19.332 -28.483  1.00  0.00    -0.285 OA
ATOM      8  C   UNL     1      -5.216  18.507 -29.634  1.00  0.00     0.111 A 
ATOM      9  C   UNL     1      -7.222  17.474 -30.581  1.00  0.00     0.094 A 
ATOM     10  C   UNL     1      -5.444  19.648 -30.463  1.00  0.00     0.134 A 
ATOM     11  C   UNL     1      -7.462  18.614 -31.347  1.00  0.00     0.123 A 
ATOM     12  C   UNL     1      -6.580  19.692 -31.281  1.00  0.00     0.093 A 
BRANCH   3  13
ATOM     13  C   UNL     1      -4.894  14.929 -27.331  1.00  0.00     0.025 A 
ATOM     14  C   UNL     1      -5.739  14.745 -26.227  1.00  0.00     0.016 A 
ATOM     15  C   UNL     1      -5.683  13.563 -25.488  1.00  0.00     0.051 A 
ATOM     16  C   UNL     1      -4.799  12.540 -25.844  1.00  0.00     0.157 A 
ATOM     17  C   UNL     1      -4.025  13.896 -27.709  1.00  0.00     0.062 A 
ATOM     18  C   UNL     1      -3.962  12.706 -26.973  1.00  0.00     0.158 A 
BRANCH  16  19
ATOM     19  O   UNL     1      -4.786  11.385 -25.059  1.00  0.00    -0.504 OA
ATOM     20  H   UNL     1      -4.531  10.471 -25.402  1.00  0.00     0.293 HD
ENDBRANCH  16  19
BRANCH  18  21
ATOM     21  O   UNL     1      -3.063  11.724 -27.397  1.00  0.00    -0.504 OA
ATOM     22  H   UNL     1      -3.341  10.821 -27.753  1.00  0.00     0.293 HD
ENDBRANCH  18  21
ENDBRANCH   3  13
BRANCH  10  23
ATOM     23  O   UNL     1      -4.580  20.745 -30.541  1.00  0.00    -0.507 OA
ATOM     24  H   UNL     1      -4.748  21.576 -31.086  1.00  0.00     0.293 HD
ENDBRANCH  10  23
BRANCH  11  25
ATOM     25  O   UNL     1      -8.572  18.686 -32.186  1.00  0.00    -0.508 OA
ATOM     26  H   UNL     1      -9.185  19.493 -32.186  1.00  0.00     0.293 HD
ENDBRANCH  11  25
ENDBRANCH   1   2
BRANCH   1  27
ATOM     27  C   UNL     1      -1.533  17.223 -27.594  1.00  0.00     0.339 C 
ATOM     28  C   UNL     1      -0.795  18.292 -26.761  1.00  0.00     0.214 C 
ATOM     29  O   UNL     1      -0.839  15.987 -27.571  1.00  0.00    -0.332 OA
ATOM     30  C   UNL     1      -0.570  17.802 -25.320  1.00  0.00     0.180 C 
ATOM     31  C   UNL     1      -0.749  15.460 -26.255  1.00  0.00     0.179 C 
ATOM     32  C   UNL     1       0.071  16.403 -25.342  1.00  0.00     0.177 C 
BRANCH  28  33
ATOM     33  O   UNL     1      -1.515  19.497 -26.752  1.00  0.00    -0.384 OA
ATOM     34  H   UNL     1      -2.032  19.516 -25.904  1.00  0.00     0.211 HD
ENDBRANCH  28  33
BRANCH  30  35
ATOM     35  O   UNL     1      -1.787  17.755 -24.616  1.00  0.00    -0.387 OA
ATOM     36  H   UNL     1      -1.964  16.801 -24.405  1.00  0.00     0.211 HD
ENDBRANCH  30  35
BRANCH  31  37
ATOM     37  C   UNL     1      -0.115  14.065 -26.338  1.00  0.00     0.191 C 
BRANCH  37  38
ATOM     38  O   UNL     1      -0.552  13.396 -27.489  1.00  0.00    -0.394 OA
ATOM     39  H   UNL     1      -0.139  12.495 -27.457  1.00  0.00     0.210 HD
ENDBRANCH  37  38
ENDBRANCH  31  37
BRANCH  32  40
ATOM     40  O   UNL     1       0.125  15.879 -24.039  1.00  0.00    -0.387 OA
ATOM     41  H   UNL     1       0.131  14.890 -24.128  1.00  0.00     0.211 HD
ENDBRANCH  32  40
ENDBRANCH   1  27
TORSDOF 12
ENDMDL
MODEL 4
REMARK VINA RESULT:    -3.014      2.063      5.648
REMARK INTER + INTRA:          -5.319
REMARK INTER:                  -6.350
REMARK INTRA:                   1.031
REMARK UNBOUND:                -0.895
REMARK SMILES O=c1c(O[C@@H]2O[C@@H](CO)[C@H](O)[C@H](O)[C@@H]2O)c(-c2ccc(O)c(O)c2)oc2cc(O)cc(O)c12
REMARK SMILES IDX 4 1 3 2 16 3 25 4 2 5 26 6 1 7 33 8 27 9 31 10 28 11 30 12
REMARK SMILES IDX 17 13 18 14 19 15 20 16 24 17 22 18 21 19 23 21 32 23 29 25
REMARK SMILES IDX 5 27 14 28 6 29 12 30 7 31 10 32 15 33 13 35 8 37 9 38 11 40
REMARK H PARENT 21 20 23 22 32 24 29 26 15 34 13 36 9 39 11 41
REMARK Flexibility Score: inf
ROOT
ATOM      1  O   UNL     1      -2.632  16.243 -27.728  1.00  0.00    -0.454 OA
ENDROOT
BRANCH   1   2
ATOM      2  C   UNL     1      -3.064  15.207 -28.565  1.00  0.00     0.214 A 
ATOM      3  C   UNL     1      -4.165  15.362 -29.429  1.00  0.00     0.180 A 
ATOM      4  O   UNL     1      -4.582  14.330 -30.154  1.00  0.00    -0.452 OA
ATOM      5  C   UNL     1      -2.387  13.984 -28.542  1.00  0.00     0.239 A 
ATOM      6  C   UNL     1      -3.997  13.138 -30.132  1.00  0.00     0.146 A 
ATOM      7  O   UNL     1      -1.345  13.893 -27.841  1.00  0.00    -0.285 OA
ATOM      8  C   UNL     1      -2.870  12.893 -29.303  1.00  0.00     0.111 A 
ATOM      9  C   UNL     1      -4.504  12.133 -30.959  1.00  0.00     0.094 A 
ATOM     10  C   UNL     1      -2.296  11.586 -29.308  1.00  0.00     0.134 A 
ATOM     11  C   UNL     1      -3.901  10.875 -30.992  1.00  0.00     0.123 A 
ATOM     12  C   UNL     1      -2.803  10.611 -30.176  1.00  0.00     0.093 A 
BRANCH   3  13
ATOM     13  C   UNL     1      -4.869  16.653 -29.585  1.00  0.00     0.025 A 
ATOM     14  C   UNL     1      -6.252  16.752 -29.373  1.00  0.00     0.016 A 
ATOM     15  C   UNL     1      -6.901  17.978 -29.518  1.00  0.00     0.051 A 
ATOM     16  C   UNL     1      -6.183  19.129 -29.859  1.00  0.00     0.157 A 
ATOM     17  C   UNL     1      -4.140  17.808 -29.902  1.00  0.00     0.062 A 
ATOM     18  C   UNL     1      -4.783  19.044 -30.049  1.00  0.00     0.158 A 
BRANCH  16  19
ATOM     19  O   UNL     1      -6.892  20.324 -29.996  1.00  0.00    -0.504 OA
ATOM     20  H   UNL     1      -7.068  20.779 -30.880  1.00  0.00     0.293 HD
ENDBRANCH  16  19
BRANCH  18  21
ATOM     21  O   UNL     1      -3.998  20.151 -30.379  1.00  0.00    -0.504 OA
ATOM     22  H   UNL     1      -3.112  20.365 -29.943  1.00  0.00     0.293 HD
ENDBRANCH  18  21
ENDBRANCH   3  13
BRANCH  10  23
ATOM     23  O   UNL     1      -1.250  11.187 -28.468  1.00  0.00    -0.507 OA
ATOM     24  H   UNL     1      -0.944  10.235 -28.339  1.00  0.00     0.293 HD
ENDBRANCH  10  23
BRANCH  11  25
ATOM     25  O   UNL     1      -4.391   9.875 -31.830  1.00  0.00    -0.508 OA
ATOM     26  H   UNL     1      -4.832  10.095 -32.716  1.00  0.00     0.293 HD
ENDBRANCH  11  25
ENDBRANCH   1   2
BRANCH   1  27
ATOM     27  C   UNL     1      -3.368  16.675 -26.578  1.00  0.00     0.339 C 
ATOM     28  C   UNL     1      -3.494  15.538 -25.542  1.00  0.00     0.214 C 
ATOM     29  O   UNL     1      -2.775  17.828 -26.002  1.00  0.00    -0.332 OA
ATOM     30  C   UNL     1      -2.124  15.214 -24.919  1.00  0.00     0.180 C 
ATOM     31  C   UNL     1      -1.456  17.569 -25.548  1.00  0.00     0.179 C 
ATOM     32  C   UNL     1      -1.462  16.510 -24.419  1.00  0.00     0.177 C 
BRANCH  28  33
ATOM     33  O   UNL     1      -4.037  14.387 -26.134  1.00  0.00    -0.384 OA
ATOM     34  H   UNL     1      -3.442  13.631 -25.889  1.00  0.00     0.211 HD
ENDBRANCH  28  33
BRANCH  30  35
ATOM     35  O   UNL     1      -1.288  14.584 -25.858  1.00  0.00    -0.387 OA
ATOM     36  H   UNL     1      -1.878  14.130 -26.515  1.00  0.00     0.211 HD
ENDBRANCH  30  35
BRANCH  31  37
ATOM     37  C   UNL     1      -0.841  18.893 -25.074  1.00  0.00     0.191 C 
BRANCH  37  38
ATOM     38  O   UNL     1      -0.616  18.860 -23.691  1.00  0.00    -0.394 OA
ATOM     39  H   UNL     1       0.245  19.331 -23.542  1.00  0.00     0.210 HD
ENDBRANCH  37  38
ENDBRANCH  31  37
BRANCH  32  40
ATOM     40  O   UNL     1      -0.146  16.246 -24.003  1.00  0.00    -0.387 OA
ATOM     41  H   UNL     1       0.036  16.846 -23.233  1.00  0.00     0.211 HD
ENDBRANCH  32  40
ENDBRANCH   1  27
TORSDOF 12
ENDMDL
MODEL 5
REMARK VINA RESULT:    -2.064      2.217      5.928
REMARK INTER + INTRA:          -3.925
REMARK INTER:                  -4.159
REMARK INTRA:                   0.234
REMARK UNBOUND:                -0.895
REMARK SMILES O=c1c(O[C@@H]2O[C@@H](CO)[C@H](O)[C@H](O)[C@@H]2O)c(-c2ccc(O)c(O)c2)oc2cc(O)cc(O)c12
REMARK SMILES IDX 4 1 3 2 16 3 25 4 2 5 26 6 1 7 33 8 27 9 31 10 28 11 30 12
REMARK SMILES IDX 17 13 18 14 19 15 20 16 24 17 22 18 21 19 23 21 32 23 29 25
REMARK SMILES IDX 5 27 14 28 6 29 12 30 7 31 10 32 15 33 13 35 8 37 9 38 11 40
REMARK H PARENT 21 20 23 22 32 24 29 26 15 34 13 36 9 39 11 41
REMARK Flexibility Score: inf
ROOT
ATOM      1  O   UNL     1      -2.866  16.643 -27.663  1.00  0.00    -0.454 OA
ENDROOT
BRANCH   1   2
ATOM      2  C   UNL     1      -3.232  15.550 -28.459  1.00  0.00     0.214 A 
ATOM      3  C   UNL     1      -4.307  15.619 -29.366  1.00  0.00     0.180 A 
ATOM      4  O   UNL     1      -4.661  14.537 -30.049  1.00  0.00    -0.452 OA
ATOM      5  C   UNL     1      -2.513  14.355 -28.349  1.00  0.00     0.239 A 
ATOM      6  C   UNL     1      -4.035  13.370 -29.946  1.00  0.00     0.146 A 
ATOM      7  O   UNL     1      -1.494  14.339 -27.610  1.00  0.00    -0.285 OA
ATOM      8  C   UNL     1      -2.931  13.210 -29.068  1.00  0.00     0.111 A 
ATOM      9  C   UNL     1      -4.476  12.305 -30.735  1.00  0.00     0.094 A 
ATOM     10  C   UNL     1      -2.310  11.927 -28.984  1.00  0.00     0.134 A 
ATOM     11  C   UNL     1      -3.829  11.071 -30.682  1.00  0.00     0.123 A 
ATOM     12  C   UNL     1      -2.751  10.890 -29.817  1.00  0.00     0.093 A 
BRANCH   3  13
ATOM     13  C   UNL     1      -5.050  16.873 -29.612  1.00  0.00     0.025 A 
ATOM     14  C   UNL     1      -6.423  16.965 -29.339  1.00  0.00     0.016 A 
ATOM     15  C   UNL     1      -7.109  18.157 -29.571  1.00  0.00     0.051 A 
ATOM     16  C   UNL     1      -6.439  19.281 -30.063  1.00  0.00     0.157 A 
ATOM     17  C   UNL     1      -4.368  18.005 -30.080  1.00  0.00     0.062 A 
ATOM     18  C   UNL     1      -5.048  19.206 -30.316  1.00  0.00     0.158 A 
BRANCH  16  19
ATOM     19  O   UNL     1      -7.184  20.442 -30.281  1.00  0.00    -0.504 OA
ATOM     20  H   UNL     1      -8.040  20.473 -30.815  1.00  0.00     0.293 HD
ENDBRANCH  16  19
BRANCH  18  21
ATOM     21  O   UNL     1      -4.309  20.290 -30.796  1.00  0.00    -0.504 OA
ATOM     22  H   UNL     1      -3.435  20.201 -31.295  1.00  0.00     0.293 HD
ENDBRANCH  18  21
ENDBRANCH   3  13
BRANCH  10  23
ATOM     23  O   UNL     1      -1.281  11.610 -28.091  1.00  0.00    -0.507 OA
ATOM     24  H   UNL     1      -1.392  11.065 -27.251  1.00  0.00     0.293 HD
ENDBRANCH  10  23
BRANCH  11  25
ATOM     25  O   UNL     1      -4.253  10.012 -31.483  1.00  0.00    -0.508 OA
ATOM     26  H   UNL     1      -3.592   9.427 -31.981  1.00  0.00     0.293 HD
ENDBRANCH  11  25
ENDBRANCH   1   2
BRANCH   1  27
ATOM     27  C   UNL     1      -1.603  17.308 -27.786  1.00  0.00     0.339 C 
ATOM     28  C   UNL     1      -1.719  18.794 -27.384  1.00  0.00     0.214 C 
ATOM     29  O   UNL     1      -0.608  16.648 -27.021  1.00  0.00    -0.332 OA
ATOM     30  C   UNL     1      -1.988  18.932 -25.875  1.00  0.00     0.180 C 
ATOM     31  C   UNL     1      -0.921  16.653 -25.636  1.00  0.00     0.179 C 
ATOM     32  C   UNL     1      -0.961  18.099 -25.087  1.00  0.00     0.177 C 
BRANCH  28  33
ATOM     33  O   UNL     1      -2.739  19.425 -28.113  1.00  0.00    -0.384 OA
ATOM     34  H   UNL     1      -2.918  20.293 -27.663  1.00  0.00     0.211 HD
ENDBRANCH  28  33
BRANCH  30  35
ATOM     35  O   UNL     1      -3.289  18.501 -25.560  1.00  0.00    -0.387 OA
ATOM     36  H   UNL     1      -3.474  17.702 -26.119  1.00  0.00     0.211 HD
ENDBRANCH  30  35
BRANCH  31  37
ATOM     37  C   UNL     1       0.125  15.801 -24.904  1.00  0.00     0.191 C 
BRANCH  37  38
ATOM     38  O   UNL     1       0.104  14.483 -25.379  1.00  0.00    -0.394 OA
ATOM     39  H   UNL     1       0.999  14.319 -25.774  1.00  0.00     0.210 HD
ENDBRANCH  37  38
ENDBRANCH  31  37
BRANCH  32  40
ATOM     40  O   UNL     1      -1.300  18.085 -23.723  1.00  0.00    -0.387 OA
ATOM     41  H   UNL     1      -2.118  18.640 -23.627  1.00  0.00     0.211 HD
ENDBRANCH  32  40
ENDBRANCH   1  27
TORSDOF 12
ENDMDL
MODEL 6
REMARK VINA RESULT:    -1.751      1.622      5.343
REMARK INTER + INTRA:          -3.465
REMARK INTER:                  -4.038
REMARK INTRA:                   0.573
REMARK UNBOUND:                -0.895
REMARK SMILES O=c1c(O[C@@H]2O[C@@H](CO)[C@H](O)[C@H](O)[C@@H]2O)c(-c2ccc(O)c(O)c2)oc2cc(O)cc(O)c12
REMARK SMILES IDX 4 1 3 2 16 3 25 4 2 5 26 6 1 7 33 8 27 9 31 10 28 11 30 12
REMARK SMILES IDX 17 13 18 14 19 15 20 16 24 17 22 18 21 19 23 21 32 23 29 25
REMARK SMILES IDX 5 27 14 28 6 29 12 30 7 31 10 32 15 33 13 35 8 37 9 38 11 40
REMARK H PARENT 21 20 23 22 32 24 29 26 15 34 13 36 9 39 11 41
REMARK Flexibility Score: inf
ROOT
ATOM      1  O   UNL     1      -4.684  14.927 -27.754  1.00  0.00    -0.454 OA
ENDROOT
BRANCH   1   2
ATOM      2  C   UNL     1      -4.606  16.216 -28.295  1.00  0.00     0.214 A 
ATOM      3  C   UNL     1      -3.694  17.172 -27.806  1.00  0.00     0.180 A 
ATOM      4  O   UNL     1      -3.703  18.403 -28.304  1.00  0.00    -0.452 OA
ATOM      5  C   UNL     1      -5.457  16.567 -29.348  1.00  0.00     0.239 A 
ATOM      6  C   UNL     1      -4.522  18.793 -29.274  1.00  0.00     0.146 A 
ATOM      7  O   UNL     1      -6.194  15.673 -29.841  1.00  0.00    -0.285 OA
ATOM      8  C   UNL     1      -5.464  17.894 -29.839  1.00  0.00     0.111 A 
ATOM      9  C   UNL     1      -4.424  20.106 -29.741  1.00  0.00     0.094 A 
ATOM     10  C   UNL     1      -6.332  18.376 -30.866  1.00  0.00     0.134 A 
ATOM     11  C   UNL     1      -5.242  20.550 -30.779  1.00  0.00     0.123 A 
ATOM     12  C   UNL     1      -6.183  19.687 -31.338  1.00  0.00     0.093 A 
BRANCH   3  13
ATOM     13  C   UNL     1      -2.695  16.848 -26.766  1.00  0.00     0.025 A 
ATOM     14  C   UNL     1      -2.707  17.500 -25.525  1.00  0.00     0.016 A 
ATOM     15  C   UNL     1      -1.761  17.179 -24.551  1.00  0.00     0.051 A 
ATOM     16  C   UNL     1      -0.799  16.193 -24.790  1.00  0.00     0.157 A 
ATOM     17  C   UNL     1      -1.749  15.839 -27.001  1.00  0.00     0.062 A 
ATOM     18  C   UNL     1      -0.796  15.509 -26.029  1.00  0.00     0.158 A 
BRANCH  16  19
ATOM     19  O   UNL     1       0.125  15.923 -23.778  1.00  0.00    -0.504 OA
ATOM     20  H   UNL     1       0.219  15.027 -23.322  1.00  0.00     0.293 HD
ENDBRANCH  16  19
BRANCH  18  21
ATOM     21  O   UNL     1       0.125  14.504 -26.335  1.00  0.00    -0.504 OA
ATOM     22  H   UNL     1       1.089  14.512 -26.034  1.00  0.00     0.293 HD
ENDBRANCH  18  21
ENDBRANCH   3  13
BRANCH  10  23
ATOM     23  O   UNL     1      -7.366  17.625 -31.435  1.00  0.00    -0.507 OA
ATOM     24  H   UNL     1      -7.976  17.004 -30.928  1.00  0.00     0.293 HD
ENDBRANCH  10  23
BRANCH  11  25
ATOM     25  O   UNL     1      -5.133  21.853 -31.262  1.00  0.00    -0.508 OA
ATOM     26  H   UNL     1      -5.674  22.612 -30.864  1.00  0.00     0.293 HD
ENDBRANCH  11  25
ENDBRANCH   1   2
BRANCH   1  27
ATOM     27  C   UNL     1      -3.534  14.097 -27.546  1.00  0.00     0.339 C 
ATOM     28  C   UNL     1      -3.704  13.221 -26.287  1.00  0.00     0.214 C 
ATOM     29  O   UNL     1      -3.272  13.302 -28.691  1.00  0.00    -0.332 OA
ATOM     30  C   UNL     1      -4.803  12.165 -26.501  1.00  0.00     0.180 C 
ATOM     31  C   UNL     1      -4.346  12.419 -28.974  1.00  0.00     0.179 C 
ATOM     32  C   UNL     1      -4.547  11.411 -27.818  1.00  0.00     0.177 C 
BRANCH  28  33
ATOM     33  O   UNL     1      -4.010  14.014 -25.170  1.00  0.00    -0.384 OA
ATOM     34  H   UNL     1      -4.959  14.293 -25.268  1.00  0.00     0.211 HD
ENDBRANCH  28  33
BRANCH  30  35
ATOM     35  O   UNL     1      -6.072  12.770 -26.539  1.00  0.00    -0.387 OA
ATOM     36  H   UNL     1      -5.980  13.607 -27.065  1.00  0.00     0.211 HD
ENDBRANCH  30  35
BRANCH  31  37
ATOM     37  C   UNL     1      -4.045  11.703 -30.298  1.00  0.00     0.191 C 
BRANCH  37  38
ATOM     38  O   UNL     1      -3.177  10.624 -30.085  1.00  0.00    -0.394 OA
ATOM     39  H   UNL     1      -2.673  10.506 -30.931  1.00  0.00     0.210 HD
ENDBRANCH  37  38
ENDBRANCH  31  37
BRANCH  32  40
ATOM     40  O   UNL     1      -5.633  10.564 -28.103  1.00  0.00    -0.387 OA
ATOM     41  H   UNL     1      -6.203  11.043 -28.761  1.00  0.00     0.211 HD
ENDBRANCH  32  40
ENDBRANCH   1  27
TORSDOF 12
ENDMDL
MODEL 7
REMARK VINA RESULT:    -1.526      3.035      6.130
REMARK INTER + INTRA:          -3.136
REMARK INTER:                  -2.549
REMARK INTRA:                  -0.586
REMARK UNBOUND:                -0.895
REMARK SMILES O=c1c(O[C@@H]2O[C@@H](CO)[C@H](O)[C@H](O)[C@@H]2O)c(-c2ccc(O)c(O)c2)oc2cc(O)cc(O)c12
REMARK SMILES IDX 4 1 3 2 16 3 25 4 2 5 26 6 1 7 33 8 27 9 31 10 28 11 30 12
REMARK SMILES IDX 17 13 18 14 19 15 20 16 24 17 22 18 21 19 23 21 32 23 29 25
REMARK SMILES IDX 5 27 14 28 6 29 12 30 7 31 10 32 15 33 13 35 8 37 9 38 11 40
REMARK H PARENT 21 20 23 22 32 24 29 26 15 34 13 36 9 39 11 41
REMARK Flexibility Score: inf
ROOT
ATOM      1  O   UNL     1      -3.301  12.662 -26.695  1.00  0.00    -0.454 OA
ENDROOT
BRANCH   1   2
ATOM      2  C   UNL     1      -2.854  13.985 -26.799  1.00  0.00     0.214 A 
ATOM      3  C   UNL     1      -2.648  14.603 -28.048  1.00  0.00     0.180 A 
ATOM      4  O   UNL     1      -2.157  15.836 -28.097  1.00  0.00    -0.452 OA
ATOM      5  C   UNL     1      -2.603  14.713 -25.632  1.00  0.00     0.239 A 
ATOM      6  C   UNL     1      -1.864  16.550 -27.017  1.00  0.00     0.146 A 
ATOM      7  O   UNL     1      -2.888  14.184 -24.526  1.00  0.00    -0.285 OA
ATOM      8  C   UNL     1      -2.054  16.015 -25.715  1.00  0.00     0.111 A 
ATOM      9  C   UNL     1      -1.380  17.849 -27.188  1.00  0.00     0.094 A 
ATOM     10  C   UNL     1      -1.702  16.823 -24.591  1.00  0.00     0.134 A 
ATOM     11  C   UNL     1      -1.088  18.646 -26.082  1.00  0.00     0.123 A 
ATOM     12  C   UNL     1      -1.255  18.134 -24.795  1.00  0.00     0.093 A 
BRANCH   3  13
ATOM     13  C   UNL     1      -2.985  13.935 -29.322  1.00  0.00     0.025 A 
ATOM     14  C   UNL     1      -4.244  14.106 -29.916  1.00  0.00     0.016 A 
ATOM     15  C   UNL     1      -4.546  13.474 -31.123  1.00  0.00     0.051 A 
ATOM     16  C   UNL     1      -3.595  12.676 -31.767  1.00  0.00     0.157 A 
ATOM     17  C   UNL     1      -2.019  13.158 -29.977  1.00  0.00     0.062 A 
ATOM     18  C   UNL     1      -2.312  12.520 -31.190  1.00  0.00     0.158 A 
BRANCH  16  19
ATOM     19  O   UNL     1      -3.960  12.065 -32.968  1.00  0.00    -0.504 OA
ATOM     20  H   UNL     1      -4.368  12.555 -33.751  1.00  0.00     0.293 HD
ENDBRANCH  16  19
BRANCH  18  21
ATOM     21  O   UNL     1      -1.307  11.751 -31.780  1.00  0.00    -0.504 OA
ATOM     22  H   UNL     1      -1.478  11.031 -32.468  1.00  0.00     0.293 HD
ENDBRANCH  18  21
ENDBRANCH   3  13
BRANCH  10  23
ATOM     23  O   UNL     1      -1.747  16.382 -23.265  1.00  0.00    -0.507 OA
ATOM     24  H   UNL     1      -2.575  16.056 -22.791  1.00  0.00     0.293 HD
ENDBRANCH  10  23
BRANCH  11  25
ATOM     25  O   UNL     1      -0.625  19.950 -26.247  1.00  0.00    -0.508 OA
ATOM     26  H   UNL     1       0.338  20.141 -26.501  1.00  0.00     0.293 HD
ENDBRANCH  11  25
ENDBRANCH   1   2
BRANCH   1  27
ATOM     27  C   UNL     1      -4.396  12.147 -27.462  1.00  0.00     0.339 C 
ATOM     28  C   UNL     1      -4.279  10.618 -27.637  1.00  0.00     0.214 C 
ATOM     29  O   UNL     1      -5.637  12.500 -26.872  1.00  0.00    -0.332 OA
ATOM     30  C   UNL     1      -4.487   9.897 -26.293  1.00  0.00     0.180 C 
ATOM     31  C   UNL     1      -5.776  11.948 -25.572  1.00  0.00     0.179 C 
ATOM     32  C   UNL     1      -5.780  10.402 -25.629  1.00  0.00     0.177 C 
BRANCH  28  33
ATOM     33  O   UNL     1      -3.029  10.276 -28.177  1.00  0.00    -0.384 OA
ATOM     34  H   UNL     1      -3.110   9.348 -28.521  1.00  0.00     0.211 HD
ENDBRANCH  28  33
BRANCH  30  35
ATOM     35  O   UNL     1      -3.394  10.120 -25.435  1.00  0.00    -0.387 OA
ATOM     36  H   UNL     1      -3.684   9.860 -24.522  1.00  0.00     0.211 HD
ENDBRANCH  30  35
BRANCH  31  37
ATOM     37  C   UNL     1      -7.071  12.492 -24.954  1.00  0.00     0.191 C 
BRANCH  37  38
ATOM     38  O   UNL     1      -7.179  13.871 -25.179  1.00  0.00    -0.394 OA
ATOM     39  H   UNL     1      -6.264  14.238 -25.080  1.00  0.00     0.210 HD
ENDBRANCH  37  38
ENDBRANCH  31  37
BRANCH  32  40
ATOM     40  O   UNL     1      -5.889   9.875 -24.330  1.00  0.00    -0.387 OA
ATOM     41  H   UNL     1      -5.317   9.064 -24.302  1.00  0.00     0.211 HD
ENDBRANCH  32  40
ENDBRANCH   1  27
TORSDOF 12
ENDMDL
