MODEL 1
REMARK VINA RESULT:    -4.218      0.000      0.000
REMARK INTER + INTRA:          -6.065
REMARK INTER:                  -5.698
REMARK INTRA:                  -0.366
REMARK UNBOUND:                -0.366
REMARK SMILES C=C1C(=O)O[C@H]2[C@H]1CCC(C)=CCC[C@@]1(C)O[C@@H]21
REMARK SMILES IDX 6 1 7 2 2 3 1 4 3 5 4 6 5 7 8 8 9 9 10 10 11 11 12 12 18 14
REMARK SMILES IDX 15 15 17 16 16 17 14 18 13 19
REMARK H PARENT
REMARK Flexibility Score: 70.00
ROOT
ATOM      1  C   UNL     1     -20.427  29.454 -20.872  1.00  0.00     0.216 C 
ATOM      2  C   UNL     1     -19.688  30.833 -20.736  1.00  0.00     0.070 C 
ATOM      3  C   UNL     1     -18.259  30.479 -21.023  1.00  0.00     0.037 C 
ATOM      4  C   UNL     1     -17.263  31.338 -21.238  1.00  0.00     0.021 C 
ATOM      5  C   UNL     1     -18.153  29.042 -21.024  1.00  0.00     0.334 C 
ATOM      6  O   UNL     1     -17.088  28.382 -21.142  1.00  0.00    -0.247 OA
ATOM      7  O   UNL     1     -19.395  28.468 -20.870  1.00  0.00    -0.455 OA
ENDROOT
BRANCH   2   8
ATOM      8  C   UNL     1     -19.782  31.459 -19.322  1.00  0.00     0.017 C 
BRANCH   8   9
ATOM      9  C   UNL     1     -20.977  32.401 -19.069  1.00  0.00     0.031 C 
BRANCH   9  10
ATOM     10  C   UNL     1     -22.169  31.729 -18.405  1.00  0.00    -0.077 C 
ATOM     11  C   UNL     1     -22.130  31.537 -16.911  1.00  0.00     0.039 C 
ATOM     12  C   UNL     1     -23.266  31.292 -19.072  1.00  0.00    -0.028 CG0
ATOM     13  G   UNL     1     -23.522  31.420 -20.556  1.00  0.00     0.000 G0
ENDBRANCH   9  10
ENDBRANCH   8   9
ENDBRANCH   2   8
BRANCH   1  14
ATOM     14  C   UNL     1     -21.164  29.344 -22.223  1.00  0.00     0.192 C 
ATOM     15  C   UNL     1     -22.626  29.631 -22.399  1.00  0.00     0.096 C 
ATOM     16  O   UNL     1     -21.645  30.599 -22.671  1.00  0.00    -0.362 OA
ATOM     17  C   UNL     1     -23.249  29.090 -23.690  1.00  0.00     0.045 C 
BRANCH  15  18
ATOM     18  C   UNL     1     -23.631  30.040 -21.281  1.00  0.00     0.042 C 
BRANCH  18  19
ATOM     19  C   UNL     1     -23.535  31.403 -20.557  1.00  0.00     0.030 CG0
ATOM     20  G   UNL     1     -23.262  31.309 -19.074  1.00  0.00     0.000 G0
ENDBRANCH  18  19
ENDBRANCH  15  18
ENDBRANCH   1  14
TORSDOF 0
ENDMDL
MODEL 2
REMARK VINA RESULT:    -4.048      1.717      4.341
REMARK INTER + INTRA:          -5.835
REMARK INTER:                  -5.521
REMARK INTRA:                  -0.313
REMARK UNBOUND:                -0.366
REMARK SMILES C=C1C(=O)O[C@H]2[C@H]1CCC(C)=CCC[C@@]1(C)O[C@@H]21
REMARK SMILES IDX 6 1 7 2 2 3 1 4 3 5 4 6 5 7 8 8 9 9 10 10 11 11 12 12 18 14
REMARK SMILES IDX 15 15 17 16 16 17 14 18 13 19
REMARK H PARENT
REMARK Flexibility Score: 70.00
ROOT
ATOM      1  C   UNL     1     -21.095  30.179 -22.190  1.00  0.00     0.216 C 
ATOM      2  C   UNL     1     -22.158  30.089 -21.037  1.00  0.00     0.070 C 
ATOM      3  C   UNL     1     -23.224  29.216 -21.629  1.00  0.00     0.037 C 
ATOM      4  C   UNL     1     -24.246  28.666 -20.974  1.00  0.00     0.021 C 
ATOM      5  C   UNL     1     -22.948  29.077 -23.036  1.00  0.00     0.334 C 
ATOM      6  O   UNL     1     -23.677  28.487 -23.875  1.00  0.00    -0.247 OA
ATOM      7  O   UNL     1     -21.757  29.691 -23.356  1.00  0.00    -0.455 OA
ENDROOT
BRANCH   2   8
ATOM      8  C   UNL     1     -22.779  31.453 -20.646  1.00  0.00     0.017 C 
BRANCH   8   9
ATOM      9  C   UNL     1     -22.399  32.004 -19.255  1.00  0.00     0.031 C 
BRANCH   9  10
ATOM     10  C   UNL     1     -21.314  33.069 -19.283  1.00  0.00    -0.077 C 
ATOM     11  C   UNL     1     -21.742  34.512 -19.352  1.00  0.00     0.039 C 
ATOM     12  C   UNL     1     -19.984  32.802 -19.247  1.00  0.00    -0.028 CG0
ATOM     13  G   UNL     1     -19.347  31.437 -19.139  1.00  0.00     0.000 G0
ENDBRANCH   9  10
ENDBRANCH   8   9
ENDBRANCH   2   8
BRANCH   1  14
ATOM     14  C   UNL     1     -19.895  29.248 -21.920  1.00  0.00     0.192 C 
ATOM     15  C   UNL     1     -18.718  29.633 -21.072  1.00  0.00     0.096 C 
ATOM     16  O   UNL     1     -19.794  28.893 -20.553  1.00  0.00    -0.362 OA
ATOM     17  C   UNL     1     -17.472  28.758 -21.246  1.00  0.00     0.045 C 
BRANCH  15  18
ATOM     18  C   UNL     1     -18.491  31.004 -20.369  1.00  0.00     0.042 C 
BRANCH  18  19
ATOM     19  C   UNL     1     -19.323  31.438 -19.140  1.00  0.00     0.030 CG0
ATOM     20  G   UNL     1     -19.983  32.791 -19.273  1.00  0.00     0.000 G0
ENDBRANCH  18  19
ENDBRANCH  15  18
ENDBRANCH   1  14
TORSDOF 0
ENDMDL
MODEL 3
REMARK VINA RESULT:    -3.801      6.822      8.864
REMARK INTER + INTRA:          -5.500
REMARK INTER:                  -5.158
REMARK INTRA:                  -0.342
REMARK UNBOUND:                -0.366
REMARK SMILES C=C1C(=O)O[C@H]2[C@H]1CCC(C)=CCC[C@@]1(C)O[C@@H]21
REMARK SMILES IDX 6 1 7 2 2 3 1 4 3 5 4 6 5 7 8 8 9 9 10 10 11 11 12 12 18 14
REMARK SMILES IDX 15 15 17 16 16 17 14 18 13 19
REMARK H PARENT
REMARK Flexibility Score: 70.00
ROOT
ATOM      1  C   UNL     1     -20.869  32.471 -13.786  1.00  0.00     0.216 C 
ATOM      2  C   UNL     1     -21.813  33.678 -13.439  1.00  0.00     0.070 C 
ATOM      3  C   UNL     1     -22.889  33.038 -12.613  1.00  0.00     0.037 C 
ATOM      4  C   UNL     1     -23.817  33.675 -11.900  1.00  0.00     0.021 C 
ATOM      5  C   UNL     1     -22.741  31.610 -12.728  1.00  0.00     0.334 C 
ATOM      6  O   UNL     1     -23.520  30.748 -12.243  1.00  0.00    -0.247 OA
ATOM      7  O   UNL     1     -21.616  31.300 -13.459  1.00  0.00    -0.455 OA
ENDROOT
BRANCH   2   8
ATOM      8  C   UNL     1     -22.455  34.350 -14.678  1.00  0.00     0.017 C 
BRANCH   8   9
ATOM      9  C   UNL     1     -21.813  35.670 -15.152  1.00  0.00     0.031 C 
BRANCH   9  10
ATOM     10  C   UNL     1     -20.855  35.511 -16.322  1.00  0.00    -0.077 C 
ATOM     11  C   UNL     1     -21.429  35.548 -17.715  1.00  0.00     0.039 C 
ATOM     12  C   UNL     1     -19.515  35.340 -16.192  1.00  0.00    -0.028 CG0
ATOM     13  G   UNL     1     -18.737  35.312 -14.898  1.00  0.00     0.000 G0
ENDBRANCH   9  10
ENDBRANCH   8   9
ENDBRANCH   2   8
BRANCH   1  14
ATOM     14  C   UNL     1     -19.608  32.473 -12.899  1.00  0.00     0.192 C 
ATOM     15  C   UNL     1     -18.330  33.166 -13.271  1.00  0.00     0.096 C 
ATOM     16  O   UNL     1     -19.284  33.772 -12.436  1.00  0.00    -0.362 OA
ATOM     17  C   UNL     1     -17.093  32.730 -12.479  1.00  0.00     0.045 C 
BRANCH  15  18
ATOM     18  C   UNL     1     -18.050  33.949 -14.589  1.00  0.00     0.042 C 
BRANCH  18  19
ATOM     19  C   UNL     1     -18.728  35.305 -14.891  1.00  0.00     0.030 CG0
ATOM     20  G   UNL     1     -19.526  35.336 -16.174  1.00  0.00     0.000 G0
ENDBRANCH  18  19
ENDBRANCH  15  18
ENDBRANCH   1  14
TORSDOF 0
ENDMDL
MODEL 4
REMARK VINA RESULT:    -3.788      6.356      8.691
REMARK INTER + INTRA:          -5.484
REMARK INTER:                  -5.242
REMARK INTRA:                  -0.241
REMARK UNBOUND:                -0.366
REMARK SMILES C=C1C(=O)O[C@H]2[C@H]1CCC(C)=CCC[C@@]1(C)O[C@@H]21
REMARK SMILES IDX 6 1 7 2 2 3 1 4 3 5 4 6 5 7 8 8 9 9 10 10 11 11 12 12 18 14
REMARK SMILES IDX 15 15 17 16 16 17 14 18 13 19
REMARK H PARENT
REMARK Flexibility Score: 70.00
ROOT
ATOM      1  C   UNL     1     -24.675  33.230 -14.802  1.00  0.00     0.216 C 
ATOM      2  C   UNL     1     -25.094  33.231 -13.288  1.00  0.00     0.070 C 
ATOM      3  C   UNL     1     -26.148  34.297 -13.231  1.00  0.00     0.037 C 
ATOM      4  C   UNL     1     -26.967  34.541 -12.209  1.00  0.00     0.021 C 
ATOM      5  C   UNL     1     -26.118  35.013 -14.480  1.00  0.00     0.334 C 
ATOM      6  O   UNL     1     -26.800  36.033 -14.762  1.00  0.00    -0.247 OA
ATOM      7  O   UNL     1     -25.221  34.430 -15.348  1.00  0.00    -0.455 OA
ENDROOT
BRANCH   2   8
ATOM      8  C   UNL     1     -23.945  33.602 -12.318  1.00  0.00     0.017 C 
BRANCH   8   9
ATOM      9  C   UNL     1     -22.922  32.488 -12.013  1.00  0.00     0.031 C 
BRANCH   9  10
ATOM     10  C   UNL     1     -21.718  32.478 -12.941  1.00  0.00    -0.077 C 
ATOM     11  C   UNL     1     -20.656  33.528 -12.733  1.00  0.00     0.039 C 
ATOM     12  C   UNL     1     -21.537  31.583 -13.945  1.00  0.00    -0.028 CG0
ATOM     13  G   UNL     1     -22.453  30.435 -14.297  1.00  0.00     0.000 G0
ENDBRANCH   9  10
ENDBRANCH   8   9
ENDBRANCH   2   8
BRANCH   1  14
ATOM     14  C   UNL     1     -25.316  32.049 -15.560  1.00  0.00     0.192 C 
ATOM     15  C   UNL     1     -24.566  30.813 -15.961  1.00  0.00     0.096 C 
ATOM     16  O   UNL     1     -25.332  30.864 -14.784  1.00  0.00    -0.362 OA
ATOM     17  C   UNL     1     -25.246  29.953 -17.031  1.00  0.00     0.045 C 
BRANCH  15  18
ATOM     18  C   UNL     1     -23.053  30.529 -15.724  1.00  0.00     0.042 C 
BRANCH  18  19
ATOM     19  C   UNL     1     -22.452  30.442 -14.302  1.00  0.00     0.030 CG0
ATOM     20  G   UNL     1     -21.526  31.580 -13.940  1.00  0.00     0.000 G0
ENDBRANCH  18  19
ENDBRANCH  15  18
ENDBRANCH   1  14
TORSDOF 0
ENDMDL
MODEL 5
REMARK VINA RESULT:    -3.786      5.888      8.154
REMARK INTER + INTRA:          -5.480
REMARK INTER:                  -5.261
REMARK INTRA:                  -0.219
REMARK UNBOUND:                -0.366
REMARK SMILES C=C1C(=O)O[C@H]2[C@H]1CCC(C)=CCC[C@@]1(C)O[C@@H]21
REMARK SMILES IDX 6 1 7 2 2 3 1 4 3 5 4 6 5 7 8 8 9 9 10 10 11 11 12 12 18 14
REMARK SMILES IDX 15 15 17 16 16 17 14 18 13 19
REMARK H PARENT
REMARK Flexibility Score: 70.00
ROOT
ATOM      1  C   UNL     1     -19.880  34.865 -14.489  1.00  0.00     0.216 C 
ATOM      2  C   UNL     1     -20.611  33.912 -15.501  1.00  0.00     0.070 C 
ATOM      3  C   UNL     1     -20.255  34.499 -16.834  1.00  0.00     0.037 C 
ATOM      4  C   UNL     1     -20.459  33.933 -18.023  1.00  0.00     0.021 C 
ATOM      5  C   UNL     1     -19.654  35.787 -16.601  1.00  0.00     0.334 C 
ATOM      6  O   UNL     1     -19.308  36.610 -17.489  1.00  0.00    -0.247 OA
ATOM      7  O   UNL     1     -19.505  36.012 -15.251  1.00  0.00    -0.455 OA
ENDROOT
BRANCH   2   8
ATOM      8  C   UNL     1     -22.153  33.897 -15.348  1.00  0.00     0.017 C 
BRANCH   8   9
ATOM      9  C   UNL     1     -22.790  32.543 -14.972  1.00  0.00     0.031 C 
BRANCH   9  10
ATOM     10  C   UNL     1     -23.127  32.403 -13.496  1.00  0.00    -0.077 C 
ATOM     11  C   UNL     1     -24.543  32.689 -13.065  1.00  0.00     0.039 C 
ATOM     12  C   UNL     1     -22.236  32.035 -12.542  1.00  0.00    -0.028 CG0
ATOM     13  G   UNL     1     -20.787  31.669 -12.764  1.00  0.00     0.000 G0
ENDBRANCH   9  10
ENDBRANCH   8   9
ENDBRANCH   2   8
BRANCH   1  14
ATOM     14  C   UNL     1     -18.582  34.226 -13.954  1.00  0.00     0.192 C 
ATOM     15  C   UNL     1     -18.551  33.191 -12.868  1.00  0.00     0.096 C 
ATOM     16  O   UNL     1     -18.521  32.837 -14.228  1.00  0.00    -0.362 OA
ATOM     17  C   UNL     1     -17.186  32.977 -12.206  1.00  0.00     0.045 C 
BRANCH  15  18
ATOM     18  C   UNL     1     -19.777  32.626 -12.091  1.00  0.00     0.042 C 
BRANCH  18  19
ATOM     19  C   UNL     1     -20.785  31.656 -12.750  1.00  0.00     0.030 CG0
ATOM     20  G   UNL     1     -22.236  32.029 -12.554  1.00  0.00     0.000 G0
ENDBRANCH  18  19
ENDBRANCH  15  18
ENDBRANCH   1  14
TORSDOF 0
ENDMDL
MODEL 6
REMARK VINA RESULT:    -3.762      4.817      7.254
REMARK INTER + INTRA:          -5.449
REMARK INTER:                  -5.660
REMARK INTRA:                   0.211
REMARK UNBOUND:                -0.366
REMARK SMILES C=C1C(=O)O[C@H]2[C@H]1CCC(C)=CCC[C@@]1(C)O[C@@H]21
REMARK SMILES IDX 6 1 7 2 2 3 1 4 3 5 4 6 5 7 8 8 9 9 10 10 11 11 12 12 18 14
REMARK SMILES IDX 15 15 17 16 16 17 14 18 13 19
REMARK H PARENT
REMARK Flexibility Score: 70.00
ROOT
ATOM      1  C   UNL     1     -25.499  28.573 -18.301  1.00  0.00     0.216 C 
ATOM      2  C   UNL     1     -26.868  29.344 -18.302  1.00  0.00     0.070 C 
ATOM      3  C   UNL     1     -27.009  29.783 -16.875  1.00  0.00     0.037 C 
ATOM      4  C   UNL     1     -27.902  30.652 -16.403  1.00  0.00     0.021 C 
ATOM      5  C   UNL     1     -26.006  29.096 -16.103  1.00  0.00     0.334 C 
ATOM      6  O   UNL     1     -25.877  29.146 -14.851  1.00  0.00    -0.247 OA
ATOM      7  O   UNL     1     -25.188  28.354 -16.926  1.00  0.00    -0.455 OA
ENDROOT
BRANCH   2   8
ATOM      8  C   UNL     1     -28.084  28.464 -18.686  1.00  0.00     0.017 C 
BRANCH   8   9
ATOM      9  C   UNL     1     -27.765  27.073 -19.270  1.00  0.00     0.031 C 
BRANCH   9  10
ATOM     10  C   UNL     1     -27.724  27.030 -20.789  1.00  0.00    -0.077 C 
ATOM     11  C   UNL     1     -29.036  27.040 -21.531  1.00  0.00     0.039 C 
ATOM     12  C   UNL     1     -26.582  26.985 -21.519  1.00  0.00    -0.028 CG0
ATOM     13  G   UNL     1     -25.171  27.005 -20.979  1.00  0.00     0.000 G0
ENDBRANCH   9  10
ENDBRANCH   8   9
ENDBRANCH   2   8
BRANCH   1  14
ATOM     14  C   UNL     1     -24.368  29.439 -18.894  1.00  0.00     0.192 C 
ATOM     15  C   UNL     1     -23.875  29.310 -20.306  1.00  0.00     0.096 C 
ATOM     16  O   UNL     1     -24.830  30.274 -19.941  1.00  0.00    -0.362 OA
ATOM     17  C   UNL     1     -22.513  29.952 -20.585  1.00  0.00     0.045 C 
BRANCH  15  18
ATOM     18  C   UNL     1     -24.375  28.291 -21.373  1.00  0.00     0.042 C 
BRANCH  18  19
ATOM     19  C   UNL     1     -25.165  27.021 -20.981  1.00  0.00     0.030 CG0
ATOM     20  G   UNL     1     -26.583  26.977 -21.501  1.00  0.00     0.000 G0
ENDBRANCH  18  19
ENDBRANCH  15  18
ENDBRANCH   1  14
TORSDOF 0
ENDMDL
MODEL 7
REMARK VINA RESULT:    -3.750      6.334      9.024
REMARK INTER + INTRA:          -5.432
REMARK INTER:                  -5.079
REMARK INTRA:                  -0.353
REMARK UNBOUND:                -0.366
REMARK SMILES C=C1C(=O)O[C@H]2[C@H]1CCC(C)=CCC[C@@]1(C)O[C@@H]21
REMARK SMILES IDX 6 1 7 2 2 3 1 4 3 5 4 6 5 7 8 8 9 9 10 10 11 11 12 12 18 14
REMARK SMILES IDX 15 15 17 16 16 17 14 18 13 19
REMARK H PARENT
REMARK Flexibility Score: 70.00
ROOT
ATOM      1  C   UNL     1     -24.627  32.995 -13.406  1.00  0.00     0.216 C 
ATOM      2  C   UNL     1     -25.299  33.543 -14.716  1.00  0.00     0.070 C 
ATOM      3  C   UNL     1     -26.178  34.647 -14.207  1.00  0.00     0.037 C 
ATOM      4  C   UNL     1     -26.801  35.562 -14.948  1.00  0.00     0.021 C 
ATOM      5  C   UNL     1     -26.228  34.542 -12.772  1.00  0.00     0.334 C 
ATOM      6  O   UNL     1     -26.939  35.246 -12.006  1.00  0.00    -0.247 OA
ATOM      7  O   UNL     1     -25.385  33.547 -12.331  1.00  0.00    -0.455 OA
ENDROOT
BRANCH   2   8
ATOM      8  C   UNL     1     -26.172  32.501 -15.458  1.00  0.00     0.017 C 
BRANCH   8   9
ATOM      9  C   UNL     1     -25.437  31.567 -16.442  1.00  0.00     0.031 C 
BRANCH   9  10
ATOM     10  C   UNL     1     -25.027  30.231 -15.843  1.00  0.00    -0.077 C 
ATOM     11  C   UNL     1     -26.084  29.166 -15.703  1.00  0.00     0.039 C 
ATOM     12  C   UNL     1     -23.769  29.936 -15.428  1.00  0.00    -0.028 CG0
ATOM     13  G   UNL     1     -22.562  30.840 -15.513  1.00  0.00     0.000 G0
ENDBRANCH   9  10
ENDBRANCH   8   9
ENDBRANCH   2   8
BRANCH   1  14
ATOM     14  C   UNL     1     -23.181  33.511 -13.261  1.00  0.00     0.192 C 
ATOM     15  C   UNL     1     -21.968  32.697 -13.604  1.00  0.00     0.096 C 
ATOM     16  O   UNL     1     -22.524  33.615 -14.511  1.00  0.00    -0.362 OA
ATOM     17  C   UNL     1     -20.647  33.213 -13.027  1.00  0.00     0.045 C 
BRANCH  15  18
ATOM     18  C   UNL     1     -21.955  31.225 -14.117  1.00  0.00     0.042 C 
BRANCH  18  19
ATOM     19  C   UNL     1     -22.546  30.835 -15.492  1.00  0.00     0.030 CG0
ATOM     20  G   UNL     1     -23.755  29.933 -15.422  1.00  0.00     0.000 G0
ENDBRANCH  18  19
ENDBRANCH  15  18
ENDBRANCH   1  14
TORSDOF 0
ENDMDL
MODEL 8
REMARK VINA RESULT:    -3.749      4.290      6.670
REMARK INTER + INTRA:          -5.431
REMARK INTER:                  -5.075
REMARK INTRA:                  -0.356
REMARK UNBOUND:                -0.366
REMARK SMILES C=C1C(=O)O[C@H]2[C@H]1CCC(C)=CCC[C@@]1(C)O[C@@H]21
REMARK SMILES IDX 6 1 7 2 2 3 1 4 3 5 4 6 5 7 8 8 9 9 10 10 11 11 12 12 18 14
REMARK SMILES IDX 15 15 17 16 16 17 14 18 13 19
REMARK H PARENT
REMARK Flexibility Score: 70.00
ROOT
ATOM      1  C   UNL     1     -24.967  29.904 -18.871  1.00  0.00     0.216 C 
ATOM      2  C   UNL     1     -25.660  28.587 -19.375  1.00  0.00     0.070 C 
ATOM      3  C   UNL     1     -24.840  28.212 -20.574  1.00  0.00     0.037 C 
ATOM      4  C   UNL     1     -24.892  27.055 -21.233  1.00  0.00     0.021 C 
ATOM      5  C   UNL     1     -23.985  29.328 -20.888  1.00  0.00     0.334 C 
ATOM      6  O   UNL     1     -23.221  29.412 -21.885  1.00  0.00    -0.247 OA
ATOM      7  O   UNL     1     -24.118  30.318 -19.940  1.00  0.00    -0.455 OA
ENDROOT
BRANCH   2   8
ATOM      8  C   UNL     1     -27.135  28.778 -19.808  1.00  0.00     0.017 C 
BRANCH   8   9
ATOM      9  C   UNL     1     -28.201  28.585 -18.710  1.00  0.00     0.031 C 
BRANCH   9  10
ATOM     10  C   UNL     1     -28.657  29.877 -18.051  1.00  0.00    -0.077 C 
ATOM     11  C   UNL     1     -29.685  30.713 -18.770  1.00  0.00     0.039 C 
ATOM     12  C   UNL     1     -28.198  30.327 -16.856  1.00  0.00    -0.028 CG0
ATOM     13  G   UNL     1     -27.202  29.629 -15.959  1.00  0.00     0.000 G0
ENDBRANCH   9  10
ENDBRANCH   8   9
ENDBRANCH   2   8
BRANCH   1  14
ATOM     14  C   UNL     1     -24.067  29.632 -17.649  1.00  0.00     0.192 C 
ATOM     15  C   UNL     1     -24.499  29.861 -16.230  1.00  0.00     0.096 C 
ATOM     16  O   UNL     1     -24.578  28.594 -16.832  1.00  0.00    -0.362 OA
ATOM     17  C   UNL     1     -23.366  29.921 -15.202  1.00  0.00     0.045 C 
BRANCH  15  18
ATOM     18  C   UNL     1     -25.872  30.429 -15.760  1.00  0.00     0.042 C 
BRANCH  18  19
ATOM     19  C   UNL     1     -27.190  29.644 -15.957  1.00  0.00     0.030 CG0
ATOM     20  G   UNL     1     -28.194  30.320 -16.860  1.00  0.00     0.000 G0
ENDBRANCH  18  19
ENDBRANCH  15  18
ENDBRANCH   1  14
TORSDOF 0
ENDMDL
MODEL 9
REMARK VINA RESULT:    -3.739      2.706      4.679
REMARK INTER + INTRA:          -5.417
REMARK INTER:                  -5.072
REMARK INTRA:                  -0.345
REMARK UNBOUND:                -0.366
REMARK SMILES C=C1C(=O)O[C@H]2[C@H]1CCC(C)=CCC[C@@]1(C)O[C@@H]21
REMARK SMILES IDX 6 1 7 2 2 3 1 4 3 5 4 6 5 7 8 8 9 9 10 10 11 11 12 12 18 14
REMARK SMILES IDX 15 15 17 16 16 17 14 18 13 19
REMARK H PARENT
REMARK Flexibility Score: 70.00
ROOT
ATOM      1  C   UNL     1     -23.563  30.284 -19.822  1.00  0.00     0.216 C 
ATOM      2  C   UNL     1     -22.951  30.266 -21.269  1.00  0.00     0.070 C 
ATOM      3  C   UNL     1     -23.620  29.082 -21.903  1.00  0.00     0.037 C 
ATOM      4  C   UNL     1     -23.597  28.765 -23.196  1.00  0.00     0.021 C 
ATOM      5  C   UNL     1     -24.292  28.347 -20.862  1.00  0.00     0.334 C 
ATOM      6  O   UNL     1     -24.887  27.247 -21.004  1.00  0.00    -0.247 OA
ATOM      7  O   UNL     1     -24.195  29.014 -19.661  1.00  0.00    -0.455 OA
ENDROOT
BRANCH   2   8
ATOM      8  C   UNL     1     -21.416  30.058 -21.299  1.00  0.00     0.017 C 
BRANCH   8   9
ATOM      9  C   UNL     1     -20.559  31.325 -21.501  1.00  0.00     0.031 C 
BRANCH   9  10
ATOM     10  C   UNL     1     -19.985  31.899 -20.216  1.00  0.00    -0.077 C 
ATOM     11  C   UNL     1     -18.670  31.353 -19.722  1.00  0.00     0.039 C 
ATOM     12  C   UNL     1     -20.581  32.874 -19.485  1.00  0.00    -0.028 CG0
ATOM     13  G   UNL     1     -21.874  33.581 -19.819  1.00  0.00     0.000 G0
ENDBRANCH   9  10
ENDBRANCH   8   9
ENDBRANCH   2   8
BRANCH   1  14
ATOM     14  C   UNL     1     -24.659  31.361 -19.690  1.00  0.00     0.192 C 
ATOM     15  C   UNL     1     -24.392  32.767 -19.238  1.00  0.00     0.096 C 
ATOM     16  O   UNL     1     -24.467  32.429 -20.600  1.00  0.00    -0.362 OA
ATOM     17  C   UNL     1     -25.627  33.556 -18.791  1.00  0.00     0.045 C 
BRANCH  15  18
ATOM     18  C   UNL     1     -23.017  33.356 -18.803  1.00  0.00     0.042 C 
BRANCH  18  19
ATOM     19  C   UNL     1     -21.874  33.594 -19.817  1.00  0.00     0.030 CG0
ATOM     20  G   UNL     1     -20.583  32.882 -19.487  1.00  0.00     0.000 G0
ENDBRANCH  18  19
ENDBRANCH  15  18
ENDBRANCH   1  14
TORSDOF 0
ENDMDL
