MODEL 1
REMARK VINA RESULT:    -7.355      0.000      0.000
REMARK INTER + INTRA:          -8.915
REMARK INTER:                  -8.860
REMARK INTRA:                  -0.055
REMARK UNBOUND:                -0.055
REMARK SMILES O=c1c(O)c(-c2ccc(O)c(O)c2)oc2cc(O)cc(O)c12
REMARK SMILES IDX 5 1 3 2 2 3 1 4 22 5 20 6 19 7 17 8 16 9 15 10 14 11 6 12
REMARK SMILES IDX 7 13 8 14 9 15 13 16 11 17 10 18 12 20 4 22 21 24 18 26
REMARK H PARENT 10 19 12 21 4 23 21 25 18 27
REMARK Flexibility Score: inf
ROOT
ATOM      1  C   UNL     1      15.347 -20.492  12.299  1.00  0.00     0.180 A 
ATOM      2  C   UNL     1      16.519 -20.736  11.557  1.00  0.00     0.208 A 
ATOM      3  C   UNL     1      17.666 -21.190  12.229  1.00  0.00     0.238 A 
ATOM      4  O   UNL     1      18.724 -21.402  11.577  1.00  0.00    -0.285 OA
ATOM      5  C   UNL     1      17.616 -21.410  13.621  1.00  0.00     0.111 A 
ATOM      6  C   UNL     1      18.725 -21.869  14.371  1.00  0.00     0.134 A 
ATOM      7  C   UNL     1      18.593 -22.073  15.753  1.00  0.00     0.093 A 
ATOM      8  C   UNL     1      17.375 -21.826  16.397  1.00  0.00     0.123 A 
ATOM      9  C   UNL     1      16.279 -21.373  15.660  1.00  0.00     0.094 A 
ATOM     10  C   UNL     1      16.391 -21.162  14.283  1.00  0.00     0.146 A 
ATOM     11  O   UNL     1      15.333 -20.725  13.608  1.00  0.00    -0.452 OA
ENDROOT
BRANCH   1  12
ATOM     12  C   UNL     1      14.105 -19.995  11.666  1.00  0.00     0.025 A 
ATOM     13  C   UNL     1      13.516 -20.733  10.626  1.00  0.00     0.016 A 
ATOM     14  C   UNL     1      12.332 -20.294  10.028  1.00  0.00     0.051 A 
ATOM     15  C   UNL     1      11.711 -19.119  10.472  1.00  0.00     0.157 A 
ATOM     16  C   UNL     1      13.466 -18.827  12.122  1.00  0.00     0.062 A 
ATOM     17  C   UNL     1      12.276 -18.387  11.522  1.00  0.00     0.158 A 
BRANCH  15  18
ATOM     18  O   UNL     1      10.532 -18.677   9.876  1.00  0.00    -0.504 OA
ATOM     19  H   UNL     1      10.373 -17.696   9.678  1.00  0.00     0.293 HD
ENDBRANCH  15  18
BRANCH  17  20
ATOM     20  O   UNL     1      11.649 -17.226  11.971  1.00  0.00    -0.504 OA
ATOM     21  H   UNL     1      10.808 -16.873  11.529  1.00  0.00     0.293 HD
ENDBRANCH  17  20
ENDBRANCH   1  12
BRANCH   2  22
ATOM     22  O   UNL     1      16.527 -20.558  10.171  1.00  0.00    -0.502 OA
ATOM     23  H   UNL     1      15.920 -19.894   9.706  1.00  0.00     0.293 HD
ENDBRANCH   2  22
BRANCH   6  24
ATOM     24  O   UNL     1      19.951 -22.125  13.757  1.00  0.00    -0.507 OA
ATOM     25  H   UNL     1      20.009 -22.514  12.823  1.00  0.00     0.293 HD
ENDBRANCH   6  24
BRANCH   8  26
ATOM     26  O   UNL     1      17.243 -22.029  17.769  1.00  0.00    -0.508 OA
ATOM     27  H   UNL     1      16.676 -22.784  18.141  1.00  0.00     0.293 HD
ENDBRANCH   8  26
TORSDOF 6
ENDMDL
MODEL 2
REMARK VINA RESULT:    -6.875      0.823      1.496
REMARK INTER + INTRA:          -8.337
REMARK INTER:                  -8.129
REMARK INTRA:                  -0.208
REMARK UNBOUND:                -0.055
REMARK SMILES O=c1c(O)c(-c2ccc(O)c(O)c2)oc2cc(O)cc(O)c12
REMARK SMILES IDX 5 1 3 2 2 3 1 4 22 5 20 6 19 7 17 8 16 9 15 10 14 11 6 12
REMARK SMILES IDX 7 13 8 14 9 15 13 16 11 17 10 18 12 20 4 22 21 24 18 26
REMARK H PARENT 10 19 12 21 4 23 21 25 18 27
REMARK Flexibility Score: inf
ROOT
ATOM      1  C   UNL     1      15.039 -20.140  12.023  1.00  0.00     0.180 A 
ATOM      2  C   UNL     1      16.150 -20.428  11.206  1.00  0.00     0.208 A 
ATOM      3  C   UNL     1      17.299 -20.982  11.793  1.00  0.00     0.238 A 
ATOM      4  O   UNL     1      18.303 -21.234  11.074  1.00  0.00    -0.285 OA
ATOM      5  C   UNL     1      17.311 -21.256  13.177  1.00  0.00     0.111 A 
ATOM      6  C   UNL     1      18.427 -21.816  13.844  1.00  0.00     0.134 A 
ATOM      7  C   UNL     1      18.357 -22.068  15.222  1.00  0.00     0.093 A 
ATOM      8  C   UNL     1      17.196 -21.770  15.944  1.00  0.00     0.123 A 
ATOM      9  C   UNL     1      16.093 -21.218  15.289  1.00  0.00     0.094 A 
ATOM     10  C   UNL     1      16.143 -20.958  13.917  1.00  0.00     0.146 A 
ATOM     11  O   UNL     1      15.082 -20.425  13.321  1.00  0.00    -0.452 OA
ENDROOT
BRANCH   1  12
ATOM     12  C   UNL     1      13.800 -19.538  11.481  1.00  0.00     0.025 A 
ATOM     13  C   UNL     1      13.490 -18.203  11.786  1.00  0.00     0.016 A 
ATOM     14  C   UNL     1      12.337 -17.608  11.269  1.00  0.00     0.051 A 
ATOM     15  C   UNL     1      11.484 -18.335  10.427  1.00  0.00     0.157 A 
ATOM     16  C   UNL     1      12.953 -20.257  10.619  1.00  0.00     0.062 A 
ATOM     17  C   UNL     1      11.795 -19.659  10.098  1.00  0.00     0.158 A 
BRANCH  15  18
ATOM     18  O   UNL     1      10.332 -17.746   9.912  1.00  0.00    -0.504 OA
ATOM     19  H   UNL     1      10.184 -17.654   8.913  1.00  0.00     0.293 HD
ENDBRANCH  15  18
BRANCH  17  20
ATOM     20  O   UNL     1      10.953 -20.375   9.249  1.00  0.00    -0.504 OA
ATOM     21  H   UNL     1      10.814 -20.100   8.284  1.00  0.00     0.293 HD
ENDBRANCH  17  20
ENDBRANCH   1  12
BRANCH   2  22
ATOM     22  O   UNL     1      16.094 -20.193   9.829  1.00  0.00    -0.502 OA
ATOM     23  H   UNL     1      16.198 -20.935   9.148  1.00  0.00     0.293 HD
ENDBRANCH   2  22
BRANCH   6  24
ATOM     24  O   UNL     1      19.598 -22.125  13.152  1.00  0.00    -0.507 OA
ATOM     25  H   UNL     1      19.688 -22.976  12.608  1.00  0.00     0.293 HD
ENDBRANCH   6  24
BRANCH   8  26
ATOM     26  O   UNL     1      17.126 -22.022  17.312  1.00  0.00    -0.508 OA
ATOM     27  H   UNL     1      16.559 -22.775  17.685  1.00  0.00     0.293 HD
ENDBRANCH   8  26
TORSDOF 6
ENDMDL
MODEL 3
REMARK VINA RESULT:    -6.653      1.336      2.090
REMARK INTER + INTRA:          -8.070
REMARK INTER:                  -7.746
REMARK INTRA:                  -0.324
REMARK UNBOUND:                -0.055
REMARK SMILES O=c1c(O)c(-c2ccc(O)c(O)c2)oc2cc(O)cc(O)c12
REMARK SMILES IDX 5 1 3 2 2 3 1 4 22 5 20 6 19 7 17 8 16 9 15 10 14 11 6 12
REMARK SMILES IDX 7 13 8 14 9 15 13 16 11 17 10 18 12 20 4 22 21 24 18 26
REMARK H PARENT 10 19 12 21 4 23 21 25 18 27
REMARK Flexibility Score: inf
ROOT
ATOM      1  C   UNL     1      14.465 -19.817  11.259  1.00  0.00     0.180 A 
ATOM      2  C   UNL     1      15.470 -20.130  10.323  1.00  0.00     0.208 A 
ATOM      3  C   UNL     1      16.648 -20.749  10.773  1.00  0.00     0.238 A 
ATOM      4  O   UNL     1      17.558 -21.024   9.946  1.00  0.00    -0.285 OA
ATOM      5  C   UNL     1      16.792 -21.062  12.141  1.00  0.00     0.111 A 
ATOM      6  C   UNL     1      17.944 -21.687  12.674  1.00  0.00     0.134 A 
ATOM      7  C   UNL     1      18.008 -21.974  14.046  1.00  0.00     0.093 A 
ATOM      8  C   UNL     1      16.943 -21.646  14.893  1.00  0.00     0.123 A 
ATOM      9  C   UNL     1      15.804 -21.029  14.371  1.00  0.00     0.094 A 
ATOM     10  C   UNL     1      15.722 -20.734  13.008  1.00  0.00     0.146 A 
ATOM     11  O   UNL     1      14.630 -20.140  12.539  1.00  0.00    -0.452 OA
ENDROOT
BRANCH   1  12
ATOM     12  C   UNL     1      13.205 -19.148  10.866  1.00  0.00     0.025 A 
ATOM     13  C   UNL     1      13.138 -17.745  10.866  1.00  0.00     0.016 A 
ATOM     14  C   UNL     1      11.966 -17.092  10.478  1.00  0.00     0.051 A 
ATOM     15  C   UNL     1      10.848 -17.832  10.069  1.00  0.00     0.157 A 
ATOM     16  C   UNL     1      12.087 -19.886  10.435  1.00  0.00     0.062 A 
ATOM     17  C   UNL     1      10.910 -19.230  10.044  1.00  0.00     0.158 A 
BRANCH  15  18
ATOM     18  O   UNL     1       9.676 -17.184   9.684  1.00  0.00    -0.504 OA
ATOM     19  H   UNL     1       9.681 -16.223   9.364  1.00  0.00     0.293 HD
ENDBRANCH  15  18
BRANCH  17  20
ATOM     20  O   UNL     1       9.801 -19.962   9.624  1.00  0.00    -0.504 OA
ATOM     21  H   UNL     1       9.786 -20.434   8.727  1.00  0.00     0.293 HD
ENDBRANCH  17  20
ENDBRANCH   1  12
BRANCH   2  22
ATOM     22  O   UNL     1      15.281 -19.855   8.966  1.00  0.00    -0.502 OA
ATOM     23  H   UNL     1      16.046 -19.851   8.302  1.00  0.00     0.293 HD
ENDBRANCH   2  22
BRANCH   6  24
ATOM     24  O   UNL     1      19.021 -22.027  11.855  1.00  0.00    -0.507 OA
ATOM     25  H   UNL     1      19.469 -22.935  11.911  1.00  0.00     0.293 HD
ENDBRANCH   6  24
BRANCH   8  26
ATOM     26  O   UNL     1      17.005 -21.932  16.255  1.00  0.00    -0.508 OA
ATOM     27  H   UNL     1      16.474 -22.694  16.662  1.00  0.00     0.293 HD
ENDBRANCH   8  26
TORSDOF 6
ENDMDL
MODEL 4
REMARK VINA RESULT:    -6.578      2.781      8.088
REMARK INTER + INTRA:          -7.979
REMARK INTER:                  -7.862
REMARK INTRA:                  -0.116
REMARK UNBOUND:                -0.055
REMARK SMILES O=c1c(O)c(-c2ccc(O)c(O)c2)oc2cc(O)cc(O)c12
REMARK SMILES IDX 5 1 3 2 2 3 1 4 22 5 20 6 19 7 17 8 16 9 15 10 14 11 6 12
REMARK SMILES IDX 7 13 8 14 9 15 13 16 11 17 10 18 12 20 4 22 21 24 18 26
REMARK H PARENT 10 19 12 21 4 23 21 25 18 27
REMARK Flexibility Score: inf
ROOT
ATOM      1  C   UNL     1      12.968 -18.920  10.159  1.00  0.00     0.180 A 
ATOM      2  C   UNL     1      13.072 -17.519  10.059  1.00  0.00     0.208 A 
ATOM      3  C   UNL     1      11.926 -16.774   9.739  1.00  0.00     0.238 A 
ATOM      4  O   UNL     1      12.009 -15.520   9.637  1.00  0.00    -0.285 OA
ATOM      5  C   UNL     1      10.696 -17.436   9.545  1.00  0.00     0.111 A 
ATOM      6  C   UNL     1       9.495 -16.759   9.224  1.00  0.00     0.134 A 
ATOM      7  C   UNL     1       8.309 -17.490   9.055  1.00  0.00     0.093 A 
ATOM      8  C   UNL     1       8.302 -18.882   9.201  1.00  0.00     0.123 A 
ATOM      9  C   UNL     1       9.485 -19.553   9.518  1.00  0.00     0.094 A 
ATOM     10  C   UNL     1      10.677 -18.844   9.688  1.00  0.00     0.146 A 
ATOM     11  O   UNL     1      11.788 -19.509   9.983  1.00  0.00    -0.452 OA
ENDROOT
BRANCH   1  12
ATOM     12  C   UNL     1      14.134 -19.775  10.474  1.00  0.00     0.025 A 
ATOM     13  C   UNL     1      15.247 -19.767   9.617  1.00  0.00     0.016 A 
ATOM     14  C   UNL     1      16.368 -20.550   9.906  1.00  0.00     0.051 A 
ATOM     15  C   UNL     1      16.398 -21.340  11.063  1.00  0.00     0.157 A 
ATOM     16  C   UNL     1      14.178 -20.553  11.645  1.00  0.00     0.062 A 
ATOM     17  C   UNL     1      15.304 -21.338  11.935  1.00  0.00     0.158 A 
BRANCH  15  18
ATOM     18  O   UNL     1      17.512 -22.124  11.353  1.00  0.00    -0.504 OA
ATOM     19  H   UNL     1      18.168 -22.402  10.632  1.00  0.00     0.293 HD
ENDBRANCH  15  18
BRANCH  17  20
ATOM     20  O   UNL     1      15.342 -22.115  13.092  1.00  0.00    -0.504 OA
ATOM     21  H   UNL     1      14.497 -22.354  13.598  1.00  0.00     0.293 HD
ENDBRANCH  17  20
ENDBRANCH   1  12
BRANCH   2  22
ATOM     22  O   UNL     1      14.292 -16.882  10.306  1.00  0.00    -0.502 OA
ATOM     23  H   UNL     1      15.028 -16.834   9.612  1.00  0.00     0.293 HD
ENDBRANCH   2  22
BRANCH   6  24
ATOM     24  O   UNL     1       9.470 -15.373   9.072  1.00  0.00    -0.507 OA
ATOM     25  H   UNL     1       8.703 -14.900   8.607  1.00  0.00     0.293 HD
ENDBRANCH   6  24
BRANCH   8  26
ATOM     26  O   UNL     1       7.125 -19.607   9.035  1.00  0.00    -0.508 OA
ATOM     27  H   UNL     1       6.317 -19.208   8.570  1.00  0.00     0.293 HD
ENDBRANCH   8  26
TORSDOF 6
ENDMDL
MODEL 5
REMARK VINA RESULT:    -6.333      3.044      5.316
REMARK INTER + INTRA:          -7.684
REMARK INTER:                  -7.352
REMARK INTRA:                  -0.332
REMARK UNBOUND:                -0.055
REMARK SMILES O=c1c(O)c(-c2ccc(O)c(O)c2)oc2cc(O)cc(O)c12
REMARK SMILES IDX 5 1 3 2 2 3 1 4 22 5 20 6 19 7 17 8 16 9 15 10 14 11 6 12
REMARK SMILES IDX 7 13 8 14 9 15 13 16 11 17 10 18 12 20 4 22 21 24 18 26
REMARK H PARENT 10 19 12 21 4 23 21 25 18 27
REMARK Flexibility Score: inf
ROOT
ATOM      1  C   UNL     1      12.356 -18.997   9.933  1.00  0.00     0.180 A 
ATOM      2  C   UNL     1      12.767 -18.754  11.258  1.00  0.00     0.208 A 
ATOM      3  C   UNL     1      13.999 -19.272  11.692  1.00  0.00     0.238 A 
ATOM      4  O   UNL     1      14.372 -19.070  12.879  1.00  0.00    -0.285 OA
ATOM      5  C   UNL     1      14.804 -20.002  10.793  1.00  0.00     0.111 A 
ATOM      6  C   UNL     1      16.057 -20.553  11.150  1.00  0.00     0.134 A 
ATOM      7  C   UNL     1      16.803 -21.260  10.194  1.00  0.00     0.093 A 
ATOM      8  C   UNL     1      16.319 -21.425   8.891  1.00  0.00     0.123 A 
ATOM      9  C   UNL     1      15.083 -20.883   8.536  1.00  0.00     0.094 A 
ATOM     10  C   UNL     1      14.324 -20.177   9.473  1.00  0.00     0.146 A 
ATOM     11  O   UNL     1      13.148 -19.677   9.109  1.00  0.00    -0.452 OA
ENDROOT
BRANCH   1  12
ATOM     12  C   UNL     1      11.064 -18.501   9.408  1.00  0.00     0.025 A 
ATOM     13  C   UNL     1      11.020 -17.271   8.732  1.00  0.00     0.016 A 
ATOM     14  C   UNL     1       9.816 -16.793   8.209  1.00  0.00     0.051 A 
ATOM     15  C   UNL     1       8.641 -17.546   8.341  1.00  0.00     0.157 A 
ATOM     16  C   UNL     1       9.887 -19.263   9.519  1.00  0.00     0.062 A 
ATOM     17  C   UNL     1       8.677 -18.784   8.993  1.00  0.00     0.158 A 
BRANCH  15  18
ATOM     18  O   UNL     1       7.438 -17.072   7.823  1.00  0.00    -0.504 OA
ATOM     19  H   UNL     1       7.080 -16.155   8.065  1.00  0.00     0.293 HD
ENDBRANCH  15  18
BRANCH  17  20
ATOM     20  O   UNL     1       7.511 -19.536   9.110  1.00  0.00    -0.504 OA
ATOM     21  H   UNL     1       6.607 -19.097   9.244  1.00  0.00     0.293 HD
ENDBRANCH  17  20
ENDBRANCH   1  12
BRANCH   2  22
ATOM     22  O   UNL     1      11.974 -17.985  12.114  1.00  0.00    -0.502 OA
ATOM     23  H   UNL     1      11.985 -16.973  12.100  1.00  0.00     0.293 HD
ENDBRANCH   2  22
BRANCH   6  24
ATOM     24  O   UNL     1      16.567 -20.404  12.440  1.00  0.00    -0.507 OA
ATOM     25  H   UNL     1      16.663 -21.194  13.070  1.00  0.00     0.293 HD
ENDBRANCH   6  24
BRANCH   8  26
ATOM     26  O   UNL     1      17.060 -22.125   7.942  1.00  0.00    -0.508 OA
ATOM     27  H   UNL     1      16.734 -23.005   7.559  1.00  0.00     0.293 HD
ENDBRANCH   8  26
TORSDOF 6
ENDMDL
MODEL 6
REMARK VINA RESULT:    -6.127      2.142      3.670
REMARK INTER + INTRA:          -7.435
REMARK INTER:                  -7.112
REMARK INTRA:                  -0.323
REMARK UNBOUND:                -0.055
REMARK SMILES O=c1c(O)c(-c2ccc(O)c(O)c2)oc2cc(O)cc(O)c12
REMARK SMILES IDX 5 1 3 2 2 3 1 4 22 5 20 6 19 7 17 8 16 9 15 10 14 11 6 12
REMARK SMILES IDX 7 13 8 14 9 15 13 16 11 17 10 18 12 20 4 22 21 24 18 26
REMARK H PARENT 10 19 12 21 4 23 21 25 18 27
REMARK Flexibility Score: inf
ROOT
ATOM      1  C   UNL     1      13.189 -19.459  10.042  1.00  0.00     0.180 A 
ATOM      2  C   UNL     1      14.110 -19.707   9.006  1.00  0.00     0.208 A 
ATOM      3  C   UNL     1      15.395 -20.167   9.335  1.00  0.00     0.238 A 
ATOM      4  O   UNL     1      16.231 -20.383   8.416  1.00  0.00    -0.285 OA
ATOM      5  C   UNL     1      15.730 -20.390  10.687  1.00  0.00     0.111 A 
ATOM      6  C   UNL     1      17.001 -20.856  11.102  1.00  0.00     0.134 A 
ATOM      7  C   UNL     1      17.254 -21.062  12.466  1.00  0.00     0.093 A 
ATOM      8  C   UNL     1      16.262 -20.811  13.422  1.00  0.00     0.123 A 
ATOM      9  C   UNL     1      15.008 -20.351  13.016  1.00  0.00     0.094 A 
ATOM     10  C   UNL     1      14.736 -20.138  11.662  1.00  0.00     0.146 A 
ATOM     11  O   UNL     1      13.536 -19.695  11.304  1.00  0.00    -0.452 OA
ENDROOT
BRANCH   1  12
ATOM     12  C   UNL     1      11.823 -18.955   9.777  1.00  0.00     0.025 A 
ATOM     13  C   UNL     1      11.591 -17.571   9.746  1.00  0.00     0.016 A 
ATOM     14  C   UNL     1      10.314 -17.073   9.476  1.00  0.00     0.051 A 
ATOM     15  C   UNL     1       9.254 -17.951   9.219  1.00  0.00     0.157 A 
ATOM     16  C   UNL     1      10.760 -19.833   9.496  1.00  0.00     0.062 A 
ATOM     17  C   UNL     1       9.478 -19.333   9.224  1.00  0.00     0.158 A 
BRANCH  15  18
ATOM     18  O   UNL     1       7.978 -17.458   8.952  1.00  0.00    -0.504 OA
ATOM     19  H   UNL     1       7.826 -16.714   8.281  1.00  0.00     0.293 HD
ENDBRANCH  15  18
BRANCH  17  20
ATOM     20  O   UNL     1       8.424 -20.204   8.954  1.00  0.00    -0.504 OA
ATOM     21  H   UNL     1       8.131 -20.404   8.004  1.00  0.00     0.293 HD
ENDBRANCH  17  20
ENDBRANCH   1  12
BRANCH   2  22
ATOM     22  O   UNL     1      13.736 -19.526   7.671  1.00  0.00    -0.502 OA
ATOM     23  H   UNL     1      14.346 -19.768   6.900  1.00  0.00     0.293 HD
ENDBRANCH   2  22
BRANCH   6  24
ATOM     24  O   UNL     1      18.009 -21.116  10.173  1.00  0.00    -0.507 OA
ATOM     25  H   UNL     1      17.846 -21.046   9.175  1.00  0.00     0.293 HD
ENDBRANCH   6  24
BRANCH   8  26
ATOM     26  O   UNL     1      16.512 -21.017  14.776  1.00  0.00    -0.508 OA
ATOM     27  H   UNL     1      17.380 -20.717  15.206  1.00  0.00     0.293 HD
ENDBRANCH   8  26
TORSDOF 6
ENDMDL
MODEL 7
REMARK VINA RESULT:    -6.077      2.321      7.913
REMARK INTER + INTRA:          -7.376
REMARK INTER:                  -7.151
REMARK INTRA:                  -0.225
REMARK UNBOUND:                -0.055
REMARK SMILES O=c1c(O)c(-c2ccc(O)c(O)c2)oc2cc(O)cc(O)c12
REMARK SMILES IDX 5 1 3 2 2 3 1 4 22 5 20 6 19 7 17 8 16 9 15 10 14 11 6 12
REMARK SMILES IDX 7 13 8 14 9 15 13 16 11 17 10 18 12 20 4 22 21 24 18 26
REMARK H PARENT 10 19 12 21 4 23 21 25 18 27
REMARK Flexibility Score: inf
ROOT
ATOM      1  C   UNL     1      13.057 -19.267  10.543  1.00  0.00     0.180 A 
ATOM      2  C   UNL     1      12.157 -20.079   9.826  1.00  0.00     0.208 A 
ATOM      3  C   UNL     1      10.961 -19.515   9.355  1.00  0.00     0.238 A 
ATOM      4  O   UNL     1      10.143 -20.236   8.722  1.00  0.00    -0.285 OA
ATOM      5  C   UNL     1      10.694 -18.150   9.589  1.00  0.00     0.111 A 
ATOM      6  C   UNL     1       9.515 -17.505   9.146  1.00  0.00     0.134 A 
ATOM      7  C   UNL     1       9.327 -16.140   9.411  1.00  0.00     0.093 A 
ATOM      8  C   UNL     1      10.295 -15.410  10.110  1.00  0.00     0.123 A 
ATOM      9  C   UNL     1      11.460 -16.043  10.549  1.00  0.00     0.094 A 
ATOM     10  C   UNL     1      11.665 -17.402  10.297  1.00  0.00     0.146 A 
ATOM     11  O   UNL     1      12.779 -17.980  10.732  1.00  0.00    -0.452 OA
ENDROOT
BRANCH   1  12
ATOM     12  C   UNL     1      14.329 -19.792  11.087  1.00  0.00     0.025 A 
ATOM     13  C   UNL     1      15.548 -19.307  10.586  1.00  0.00     0.016 A 
ATOM     14  C   UNL     1      16.760 -19.774  11.099  1.00  0.00     0.051 A 
ATOM     15  C   UNL     1      16.772 -20.720  12.132  1.00  0.00     0.157 A 
ATOM     16  C   UNL     1      14.346 -20.726  12.139  1.00  0.00     0.062 A 
ATOM     17  C   UNL     1      15.564 -21.194  12.656  1.00  0.00     0.158 A 
BRANCH  15  18
ATOM     18  O   UNL     1      17.979 -21.190  12.646  1.00  0.00    -0.504 OA
ATOM     19  H   UNL     1      18.010 -21.815  13.442  1.00  0.00     0.293 HD
ENDBRANCH  15  18
BRANCH  17  20
ATOM     20  O   UNL     1      15.578 -22.125  13.693  1.00  0.00    -0.504 OA
ATOM     21  H   UNL     1      15.638 -23.120  13.511  1.00  0.00     0.293 HD
ENDBRANCH  17  20
ENDBRANCH   1  12
BRANCH   2  22
ATOM     22  O   UNL     1      12.468 -21.416   9.565  1.00  0.00    -0.502 OA
ATOM     23  H   UNL     1      13.422 -21.745   9.481  1.00  0.00     0.293 HD
ENDBRANCH   2  22
BRANCH   6  24
ATOM     24  O   UNL     1       8.533 -18.206   8.446  1.00  0.00    -0.507 OA
ATOM     25  H   UNL     1       7.743 -18.633   8.918  1.00  0.00     0.293 HD
ENDBRANCH   6  24
BRANCH   8  26
ATOM     26  O   UNL     1      10.110 -14.055  10.372  1.00  0.00    -0.508 OA
ATOM     27  H   UNL     1       9.203 -13.614  10.268  1.00  0.00     0.293 HD
ENDBRANCH   8  26
TORSDOF 6
ENDMDL
MODEL 8
REMARK VINA RESULT:    -6.001      2.064      3.909
REMARK INTER + INTRA:          -7.284
REMARK INTER:                  -7.019
REMARK INTRA:                  -0.264
REMARK UNBOUND:                -0.055
REMARK SMILES O=c1c(O)c(-c2ccc(O)c(O)c2)oc2cc(O)cc(O)c12
REMARK SMILES IDX 5 1 3 2 2 3 1 4 22 5 20 6 19 7 17 8 16 9 15 10 14 11 6 12
REMARK SMILES IDX 7 13 8 14 9 15 13 16 11 17 10 18 12 20 4 22 21 24 18 26
REMARK H PARENT 10 19 12 21 4 23 21 25 18 27
REMARK Flexibility Score: inf
ROOT
ATOM      1  C   UNL     1      15.505 -20.309  10.942  1.00  0.00     0.180 A 
ATOM      2  C   UNL     1      15.922 -21.067  12.053  1.00  0.00     0.208 A 
ATOM      3  C   UNL     1      17.273 -21.436  12.154  1.00  0.00     0.238 A 
ATOM      4  O   UNL     1      17.656 -22.123  13.140  1.00  0.00    -0.285 OA
ATOM      5  C   UNL     1      18.184 -21.027  11.158  1.00  0.00     0.111 A 
ATOM      6  C   UNL     1      19.560 -21.354  11.188  1.00  0.00     0.134 A 
ATOM      7  C   UNL     1      20.405 -20.901  10.163  1.00  0.00     0.093 A 
ATOM      8  C   UNL     1      19.898 -20.129   9.111  1.00  0.00     0.123 A 
ATOM      9  C   UNL     1      18.541 -19.804   9.079  1.00  0.00     0.094 A 
ATOM     10  C   UNL     1      17.683 -20.247  10.089  1.00  0.00     0.146 A 
ATOM     11  O   UNL     1      16.395 -19.929  10.029  1.00  0.00    -0.452 OA
ENDROOT
BRANCH   1  12
ATOM     12  C   UNL     1      14.095 -19.898  10.754  1.00  0.00     0.025 A 
ATOM     13  C   UNL     1      13.286 -20.598   9.845  1.00  0.00     0.016 A 
ATOM     14  C   UNL     1      11.947 -20.240   9.668  1.00  0.00     0.051 A 
ATOM     15  C   UNL     1      11.394 -19.188  10.409  1.00  0.00     0.157 A 
ATOM     16  C   UNL     1      13.529 -18.856  11.511  1.00  0.00     0.062 A 
ATOM     17  C   UNL     1      12.184 -18.498  11.335  1.00  0.00     0.158 A 
BRANCH  15  18
ATOM     18  O   UNL     1      10.059 -18.827  10.233  1.00  0.00    -0.504 OA
ATOM     19  H   UNL     1       9.386 -18.900  10.986  1.00  0.00     0.293 HD
ENDBRANCH  15  18
BRANCH  17  20
ATOM     20  O   UNL     1      11.627 -17.460  12.080  1.00  0.00    -0.504 OA
ATOM     21  H   UNL     1      11.446 -16.551  11.671  1.00  0.00     0.293 HD
ENDBRANCH  17  20
ENDBRANCH   1  12
BRANCH   2  22
ATOM     22  O   UNL     1      15.009 -21.417  13.052  1.00  0.00    -0.502 OA
ATOM     23  H   UNL     1      15.136 -21.151  14.020  1.00  0.00     0.293 HD
ENDBRANCH   2  22
BRANCH   6  24
ATOM     24  O   UNL     1      20.095 -22.121  12.224  1.00  0.00    -0.507 OA
ATOM     25  H   UNL     1      20.565 -21.695  13.015  1.00  0.00     0.293 HD
ENDBRANCH   6  24
BRANCH   8  26
ATOM     26  O   UNL     1      20.736 -19.677   8.094  1.00  0.00    -0.508 OA
ATOM     27  H   UNL     1      21.204 -18.780   8.152  1.00  0.00     0.293 HD
ENDBRANCH   8  26
TORSDOF 6
ENDMDL
