MODEL 1
REMARK VINA RESULT:    -2.125      0.000      0.000
REMARK INTER + INTRA:         -11.345
REMARK INTER:                  -5.604
REMARK INTRA:                  -5.741
REMARK UNBOUND:                -5.741
REMARK SMILES CCCCCCCCCCCCCCCCCCCCCCCCCCCCCC(=O)[O-]
REMARK SMILES IDX 16 1 17 2 18 3 19 4 20 5 21 6 22 7 23 8 24 9 25 10 26 11
REMARK SMILES IDX 27 12 28 13 29 14 30 15 31 16 32 17 15 18 14 19 13 20 12 21
REMARK SMILES IDX 11 22 10 23 9 24 8 25 7 26 6 27 5 28 4 29 3 30 2 31 1 32
REMARK H PARENT
REMARK Flexibility Score: inf
ROOT
ATOM      1  C   UNL     1      73.777  76.311  79.366  1.00  0.00     0.000 C 
ENDROOT
BRANCH   1   2
ATOM      2  C   UNL     1      73.697  76.139  77.841  1.00  0.00     0.000 C 
BRANCH   2   3
ATOM      3  C   UNL     1      72.410  76.739  77.238  1.00  0.00     0.000 C 
BRANCH   3   4
ATOM      4  C   UNL     1      72.416  78.280  77.156  1.00  0.00     0.000 C 
BRANCH   4   5
ATOM      5  C   UNL     1      72.429  78.864  75.735  1.00  0.00     0.000 C 
BRANCH   5   6
ATOM      6  C   UNL     1      72.078  77.877  74.603  1.00  0.00     0.000 C 
BRANCH   6   7
ATOM      7  C   UNL     1      72.949  78.028  73.336  1.00  0.00     0.000 C 
BRANCH   7   8
ATOM      8  C   UNL     1      74.421  78.351  73.660  1.00  0.00     0.000 C 
BRANCH   8   9
ATOM      9  C   UNL     1      75.296  77.096  73.800  1.00  0.00     0.000 C 
BRANCH   9  10
ATOM     10  C   UNL     1      76.026  77.025  75.152  1.00  0.00     0.000 C 
BRANCH  10  11
ATOM     11  C   UNL     1      76.659  78.368  75.554  1.00  0.00     0.000 C 
BRANCH  11  12
ATOM     12  C   UNL     1      76.310  78.806  76.993  1.00  0.00     0.000 C 
BRANCH  12  13
ATOM     13  C   UNL     1      75.494  80.110  77.026  1.00  0.00     0.006 C 
BRANCH  13  14
ATOM     14  C   UNL     1      75.959  81.110  75.959  1.00  0.00     0.053 C 
BRANCH  14  15
ATOM     15  C   UNL     1      74.842  81.993  75.500  1.00  0.00     0.041 C 
ATOM     16  O   UNL     1      74.125  81.649  74.525  1.00  0.00    -0.550 OA
ATOM     17  O   UNL     1      74.581  83.189  76.158  1.00  0.00    -0.550 OA
ENDBRANCH  14  15
ENDBRANCH  13  14
ENDBRANCH  12  13
ENDBRANCH  11  12
ENDBRANCH  10  11
ENDBRANCH   9  10
ENDBRANCH   8   9
ENDBRANCH   7   8
ENDBRANCH   6   7
ENDBRANCH   5   6
ENDBRANCH   4   5
ENDBRANCH   3   4
ENDBRANCH   2   3
ENDBRANCH   1   2
BRANCH   1  18
ATOM     18  C   UNL     1      72.828  75.341  80.079  1.00  0.00     0.000 C 
BRANCH  18  19
ATOM     19  C   UNL     1      73.045  73.899  79.596  1.00  0.00     0.000 C 
BRANCH  19  20
ATOM     20  C   UNL     1      74.071  73.133  80.448  1.00  0.00     0.000 C 
BRANCH  20  21
ATOM     21  C   UNL     1      74.711  71.913  79.758  1.00  0.00     0.000 C 
BRANCH  21  22
ATOM     22  C   UNL     1      76.220  72.076  79.462  1.00  0.00     0.000 C 
BRANCH  22  23
ATOM     23  C   UNL     1      76.596  72.038  77.965  1.00  0.00     0.000 C 
BRANCH  23  24
ATOM     24  C   UNL     1      75.601  72.728  77.006  1.00  0.00    -0.000 C 
BRANCH  24  25
ATOM     25  C   UNL     1      76.138  73.006  75.589  1.00  0.00    -0.000 C 
BRANCH  25  26
ATOM     26  C   UNL     1      77.041  71.875  75.064  1.00  0.00    -0.000 C 
BRANCH  26  27
ATOM     27  C   UNL     1      78.361  72.397  74.459  1.00  0.00    -0.000 C 
BRANCH  27  28
ATOM     28  C   UNL     1      78.587  73.904  74.675  1.00  0.00    -0.000 C 
BRANCH  28  29
ATOM     29  C   UNL     1      79.409  74.201  75.947  1.00  0.00    -0.000 C 
BRANCH  29  30
ATOM     30  C   UNL     1      78.836  75.380  76.753  1.00  0.00    -0.000 C 
BRANCH  30  31
ATOM     31  C   UNL     1      78.639  75.077  78.251  1.00  0.00    -0.003 C 
ATOM     32  C   UNL     1      77.328  75.643  78.802  1.00  0.00     0.004 C 
ENDBRANCH  30  31
ENDBRANCH  29  30
ENDBRANCH  28  29
ENDBRANCH  27  28
ENDBRANCH  26  27
ENDBRANCH  25  26
ENDBRANCH  24  25
ENDBRANCH  23  24
ENDBRANCH  22  23
ENDBRANCH  21  22
ENDBRANCH  20  21
ENDBRANCH  19  20
ENDBRANCH  18  19
ENDBRANCH   1  18
TORSDOF 28
ENDMDL
MODEL 2
REMARK VINA RESULT:    -2.104      8.920     13.932
REMARK INTER + INTRA:         -11.288
REMARK INTER:                  -6.154
REMARK INTRA:                  -5.134
REMARK UNBOUND:                -5.741
REMARK SMILES CCCCCCCCCCCCCCCCCCCCCCCCCCCCCC(=O)[O-]
REMARK SMILES IDX 16 1 17 2 18 3 19 4 20 5 21 6 22 7 23 8 24 9 25 10 26 11
REMARK SMILES IDX 27 12 28 13 29 14 30 15 31 16 32 17 15 18 14 19 13 20 12 21
REMARK SMILES IDX 11 22 10 23 9 24 8 25 7 26 6 27 5 28 4 29 3 30 2 31 1 32
REMARK H PARENT
REMARK Flexibility Score: inf
ROOT
ATOM      1  C   UNL     1      78.823  86.679  78.500  1.00  0.00     0.000 C 
ENDROOT
BRANCH   1   2
ATOM      2  C   UNL     1      77.702  87.659  78.881  1.00  0.00     0.000 C 
BRANCH   2   3
ATOM      3  C   UNL     1      76.426  87.466  78.035  1.00  0.00     0.000 C 
BRANCH   3   4
ATOM      4  C   UNL     1      76.118  88.645  77.088  1.00  0.00     0.000 C 
BRANCH   4   5
ATOM      5  C   UNL     1      76.755  89.988  77.480  1.00  0.00     0.000 C 
BRANCH   5   6
ATOM      6  C   UNL     1      76.891  91.020  76.342  1.00  0.00     0.000 C 
BRANCH   6   7
ATOM      7  C   UNL     1      75.733  90.995  75.320  1.00  0.00     0.000 C 
BRANCH   7   8
ATOM      8  C   UNL     1      76.223  91.104  73.862  1.00  0.00     0.000 C 
BRANCH   8   9
ATOM      9  C   UNL     1      75.430  90.214  72.892  1.00  0.00     0.000 C 
BRANCH   9  10
ATOM     10  C   UNL     1      74.464  89.259  73.612  1.00  0.00     0.000 C 
BRANCH  10  11
ATOM     11  C   UNL     1      74.540  87.820  73.071  1.00  0.00     0.000 C 
BRANCH  11  12
ATOM     12  C   UNL     1      75.269  86.844  74.020  1.00  0.00     0.000 C 
BRANCH  12  13
ATOM     13  C   UNL     1      74.443  85.577  74.304  1.00  0.00     0.006 C 
BRANCH  13  14
ATOM     14  C   UNL     1      74.125  85.417  75.797  1.00  0.00     0.053 C 
BRANCH  14  15
ATOM     15  C   UNL     1      74.635  84.118  76.337  1.00  0.00     0.041 C 
ATOM     16  O   UNL     1      75.790  83.719  76.036  1.00  0.00    -0.550 OA
ATOM     17  O   UNL     1      73.842  83.354  77.185  1.00  0.00    -0.550 OA
ENDBRANCH  14  15
ENDBRANCH  13  14
ENDBRANCH  12  13
ENDBRANCH  11  12
ENDBRANCH  10  11
ENDBRANCH   9  10
ENDBRANCH   8   9
ENDBRANCH   7   8
ENDBRANCH   6   7
ENDBRANCH   5   6
ENDBRANCH   4   5
ENDBRANCH   3   4
ENDBRANCH   2   3
ENDBRANCH   1   2
BRANCH   1  18
ATOM     18  C   UNL     1      79.518  87.116  77.206  1.00  0.00     0.000 C 
BRANCH  18  19
ATOM     19  C   UNL     1      79.108  86.220  76.027  1.00  0.00     0.000 C 
BRANCH  19  20
ATOM     20  C   UNL     1      78.806  87.019  74.747  1.00  0.00     0.000 C 
BRANCH  20  21
ATOM     21  C   UNL     1      79.194  88.509  74.801  1.00  0.00     0.000 C 
BRANCH  21  22
ATOM     22  C   UNL     1      79.438  89.147  73.414  1.00  0.00     0.000 C 
BRANCH  22  23
ATOM     23  C   UNL     1      80.906  89.525  73.121  1.00  0.00     0.000 C 
BRANCH  23  24
ATOM     24  C   UNL     1      81.968  88.518  73.614  1.00  0.00    -0.000 C 
BRANCH  24  25
ATOM     25  C   UNL     1      83.432  88.956  73.417  1.00  0.00    -0.000 C 
BRANCH  25  26
ATOM     26  C   UNL     1      83.561  90.441  73.033  1.00  0.00    -0.000 C 
BRANCH  26  27
ATOM     27  C   UNL     1      84.128  91.307  74.177  1.00  0.00    -0.000 C 
BRANCH  27  28
ATOM     28  C   UNL     1      83.151  91.497  75.352  1.00  0.00    -0.000 C 
BRANCH  28  29
ATOM     29  C   UNL     1      83.694  90.912  76.672  1.00  0.00    -0.000 C 
BRANCH  29  30
ATOM     30  C   UNL     1      82.656  90.967  77.808  1.00  0.00    -0.000 C 
BRANCH  30  31
ATOM     31  C   UNL     1      81.220  90.635  77.360  1.00  0.00    -0.003 C 
ATOM     32  C   UNL     1      80.280  90.368  78.539  1.00  0.00     0.004 C 
ENDBRANCH  30  31
ENDBRANCH  29  30
ENDBRANCH  28  29
ENDBRANCH  27  28
ENDBRANCH  26  27
ENDBRANCH  25  26
ENDBRANCH  24  25
ENDBRANCH  23  24
ENDBRANCH  22  23
ENDBRANCH  21  22
ENDBRANCH  20  21
ENDBRANCH  19  20
ENDBRANCH  18  19
ENDBRANCH   1  18
TORSDOF 28
ENDMDL
MODEL 3
REMARK VINA RESULT:    -2.079      3.211      5.442
REMARK INTER + INTRA:         -11.225
REMARK INTER:                  -5.818
REMARK INTRA:                  -5.406
REMARK UNBOUND:                -5.741
REMARK SMILES CCCCCCCCCCCCCCCCCCCCCCCCCCCCCC(=O)[O-]
REMARK SMILES IDX 16 1 17 2 18 3 19 4 20 5 21 6 22 7 23 8 24 9 25 10 26 11
REMARK SMILES IDX 27 12 28 13 29 14 30 15 31 16 32 17 15 18 14 19 13 20 12 21
REMARK SMILES IDX 11 22 10 23 9 24 8 25 7 26 6 27 5 28 4 29 3 30 2 31 1 32
REMARK H PARENT
REMARK Flexibility Score: inf
ROOT
ATOM      1  C   UNL     1      73.760  76.378  78.335  1.00  0.00     0.000 C 
ENDROOT
BRANCH   1   2
ATOM      2  C   UNL     1      72.649  76.840  77.378  1.00  0.00     0.000 C 
BRANCH   2   3
ATOM      3  C   UNL     1      71.914  78.099  77.880  1.00  0.00     0.000 C 
BRANCH   3   4
ATOM      4  C   UNL     1      72.273  79.384  77.103  1.00  0.00     0.000 C 
BRANCH   4   5
ATOM      5  C   UNL     1      72.269  79.252  75.572  1.00  0.00     0.000 C 
BRANCH   5   6
ATOM      6  C   UNL     1      73.636  79.437  74.882  1.00  0.00     0.000 C 
BRANCH   6   7
ATOM      7  C   UNL     1      74.804  79.724  75.852  1.00  0.00     0.000 C 
BRANCH   7   8
ATOM      8  C   UNL     1      75.760  78.523  76.004  1.00  0.00     0.000 C 
BRANCH   8   9
ATOM      9  C   UNL     1      75.462  77.387  75.013  1.00  0.00     0.000 C 
BRANCH   9  10
ATOM     10  C   UNL     1      76.445  76.212  75.139  1.00  0.00     0.000 C 
BRANCH  10  11
ATOM     11  C   UNL     1      76.758  75.554  73.784  1.00  0.00     0.000 C 
BRANCH  11  12
ATOM     12  C   UNL     1      76.726  74.011  73.828  1.00  0.00     0.000 C 
BRANCH  12  13
ATOM     13  C   UNL     1      78.105  73.388  73.546  1.00  0.00     0.006 C 
BRANCH  13  14
ATOM     14  C   UNL     1      78.679  72.674  74.777  1.00  0.00     0.053 C 
BRANCH  14  15
ATOM     15  C   UNL     1      80.018  73.219  75.161  1.00  0.00     0.041 C 
ATOM     16  O   UNL     1      80.205  73.679  76.318  1.00  0.00    -0.550 OA
ATOM     17  O   UNL     1      81.066  73.208  74.249  1.00  0.00    -0.550 OA
ENDBRANCH  14  15
ENDBRANCH  13  14
ENDBRANCH  12  13
ENDBRANCH  11  12
ENDBRANCH  10  11
ENDBRANCH   9  10
ENDBRANCH   8   9
ENDBRANCH   7   8
ENDBRANCH   6   7
ENDBRANCH   5   6
ENDBRANCH   4   5
ENDBRANCH   3   4
ENDBRANCH   2   3
ENDBRANCH   1   2
BRANCH   1  18
ATOM     18  C   UNL     1      73.168  75.762  79.607  1.00  0.00     0.000 C 
BRANCH  18  19
ATOM     19  C   UNL     1      72.599  74.361  79.332  1.00  0.00     0.000 C 
BRANCH  19  20
ATOM     20  C   UNL     1      73.343  73.254  80.098  1.00  0.00     0.000 C 
BRANCH  20  21
ATOM     21  C   UNL     1      74.184  72.306  79.222  1.00  0.00     0.000 C 
BRANCH  21  22
ATOM     22  C   UNL     1      74.146  72.642  77.713  1.00  0.00     0.000 C 
BRANCH  22  23
ATOM     23  C   UNL     1      75.529  72.772  77.041  1.00  0.00     0.000 C 
BRANCH  23  24
ATOM     24  C   UNL     1      76.734  72.882  78.001  1.00  0.00    -0.000 C 
BRANCH  24  25
ATOM     25  C   UNL     1      77.270  74.309  78.224  1.00  0.00    -0.000 C 
BRANCH  25  26
ATOM     26  C   UNL     1      76.848  74.897  79.583  1.00  0.00    -0.000 C 
BRANCH  26  27
ATOM     27  C   UNL     1      77.199  73.975  80.768  1.00  0.00    -0.000 C 
BRANCH  27  28
ATOM     28  C   UNL     1      76.223  74.091  81.954  1.00  0.00    -0.000 C 
BRANCH  28  29
ATOM     29  C   UNL     1      75.866  75.555  82.283  1.00  0.00    -0.000 C 
BRANCH  29  30
ATOM     30  C   UNL     1      74.461  75.693  82.896  1.00  0.00    -0.000 C 
BRANCH  30  31
ATOM     31  C   UNL     1      74.020  74.472  83.728  1.00  0.00    -0.003 C 
ATOM     32  C   UNL     1      74.140  74.709  85.235  1.00  0.00     0.004 C 
ENDBRANCH  30  31
ENDBRANCH  29  30
ENDBRANCH  28  29
ENDBRANCH  27  28
ENDBRANCH  26  27
ENDBRANCH  25  26
ENDBRANCH  24  25
ENDBRANCH  23  24
ENDBRANCH  22  23
ENDBRANCH  21  22
ENDBRANCH  20  21
ENDBRANCH  19  20
ENDBRANCH  18  19
ENDBRANCH   1  18
TORSDOF 28
ENDMDL
MODEL 4
REMARK VINA RESULT:    -2.044      8.986     12.942
REMARK INTER + INTRA:         -11.131
REMARK INTER:                  -4.640
REMARK INTRA:                  -6.490
REMARK UNBOUND:                -5.741
REMARK SMILES CCCCCCCCCCCCCCCCCCCCCCCCCCCCCC(=O)[O-]
REMARK SMILES IDX 16 1 17 2 18 3 19 4 20 5 21 6 22 7 23 8 24 9 25 10 26 11
REMARK SMILES IDX 27 12 28 13 29 14 30 15 31 16 32 17 15 18 14 19 13 20 12 21
REMARK SMILES IDX 11 22 10 23 9 24 8 25 7 26 6 27 5 28 4 29 3 30 2 31 1 32
REMARK H PARENT
REMARK Flexibility Score: inf
ROOT
ATOM      1  C   UNL     1      76.799  89.506  77.538  1.00  0.00     0.000 C 
ENDROOT
BRANCH   1   2
ATOM      2  C   UNL     1      78.213  90.092  77.396  1.00  0.00     0.000 C 
BRANCH   2   3
ATOM      3  C   UNL     1      79.026  89.426  76.267  1.00  0.00     0.000 C 
BRANCH   3   4
ATOM      4  C   UNL     1      78.363  88.162  75.680  1.00  0.00     0.000 C 
BRANCH   4   5
ATOM      5  C   UNL     1      78.243  88.131  74.149  1.00  0.00     0.000 C 
BRANCH   5   6
ATOM      6  C   UNL     1      78.371  89.495  73.440  1.00  0.00     0.000 C 
BRANCH   6   7
ATOM      7  C   UNL     1      77.042  90.044  72.875  1.00  0.00     0.000 C 
BRANCH   7   8
ATOM      8  C   UNL     1      76.149  90.674  73.962  1.00  0.00     0.000 C 
BRANCH   8   9
ATOM      9  C   UNL     1      74.896  89.839  74.270  1.00  0.00     0.000 C 
BRANCH   9  10
ATOM     10  C   UNL     1      74.556  88.839  73.153  1.00  0.00     0.000 C 
BRANCH  10  11
ATOM     11  C   UNL     1      74.574  87.379  73.638  1.00  0.00     0.000 C 
BRANCH  11  12
ATOM     12  C   UNL     1      74.886  87.235  75.144  1.00  0.00     0.000 C 
BRANCH  12  13
ATOM     13  C   UNL     1      75.052  85.766  75.569  1.00  0.00     0.006 C 
BRANCH  13  14
ATOM     14  C   UNL     1      76.195  85.072  74.815  1.00  0.00     0.053 C 
BRANCH  14  15
ATOM     15  C   UNL     1      75.734  83.818  74.140  1.00  0.00     0.041 C 
ATOM     16  O   UNL     1      74.530  83.464  74.221  1.00  0.00    -0.550 OA
ATOM     17  O   UNL     1      76.631  83.048  73.409  1.00  0.00    -0.550 OA
ENDBRANCH  14  15
ENDBRANCH  13  14
ENDBRANCH  12  13
ENDBRANCH  11  12
ENDBRANCH  10  11
ENDBRANCH   9  10
ENDBRANCH   8   9
ENDBRANCH   7   8
ENDBRANCH   6   7
ENDBRANCH   5   6
ENDBRANCH   4   5
ENDBRANCH   3   4
ENDBRANCH   2   3
ENDBRANCH   1   2
BRANCH   1  18
ATOM     18  C   UNL     1      75.752  90.619  77.661  1.00  0.00     0.000 C 
BRANCH  18  19
ATOM     19  C   UNL     1      75.835  91.308  79.032  1.00  0.00     0.000 C 
BRANCH  19  20
ATOM     20  C   UNL     1      75.014  90.585  80.114  1.00  0.00     0.000 C 
BRANCH  20  21
ATOM     21  C   UNL     1      75.844  89.800  81.147  1.00  0.00     0.000 C 
BRANCH  21  22
ATOM     22  C   UNL     1      75.397  88.330  81.329  1.00  0.00     0.000 C 
BRANCH  22  23
ATOM     23  C   UNL     1      74.348  87.839  80.309  1.00  0.00     0.000 C 
BRANCH  23  24
ATOM     24  C   UNL     1      74.873  86.885  79.214  1.00  0.00    -0.000 C 
BRANCH  24  25
ATOM     25  C   UNL     1      75.721  85.703  79.722  1.00  0.00    -0.000 C 
BRANCH  25  26
ATOM     26  C   UNL     1      76.832  85.302  78.734  1.00  0.00    -0.000 C 
BRANCH  26  27
ATOM     27  C   UNL     1      78.035  86.267  78.763  1.00  0.00    -0.000 C 
BRANCH  27  28
ATOM     28  C   UNL     1      78.541  86.582  80.182  1.00  0.00    -0.000 C 
BRANCH  28  29
ATOM     29  C   UNL     1      78.997  88.048  80.334  1.00  0.00    -0.000 C 
BRANCH  29  30
ATOM     30  C   UNL     1      80.527  88.178  80.442  1.00  0.00    -0.000 C 
BRANCH  30  31
ATOM     31  C   UNL     1      81.198  88.745  79.176  1.00  0.00    -0.003 C 
ATOM     32  C   UNL     1      82.316  87.844  78.645  1.00  0.00     0.004 C 
ENDBRANCH  30  31
ENDBRANCH  29  30
ENDBRANCH  28  29
ENDBRANCH  27  28
ENDBRANCH  26  27
ENDBRANCH  25  26
ENDBRANCH  24  25
ENDBRANCH  23  24
ENDBRANCH  22  23
ENDBRANCH  21  22
ENDBRANCH  20  21
ENDBRANCH  19  20
ENDBRANCH  18  19
ENDBRANCH   1  18
TORSDOF 28
ENDMDL
MODEL 5
REMARK VINA RESULT:    -2.033      8.169     13.300
REMARK INTER + INTRA:         -11.103
REMARK INTER:                  -5.403
REMARK INTRA:                  -5.701
REMARK UNBOUND:                -5.741
REMARK SMILES CCCCCCCCCCCCCCCCCCCCCCCCCCCCCC(=O)[O-]
REMARK SMILES IDX 16 1 17 2 18 3 19 4 20 5 21 6 22 7 23 8 24 9 25 10 26 11
REMARK SMILES IDX 27 12 28 13 29 14 30 15 31 16 32 17 15 18 14 19 13 20 12 21
REMARK SMILES IDX 11 22 10 23 9 24 8 25 7 26 6 27 5 28 4 29 3 30 2 31 1 32
REMARK H PARENT
REMARK Flexibility Score: inf
ROOT
ATOM      1  C   UNL     1      79.741  89.097  77.451  1.00  0.00     0.000 C 
ENDROOT
BRANCH   1   2
ATOM      2  C   UNL     1      79.425  90.469  78.067  1.00  0.00     0.000 C 
BRANCH   2   3
ATOM      3  C   UNL     1      77.944  90.870  77.905  1.00  0.00     0.000 C 
BRANCH   3   4
ATOM      4  C   UNL     1      77.310  90.401  76.579  1.00  0.00     0.000 C 
BRANCH   4   5
ATOM      5  C   UNL     1      75.777  90.487  76.514  1.00  0.00     0.000 C 
BRANCH   5   6
ATOM      6  C   UNL     1      75.202  91.293  75.332  1.00  0.00     0.000 C 
BRANCH   6   7
ATOM      7  C   UNL     1      76.157  91.419  74.124  1.00  0.00     0.000 C 
BRANCH   7   8
ATOM      8  C   UNL     1      75.769  90.487  72.959  1.00  0.00     0.000 C 
BRANCH   8   9
ATOM      9  C   UNL     1      74.364  89.882  73.114  1.00  0.00     0.000 C 
BRANCH   9  10
ATOM     10  C   UNL     1      74.361  88.348  73.016  1.00  0.00     0.000 C 
BRANCH  10  11
ATOM     11  C   UNL     1      74.926  87.672  74.277  1.00  0.00     0.000 C 
BRANCH  11  12
ATOM     12  C   UNL     1      74.464  86.209  74.451  1.00  0.00     0.000 C 
BRANCH  12  13
ATOM     13  C   UNL     1      75.289  85.230  73.596  1.00  0.00     0.006 C 
BRANCH  13  14
ATOM     14  C   UNL     1      74.559  83.898  73.377  1.00  0.00     0.053 C 
BRANCH  14  15
ATOM     15  C   UNL     1      74.843  82.921  74.474  1.00  0.00     0.041 C 
ATOM     16  O   UNL     1      74.142  81.883  74.593  1.00  0.00    -0.550 OA
ATOM     17  O   UNL     1      75.891  83.148  75.358  1.00  0.00    -0.550 OA
ENDBRANCH  14  15
ENDBRANCH  13  14
ENDBRANCH  12  13
ENDBRANCH  11  12
ENDBRANCH  10  11
ENDBRANCH   9  10
ENDBRANCH   8   9
ENDBRANCH   7   8
ENDBRANCH   6   7
ENDBRANCH   5   6
ENDBRANCH   4   5
ENDBRANCH   3   4
ENDBRANCH   2   3
ENDBRANCH   1   2
BRANCH   1  18
ATOM     18  C   UNL     1      81.000  89.163  76.579  1.00  0.00     0.000 C 
BRANCH  18  19
ATOM     19  C   UNL     1      80.822  88.352  75.286  1.00  0.00     0.000 C 
BRANCH  19  20
ATOM     20  C   UNL     1      79.582  88.776  74.481  1.00  0.00     0.000 C 
BRANCH  20  21
ATOM     21  C   UNL     1      78.647  87.624  74.068  1.00  0.00     0.000 C 
BRANCH  21  22
ATOM     22  C   UNL     1      78.820  86.339  74.911  1.00  0.00     0.000 C 
BRANCH  22  23
ATOM     23  C   UNL     1      77.806  86.176  76.064  1.00  0.00     0.000 C 
BRANCH  23  24
ATOM     24  C   UNL     1      78.405  85.794  77.435  1.00  0.00    -0.000 C 
BRANCH  24  25
ATOM     25  C   UNL     1      77.594  86.258  78.660  1.00  0.00    -0.000 C 
BRANCH  25  26
ATOM     26  C   UNL     1      76.412  87.169  78.280  1.00  0.00    -0.000 C 
BRANCH  26  27
ATOM     27  C   UNL     1      75.120  86.821  79.046  1.00  0.00    -0.000 C 
BRANCH  27  28
ATOM     28  C   UNL     1      74.851  87.738  80.253  1.00  0.00    -0.000 C 
BRANCH  28  29
ATOM     29  C   UNL     1      75.365  89.175  80.029  1.00  0.00    -0.000 C 
BRANCH  29  30
ATOM     30  C   UNL     1      76.077  89.743  81.270  1.00  0.00    -0.000 C 
BRANCH  30  31
ATOM     31  C   UNL     1      77.576  89.394  81.346  1.00  0.00    -0.003 C 
ATOM     32  C   UNL     1      78.413  90.512  81.973  1.00  0.00     0.004 C 
ENDBRANCH  30  31
ENDBRANCH  29  30
ENDBRANCH  28  29
ENDBRANCH  27  28
ENDBRANCH  26  27
ENDBRANCH  25  26
ENDBRANCH  24  25
ENDBRANCH  23  24
ENDBRANCH  22  23
ENDBRANCH  21  22
ENDBRANCH  20  21
ENDBRANCH  19  20
ENDBRANCH  18  19
ENDBRANCH   1  18
TORSDOF 28
ENDMDL
MODEL 6
REMARK VINA RESULT:    -2.025      3.112      5.536
REMARK INTER + INTRA:         -11.080
REMARK INTER:                  -5.406
REMARK INTRA:                  -5.674
REMARK UNBOUND:                -5.741
REMARK SMILES CCCCCCCCCCCCCCCCCCCCCCCCCCCCCC(=O)[O-]
REMARK SMILES IDX 16 1 17 2 18 3 19 4 20 5 21 6 22 7 23 8 24 9 25 10 26 11
REMARK SMILES IDX 27 12 28 13 29 14 30 15 31 16 32 17 15 18 14 19 13 20 12 21
REMARK SMILES IDX 11 22 10 23 9 24 8 25 7 26 6 27 5 28 4 29 3 30 2 31 1 32
REMARK H PARENT
REMARK Flexibility Score: inf
ROOT
ATOM      1  C   UNL     1      77.337  77.311  80.172  1.00  0.00     0.000 C 
ENDROOT
BRANCH   1   2
ATOM      2  C   UNL     1      76.987  76.600  78.855  1.00  0.00     0.000 C 
BRANCH   2   3
ATOM      3  C   UNL     1      75.746  77.202  78.163  1.00  0.00     0.000 C 
BRANCH   3   4
ATOM      4  C   UNL     1      74.644  76.169  77.846  1.00  0.00     0.000 C 
BRANCH   4   5
ATOM      5  C   UNL     1      73.308  76.757  77.368  1.00  0.00     0.000 C 
BRANCH   5   6
ATOM      6  C   UNL     1      73.199  78.294  77.413  1.00  0.00     0.000 C 
BRANCH   6   7
ATOM      7  C   UNL     1      73.191  78.973  76.025  1.00  0.00     0.000 C 
BRANCH   7   8
ATOM      8  C   UNL     1      72.205  78.309  75.044  1.00  0.00     0.000 C 
BRANCH   8   9
ATOM      9  C   UNL     1      72.876  77.828  73.748  1.00  0.00     0.000 C 
BRANCH   9  10
ATOM     10  C   UNL     1      74.334  78.299  73.620  1.00  0.00     0.000 C 
BRANCH  10  11
ATOM     11  C   UNL     1      75.308  77.141  73.339  1.00  0.00     0.000 C 
BRANCH  11  12
ATOM     12  C   UNL     1      76.191  76.772  74.551  1.00  0.00     0.000 C 
BRANCH  12  13
ATOM     13  C   UNL     1      77.063  75.532  74.283  1.00  0.00     0.006 C 
BRANCH  13  14
ATOM     14  C   UNL     1      76.782  74.401  75.280  1.00  0.00     0.053 C 
BRANCH  14  15
ATOM     15  C   UNL     1      77.002  73.053  74.669  1.00  0.00     0.041 C 
ATOM     16  O   UNL     1      78.071  72.428  74.888  1.00  0.00    -0.550 OA
ATOM     17  O   UNL     1      76.021  72.480  73.868  1.00  0.00    -0.550 OA
ENDBRANCH  14  15
ENDBRANCH  13  14
ENDBRANCH  12  13
ENDBRANCH  11  12
ENDBRANCH  10  11
ENDBRANCH   9  10
ENDBRANCH   8   9
ENDBRANCH   7   8
ENDBRANCH   6   7
ENDBRANCH   5   6
ENDBRANCH   4   5
ENDBRANCH   3   4
ENDBRANCH   2   3
ENDBRANCH   1   2
BRANCH   1  18
ATOM     18  C   UNL     1      76.119  78.049  80.739  1.00  0.00     0.000 C 
BRANCH  18  19
ATOM     19  C   UNL     1      75.746  77.515  82.130  1.00  0.00     0.000 C 
BRANCH  19  20
ATOM     20  C   UNL     1      74.350  76.870  82.167  1.00  0.00     0.000 C 
BRANCH  20  21
ATOM     21  C   UNL     1      73.378  77.357  81.076  1.00  0.00     0.000 C 
BRANCH  21  22
ATOM     22  C   UNL     1      72.162  76.427  80.855  1.00  0.00     0.000 C 
BRANCH  22  23
ATOM     23  C   UNL     1      71.970  75.340  81.934  1.00  0.00     0.000 C 
BRANCH  23  24
ATOM     24  C   UNL     1      72.225  73.887  81.476  1.00  0.00    -0.000 C 
BRANCH  24  25
ATOM     25  C   UNL     1      73.042  73.741  80.179  1.00  0.00    -0.000 C 
BRANCH  25  26
ATOM     26  C   UNL     1      73.727  72.367  80.060  1.00  0.00    -0.000 C 
BRANCH  26  27
ATOM     27  C   UNL     1      75.264  72.454  80.165  1.00  0.00    -0.000 C 
BRANCH  27  28
ATOM     28  C   UNL     1      75.773  73.814  80.674  1.00  0.00    -0.000 C 
BRANCH  28  29
ATOM     29  C   UNL     1      76.201  73.768  82.155  1.00  0.00    -0.000 C 
BRANCH  29  30
ATOM     30  C   UNL     1      77.656  74.229  82.360  1.00  0.00    -0.000 C 
BRANCH  30  31
ATOM     31  C   UNL     1      78.631  73.721  81.280  1.00  0.00    -0.003 C 
ATOM     32  C   UNL     1      79.146  72.308  81.565  1.00  0.00     0.004 C 
ENDBRANCH  30  31
ENDBRANCH  29  30
ENDBRANCH  28  29
ENDBRANCH  27  28
ENDBRANCH  26  27
ENDBRANCH  25  26
ENDBRANCH  24  25
ENDBRANCH  23  24
ENDBRANCH  22  23
ENDBRANCH  21  22
ENDBRANCH  20  21
ENDBRANCH  19  20
ENDBRANCH  18  19
ENDBRANCH   1  18
TORSDOF 28
ENDMDL
MODEL 7
REMARK VINA RESULT:    -2.017      2.986      5.577
REMARK INTER + INTRA:         -11.061
REMARK INTER:                  -5.469
REMARK INTRA:                  -5.592
REMARK UNBOUND:                -5.741
REMARK SMILES CCCCCCCCCCCCCCCCCCCCCCCCCCCCCC(=O)[O-]
REMARK SMILES IDX 16 1 17 2 18 3 19 4 20 5 21 6 22 7 23 8 24 9 25 10 26 11
REMARK SMILES IDX 27 12 28 13 29 14 30 15 31 16 32 17 15 18 14 19 13 20 12 21
REMARK SMILES IDX 11 22 10 23 9 24 8 25 7 26 6 27 5 28 4 29 3 30 2 31 1 32
REMARK H PARENT
REMARK Flexibility Score: inf
ROOT
ATOM      1  C   UNL     1      73.225  77.873  77.717  1.00  0.00     0.000 C 
ENDROOT
BRANCH   1   2
ATOM      2  C   UNL     1      72.518  79.052  78.404  1.00  0.00     0.000 C 
BRANCH   2   3
ATOM      3  C   UNL     1      72.391  80.288  77.491  1.00  0.00     0.000 C 
BRANCH   3   4
ATOM      4  C   UNL     1      73.746  80.874  77.040  1.00  0.00     0.000 C 
BRANCH   4   5
ATOM      5  C   UNL     1      74.021  80.809  75.529  1.00  0.00     0.000 C 
BRANCH   5   6
ATOM      6  C   UNL     1      72.950  80.090  74.685  1.00  0.00     0.000 C 
BRANCH   6   7
ATOM      7  C   UNL     1      73.510  79.327  73.463  1.00  0.00     0.000 C 
BRANCH   7   8
ATOM      8  C   UNL     1      73.737  77.830  73.750  1.00  0.00     0.000 C 
BRANCH   8   9
ATOM      9  C   UNL     1      75.225  77.448  73.812  1.00  0.00     0.000 C 
BRANCH   9  10
ATOM     10  C   UNL     1      75.828  77.625  75.215  1.00  0.00     0.000 C 
BRANCH  10  11
ATOM     11  C   UNL     1      76.035  76.287  75.945  1.00  0.00     0.000 C 
BRANCH  11  12
ATOM     12  C   UNL     1      77.379  75.605  75.611  1.00  0.00     0.000 C 
BRANCH  12  13
ATOM     13  C   UNL     1      77.853  74.664  76.733  1.00  0.00     0.006 C 
BRANCH  13  14
ATOM     14  C   UNL     1      76.892  73.486  76.944  1.00  0.00     0.053 C 
BRANCH  14  15
ATOM     15  C   UNL     1      76.822  72.604  75.737  1.00  0.00     0.041 C 
ATOM     16  O   UNL     1      77.879  72.226  75.169  1.00  0.00    -0.550 OA
ATOM     17  O   UNL     1      75.590  72.187  75.248  1.00  0.00    -0.550 OA
ENDBRANCH  14  15
ENDBRANCH  13  14
ENDBRANCH  12  13
ENDBRANCH  11  12
ENDBRANCH  10  11
ENDBRANCH   9  10
ENDBRANCH   8   9
ENDBRANCH   7   8
ENDBRANCH   6   7
ENDBRANCH   5   6
ENDBRANCH   4   5
ENDBRANCH   3   4
ENDBRANCH   2   3
ENDBRANCH   1   2
BRANCH   1  18
ATOM     18  C   UNL     1      72.230  76.759  77.376  1.00  0.00     0.000 C 
BRANCH  18  19
ATOM     19  C   UNL     1      72.276  75.634  78.422  1.00  0.00     0.000 C 
BRANCH  19  20
ATOM     20  C   UNL     1      73.573  74.810  78.355  1.00  0.00     0.000 C 
BRANCH  20  21
ATOM     21  C   UNL     1      73.376  73.302  78.106  1.00  0.00     0.000 C 
BRANCH  21  22
ATOM     22  C   UNL     1      73.928  72.400  79.234  1.00  0.00     0.000 C 
BRANCH  22  23
ATOM     23  C   UNL     1      73.445  72.765  80.654  1.00  0.00     0.000 C 
BRANCH  23  24
ATOM     24  C   UNL     1      74.557  73.016  81.696  1.00  0.00    -0.000 C 
BRANCH  24  25
ATOM     25  C   UNL     1      74.119  73.792  82.953  1.00  0.00    -0.000 C 
BRANCH  25  26
ATOM     26  C   UNL     1      73.057  74.864  82.648  1.00  0.00    -0.000 C 
BRANCH  26  27
ATOM     27  C   UNL     1      73.580  76.300  82.856  1.00  0.00    -0.000 C 
BRANCH  27  28
ATOM     28  C   UNL     1      73.392  77.212  81.630  1.00  0.00    -0.000 C 
BRANCH  28  29
ATOM     29  C   UNL     1      74.733  77.622  80.988  1.00  0.00    -0.000 C 
BRANCH  29  30
ATOM     30  C   UNL     1      75.637  76.412  80.694  1.00  0.00    -0.000 C 
BRANCH  30  31
ATOM     31  C   UNL     1      76.780  76.710  79.704  1.00  0.00    -0.003 C 
ATOM     32  C   UNL     1      76.660  78.094  79.062  1.00  0.00     0.004 C 
ENDBRANCH  30  31
ENDBRANCH  29  30
ENDBRANCH  28  29
ENDBRANCH  27  28
ENDBRANCH  26  27
ENDBRANCH  25  26
ENDBRANCH  24  25
ENDBRANCH  23  24
ENDBRANCH  22  23
ENDBRANCH  21  22
ENDBRANCH  20  21
ENDBRANCH  19  20
ENDBRANCH  18  19
ENDBRANCH   1  18
TORSDOF 28
ENDMDL
MODEL 8
REMARK VINA RESULT:    -2.010      8.765     12.958
REMARK INTER + INTRA:         -11.041
REMARK INTER:                  -4.868
REMARK INTRA:                  -6.174
REMARK UNBOUND:                -5.741
REMARK SMILES CCCCCCCCCCCCCCCCCCCCCCCCCCCCCC(=O)[O-]
REMARK SMILES IDX 16 1 17 2 18 3 19 4 20 5 21 6 22 7 23 8 24 9 25 10 26 11
REMARK SMILES IDX 27 12 28 13 29 14 30 15 31 16 32 17 15 18 14 19 13 20 12 21
REMARK SMILES IDX 11 22 10 23 9 24 8 25 7 26 6 27 5 28 4 29 3 30 2 31 1 32
REMARK H PARENT
REMARK Flexibility Score: inf
ROOT
ATOM      1  C   UNL     1      76.998  89.274  77.468  1.00  0.00     0.000 C 
ENDROOT
BRANCH   1   2
ATOM      2  C   UNL     1      78.413  89.811  77.195  1.00  0.00     0.000 C 
BRANCH   2   3
ATOM      3  C   UNL     1      79.192  88.952  76.178  1.00  0.00     0.000 C 
BRANCH   3   4
ATOM      4  C   UNL     1      78.312  87.955  75.397  1.00  0.00     0.000 C 
BRANCH   4   5
ATOM      5  C   UNL     1      78.334  88.113  73.868  1.00  0.00     0.000 C 
BRANCH   5   6
ATOM      6  C   UNL     1      78.396  89.563  73.348  1.00  0.00     0.000 C 
BRANCH   6   7
ATOM      7  C   UNL     1      77.038  90.128  72.875  1.00  0.00     0.000 C 
BRANCH   7   8
ATOM      8  C   UNL     1      76.172  90.648  74.040  1.00  0.00     0.000 C 
BRANCH   8   9
ATOM      9  C   UNL     1      74.877  89.843  74.235  1.00  0.00     0.000 C 
BRANCH   9  10
ATOM     10  C   UNL     1      74.629  88.830  73.106  1.00  0.00     0.000 C 
BRANCH  10  11
ATOM     11  C   UNL     1      74.549  87.381  73.618  1.00  0.00     0.000 C 
BRANCH  11  12
ATOM     12  C   UNL     1      74.870  87.241  75.122  1.00  0.00     0.000 C 
BRANCH  12  13
ATOM     13  C   UNL     1      75.245  85.800  75.509  1.00  0.00     0.006 C 
BRANCH  13  14
ATOM     14  C   UNL     1      75.987  85.073  74.380  1.00  0.00     0.053 C 
BRANCH  14  15
ATOM     15  C   UNL     1      75.601  83.630  74.300  1.00  0.00     0.041 C 
ATOM     16  O   UNL     1      74.637  83.195  74.981  1.00  0.00    -0.550 OA
ATOM     17  O   UNL     1      76.295  82.766  73.461  1.00  0.00    -0.550 OA
ENDBRANCH  14  15
ENDBRANCH  13  14
ENDBRANCH  12  13
ENDBRANCH  11  12
ENDBRANCH  10  11
ENDBRANCH   9  10
ENDBRANCH   8   9
ENDBRANCH   7   8
ENDBRANCH   6   7
ENDBRANCH   5   6
ENDBRANCH   4   5
ENDBRANCH   3   4
ENDBRANCH   2   3
ENDBRANCH   1   2
BRANCH   1  18
ATOM     18  C   UNL     1      76.027  90.419  77.777  1.00  0.00     0.000 C 
BRANCH  18  19
ATOM     19  C   UNL     1      76.697  91.496  78.644  1.00  0.00     0.000 C 
BRANCH  19  20
ATOM     20  C   UNL     1      76.290  91.409  80.124  1.00  0.00     0.000 C 
BRANCH  20  21
ATOM     21  C   UNL     1      76.982  90.290  80.927  1.00  0.00     0.000 C 
BRANCH  21  22
ATOM     22  C   UNL     1      76.004  89.300  81.601  1.00  0.00     0.000 C 
BRANCH  22  23
ATOM     23  C   UNL     1      74.513  89.681  81.488  1.00  0.00     0.000 C 
BRANCH  23  24
ATOM     24  C   UNL     1      73.658  88.778  80.572  1.00  0.00    -0.000 C 
BRANCH  24  25
ATOM     25  C   UNL     1      73.593  87.295  80.985  1.00  0.00    -0.000 C 
BRANCH  25  26
ATOM     26  C   UNL     1      73.838  86.338  79.804  1.00  0.00    -0.000 C 
BRANCH  26  27
ATOM     27  C   UNL     1      75.188  86.589  79.102  1.00  0.00    -0.000 C 
BRANCH  27  28
ATOM     28  C   UNL     1      76.398  86.017  79.864  1.00  0.00    -0.000 C 
BRANCH  28  29
ATOM     29  C   UNL     1      77.723  86.211  79.099  1.00  0.00    -0.000 C 
BRANCH  29  30
ATOM     30  C   UNL     1      78.368  84.873  78.696  1.00  0.00    -0.000 C 
BRANCH  30  31
ATOM     31  C   UNL     1      78.428  84.641  77.173  1.00  0.00    -0.003 C 
ATOM     32  C   UNL     1      79.799  84.974  76.578  1.00  0.00     0.004 C 
ENDBRANCH  30  31
ENDBRANCH  29  30
ENDBRANCH  28  29
ENDBRANCH  27  28
ENDBRANCH  26  27
ENDBRANCH  25  26
ENDBRANCH  24  25
ENDBRANCH  23  24
ENDBRANCH  22  23
ENDBRANCH  21  22
ENDBRANCH  20  21
ENDBRANCH  19  20
ENDBRANCH  18  19
ENDBRANCH   1  18
TORSDOF 28
ENDMDL
MODEL 9
REMARK VINA RESULT:    -2.005      3.560      6.384
REMARK INTER + INTRA:         -11.029
REMARK INTER:                  -4.762
REMARK INTRA:                  -6.267
REMARK UNBOUND:                -5.741
REMARK SMILES CCCCCCCCCCCCCCCCCCCCCCCCCCCCCC(=O)[O-]
REMARK SMILES IDX 16 1 17 2 18 3 19 4 20 5 21 6 22 7 23 8 24 9 25 10 26 11
REMARK SMILES IDX 27 12 28 13 29 14 30 15 31 16 32 17 15 18 14 19 13 20 12 21
REMARK SMILES IDX 11 22 10 23 9 24 8 25 7 26 6 27 5 28 4 29 3 30 2 31 1 32
REMARK H PARENT
REMARK Flexibility Score: inf
ROOT
ATOM      1  C   UNL     1      77.056  76.758  76.467  1.00  0.00     0.000 C 
ENDROOT
BRANCH   1   2
ATOM      2  C   UNL     1      76.360  75.784  75.503  1.00  0.00     0.000 C 
BRANCH   2   3
ATOM      3  C   UNL     1      76.686  76.073  74.023  1.00  0.00     0.000 C 
BRANCH   3   4
ATOM      4  C   UNL     1      77.097  74.823  73.218  1.00  0.00     0.000 C 
BRANCH   4   5
ATOM      5  C   UNL     1      76.670  73.477  73.826  1.00  0.00     0.000 C 
BRANCH   5   6
ATOM      6  C   UNL     1      77.723  72.352  73.764  1.00  0.00     0.000 C 
BRANCH   6   7
ATOM      7  C   UNL     1      79.027  72.659  74.534  1.00  0.00     0.000 C 
BRANCH   7   8
ATOM      8  C   UNL     1      80.204  73.001  73.599  1.00  0.00     0.000 C 
BRANCH   8   9
ATOM      9  C   UNL     1      81.488  73.372  74.357  1.00  0.00     0.000 C 
BRANCH   9  10
ATOM     10  C   UNL     1      82.037  74.753  73.963  1.00  0.00     0.000 C 
BRANCH  10  11
ATOM     11  C   UNL     1      80.972  75.860  74.047  1.00  0.00     0.000 C 
BRANCH  11  12
ATOM     12  C   UNL     1      80.456  76.109  75.481  1.00  0.00     0.000 C 
BRANCH  12  13
ATOM     13  C   UNL     1      81.602  76.290  76.492  1.00  0.00     0.006 C 
BRANCH  13  14
ATOM     14  C   UNL     1      81.552  75.246  77.615  1.00  0.00     0.053 C 
BRANCH  14  15
ATOM     15  C   UNL     1      81.549  75.884  78.968  1.00  0.00     0.041 C 
ATOM     16  O   UNL     1      80.464  76.059  79.581  1.00  0.00    -0.550 OA
ATOM     17  O   UNL     1      82.744  76.273  79.560  1.00  0.00    -0.550 OA
ENDBRANCH  14  15
ENDBRANCH  13  14
ENDBRANCH  12  13
ENDBRANCH  11  12
ENDBRANCH  10  11
ENDBRANCH   9  10
ENDBRANCH   8   9
ENDBRANCH   7   8
ENDBRANCH   6   7
ENDBRANCH   5   6
ENDBRANCH   4   5
ENDBRANCH   3   4
ENDBRANCH   2   3
ENDBRANCH   1   2
BRANCH   1  18
ATOM     18  C   UNL     1      77.589  76.021  77.701  1.00  0.00     0.000 C 
BRANCH  18  19
ATOM     19  C   UNL     1      77.718  74.514  77.434  1.00  0.00     0.000 C 
BRANCH  19  20
ATOM     20  C   UNL     1      77.771  73.681  78.726  1.00  0.00     0.000 C 
BRANCH  20  21
ATOM     21  C   UNL     1      77.091  72.301  78.641  1.00  0.00     0.000 C 
BRANCH  21  22
ATOM     22  C   UNL     1      76.588  71.933  77.226  1.00  0.00     0.000 C 
BRANCH  22  23
ATOM     23  C   UNL     1      75.055  71.979  77.049  1.00  0.00     0.000 C 
BRANCH  23  24
ATOM     24  C   UNL     1      74.237  72.200  78.340  1.00  0.00    -0.000 C 
BRANCH  24  25
ATOM     25  C   UNL     1      73.301  73.424  78.326  1.00  0.00    -0.000 C 
BRANCH  25  26
ATOM     26  C   UNL     1      74.068  74.757  78.244  1.00  0.00    -0.000 C 
BRANCH  26  27
ATOM     27  C   UNL     1      73.671  75.744  79.361  1.00  0.00    -0.000 C 
BRANCH  27  28
ATOM     28  C   UNL     1      74.814  76.679  79.796  1.00  0.00    -0.000 C 
BRANCH  28  29
ATOM     29  C   UNL     1      75.676  76.074  80.923  1.00  0.00    -0.000 C 
BRANCH  29  30
ATOM     30  C   UNL     1      74.900  75.045  81.765  1.00  0.00    -0.000 C 
BRANCH  30  31
ATOM     31  C   UNL     1      75.530  73.639  81.771  1.00  0.00    -0.003 C 
ATOM     32  C   UNL     1      76.985  73.644  82.249  1.00  0.00     0.004 C 
ENDBRANCH  30  31
ENDBRANCH  29  30
ENDBRANCH  28  29
ENDBRANCH  27  28
ENDBRANCH  26  27
ENDBRANCH  25  26
ENDBRANCH  24  25
ENDBRANCH  23  24
ENDBRANCH  22  23
ENDBRANCH  21  22
ENDBRANCH  20  21
ENDBRANCH  19  20
ENDBRANCH  18  19
ENDBRANCH   1  18
TORSDOF 28
ENDMDL
