MODEL 1
REMARK VINA RESULT:    -6.552      0.000      0.000
REMARK INTER + INTRA:          -8.810
REMARK INTER:                  -8.276
REMARK INTRA:                  -0.534
REMARK UNBOUND:                -0.534
REMARK SMILES Oc1ccc(CCc2cc(O)cc(O)c2)cc1
REMARK SMILES IDX 6 1 5 2 4 3 3 4 2 5 16 6 17 7 1 8 7 10 8 11 15 12 9 13 13 14
REMARK SMILES IDX 10 15 12 16 14 17 11 19
REMARK H PARENT 1 9 14 18 11 20
REMARK Flexibility Score: inf
ROOT
ATOM      1  C   UNL     1      52.477  18.608  59.838  1.00  0.00     0.040 C 
ENDROOT
BRANCH   1   2
ATOM      2  C   UNL     1      53.009  19.955  59.428  1.00  0.00    -0.047 A 
ATOM      3  C   UNL     1      52.692  21.100  60.175  1.00  0.00     0.007 A 
ATOM      4  C   UNL     1      53.161  22.355  59.775  1.00  0.00     0.046 A 
ATOM      5  C   UNL     1      53.939  22.480  58.619  1.00  0.00     0.115 A 
ATOM      6  C   UNL     1      53.780  20.085  58.261  1.00  0.00     0.007 A 
ATOM      7  C   UNL     1      54.246  21.342  57.861  1.00  0.00     0.046 A 
BRANCH   5   8
ATOM      8  O   UNL     1      54.399  23.737  58.232  1.00  0.00    -0.508 OA
ATOM      9  H   UNL     1      53.954  24.587  58.559  1.00  0.00     0.293 HD
ENDBRANCH   5   8
ENDBRANCH   1   2
BRANCH   1  10
ATOM     10  C   UNL     1      52.440  18.485  61.364  1.00  0.00     0.040 C 
BRANCH  10  11
ATOM     11  C   UNL     1      51.023  18.342  61.849  1.00  0.00    -0.040 A 
ATOM     12  C   UNL     1      50.168  17.392  61.267  1.00  0.00     0.050 A 
ATOM     13  C   UNL     1      50.560  19.119  62.925  1.00  0.00     0.050 A 
ATOM     14  C   UNL     1      48.860  17.234  61.738  1.00  0.00     0.119 A 
ATOM     15  C   UNL     1      49.250  18.962  63.398  1.00  0.00     0.119 A 
ATOM     16  C   UNL     1      48.403  18.023  62.802  1.00  0.00     0.092 A 
BRANCH  14  17
ATOM     17  O   UNL     1      48.025  16.291  61.144  1.00  0.00    -0.508 OA
ATOM     18  H   UNL     1      47.479  15.643  61.699  1.00  0.00     0.293 HD
ENDBRANCH  14  17
BRANCH  15  19
ATOM     19  O   UNL     1      48.783  19.734  64.460  1.00  0.00    -0.508 OA
ATOM     20  H   UNL     1      49.327  20.501  64.836  1.00  0.00     0.293 HD
ENDBRANCH  15  19
ENDBRANCH  10  11
ENDBRANCH   1  10
TORSDOF 6
ENDMDL
MODEL 2
REMARK VINA RESULT:    -6.538      0.052      2.351
REMARK INTER + INTRA:          -8.792
REMARK INTER:                  -8.246
REMARK INTRA:                  -0.546
REMARK UNBOUND:                -0.534
REMARK SMILES Oc1ccc(CCc2cc(O)cc(O)c2)cc1
REMARK SMILES IDX 6 1 5 2 4 3 3 4 2 5 16 6 17 7 1 8 7 10 8 11 15 12 9 13 13 14
REMARK SMILES IDX 10 15 12 16 14 17 11 19
REMARK H PARENT 1 9 14 18 11 20
REMARK Flexibility Score: inf
ROOT
ATOM      1  C   UNL     1      52.444  18.613  59.827  1.00  0.00     0.040 C 
ENDROOT
BRANCH   1   2
ATOM      2  C   UNL     1      52.948  19.967  59.403  1.00  0.00    -0.047 A 
ATOM      3  C   UNL     1      53.758  20.096  58.264  1.00  0.00     0.007 A 
ATOM      4  C   UNL     1      54.251  21.350  57.890  1.00  0.00     0.046 A 
ATOM      5  C   UNL     1      53.952  22.482  58.655  1.00  0.00     0.115 A 
ATOM      6  C   UNL     1      52.659  21.103  60.177  1.00  0.00     0.007 A 
ATOM      7  C   UNL     1      53.155  22.355  59.801  1.00  0.00     0.046 A 
BRANCH   5   8
ATOM      8  O   UNL     1      54.451  23.724  58.270  1.00  0.00    -0.508 OA
ATOM      9  H   UNL     1      54.941  24.324  58.924  1.00  0.00     0.293 HD
ENDBRANCH   5   8
ENDBRANCH   1   2
BRANCH   1  10
ATOM     10  C   UNL     1      52.427  18.498  61.354  1.00  0.00     0.040 C 
BRANCH  10  11
ATOM     11  C   UNL     1      51.019  18.319  61.855  1.00  0.00    -0.040 A 
ATOM     12  C   UNL     1      50.529  19.127  62.893  1.00  0.00     0.050 A 
ATOM     13  C   UNL     1      50.167  17.380  61.250  1.00  0.00     0.050 A 
ATOM     14  C   UNL     1      49.210  18.983  63.339  1.00  0.00     0.119 A 
ATOM     15  C   UNL     1      48.845  17.236  61.694  1.00  0.00     0.119 A 
ATOM     16  C   UNL     1      48.371  18.035  62.739  1.00  0.00     0.092 A 
BRANCH  14  17
ATOM     17  O   UNL     1      48.744  19.789  64.375  1.00  0.00    -0.508 OA
ATOM     18  H   UNL     1      47.860  20.280  64.307  1.00  0.00     0.293 HD
ENDBRANCH  14  17
BRANCH  15  19
ATOM     19  O   UNL     1      47.997  16.302  61.103  1.00  0.00    -0.508 OA
ATOM     20  H   UNL     1      47.643  15.507  61.619  1.00  0.00     0.293 HD
ENDBRANCH  15  19
ENDBRANCH  10  11
ENDBRANCH   1  10
TORSDOF 6
ENDMDL
MODEL 3
REMARK VINA RESULT:    -6.470      1.857      6.380
REMARK INTER + INTRA:          -8.706
REMARK INTER:                  -8.099
REMARK INTRA:                  -0.606
REMARK UNBOUND:                -0.534
REMARK SMILES Oc1ccc(CCc2cc(O)cc(O)c2)cc1
REMARK SMILES IDX 6 1 5 2 4 3 3 4 2 5 16 6 17 7 1 8 7 10 8 11 15 12 9 13 13 14
REMARK SMILES IDX 10 15 12 16 14 17 11 19
REMARK H PARENT 1 9 14 18 11 20
REMARK Flexibility Score: inf
ROOT
ATOM      1  C   UNL     1      51.930  18.558  60.296  1.00  0.00     0.040 C 
ENDROOT
BRANCH   1   2
ATOM      2  C   UNL     1      51.252  18.955  61.581  1.00  0.00    -0.047 A 
ATOM      3  C   UNL     1      50.326  18.092  62.189  1.00  0.00     0.007 A 
ATOM      4  C   UNL     1      49.673  18.475  63.365  1.00  0.00     0.046 A 
ATOM      5  C   UNL     1      49.930  19.725  63.937  1.00  0.00     0.115 A 
ATOM      6  C   UNL     1      51.498  20.214  62.152  1.00  0.00     0.007 A 
ATOM      7  C   UNL     1      50.843  20.595  63.327  1.00  0.00     0.046 A 
BRANCH   5   8
ATOM      8  O   UNL     1      49.271  20.093  65.109  1.00  0.00    -0.508 OA
ATOM      9  H   UNL     1      49.452  19.622  65.988  1.00  0.00     0.293 HD
ENDBRANCH   5   8
ENDBRANCH   1   2
BRANCH   1  10
ATOM     10  C   UNL     1      51.137  19.069  59.090  1.00  0.00     0.040 C 
BRANCH  10  11
ATOM     11  C   UNL     1      51.805  20.278  58.493  1.00  0.00    -0.040 A 
ATOM     12  C   UNL     1      51.035  21.302  57.919  1.00  0.00     0.050 A 
ATOM     13  C   UNL     1      53.202  20.418  58.555  1.00  0.00     0.050 A 
ATOM     14  C   UNL     1      51.652  22.442  57.392  1.00  0.00     0.119 A 
ATOM     15  C   UNL     1      53.822  21.560  58.029  1.00  0.00     0.119 A 
ATOM     16  C   UNL     1      53.047  22.567  57.446  1.00  0.00     0.092 A 
BRANCH  14  17
ATOM     17  O   UNL     1      50.872  23.444  56.820  1.00  0.00    -0.508 OA
ATOM     18  H   UNL     1      50.056  23.226  56.261  1.00  0.00     0.293 HD
ENDBRANCH  14  17
BRANCH  15  19
ATOM     19  O   UNL     1      55.207  21.702  58.081  1.00  0.00    -0.508 OA
ATOM     20  H   UNL     1      55.815  21.208  57.438  1.00  0.00     0.293 HD
ENDBRANCH  15  19
ENDBRANCH  10  11
ENDBRANCH   1  10
TORSDOF 6
ENDMDL
MODEL 4
REMARK VINA RESULT:    -6.459      1.831      6.414
REMARK INTER + INTRA:          -8.692
REMARK INTER:                  -8.094
REMARK INTRA:                  -0.598
REMARK UNBOUND:                -0.534
REMARK SMILES Oc1ccc(CCc2cc(O)cc(O)c2)cc1
REMARK SMILES IDX 6 1 5 2 4 3 3 4 2 5 16 6 17 7 1 8 7 10 8 11 15 12 9 13 13 14
REMARK SMILES IDX 10 15 12 16 14 17 11 19
REMARK H PARENT 1 9 14 18 11 20
REMARK Flexibility Score: inf
ROOT
ATOM      1  C   UNL     1      51.943  18.559  60.298  1.00  0.00     0.040 C 
ENDROOT
BRANCH   1   2
ATOM      2  C   UNL     1      51.247  18.950  61.575  1.00  0.00    -0.047 A 
ATOM      3  C   UNL     1      50.296  18.094  62.154  1.00  0.00     0.007 A 
ATOM      4  C   UNL     1      49.627  18.472  63.322  1.00  0.00     0.046 A 
ATOM      5  C   UNL     1      49.892  19.710  63.916  1.00  0.00     0.115 A 
ATOM      6  C   UNL     1      51.501  20.198  62.167  1.00  0.00     0.007 A 
ATOM      7  C   UNL     1      50.830  20.574  63.334  1.00  0.00     0.046 A 
BRANCH   5   8
ATOM      8  O   UNL     1      49.217  20.074  65.079  1.00  0.00    -0.508 OA
ATOM      9  H   UNL     1      48.317  19.674  65.316  1.00  0.00     0.293 HD
ENDBRANCH   5   8
ENDBRANCH   1   2
BRANCH   1  10
ATOM     10  C   UNL     1      51.177  19.091  59.084  1.00  0.00     0.040 C 
BRANCH  10  11
ATOM     11  C   UNL     1      51.835  20.334  58.547  1.00  0.00    -0.040 A 
ATOM     12  C   UNL     1      53.231  20.476  58.601  1.00  0.00     0.050 A 
ATOM     13  C   UNL     1      51.063  21.336  57.937  1.00  0.00     0.050 A 
ATOM     14  C   UNL     1      53.847  21.616  58.074  1.00  0.00     0.119 A 
ATOM     15  C   UNL     1      51.678  22.479  57.407  1.00  0.00     0.119 A 
ATOM     16  C   UNL     1      53.067  22.618  57.480  1.00  0.00     0.092 A 
BRANCH  14  17
ATOM     17  O   UNL     1      55.232  21.743  58.143  1.00  0.00    -0.508 OA
ATOM     18  H   UNL     1      55.747  22.303  57.475  1.00  0.00     0.293 HD
ENDBRANCH  14  17
BRANCH  15  19
ATOM     19  O   UNL     1      50.917  23.480  56.808  1.00  0.00    -0.508 OA
ATOM     20  H   UNL     1      50.815  24.394  57.232  1.00  0.00     0.293 HD
ENDBRANCH  15  19
ENDBRANCH  10  11
ENDBRANCH   1  10
TORSDOF 6
ENDMDL
MODEL 5
REMARK VINA RESULT:    -6.437      3.044      7.078
REMARK INTER + INTRA:          -8.664
REMARK INTER:                  -8.063
REMARK INTRA:                  -0.601
REMARK UNBOUND:                -0.534
REMARK SMILES Oc1ccc(CCc2cc(O)cc(O)c2)cc1
REMARK SMILES IDX 6 1 5 2 4 3 3 4 2 5 16 6 17 7 1 8 7 10 8 11 15 12 9 13 13 14
REMARK SMILES IDX 10 15 12 16 14 17 11 19
REMARK H PARENT 1 9 14 18 11 20
REMARK Flexibility Score: inf
ROOT
ATOM      1  C   UNL     1      52.640  20.286  59.578  1.00  0.00     0.040 C 
ENDROOT
BRANCH   1   2
ATOM      2  C   UNL     1      52.719  18.904  60.172  1.00  0.00    -0.047 A 
ATOM      3  C   UNL     1      53.909  18.165  60.090  1.00  0.00     0.007 A 
ATOM      4  C   UNL     1      53.971  16.870  60.613  1.00  0.00     0.046 A 
ATOM      5  C   UNL     1      52.844  16.297  61.210  1.00  0.00     0.115 A 
ATOM      6  C   UNL     1      51.584  18.322  60.761  1.00  0.00     0.007 A 
ATOM      7  C   UNL     1      51.649  17.025  61.282  1.00  0.00     0.046 A 
BRANCH   5   8
ATOM      8  O   UNL     1      52.920  15.005  61.727  1.00  0.00    -0.508 OA
ATOM      9  H   UNL     1      52.318  14.701  62.483  1.00  0.00     0.293 HD
ENDBRANCH   5   8
ENDBRANCH   1   2
BRANCH   1  10
ATOM     10  C   UNL     1      53.858  20.562  58.693  1.00  0.00     0.040 C 
BRANCH  10  11
ATOM     11  C   UNL     1      53.509  20.376  57.241  1.00  0.00    -0.040 A 
ATOM     12  C   UNL     1      52.820  21.382  56.544  1.00  0.00     0.050 A 
ATOM     13  C   UNL     1      53.920  19.220  56.556  1.00  0.00     0.050 A 
ATOM     14  C   UNL     1      52.522  21.225  55.186  1.00  0.00     0.119 A 
ATOM     15  C   UNL     1      53.624  19.062  55.196  1.00  0.00     0.119 A 
ATOM     16  C   UNL     1      52.923  20.062  54.515  1.00  0.00     0.092 A 
BRANCH  14  17
ATOM     17  O   UNL     1      51.832  22.231  54.514  1.00  0.00    -0.508 OA
ATOM     18  H   UNL     1      51.695  23.146  54.926  1.00  0.00     0.293 HD
ENDBRANCH  14  17
BRANCH  15  19
ATOM     19  O   UNL     1      54.021  17.914  54.513  1.00  0.00    -0.508 OA
ATOM     20  H   UNL     1      54.827  17.915  53.900  1.00  0.00     0.293 HD
ENDBRANCH  15  19
ENDBRANCH  10  11
ENDBRANCH   1  10
TORSDOF 6
ENDMDL
MODEL 6
REMARK VINA RESULT:    -6.384      3.021      6.862
REMARK INTER + INTRA:          -8.597
REMARK INTER:                  -7.979
REMARK INTRA:                  -0.619
REMARK UNBOUND:                -0.534
REMARK SMILES Oc1ccc(CCc2cc(O)cc(O)c2)cc1
REMARK SMILES IDX 6 1 5 2 4 3 3 4 2 5 16 6 17 7 1 8 7 10 8 11 15 12 9 13 13 14
REMARK SMILES IDX 10 15 12 16 14 17 11 19
REMARK H PARENT 1 9 14 18 11 20
REMARK Flexibility Score: inf
ROOT
ATOM      1  C   UNL     1      52.734  20.384  59.609  1.00  0.00     0.040 C 
ENDROOT
BRANCH   1   2
ATOM      2  C   UNL     1      52.772  18.989  60.175  1.00  0.00    -0.047 A 
ATOM      3  C   UNL     1      53.961  18.244  60.145  1.00  0.00     0.007 A 
ATOM      4  C   UNL     1      53.987  16.937  60.641  1.00  0.00     0.046 A 
ATOM      5  C   UNL     1      52.824  16.358  61.160  1.00  0.00     0.115 A 
ATOM      6  C   UNL     1      51.603  18.400  60.685  1.00  0.00     0.007 A 
ATOM      7  C   UNL     1      51.631  17.092  61.180  1.00  0.00     0.046 A 
BRANCH   5   8
ATOM      8  O   UNL     1      52.865  15.054  61.651  1.00  0.00    -0.508 OA
ATOM      9  H   UNL     1      52.802  14.860  62.643  1.00  0.00     0.293 HD
ENDBRANCH   5   8
ENDBRANCH   1   2
BRANCH   1  10
ATOM     10  C   UNL     1      53.955  20.637  58.720  1.00  0.00     0.040 C 
BRANCH  10  11
ATOM     11  C   UNL     1      53.604  20.437  57.271  1.00  0.00    -0.040 A 
ATOM     12  C   UNL     1      53.971  19.253  56.611  1.00  0.00     0.050 A 
ATOM     13  C   UNL     1      52.856  21.407  56.583  1.00  0.00     0.050 A 
ATOM     14  C   UNL     1      53.618  19.051  55.272  1.00  0.00     0.119 A 
ATOM     15  C   UNL     1      52.500  21.205  55.242  1.00  0.00     0.119 A 
ATOM     16  C   UNL     1      52.884  20.031  54.589  1.00  0.00     0.092 A 
BRANCH  14  17
ATOM     17  O   UNL     1      53.998  17.874  54.631  1.00  0.00    -0.508 OA
ATOM     18  H   UNL     1      54.816  17.835  54.036  1.00  0.00     0.293 HD
ENDBRANCH  14  17
BRANCH  15  19
ATOM     19  O   UNL     1      51.765  22.167  54.552  1.00  0.00    -0.508 OA
ATOM     20  H   UNL     1      50.752  22.155  54.544  1.00  0.00     0.293 HD
ENDBRANCH  15  19
ENDBRANCH  10  11
ENDBRANCH   1  10
TORSDOF 6
ENDMDL
MODEL 7
REMARK VINA RESULT:    -6.379      2.824      3.896
REMARK INTER + INTRA:          -8.591
REMARK INTER:                  -7.779
REMARK INTRA:                  -0.811
REMARK UNBOUND:                -0.534
REMARK SMILES Oc1ccc(CCc2cc(O)cc(O)c2)cc1
REMARK SMILES IDX 6 1 5 2 4 3 3 4 2 5 16 6 17 7 1 8 7 10 8 11 15 12 9 13 13 14
REMARK SMILES IDX 10 15 12 16 14 17 11 19
REMARK H PARENT 1 9 14 18 11 20
REMARK Flexibility Score: inf
ROOT
ATOM      1  C   UNL     1      53.969  21.238  58.867  1.00  0.00     0.040 C 
ENDROOT
BRANCH   1   2
ATOM      2  C   UNL     1      53.541  20.811  57.488  1.00  0.00    -0.047 A 
ATOM      3  C   UNL     1      52.624  21.585  56.759  1.00  0.00     0.007 A 
ATOM      4  C   UNL     1      52.203  21.170  55.492  1.00  0.00     0.046 A 
ATOM      5  C   UNL     1      52.683  19.975  54.947  1.00  0.00     0.115 A 
ATOM      6  C   UNL     1      54.012  19.605  56.943  1.00  0.00     0.007 A 
ATOM      7  C   UNL     1      53.588  19.192  55.676  1.00  0.00     0.046 A 
BRANCH   5   8
ATOM      8  O   UNL     1      52.254  19.574  53.683  1.00  0.00    -0.508 OA
ATOM      9  H   UNL     1      51.564  20.105  53.165  1.00  0.00     0.293 HD
ENDBRANCH   5   8
ENDBRANCH   1   2
BRANCH   1  10
ATOM     10  C   UNL     1      52.789  21.175  59.840  1.00  0.00     0.040 C 
BRANCH  10  11
ATOM     11  C   UNL     1      52.407  19.745  60.114  1.00  0.00    -0.040 A 
ATOM     12  C   UNL     1      51.115  19.288  59.809  1.00  0.00     0.050 A 
ATOM     13  C   UNL     1      53.356  18.843  60.624  1.00  0.00     0.050 A 
ATOM     14  C   UNL     1      50.766  17.951  60.033  1.00  0.00     0.119 A 
ATOM     15  C   UNL     1      53.009  17.504  60.848  1.00  0.00     0.119 A 
ATOM     16  C   UNL     1      51.715  17.062  60.555  1.00  0.00     0.092 A 
BRANCH  14  17
ATOM     17  O   UNL     1      49.478  17.517  59.731  1.00  0.00    -0.508 OA
ATOM     18  H   UNL     1      49.035  17.745  58.849  1.00  0.00     0.293 HD
ENDBRANCH  14  17
BRANCH  15  19
ATOM     19  O   UNL     1      53.943  16.606  61.360  1.00  0.00    -0.508 OA
ATOM     20  H   UNL     1      53.914  16.305  62.326  1.00  0.00     0.293 HD
ENDBRANCH  15  19
ENDBRANCH  10  11
ENDBRANCH   1  10
TORSDOF 6
ENDMDL
MODEL 8
REMARK VINA RESULT:    -6.365      1.937      3.097
REMARK INTER + INTRA:          -8.574
REMARK INTER:                  -8.039
REMARK INTRA:                  -0.535
REMARK UNBOUND:                -0.534
REMARK SMILES Oc1ccc(CCc2cc(O)cc(O)c2)cc1
REMARK SMILES IDX 6 1 5 2 4 3 3 4 2 5 16 6 17 7 1 8 7 10 8 11 15 12 9 13 13 14
REMARK SMILES IDX 10 15 12 16 14 17 11 19
REMARK H PARENT 1 9 14 18 11 20
REMARK Flexibility Score: inf
ROOT
ATOM      1  C   UNL     1      52.114  21.211  60.272  1.00  0.00     0.040 C 
ENDROOT
BRANCH   1   2
ATOM      2  C   UNL     1      52.140  21.149  58.767  1.00  0.00    -0.047 A 
ATOM      3  C   UNL     1      53.097  20.362  58.107  1.00  0.00     0.007 A 
ATOM      4  C   UNL     1      53.141  20.330  56.710  1.00  0.00     0.046 A 
ATOM      5  C   UNL     1      52.239  21.092  55.960  1.00  0.00     0.115 A 
ATOM      6  C   UNL     1      51.244  21.922  58.012  1.00  0.00     0.007 A 
ATOM      7  C   UNL     1      51.291  21.890  56.614  1.00  0.00     0.046 A 
BRANCH   5   8
ATOM      8  O   UNL     1      52.295  21.051  54.569  1.00  0.00    -0.508 OA
ATOM      9  H   UNL     1      52.896  20.397  54.082  1.00  0.00     0.293 HD
ENDBRANCH   5   8
ENDBRANCH   1   2
BRANCH   1  10
ATOM     10  C   UNL     1      52.498  19.856  60.873  1.00  0.00     0.040 C 
BRANCH  10  11
ATOM     11  C   UNL     1      51.333  19.258  61.615  1.00  0.00    -0.040 A 
ATOM     12  C   UNL     1      50.958  19.763  62.870  1.00  0.00     0.050 A 
ATOM     13  C   UNL     1      50.575  18.229  61.031  1.00  0.00     0.050 A 
ATOM     14  C   UNL     1      49.855  19.230  63.547  1.00  0.00     0.119 A 
ATOM     15  C   UNL     1      49.470  17.694  61.707  1.00  0.00     0.119 A 
ATOM     16  C   UNL     1      49.114  18.193  62.963  1.00  0.00     0.092 A 
BRANCH  14  17
ATOM     17  O   UNL     1      49.503  19.739  64.795  1.00  0.00    -0.508 OA
ATOM     18  H   UNL     1      48.633  20.236  64.937  1.00  0.00     0.293 HD
ENDBRANCH  14  17
BRANCH  15  19
ATOM     19  O   UNL     1      48.719  16.668  61.137  1.00  0.00    -0.508 OA
ATOM     20  H   UNL     1      48.525  15.811  61.640  1.00  0.00     0.293 HD
ENDBRANCH  15  19
ENDBRANCH  10  11
ENDBRANCH   1  10
TORSDOF 6
ENDMDL
MODEL 9
REMARK VINA RESULT:    -6.337      1.845      2.055
REMARK INTER + INTRA:          -8.539
REMARK INTER:                  -7.997
REMARK INTRA:                  -0.541
REMARK UNBOUND:                -0.534
REMARK SMILES Oc1ccc(CCc2cc(O)cc(O)c2)cc1
REMARK SMILES IDX 6 1 5 2 4 3 3 4 2 5 16 6 17 7 1 8 7 10 8 11 15 12 9 13 13 14
REMARK SMILES IDX 10 15 12 16 14 17 11 19
REMARK H PARENT 1 9 14 18 11 20
REMARK Flexibility Score: inf
ROOT
ATOM      1  C   UNL     1      52.374  21.135  60.420  1.00  0.00     0.040 C 
ENDROOT
BRANCH   1   2
ATOM      2  C   UNL     1      52.357  21.162  58.914  1.00  0.00    -0.047 A 
ATOM      3  C   UNL     1      51.363  21.880  58.231  1.00  0.00     0.007 A 
ATOM      4  C   UNL     1      51.328  21.878  56.833  1.00  0.00     0.046 A 
ATOM      5  C   UNL     1      52.277  21.152  56.106  1.00  0.00     0.115 A 
ATOM      6  C   UNL     1      53.300  20.423  58.182  1.00  0.00     0.007 A 
ATOM      7  C   UNL     1      53.263  20.422  56.784  1.00  0.00     0.046 A 
BRANCH   5   8
ATOM      8  O   UNL     1      52.230  21.159  54.713  1.00  0.00    -0.508 OA
ATOM      9  H   UNL     1      52.820  20.548  54.161  1.00  0.00     0.293 HD
ENDBRANCH   5   8
ENDBRANCH   1   2
BRANCH   1  10
ATOM     10  C   UNL     1      52.573  19.705  60.930  1.00  0.00     0.040 C 
BRANCH  10  11
ATOM     11  C   UNL     1      51.334  19.216  61.629  1.00  0.00    -0.040 A 
ATOM     12  C   UNL     1      50.569  18.178  61.072  1.00  0.00     0.050 A 
ATOM     13  C   UNL     1      50.963  19.755  62.872  1.00  0.00     0.050 A 
ATOM     14  C   UNL     1      49.434  17.700  61.736  1.00  0.00     0.119 A 
ATOM     15  C   UNL     1      49.827  19.277  63.539  1.00  0.00     0.119 A 
ATOM     16  C   UNL     1      49.063  18.254  62.969  1.00  0.00     0.092 A 
BRANCH  14  17
ATOM     17  O   UNL     1      48.684  16.675  61.164  1.00  0.00    -0.508 OA
ATOM     18  H   UNL     1      49.123  15.927  60.641  1.00  0.00     0.293 HD
ENDBRANCH  14  17
BRANCH  15  19
ATOM     19  O   UNL     1      49.449  19.812  64.769  1.00  0.00    -0.508 OA
ATOM     20  H   UNL     1      48.478  19.989  64.994  1.00  0.00     0.293 HD
ENDBRANCH  15  19
ENDBRANCH  10  11
ENDBRANCH   1  10
TORSDOF 6
ENDMDL
