MODEL 1
REMARK VINA RESULT:    -7.096      0.000      0.000
REMARK INTER + INTRA:         -11.159
REMARK INTER:                 -10.414
REMARK INTRA:                  -0.745
REMARK UNBOUND:                -0.745
REMARK SMILES O=c1c(O[C@@H]2O[C@H](CO)[C@H](O)[C@H](O)[C@H]2O)c(-c2ccc(O)c(O)c2)oc2cc(O)cc(O)c12
REMARK SMILES IDX 4 1 3 2 16 3 25 4 2 5 26 6 1 7 33 8 27 9 31 10 28 11 30 12
REMARK SMILES IDX 17 13 18 14 19 15 20 16 24 17 22 18 21 19 23 21 32 23 29 25
REMARK SMILES IDX 5 27 14 28 6 29 12 30 7 31 10 32 15 33 13 35 8 37 9 38 11 40
REMARK H PARENT 21 20 23 22 32 24 29 26 15 34 13 36 9 39 11 41
REMARK Flexibility Score: inf
ROOT
ATOM      1  O   UNL     1       3.737   2.341 -25.875  1.00  0.00    -0.454 OA
ENDROOT
BRANCH   1   2
ATOM      2  C   UNL     1       3.534   1.388 -24.858  1.00  0.00     0.214 A 
ATOM      3  C   UNL     1       3.912   1.717 -23.540  1.00  0.00     0.180 A 
ATOM      4  O   UNL     1       3.684   0.868 -22.545  1.00  0.00    -0.452 OA
ATOM      5  C   UNL     1       2.949   0.123 -25.089  1.00  0.00     0.239 A 
ATOM      6  C   UNL     1       3.126  -0.323 -22.716  1.00  0.00     0.146 A 
ATOM      7  O   UNL     1       2.632  -0.226 -26.256  1.00  0.00    -0.285 OA
ATOM      8  C   UNL     1       2.734  -0.755 -24.004  1.00  0.00     0.111 A 
ATOM      9  C   UNL     1       2.931  -1.148 -21.606  1.00  0.00     0.094 A 
ATOM     10  C   UNL     1       2.147  -2.036 -24.151  1.00  0.00     0.134 A 
ATOM     11  C   UNL     1       2.350  -2.412 -21.756  1.00  0.00     0.123 A 
ATOM     12  C   UNL     1       1.961  -2.850 -23.023  1.00  0.00     0.093 A 
BRANCH   3  13
ATOM     13  C   UNL     1       4.528   3.019 -23.211  1.00  0.00     0.025 A 
ATOM     14  C   UNL     1       5.887   3.232 -23.486  1.00  0.00     0.016 A 
ATOM     15  C   UNL     1       6.484   4.460 -23.184  1.00  0.00     0.051 A 
ATOM     16  C   UNL     1       5.730   5.493 -22.620  1.00  0.00     0.157 A 
ATOM     17  C   UNL     1       3.765   4.066 -22.668  1.00  0.00     0.062 A 
ATOM     18  C   UNL     1       4.362   5.299 -22.364  1.00  0.00     0.158 A 
BRANCH  16  19
ATOM     19  O   UNL     1       6.354   6.705 -22.325  1.00  0.00    -0.504 OA
ATOM     20  H   UNL     1       6.693   6.923 -21.395  1.00  0.00     0.293 HD
ENDBRANCH  16  19
BRANCH  18  21
ATOM     21  O   UNL     1       3.600   6.327 -21.814  1.00  0.00    -0.504 OA
ATOM     22  H   UNL     1       2.625   6.457 -22.060  1.00  0.00     0.293 HD
ENDBRANCH  18  21
ENDBRANCH   3  13
BRANCH  10  23
ATOM     23  O   UNL     1       1.746  -2.505 -25.403  1.00  0.00    -0.507 OA
ATOM     24  H   UNL     1       1.358  -3.434 -25.526  1.00  0.00     0.293 HD
ENDBRANCH  10  23
BRANCH  11  25
ATOM     25  O   UNL     1       2.155  -3.239 -20.652  1.00  0.00    -0.508 OA
ATOM     26  H   UNL     1       1.500  -2.997 -19.919  1.00  0.00     0.293 HD
ENDBRANCH  11  25
ENDBRANCH   1   2
BRANCH   1  27
ATOM     27  C   UNL     1       3.055   2.391 -27.132  1.00  0.00     0.339 C 
ATOM     28  C   UNL     1       1.644   2.985 -26.954  1.00  0.00     0.214 C 
ATOM     29  O   UNL     1       3.810   3.076 -28.125  1.00  0.00    -0.332 OA
ATOM     30  C   UNL     1       1.712   4.484 -26.644  1.00  0.00     0.180 C 
ATOM     31  C   UNL     1       3.957   4.472 -27.892  1.00  0.00     0.179 C 
ATOM     32  C   UNL     1       2.597   5.193 -27.682  1.00  0.00     0.177 C 
BRANCH  28  33
ATOM     33  O   UNL     1       0.892   2.787 -28.125  1.00  0.00    -0.384 OA
ATOM     34  H   UNL     1       0.211   3.509 -28.157  1.00  0.00     0.211 HD
ENDBRANCH  28  33
BRANCH  30  35
ATOM     35  O   UNL     1       2.197   4.677 -25.340  1.00  0.00    -0.387 OA
ATOM     36  H   UNL     1       1.644   5.389 -24.925  1.00  0.00     0.211 HD
ENDBRANCH  30  35
BRANCH  31  37
ATOM     37  C   UNL     1       5.037   4.771 -26.830  1.00  0.00     0.191 C 
BRANCH  37  38
ATOM     38  O   UNL     1       4.614   5.798 -25.971  1.00  0.00    -0.394 OA
ATOM     39  H   UNL     1       5.216   5.793 -25.182  1.00  0.00     0.210 HD
ENDBRANCH  37  38
ENDBRANCH  31  37
BRANCH  32  40
ATOM     40  O   UNL     1       2.779   6.538 -27.320  1.00  0.00    -0.387 OA
ATOM     41  H   UNL     1       3.662   6.815 -27.679  1.00  0.00     0.211 HD
ENDBRANCH  32  40
ENDBRANCH   1  27
TORSDOF 12
ENDMDL
MODEL 2
REMARK VINA RESULT:    -7.010      2.192      6.530
REMARK INTER + INTRA:         -11.033
REMARK INTER:                  -9.417
REMARK INTRA:                  -1.616
REMARK UNBOUND:                -0.745
REMARK SMILES O=c1c(O[C@@H]2O[C@H](CO)[C@H](O)[C@H](O)[C@H]2O)c(-c2ccc(O)c(O)c2)oc2cc(O)cc(O)c12
REMARK SMILES IDX 4 1 3 2 16 3 25 4 2 5 26 6 1 7 33 8 27 9 31 10 28 11 30 12
REMARK SMILES IDX 17 13 18 14 19 15 20 16 24 17 22 18 21 19 23 21 32 23 29 25
REMARK SMILES IDX 5 27 14 28 6 29 12 30 7 31 10 32 15 33 13 35 8 37 9 38 11 40
REMARK H PARENT 21 20 23 22 32 24 29 26 15 34 13 36 9 39 11 41
REMARK Flexibility Score: inf
ROOT
ATOM      1  O   UNL     1       2.187   0.958 -25.807  1.00  0.00    -0.454 OA
ENDROOT
BRANCH   1   2
ATOM      2  C   UNL     1       3.017   1.809 -25.051  1.00  0.00     0.214 A 
ATOM      3  C   UNL     1       3.818   1.244 -24.038  1.00  0.00     0.180 A 
ATOM      4  O   UNL     1       4.656   2.006 -23.343  1.00  0.00    -0.452 OA
ATOM      5  C   UNL     1       3.104   3.202 -25.273  1.00  0.00     0.239 A 
ATOM      6  C   UNL     1       4.778   3.313 -23.529  1.00  0.00     0.146 A 
ATOM      7  O   UNL     1       2.378   3.752 -26.142  1.00  0.00    -0.285 OA
ATOM      8  C   UNL     1       4.000   3.977 -24.505  1.00  0.00     0.111 A 
ATOM      9  C   UNL     1       5.686   4.029 -22.743  1.00  0.00     0.094 A 
ATOM     10  C   UNL     1       4.152   5.375 -24.671  1.00  0.00     0.134 A 
ATOM     11  C   UNL     1       5.832   5.410 -22.912  1.00  0.00     0.123 A 
ATOM     12  C   UNL     1       5.067   6.076 -23.872  1.00  0.00     0.093 A 
BRANCH   3  13
ATOM     13  C   UNL     1       3.791  -0.203 -23.742  1.00  0.00     0.025 A 
ATOM     14  C   UNL     1       2.732  -0.736 -22.991  1.00  0.00     0.016 A 
ATOM     15  C   UNL     1       2.689  -2.104 -22.705  1.00  0.00     0.051 A 
ATOM     16  C   UNL     1       3.691  -2.957 -23.178  1.00  0.00     0.157 A 
ATOM     17  C   UNL     1       4.783  -1.064 -24.237  1.00  0.00     0.062 A 
ATOM     18  C   UNL     1       4.742  -2.437 -23.952  1.00  0.00     0.158 A 
BRANCH  16  19
ATOM     19  O   UNL     1       3.624  -4.316 -22.873  1.00  0.00    -0.504 OA
ATOM     20  H   UNL     1       4.369  -4.959 -23.115  1.00  0.00     0.293 HD
ENDBRANCH  16  19
BRANCH  18  21
ATOM     21  O   UNL     1       5.738  -3.282 -24.438  1.00  0.00    -0.504 OA
ATOM     22  H   UNL     1       6.269  -3.054 -25.271  1.00  0.00     0.293 HD
ENDBRANCH  18  21
ENDBRANCH   3  13
BRANCH  10  23
ATOM     23  O   UNL     1       3.404   6.072 -25.622  1.00  0.00    -0.507 OA
ATOM     24  H   UNL     1       3.156   7.047 -25.495  1.00  0.00     0.293 HD
ENDBRANCH  10  23
BRANCH  11  25
ATOM     25  O   UNL     1       6.734   6.128 -22.131  1.00  0.00    -0.508 OA
ATOM     26  H   UNL     1       7.147   5.730 -21.297  1.00  0.00     0.293 HD
ENDBRANCH  11  25
ENDBRANCH   1   2
BRANCH   1  27
ATOM     27  C   UNL     1       2.511   0.367 -27.069  1.00  0.00     0.339 C 
ATOM     28  C   UNL     1       2.442  -1.170 -26.976  1.00  0.00     0.214 C 
ATOM     29  O   UNL     1       1.709   0.882 -28.125  1.00  0.00    -0.332 OA
ATOM     30  C   UNL     1       0.994  -1.649 -26.837  1.00  0.00     0.180 C 
ATOM     31  C   UNL     1       0.336   0.518 -28.051  1.00  0.00     0.179 C 
ATOM     32  C   UNL     1       0.126  -1.017 -27.940  1.00  0.00     0.177 C 
BRANCH  28  33
ATOM     33  O   UNL     1       3.013  -1.743 -28.125  1.00  0.00    -0.384 OA
ATOM     34  H   UNL     1       3.846  -1.237 -28.318  1.00  0.00     0.211 HD
ENDBRANCH  28  33
BRANCH  30  35
ATOM     35  O   UNL     1       0.508  -1.329 -25.559  1.00  0.00    -0.387 OA
ATOM     36  H   UNL     1       0.250  -0.370 -25.576  1.00  0.00     0.211 HD
ENDBRANCH  30  35
BRANCH  31  37
ATOM     37  C   UNL     1      -0.434   1.369 -27.017  1.00  0.00     0.191 C 
BRANCH  37  38
ATOM     38  O   UNL     1      -1.814   1.332 -27.277  1.00  0.00    -0.394 OA
ATOM     39  H   UNL     1      -2.066   0.381 -27.405  1.00  0.00     0.210 HD
ENDBRANCH  37  38
ENDBRANCH  31  37
BRANCH  32  40
ATOM     40  O   UNL     1      -1.225  -1.339 -27.731  1.00  0.00    -0.387 OA
ATOM     41  H   UNL     1      -1.561  -0.722 -27.029  1.00  0.00     0.211 HD
ENDBRANCH  32  40
ENDBRANCH   1  27
TORSDOF 12
ENDMDL
MODEL 3
REMARK VINA RESULT:    -6.761      1.253      1.318
REMARK INTER + INTRA:         -10.668
REMARK INTER:                  -9.723
REMARK INTRA:                  -0.945
REMARK UNBOUND:                -0.745
REMARK SMILES O=c1c(O[C@@H]2O[C@H](CO)[C@H](O)[C@H](O)[C@H]2O)c(-c2ccc(O)c(O)c2)oc2cc(O)cc(O)c12
REMARK SMILES IDX 4 1 3 2 16 3 25 4 2 5 26 6 1 7 33 8 27 9 31 10 28 11 30 12
REMARK SMILES IDX 17 13 18 14 19 15 20 16 24 17 22 18 21 19 23 21 32 23 29 25
REMARK SMILES IDX 5 27 14 28 6 29 12 30 7 31 10 32 15 33 13 35 8 37 9 38 11 40
REMARK H PARENT 21 20 23 22 32 24 29 26 15 34 13 36 9 39 11 41
REMARK Flexibility Score: inf
ROOT
ATOM      1  O   UNL     1       2.945   3.317 -25.939  1.00  0.00    -0.454 OA
ENDROOT
BRANCH   1   2
ATOM      2  C   UNL     1       3.226   2.080 -25.328  1.00  0.00     0.214 A 
ATOM      3  C   UNL     1       4.049   2.064 -24.184  1.00  0.00     0.180 A 
ATOM      4  O   UNL     1       4.290   0.924 -23.547  1.00  0.00    -0.452 OA
ATOM      5  C   UNL     1       2.705   0.852 -25.793  1.00  0.00     0.239 A 
ATOM      6  C   UNL     1       3.810  -0.248 -23.941  1.00  0.00     0.146 A 
ATOM      7  O   UNL     1       1.996   0.816 -26.833  1.00  0.00    -0.285 OA
ATOM      8  C   UNL     1       2.993  -0.340 -25.092  1.00  0.00     0.111 A 
ATOM      9  C   UNL     1       4.123  -1.394 -23.205  1.00  0.00     0.094 A 
ATOM     10  C   UNL     1       2.503  -1.609 -25.488  1.00  0.00     0.134 A 
ATOM     11  C   UNL     1       3.637  -2.644 -23.601  1.00  0.00     0.123 A 
ATOM     12  C   UNL     1       2.831  -2.747 -24.737  1.00  0.00     0.093 A 
BRANCH   3  13
ATOM     13  C   UNL     1       4.633   3.303 -23.630  1.00  0.00     0.025 A 
ATOM     14  C   UNL     1       6.016   3.520 -23.727  1.00  0.00     0.016 A 
ATOM     15  C   UNL     1       6.584   4.689 -23.211  1.00  0.00     0.051 A 
ATOM     16  C   UNL     1       5.779   5.660 -22.608  1.00  0.00     0.157 A 
ATOM     17  C   UNL     1       3.823   4.290 -23.047  1.00  0.00     0.062 A 
ATOM     18  C   UNL     1       4.390   5.463 -22.529  1.00  0.00     0.158 A 
BRANCH  16  19
ATOM     19  O   UNL     1       6.375   6.813 -22.098  1.00  0.00    -0.504 OA
ATOM     20  H   UNL     1       5.848   7.664 -21.936  1.00  0.00     0.293 HD
ENDBRANCH  16  19
BRANCH  18  21
ATOM     21  O   UNL     1       3.579   6.432 -21.941  1.00  0.00    -0.504 OA
ATOM     22  H   UNL     1       3.706   7.419 -22.130  1.00  0.00     0.293 HD
ENDBRANCH  18  21
ENDBRANCH   3  13
BRANCH  10  23
ATOM     23  O   UNL     1       1.695  -1.747 -26.618  1.00  0.00    -0.507 OA
ATOM     24  H   UNL     1       0.866  -2.331 -26.612  1.00  0.00     0.293 HD
ENDBRANCH  10  23
BRANCH  11  25
ATOM     25  O   UNL     1       3.947  -3.789 -22.871  1.00  0.00    -0.508 OA
ATOM     26  H   UNL     1       4.905  -4.036 -22.654  1.00  0.00     0.293 HD
ENDBRANCH  11  25
ENDBRANCH   1   2
BRANCH   1  27
ATOM     27  C   UNL     1       2.258   3.509 -27.180  1.00  0.00     0.339 C 
ATOM     28  C   UNL     1       0.889   4.175 -26.939  1.00  0.00     0.214 C 
ATOM     29  O   UNL     1       3.048   4.221 -28.125  1.00  0.00    -0.332 OA
ATOM     30  C   UNL     1       1.055   5.637 -26.513  1.00  0.00     0.180 C 
ATOM     31  C   UNL     1       3.286   5.582 -27.786  1.00  0.00     0.179 C 
ATOM     32  C   UNL     1       1.977   6.369 -27.504  1.00  0.00     0.177 C 
BRANCH  28  33
ATOM     33  O   UNL     1       0.119   4.117 -28.112  1.00  0.00    -0.384 OA
ATOM     34  H   UNL     1       0.348   3.265 -28.569  1.00  0.00     0.211 HD
ENDBRANCH  28  33
BRANCH  30  35
ATOM     35  O   UNL     1       1.561   5.696 -25.204  1.00  0.00    -0.387 OA
ATOM     36  H   UNL     1       0.795   5.555 -24.588  1.00  0.00     0.211 HD
ENDBRANCH  30  35
BRANCH  31  37
ATOM     37  C   UNL     1       4.391   5.727 -26.716  1.00  0.00     0.191 C 
BRANCH  37  38
ATOM     38  O   UNL     1       5.409   4.784 -26.927  1.00  0.00    -0.394 OA
ATOM     39  H   UNL     1       5.439   4.591 -27.900  1.00  0.00     0.210 HD
ENDBRANCH  37  38
ENDBRANCH  31  37
BRANCH  32  40
ATOM     40  O   UNL     1       2.246   7.667 -27.040  1.00  0.00    -0.387 OA
ATOM     41  H   UNL     1       3.089   7.616 -26.519  1.00  0.00     0.211 HD
ENDBRANCH  32  40
ENDBRANCH   1  27
TORSDOF 12
ENDMDL
MODEL 4
REMARK VINA RESULT:    -6.197      1.750      2.500
REMARK INTER + INTRA:          -9.839
REMARK INTER:                  -9.030
REMARK INTRA:                  -0.810
REMARK UNBOUND:                -0.745
REMARK SMILES O=c1c(O[C@@H]2O[C@H](CO)[C@H](O)[C@H](O)[C@H]2O)c(-c2ccc(O)c(O)c2)oc2cc(O)cc(O)c12
REMARK SMILES IDX 4 1 3 2 16 3 25 4 2 5 26 6 1 7 33 8 27 9 31 10 28 11 30 12
REMARK SMILES IDX 17 13 18 14 19 15 20 16 24 17 22 18 21 19 23 21 32 23 29 25
REMARK SMILES IDX 5 27 14 28 6 29 12 30 7 31 10 32 15 33 13 35 8 37 9 38 11 40
REMARK H PARENT 21 20 23 22 32 24 29 26 15 34 13 36 9 39 11 41
REMARK Flexibility Score: inf
ROOT
ATOM      1  O   UNL     1       2.616   3.519 -25.400  1.00  0.00    -0.454 OA
ENDROOT
BRANCH   1   2
ATOM      2  C   UNL     1       3.218   2.299 -25.036  1.00  0.00     0.214 A 
ATOM      3  C   UNL     1       4.285   2.322 -24.114  1.00  0.00     0.180 A 
ATOM      4  O   UNL     1       4.839   1.188 -23.702  1.00  0.00    -0.452 OA
ATOM      5  C   UNL     1       2.792   1.047 -25.533  1.00  0.00     0.239 A 
ATOM      6  C   UNL     1       4.460  -0.008 -24.132  1.00  0.00     0.146 A 
ATOM      7  O   UNL     1       1.869   0.984 -26.386  1.00  0.00    -0.285 OA
ATOM      8  C   UNL     1       3.416  -0.135 -25.076  1.00  0.00     0.111 A 
ATOM      9  C   UNL     1       5.110  -1.144 -23.641  1.00  0.00     0.094 A 
ATOM     10  C   UNL     1       3.042  -1.428 -25.519  1.00  0.00     0.134 A 
ATOM     11  C   UNL     1       4.736  -2.418 -24.082  1.00  0.00     0.123 A 
ATOM     12  C   UNL     1       3.707  -2.555 -25.015  1.00  0.00     0.093 A 
BRANCH   3  13
ATOM     13  C   UNL     1       4.791   3.587 -23.543  1.00  0.00     0.025 A 
ATOM     14  C   UNL     1       6.131   3.950 -23.744  1.00  0.00     0.016 A 
ATOM     15  C   UNL     1       6.625   5.145 -23.214  1.00  0.00     0.051 A 
ATOM     16  C   UNL     1       5.786   6.000 -22.492  1.00  0.00     0.157 A 
ATOM     17  C   UNL     1       3.943   4.458 -22.840  1.00  0.00     0.062 A 
ATOM     18  C   UNL     1       4.436   5.657 -22.308  1.00  0.00     0.158 A 
BRANCH  16  19
ATOM     19  O   UNL     1       6.308   7.183 -21.972  1.00  0.00    -0.504 OA
ATOM     20  H   UNL     1       7.183   7.206 -21.461  1.00  0.00     0.293 HD
ENDBRANCH  16  19
BRANCH  18  21
ATOM     21  O   UNL     1       3.589   6.509 -21.601  1.00  0.00    -0.504 OA
ATOM     22  H   UNL     1       3.781   7.500 -21.515  1.00  0.00     0.293 HD
ENDBRANCH  18  21
ENDBRANCH   3  13
BRANCH  10  23
ATOM     23  O   UNL     1       2.017  -1.601 -26.451  1.00  0.00    -0.507 OA
ATOM     24  H   UNL     1       1.103  -1.947 -26.181  1.00  0.00     0.293 HD
ENDBRANCH  10  23
BRANCH  11  25
ATOM     25  O   UNL     1       5.381  -3.554 -23.596  1.00  0.00    -0.508 OA
ATOM     26  H   UNL     1       5.965  -4.126 -24.192  1.00  0.00     0.293 HD
ENDBRANCH  11  25
ENDBRANCH   1   2
BRANCH   1  27
ATOM     27  C   UNL     1       3.276   4.640 -25.997  1.00  0.00     0.339 C 
ATOM     28  C   UNL     1       3.301   4.495 -27.531  1.00  0.00     0.214 C 
ATOM     29  O   UNL     1       2.713   5.878 -25.579  1.00  0.00    -0.332 OA
ATOM     30  C   UNL     1       1.901   4.680 -28.125  1.00  0.00     0.180 C 
ATOM     31  C   UNL     1       1.394   6.114 -26.054  1.00  0.00     0.179 C 
ATOM     32  C   UNL     1       1.279   5.984 -27.598  1.00  0.00     0.177 C 
BRANCH  28  33
ATOM     33  O   UNL     1       4.171   5.448 -28.086  1.00  0.00    -0.384 OA
ATOM     34  H   UNL     1       3.651   5.955 -28.764  1.00  0.00     0.211 HD
ENDBRANCH  28  33
BRANCH  30  35
ATOM     35  O   UNL     1       1.102   3.569 -27.812  1.00  0.00    -0.387 OA
ATOM     36  H   UNL     1       1.233   2.901 -28.535  1.00  0.00     0.211 HD
ENDBRANCH  30  35
BRANCH  31  37
ATOM     37  C   UNL     1       0.338   5.332 -25.243  1.00  0.00     0.191 C 
BRANCH  37  38
ATOM     38  O   UNL     1      -0.948   5.840 -25.487  1.00  0.00    -0.394 OA
ATOM     39  H   UNL     1      -0.846   6.790 -25.755  1.00  0.00     0.210 HD
ENDBRANCH  37  38
ENDBRANCH  31  37
BRANCH  32  40
ATOM     40  O   UNL     1      -0.055   6.086 -28.025  1.00  0.00    -0.387 OA
ATOM     41  H   UNL     1      -0.043   6.037 -29.016  1.00  0.00     0.211 HD
ENDBRANCH  32  40
ENDBRANCH   1  27
TORSDOF 12
ENDMDL
MODEL 5
REMARK VINA RESULT:    -6.177      2.415      7.692
REMARK INTER + INTRA:          -9.811
REMARK INTER:                  -8.850
REMARK INTRA:                  -0.962
REMARK UNBOUND:                -0.745
REMARK SMILES O=c1c(O[C@@H]2O[C@H](CO)[C@H](O)[C@H](O)[C@H]2O)c(-c2ccc(O)c(O)c2)oc2cc(O)cc(O)c12
REMARK SMILES IDX 4 1 3 2 16 3 25 4 2 5 26 6 1 7 33 8 27 9 31 10 28 11 30 12
REMARK SMILES IDX 17 13 18 14 19 15 20 16 24 17 22 18 21 19 23 21 32 23 29 25
REMARK SMILES IDX 5 27 14 28 6 29 12 30 7 31 10 32 15 33 13 35 8 37 9 38 11 40
REMARK H PARENT 21 20 23 22 32 24 29 26 15 34 13 36 9 39 11 41
REMARK Flexibility Score: inf
ROOT
ATOM      1  O   UNL     1       3.898   0.034 -24.410  1.00  0.00    -0.454 OA
ENDROOT
BRANCH   1   2
ATOM      2  C   UNL     1       3.833   1.385 -24.804  1.00  0.00     0.214 A 
ATOM      3  C   UNL     1       2.869   1.761 -25.762  1.00  0.00     0.180 A 
ATOM      4  O   UNL     1       2.738   3.035 -26.116  1.00  0.00    -0.452 OA
ATOM      5  C   UNL     1       4.672   2.388 -24.271  1.00  0.00     0.239 A 
ATOM      6  C   UNL     1       3.495   4.009 -25.629  1.00  0.00     0.146 A 
ATOM      7  O   UNL     1       5.570   2.088 -23.442  1.00  0.00    -0.285 OA
ATOM      8  C   UNL     1       4.506   3.729 -24.682  1.00  0.00     0.111 A 
ATOM      9  C   UNL     1       3.282   5.318 -26.068  1.00  0.00     0.094 A 
ATOM     10  C   UNL     1       5.301   4.793 -24.189  1.00  0.00     0.134 A 
ATOM     11  C   UNL     1       4.070   6.365 -25.578  1.00  0.00     0.123 A 
ATOM     12  C   UNL     1       5.073   6.101 -24.643  1.00  0.00     0.093 A 
BRANCH   3  13
ATOM     13  C   UNL     1       1.950   0.776 -26.368  1.00  0.00     0.025 A 
ATOM     14  C   UNL     1       2.450  -0.171 -27.275  1.00  0.00     0.016 A 
ATOM     15  C   UNL     1       1.595  -1.112 -27.855  1.00  0.00     0.051 A 
ATOM     16  C   UNL     1       0.235  -1.130 -27.526  1.00  0.00     0.157 A 
ATOM     17  C   UNL     1       0.590   0.741 -26.019  1.00  0.00     0.062 A 
ATOM     18  C   UNL     1      -0.270  -0.202 -26.600  1.00  0.00     0.158 A 
BRANCH  16  19
ATOM     19  O   UNL     1      -0.594  -2.078 -28.124  1.00  0.00    -0.504 OA
ATOM     20  H   UNL     1      -0.981  -1.945 -29.051  1.00  0.00     0.293 HD
ENDBRANCH  16  19
BRANCH  18  21
ATOM     21  O   UNL     1      -1.621  -0.221 -26.257  1.00  0.00    -0.504 OA
ATOM     22  H   UNL     1      -1.965  -0.780 -25.485  1.00  0.00     0.293 HD
ENDBRANCH  18  21
ENDBRANCH   3  13
BRANCH  10  23
ATOM     23  O   UNL     1       6.311   4.563 -23.254  1.00  0.00    -0.507 OA
ATOM     24  H   UNL     1       7.267   4.858 -23.418  1.00  0.00     0.293 HD
ENDBRANCH  10  23
BRANCH  11  25
ATOM     25  O   UNL     1       3.863   7.673 -26.013  1.00  0.00    -0.508 OA
ATOM     26  H   UNL     1       4.635   8.274 -26.271  1.00  0.00     0.293 HD
ENDBRANCH  11  25
ENDBRANCH   1   2
BRANCH   1  27
ATOM     27  C   UNL     1       3.959  -0.450 -23.065  1.00  0.00     0.339 C 
ATOM     28  C   UNL     1       2.597  -1.034 -22.642  1.00  0.00     0.214 C 
ATOM     29  O   UNL     1       5.026  -1.372 -22.874  1.00  0.00    -0.332 OA
ATOM     30  C   UNL     1       2.311  -2.350 -23.371  1.00  0.00     0.180 C 
ATOM     31  C   UNL     1       4.861  -2.611 -23.552  1.00  0.00     0.179 C 
ATOM     32  C   UNL     1       3.510  -3.302 -23.220  1.00  0.00     0.177 C 
BRANCH  28  33
ATOM     33  O   UNL     1       2.585  -1.259 -21.255  1.00  0.00    -0.384 OA
ATOM     34  H   UNL     1       1.830  -0.731 -20.882  1.00  0.00     0.211 HD
ENDBRANCH  28  33
BRANCH  30  35
ATOM     35  O   UNL     1       2.030  -2.093 -24.723  1.00  0.00    -0.387 OA
ATOM     36  H   UNL     1       1.067  -1.856 -24.781  1.00  0.00     0.211 HD
ENDBRANCH  30  35
BRANCH  31  37
ATOM     37  C   UNL     1       5.195  -2.497 -25.056  1.00  0.00     0.191 C 
BRANCH  37  38
ATOM     38  O   UNL     1       5.890  -3.636 -25.495  1.00  0.00    -0.394 OA
ATOM     39  H   UNL     1       6.519  -3.345 -26.205  1.00  0.00     0.210 HD
ENDBRANCH  37  38
ENDBRANCH  31  37
BRANCH  32  40
ATOM     40  O   UNL     1       3.313  -4.450 -24.005  1.00  0.00    -0.387 OA
ATOM     41  H   UNL     1       3.790  -5.193 -23.550  1.00  0.00     0.211 HD
ENDBRANCH  32  40
ENDBRANCH   1  27
TORSDOF 12
ENDMDL
MODEL 6
REMARK VINA RESULT:    -5.984      2.307      7.877
REMARK INTER + INTRA:          -9.527
REMARK INTER:                  -8.890
REMARK INTRA:                  -0.637
REMARK UNBOUND:                -0.745
REMARK SMILES O=c1c(O[C@@H]2O[C@H](CO)[C@H](O)[C@H](O)[C@H]2O)c(-c2ccc(O)c(O)c2)oc2cc(O)cc(O)c12
REMARK SMILES IDX 4 1 3 2 16 3 25 4 2 5 26 6 1 7 33 8 27 9 31 10 28 11 30 12
REMARK SMILES IDX 17 13 18 14 19 15 20 16 24 17 22 18 21 19 23 21 32 23 29 25
REMARK SMILES IDX 5 27 14 28 6 29 12 30 7 31 10 32 15 33 13 35 8 37 9 38 11 40
REMARK H PARENT 21 20 23 22 32 24 29 26 15 34 13 36 9 39 11 41
REMARK Flexibility Score: inf
ROOT
ATOM      1  O   UNL     1       2.823   0.437 -24.836  1.00  0.00    -0.454 OA
ENDROOT
BRANCH   1   2
ATOM      2  C   UNL     1       2.930   1.675 -25.500  1.00  0.00     0.214 A 
ATOM      3  C   UNL     1       2.021   1.965 -26.537  1.00  0.00     0.180 A 
ATOM      4  O   UNL     1       2.053   3.144 -27.147  1.00  0.00    -0.452 OA
ATOM      5  C   UNL     1       3.892   2.653 -25.162  1.00  0.00     0.239 A 
ATOM      6  C   UNL     1       2.930   4.095 -26.852  1.00  0.00     0.146 A 
ATOM      7  O   UNL     1       4.746   2.420 -24.267  1.00  0.00    -0.285 OA
ATOM      8  C   UNL     1       3.898   3.891 -25.842  1.00  0.00     0.111 A 
ATOM      9  C   UNL     1       2.886   5.302 -27.554  1.00  0.00     0.094 A 
ATOM     10  C   UNL     1       4.824   4.925 -25.557  1.00  0.00     0.134 A 
ATOM     11  C   UNL     1       3.802   6.320 -27.268  1.00  0.00     0.123 A 
ATOM     12  C   UNL     1       4.764   6.129 -26.275  1.00  0.00     0.093 A 
BRANCH   3  13
ATOM     13  C   UNL     1       0.982   1.000 -26.952  1.00  0.00     0.025 A 
ATOM     14  C   UNL     1       1.352  -0.308 -27.303  1.00  0.00     0.016 A 
ATOM     15  C   UNL     1       0.381  -1.234 -27.694  1.00  0.00     0.051 A 
ATOM     16  C   UNL     1      -0.970  -0.873 -27.725  1.00  0.00     0.157 A 
ATOM     17  C   UNL     1      -0.377   1.354 -26.960  1.00  0.00     0.062 A 
ATOM     18  C   UNL     1      -1.353   0.426 -27.352  1.00  0.00     0.158 A 
BRANCH  16  19
ATOM     19  O   UNL     1      -1.915  -1.817 -28.124  1.00  0.00    -0.504 OA
ATOM     20  H   UNL     1      -2.099  -2.655 -27.585  1.00  0.00     0.293 HD
ENDBRANCH  16  19
BRANCH  18  21
ATOM     21  O   UNL     1      -2.698   0.791 -27.368  1.00  0.00    -0.504 OA
ATOM     22  H   UNL     1      -3.239   0.789 -28.225  1.00  0.00     0.293 HD
ENDBRANCH  18  21
ENDBRANCH   3  13
BRANCH  10  23
ATOM     23  O   UNL     1       5.798   4.767 -24.571  1.00  0.00    -0.507 OA
ATOM     24  H   UNL     1       6.692   5.243 -24.622  1.00  0.00     0.293 HD
ENDBRANCH  10  23
BRANCH  11  25
ATOM     25  O   UNL     1       3.763   7.525 -27.966  1.00  0.00    -0.508 OA
ATOM     26  H   UNL     1       3.231   7.625 -28.821  1.00  0.00     0.293 HD
ENDBRANCH  11  25
ENDBRANCH   1   2
BRANCH   1  27
ATOM     27  C   UNL     1       3.651  -0.710 -25.052  1.00  0.00     0.339 C 
ATOM     28  C   UNL     1       4.711  -0.823 -23.939  1.00  0.00     0.214 C 
ATOM     29  O   UNL     1       2.889  -1.902 -25.198  1.00  0.00    -0.332 OA
ATOM     30  C   UNL     1       4.070  -1.222 -22.606  1.00  0.00     0.180 C 
ATOM     31  C   UNL     1       2.224  -2.323 -24.013  1.00  0.00     0.179 C 
ATOM     32  C   UNL     1       3.186  -2.466 -22.802  1.00  0.00     0.177 C 
BRANCH  28  33
ATOM     33  O   UNL     1       5.675  -1.782 -24.295  1.00  0.00    -0.384 OA
ATOM     34  H   UNL     1       6.544  -1.468 -23.929  1.00  0.00     0.211 HD
ENDBRANCH  28  33
BRANCH  30  35
ATOM     35  O   UNL     1       3.329  -0.144 -22.094  1.00  0.00    -0.387 OA
ATOM     36  H   UNL     1       2.878   0.292 -22.865  1.00  0.00     0.211 HD
ENDBRANCH  30  35
BRANCH  31  37
ATOM     37  C   UNL     1       0.941  -1.506 -23.748  1.00  0.00     0.191 C 
BRANCH  37  38
ATOM     38  O   UNL     1      -0.174  -2.137 -24.323  1.00  0.00    -0.394 OA
ATOM     39  H   UNL     1      -0.414  -2.904 -23.741  1.00  0.00     0.210 HD
ENDBRANCH  37  38
ENDBRANCH  31  37
BRANCH  32  40
ATOM     40  O   UNL     1       2.486  -2.748 -21.618  1.00  0.00    -0.387 OA
ATOM     41  H   UNL     1       1.964  -3.576 -21.785  1.00  0.00     0.211 HD
ENDBRANCH  32  40
ENDBRANCH   1  27
TORSDOF 12
ENDMDL
MODEL 7
REMARK VINA RESULT:    -5.561      2.767      5.340
REMARK INTER + INTRA:          -8.906
REMARK INTER:                  -7.748
REMARK INTRA:                  -1.159
REMARK UNBOUND:                -0.745
REMARK SMILES O=c1c(O[C@@H]2O[C@H](CO)[C@H](O)[C@H](O)[C@H]2O)c(-c2ccc(O)c(O)c2)oc2cc(O)cc(O)c12
REMARK SMILES IDX 4 1 3 2 16 3 25 4 2 5 26 6 1 7 33 8 27 9 31 10 28 11 30 12
REMARK SMILES IDX 17 13 18 14 19 15 20 16 24 17 22 18 21 19 23 21 32 23 29 25
REMARK SMILES IDX 5 27 14 28 6 29 12 30 7 31 10 32 15 33 13 35 8 37 9 38 11 40
REMARK H PARENT 21 20 23 22 32 24 29 26 15 34 13 36 9 39 11 41
REMARK Flexibility Score: inf
ROOT
ATOM      1  O   UNL     1       3.217   2.011 -25.547  1.00  0.00    -0.454 OA
ENDROOT
BRANCH   1   2
ATOM      2  C   UNL     1       2.144   1.234 -26.025  1.00  0.00     0.214 A 
ATOM      3  C   UNL     1       2.245  -0.170 -25.955  1.00  0.00     0.180 A 
ATOM      4  O   UNL     1       1.230  -0.935 -26.342  1.00  0.00    -0.452 OA
ATOM      5  C   UNL     1       0.959   1.794 -26.553  1.00  0.00     0.239 A 
ATOM      6  C   UNL     1       0.096  -0.451 -26.830  1.00  0.00     0.146 A 
ATOM      7  O   UNL     1       0.843   3.042 -26.668  1.00  0.00    -0.285 OA
ATOM      8  C   UNL     1      -0.092   0.944 -26.963  1.00  0.00     0.111 A 
ATOM      9  C   UNL     1      -0.912  -1.339 -27.214  1.00  0.00     0.094 A 
ATOM     10  C   UNL     1      -1.314   1.426 -27.494  1.00  0.00     0.134 A 
ATOM     11  C   UNL     1      -2.117  -0.857 -27.738  1.00  0.00     0.123 A 
ATOM     12  C   UNL     1      -2.313   0.518 -27.876  1.00  0.00     0.093 A 
BRANCH   3  13
ATOM     13  C   UNL     1       3.447  -0.837 -25.415  1.00  0.00     0.025 A 
ATOM     14  C   UNL     1       4.010  -1.918 -26.109  1.00  0.00     0.016 A 
ATOM     15  C   UNL     1       5.150  -2.558 -25.613  1.00  0.00     0.051 A 
ATOM     16  C   UNL     1       5.751  -2.117 -24.430  1.00  0.00     0.157 A 
ATOM     17  C   UNL     1       4.065  -0.379 -24.240  1.00  0.00     0.062 A 
ATOM     18  C   UNL     1       5.209  -1.019 -23.741  1.00  0.00     0.158 A 
BRANCH  16  19
ATOM     19  O   UNL     1       6.884  -2.777 -23.957  1.00  0.00    -0.504 OA
ATOM     20  H   UNL     1       7.281  -3.575 -24.439  1.00  0.00     0.293 HD
ENDBRANCH  16  19
BRANCH  18  21
ATOM     21  O   UNL     1       5.808  -0.565 -22.567  1.00  0.00    -0.504 OA
ATOM     22  H   UNL     1       5.283  -0.468 -21.705  1.00  0.00     0.293 HD
ENDBRANCH  18  21
ENDBRANCH   3  13
BRANCH  10  23
ATOM     23  O   UNL     1      -1.543   2.794 -27.645  1.00  0.00    -0.507 OA
ATOM     24  H   UNL     1      -1.221   3.468 -26.959  1.00  0.00     0.293 HD
ENDBRANCH  10  23
BRANCH  11  25
ATOM     25  O   UNL     1      -3.125  -1.738 -28.124  1.00  0.00    -0.508 OA
ATOM     26  H   UNL     1      -3.484  -1.751 -29.070  1.00  0.00     0.293 HD
ENDBRANCH  11  25
ENDBRANCH   1   2
BRANCH   1  27
ATOM     27  C   UNL     1       4.278   2.560 -26.335  1.00  0.00     0.339 C 
ATOM     28  C   UNL     1       3.882   3.948 -26.876  1.00  0.00     0.214 C 
ATOM     29  O   UNL     1       5.513   2.586 -25.629  1.00  0.00    -0.332 OA
ATOM     30  C   UNL     1       3.840   4.987 -25.751  1.00  0.00     0.180 C 
ATOM     31  C   UNL     1       5.547   3.498 -24.538  1.00  0.00     0.179 C 
ATOM     32  C   UNL     1       5.152   4.943 -24.950  1.00  0.00     0.177 C 
BRANCH  28  33
ATOM     33  O   UNL     1       4.804   4.360 -27.854  1.00  0.00    -0.384 OA
ATOM     34  H   UNL     1       5.218   3.537 -28.226  1.00  0.00     0.211 HD
ENDBRANCH  28  33
BRANCH  30  35
ATOM     35  O   UNL     1       2.729   4.748 -24.925  1.00  0.00    -0.387 OA
ATOM     36  H   UNL     1       2.276   5.620 -24.785  1.00  0.00     0.211 HD
ENDBRANCH  30  35
BRANCH  31  37
ATOM     37  C   UNL     1       4.820   2.941 -23.295  1.00  0.00     0.191 C 
BRANCH  37  38
ATOM     38  O   UNL     1       5.169   3.674 -22.149  1.00  0.00    -0.394 OA
ATOM     39  H   UNL     1       5.752   4.422 -22.441  1.00  0.00     0.210 HD
ENDBRANCH  37  38
ENDBRANCH  31  37
BRANCH  32  40
ATOM     40  O   UNL     1       5.062   5.790 -23.833  1.00  0.00    -0.387 OA
ATOM     41  H   UNL     1       5.885   5.646 -23.297  1.00  0.00     0.211 HD
ENDBRANCH  32  40
ENDBRANCH   1  27
TORSDOF 12
ENDMDL
MODEL 8
REMARK VINA RESULT:    -5.435      2.166      7.757
REMARK INTER + INTRA:          -8.722
REMARK INTER:                  -7.175
REMARK INTRA:                  -1.547
REMARK UNBOUND:                -0.745
REMARK SMILES O=c1c(O[C@@H]2O[C@H](CO)[C@H](O)[C@H](O)[C@H]2O)c(-c2ccc(O)c(O)c2)oc2cc(O)cc(O)c12
REMARK SMILES IDX 4 1 3 2 16 3 25 4 2 5 26 6 1 7 33 8 27 9 31 10 28 11 30 12
REMARK SMILES IDX 17 13 18 14 19 15 20 16 24 17 22 18 21 19 23 21 32 23 29 25
REMARK SMILES IDX 5 27 14 28 6 29 12 30 7 31 10 32 15 33 13 35 8 37 9 38 11 40
REMARK H PARENT 21 20 23 22 32 24 29 26 15 34 13 36 9 39 11 41
REMARK Flexibility Score: inf
ROOT
ATOM      1  O   UNL     1       3.418   1.686 -24.198  1.00  0.00    -0.454 OA
ENDROOT
BRANCH   1   2
ATOM      2  C   UNL     1       3.340   2.891 -24.923  1.00  0.00     0.214 A 
ATOM      3  C   UNL     1       2.600   2.910 -26.123  1.00  0.00     0.180 A 
ATOM      4  O   UNL     1       2.456   4.041 -26.804  1.00  0.00    -0.452 OA
ATOM      5  C   UNL     1       3.950   4.092 -24.496  1.00  0.00     0.239 A 
ATOM      6  C   UNL     1       2.999   5.192 -26.431  1.00  0.00     0.146 A 
ATOM      7  O   UNL     1       4.651   4.110 -23.450  1.00  0.00    -0.285 OA
ATOM      8  C   UNL     1       3.780   5.270 -25.255  1.00  0.00     0.111 A 
ATOM      9  C   UNL     1       2.793   6.327 -27.218  1.00  0.00     0.094 A 
ATOM     10  C   UNL     1       4.351   6.514 -24.890  1.00  0.00     0.134 A 
ATOM     11  C   UNL     1       3.359   7.553 -26.853  1.00  0.00     0.123 A 
ATOM     12  C   UNL     1       4.133   7.643 -25.695  1.00  0.00     0.093 A 
BRANCH   3  13
ATOM     13  C   UNL     1       1.929   1.700 -26.640  1.00  0.00     0.025 A 
ATOM     14  C   UNL     1       2.684   0.714 -27.294  1.00  0.00     0.016 A 
ATOM     15  C   UNL     1       2.065  -0.438 -27.786  1.00  0.00     0.051 A 
ATOM     16  C   UNL     1       0.690  -0.629 -27.618  1.00  0.00     0.157 A 
ATOM     17  C   UNL     1       0.553   1.495 -26.450  1.00  0.00     0.062 A 
ATOM     18  C   UNL     1      -0.071   0.340 -26.943  1.00  0.00     0.158 A 
BRANCH  16  19
ATOM     19  O   UNL     1       0.100  -1.786 -28.124  1.00  0.00    -0.504 OA
ATOM     20  H   UNL     1      -0.899  -1.855 -28.283  1.00  0.00     0.293 HD
ENDBRANCH  16  19
BRANCH  18  21
ATOM     21  O   UNL     1      -1.440   0.152 -26.760  1.00  0.00    -0.504 OA
ATOM     22  H   UNL     1      -1.988   0.772 -26.174  1.00  0.00     0.293 HD
ENDBRANCH  18  21
ENDBRANCH   3  13
BRANCH  10  23
ATOM     23  O   UNL     1       5.129   6.639 -23.739  1.00  0.00    -0.507 OA
ATOM     24  H   UNL     1       6.111   6.889 -23.783  1.00  0.00     0.293 HD
ENDBRANCH  10  23
BRANCH  11  25
ATOM     25  O   UNL     1       3.157   8.689 -27.635  1.00  0.00    -0.508 OA
ATOM     26  H   UNL     1       2.491   9.404 -27.369  1.00  0.00     0.293 HD
ENDBRANCH  11  25
ENDBRANCH   1   2
BRANCH   1  27
ATOM     27  C   UNL     1       4.566   0.838 -24.093  1.00  0.00     0.339 C 
ATOM     28  C   UNL     1       5.081   0.809 -22.641  1.00  0.00     0.214 C 
ATOM     29  O   UNL     1       4.318  -0.466 -24.606  1.00  0.00    -0.332 OA
ATOM     30  C   UNL     1       4.116   0.043 -21.729  1.00  0.00     0.180 C 
ATOM     31  C   UNL     1       3.398  -1.234 -23.840  1.00  0.00     0.179 C 
ATOM     32  C   UNL     1       3.798  -1.332 -22.342  1.00  0.00     0.177 C 
BRANCH  28  33
ATOM     33  O   UNL     1       6.345   0.198 -22.595  1.00  0.00    -0.384 OA
ATOM     34  H   UNL     1       6.322  -0.462 -21.853  1.00  0.00     0.211 HD
ENDBRANCH  28  33
BRANCH  30  35
ATOM     35  O   UNL     1       2.948   0.798 -21.533  1.00  0.00    -0.387 OA
ATOM     36  H   UNL     1       3.028   1.612 -22.097  1.00  0.00     0.211 HD
ENDBRANCH  30  35
BRANCH  31  37
ATOM     37  C   UNL     1       1.934  -0.823 -24.110  1.00  0.00     0.191 C 
BRANCH  37  38
ATOM     38  O   UNL     1       1.109  -1.957 -24.186  1.00  0.00    -0.394 OA
ATOM     39  H   UNL     1       0.374  -1.833 -23.531  1.00  0.00     0.210 HD
ENDBRANCH  37  38
ENDBRANCH  31  37
BRANCH  32  40
ATOM     40  O   UNL     1       2.806  -1.977 -21.585  1.00  0.00    -0.387 OA
ATOM     41  H   UNL     1       1.963  -1.914 -22.105  1.00  0.00     0.211 HD
ENDBRANCH  32  40
ENDBRANCH   1  27
TORSDOF 12
ENDMDL
MODEL 9
REMARK VINA RESULT:    -5.257      2.597      7.846
REMARK INTER + INTRA:          -8.460
REMARK INTER:                  -8.029
REMARK INTRA:                  -0.431
REMARK UNBOUND:                -0.745
REMARK SMILES O=c1c(O[C@@H]2O[C@H](CO)[C@H](O)[C@H](O)[C@H]2O)c(-c2ccc(O)c(O)c2)oc2cc(O)cc(O)c12
REMARK SMILES IDX 4 1 3 2 16 3 25 4 2 5 26 6 1 7 33 8 27 9 31 10 28 11 30 12
REMARK SMILES IDX 17 13 18 14 19 15 20 16 24 17 22 18 21 19 23 21 32 23 29 25
REMARK SMILES IDX 5 27 14 28 6 29 12 30 7 31 10 32 15 33 13 35 8 37 9 38 11 40
REMARK H PARENT 21 20 23 22 32 24 29 26 15 34 13 36 9 39 11 41
REMARK Flexibility Score: inf
ROOT
ATOM      1  O   UNL     1       2.598   1.239 -26.169  1.00  0.00    -0.454 OA
ENDROOT
BRANCH   1   2
ATOM      2  C   UNL     1       2.343   2.590 -26.477  1.00  0.00     0.214 A 
ATOM      3  C   UNL     1       1.092   2.929 -27.031  1.00  0.00     0.180 A 
ATOM      4  O   UNL     1       0.792   4.199 -27.280  1.00  0.00    -0.452 OA
ATOM      5  C   UNL     1       3.271   3.627 -26.237  1.00  0.00     0.239 A 
ATOM      6  C   UNL     1       1.628   5.204 -27.057  1.00  0.00     0.146 A 
ATOM      7  O   UNL     1       4.413   3.362 -25.778  1.00  0.00    -0.285 OA
ATOM      8  C   UNL     1       2.916   4.963 -26.526  1.00  0.00     0.111 A 
ATOM      9  C   UNL     1       1.221   6.506 -27.357  1.00  0.00     0.094 A 
ATOM     10  C   UNL     1       3.786   6.059 -26.307  1.00  0.00     0.134 A 
ATOM     11  C   UNL     1       2.084   7.585 -27.138  1.00  0.00     0.123 A 
ATOM     12  C   UNL     1       3.359   7.359 -26.616  1.00  0.00     0.093 A 
BRANCH   3  13
ATOM     13  C   UNL     1       0.063   1.908 -27.311  1.00  0.00     0.025 A 
ATOM     14  C   UNL     1      -1.290   2.278 -27.347  1.00  0.00     0.016 A 
ATOM     15  C   UNL     1      -2.276   1.324 -27.615  1.00  0.00     0.051 A 
ATOM     16  C   UNL     1      -1.924  -0.006 -27.865  1.00  0.00     0.157 A 
ATOM     17  C   UNL     1       0.417   0.577 -27.588  1.00  0.00     0.062 A 
ATOM     18  C   UNL     1      -0.571  -0.382 -27.856  1.00  0.00     0.158 A 
BRANCH  16  19
ATOM     19  O   UNL     1      -2.930  -0.936 -28.125  1.00  0.00    -0.504 OA
ATOM     20  H   UNL     1      -2.839  -1.639 -28.849  1.00  0.00     0.293 HD
ENDBRANCH  16  19
BRANCH  18  21
ATOM     21  O   UNL     1      -0.210  -1.703 -28.117  1.00  0.00    -0.504 OA
ATOM     22  H   UNL     1       0.757  -2.006 -28.086  1.00  0.00     0.293 HD
ENDBRANCH  18  21
ENDBRANCH   3  13
BRANCH  10  23
ATOM     23  O   UNL     1       5.066   5.869 -25.785  1.00  0.00    -0.507 OA
ATOM     24  H   UNL     1       5.214   5.468 -24.865  1.00  0.00     0.293 HD
ENDBRANCH  10  23
BRANCH  11  25
ATOM     25  O   UNL     1       1.684   8.886 -27.436  1.00  0.00    -0.508 OA
ATOM     26  H   UNL     1       2.083   9.685 -26.960  1.00  0.00     0.293 HD
ENDBRANCH  11  25
ENDBRANCH   1   2
BRANCH   1  27
ATOM     27  C   UNL     1       2.923   0.715 -24.878  1.00  0.00     0.339 C 
ATOM     28  C   UNL     1       2.274  -0.669 -24.681  1.00  0.00     0.214 C 
ATOM     29  O   UNL     1       4.327   0.692 -24.646  1.00  0.00    -0.332 OA
ATOM     30  C   UNL     1       2.951  -1.725 -25.560  1.00  0.00     0.180 C 
ATOM     31  C   UNL     1       5.041  -0.236 -25.453  1.00  0.00     0.179 C 
ATOM     32  C   UNL     1       4.474  -1.679 -25.354  1.00  0.00     0.177 C 
BRANCH  28  33
ATOM     33  O   UNL     1       2.372  -1.054 -23.334  1.00  0.00    -0.384 OA
ATOM     34  H   UNL     1       3.336  -1.032 -23.095  1.00  0.00     0.211 HD
ENDBRANCH  28  33
BRANCH  30  35
ATOM     35  O   UNL     1       2.610  -1.512 -26.906  1.00  0.00    -0.387 OA
ATOM     36  H   UNL     1       3.458  -1.507 -27.424  1.00  0.00     0.211 HD
ENDBRANCH  30  35
BRANCH  31  37
ATOM     37  C   UNL     1       5.262   0.293 -26.887  1.00  0.00     0.191 C 
BRANCH  37  38
ATOM     38  O   UNL     1       6.512   0.925 -26.992  1.00  0.00    -0.394 OA
ATOM     39  H   UNL     1       6.789   0.878 -27.944  1.00  0.00     0.210 HD
ENDBRANCH  37  38
ENDBRANCH  31  37
BRANCH  32  40
ATOM     40  O   UNL     1       5.108  -2.544 -26.261  1.00  0.00    -0.387 OA
ATOM     41  H   UNL     1       4.402  -2.893 -26.866  1.00  0.00     0.211 HD
ENDBRANCH  32  40
ENDBRANCH   1  27
TORSDOF 12
ENDMDL
