MODEL 1
REMARK VINA RESULT:    -1.119      0.000      0.000
REMARK INTER + INTRA:          -2.102
REMARK INTER:                  -1.773
REMARK INTRA:                  -0.328
REMARK UNBOUND:                -0.328
REMARK SMILES CCCCCCCCCCCC(=O)[O-]
REMARK SMILES IDX 7 1 8 2 9 3 10 4 11 5 12 6 13 7 14 8 6 9 5 10 4 11 3 12 2 13
REMARK SMILES IDX 1 14
REMARK H PARENT
REMARK Flexibility Score: inf
ROOT
ATOM      1  C   UNL     1     -10.530 -11.023  -5.953  1.00  0.00     0.000 C 
ENDROOT
BRANCH   1   2
ATOM      2  C   UNL     1     -11.102 -12.072  -4.991  1.00  0.00     0.000 C 
BRANCH   2   3
ATOM      3  C   UNL     1     -11.107 -11.553  -3.549  1.00  0.00     0.000 C 
BRANCH   3   4
ATOM      4  C   UNL     1     -10.828 -10.043  -3.506  1.00  0.00     0.006 C 
BRANCH   4   5
ATOM      5  C   UNL     1     -10.943  -9.472  -2.087  1.00  0.00     0.053 C 
BRANCH   5   6
ATOM      6  C   UNL     1      -9.991  -8.337  -1.866  1.00  0.00     0.041 C 
ATOM      7  O   UNL     1      -8.861  -8.549  -1.352  1.00  0.00    -0.550 OA
ATOM      8  O   UNL     1     -10.365  -7.041  -2.196  1.00  0.00    -0.550 OA
ENDBRANCH   5   6
ENDBRANCH   4   5
ENDBRANCH   3   4
ENDBRANCH   2   3
ENDBRANCH   1   2
BRANCH   1   9
ATOM      9  C   UNL     1     -10.060 -11.671  -7.260  1.00  0.00     0.000 C 
BRANCH   9  10
ATOM     10  C   UNL     1     -11.114 -11.505  -8.366  1.00  0.00    -0.000 C 
BRANCH  10  11
ATOM     11  C   UNL     1     -10.519 -11.632  -9.778  1.00  0.00    -0.000 C 
BRANCH  11  12
ATOM     12  C   UNL     1     -10.791 -10.394 -10.647  1.00  0.00    -0.000 C 
BRANCH  12  13
ATOM     13  C   UNL     1      -9.939 -10.374 -11.927  1.00  0.00    -0.003 C 
ATOM     14  C   UNL     1     -10.704 -10.864 -13.156  1.00  0.00     0.004 C 
ENDBRANCH  12  13
ENDBRANCH  11  12
ENDBRANCH  10  11
ENDBRANCH   9  10
ENDBRANCH   1   9
TORSDOF 10
ENDMDL
MODEL 2
REMARK VINA RESULT:    -0.949      3.100      5.482
REMARK INTER + INTRA:          -1.832
REMARK INTER:                  -1.323
REMARK INTRA:                  -0.508
REMARK UNBOUND:                -0.328
REMARK SMILES CCCCCCCCCCCC(=O)[O-]
REMARK SMILES IDX 7 1 8 2 9 3 10 4 11 5 12 6 13 7 14 8 6 9 5 10 4 11 3 12 2 13
REMARK SMILES IDX 1 14
REMARK H PARENT
REMARK Flexibility Score: inf
ROOT
ATOM      1  C   UNL     1     -10.332  -8.024  -1.963  1.00  0.00     0.000 C 
ENDROOT
BRANCH   1   2
ATOM      2  C   UNL     1      -9.637  -8.752  -0.806  1.00  0.00     0.000 C 
BRANCH   2   3
ATOM      3  C   UNL     1      -8.901  -7.763   0.105  1.00  0.00     0.000 C 
BRANCH   3   4
ATOM      4  C   UNL     1      -7.380  -7.864  -0.087  1.00  0.00     0.006 C 
BRANCH   4   5
ATOM      5  C   UNL     1      -7.005  -8.718  -1.305  1.00  0.00     0.053 C 
BRANCH   5   6
ATOM      6  C   UNL     1      -5.540  -9.028  -1.337  1.00  0.00     0.041 C 
ATOM      7  O   UNL     1      -4.702  -8.168  -0.957  1.00  0.00    -0.550 OA
ATOM      8  O   UNL     1      -5.099 -10.255  -1.816  1.00  0.00    -0.550 OA
ENDBRANCH   5   6
ENDBRANCH   4   5
ENDBRANCH   3   4
ENDBRANCH   2   3
ENDBRANCH   1   2
BRANCH   1   9
ATOM      9  C   UNL     1     -11.086  -9.010  -2.862  1.00  0.00     0.000 C 
BRANCH   9  10
ATOM     10  C   UNL     1     -10.865 -10.458  -2.396  1.00  0.00    -0.000 C 
BRANCH  10  11
ATOM     11  C   UNL     1     -11.125 -11.486  -3.509  1.00  0.00    -0.000 C 
BRANCH  11  12
ATOM     12  C   UNL     1     -10.629 -11.008  -4.883  1.00  0.00    -0.000 C 
BRANCH  12  13
ATOM     13  C   UNL     1     -10.830 -12.064  -5.982  1.00  0.00    -0.003 C 
ATOM     14  C   UNL     1     -10.294 -11.616  -7.341  1.00  0.00     0.004 C 
ENDBRANCH  12  13
ENDBRANCH  11  12
ENDBRANCH  10  11
ENDBRANCH   9  10
ENDBRANCH   1   9
TORSDOF 10
ENDMDL
MODEL 3
REMARK VINA RESULT:     1.242     16.928     18.764
REMARK INTER + INTRA:           1.640
REMARK INTER:                   0.839
REMARK INTRA:                   0.801
REMARK UNBOUND:                -0.328
REMARK SMILES CCCCCCCCCCCC(=O)[O-]
REMARK SMILES IDX 7 1 8 2 9 3 10 4 11 5 12 6 13 7 14 8 6 9 5 10 4 11 3 12 2 13
REMARK SMILES IDX 1 14
REMARK H PARENT
REMARK Flexibility Score: inf
ROOT
ATOM      1  C   UNL     1       6.987  -5.155 -11.918  1.00  0.00     0.000 C 
ENDROOT
BRANCH   1   2
ATOM      2  C   UNL     1       6.130  -4.053 -11.282  1.00  0.00     0.000 C 
BRANCH   2   3
ATOM      3  C   UNL     1       6.530  -2.670 -11.809  1.00  0.00     0.000 C 
BRANCH   3   4
ATOM      4  C   UNL     1       6.769  -2.707 -13.326  1.00  0.00     0.006 C 
BRANCH   4   5
ATOM      5  C   UNL     1       5.902  -1.687 -14.074  1.00  0.00     0.053 C 
BRANCH   5   6
ATOM      6  C   UNL     1       4.449  -2.049 -14.022  1.00  0.00     0.041 C 
ATOM      7  O   UNL     1       3.572  -1.145 -13.995  1.00  0.00    -0.550 OA
ATOM      8  O   UNL     1       4.065  -3.383 -13.969  1.00  0.00    -0.550 OA
ENDBRANCH   5   6
ENDBRANCH   4   5
ENDBRANCH   3   4
ENDBRANCH   2   3
ENDBRANCH   1   2
BRANCH   1   9
ATOM      9  C   UNL     1       6.801  -5.189 -13.439  1.00  0.00     0.000 C 
BRANCH   9  10
ATOM     10  C   UNL     1       6.477  -6.612 -13.921  1.00  0.00    -0.000 C 
BRANCH  10  11
ATOM     11  C   UNL     1       4.969  -6.849 -14.101  1.00  0.00    -0.000 C 
BRANCH  11  12
ATOM     12  C   UNL     1       4.592  -8.338 -14.032  1.00  0.00    -0.000 C 
BRANCH  12  13
ATOM     13  C   UNL     1       3.074  -8.566 -14.109  1.00  0.00    -0.003 C 
ATOM     14  C   UNL     1       2.670  -9.997 -13.758  1.00  0.00     0.004 C 
ENDBRANCH  12  13
ENDBRANCH  11  12
ENDBRANCH  10  11
ENDBRANCH   9  10
ENDBRANCH   1   9
TORSDOF 10
ENDMDL
MODEL 4
REMARK VINA RESULT:     1.675     14.596     16.769
REMARK INTER + INTRA:           2.325
REMARK INTER:                   2.254
REMARK INTRA:                   0.071
REMARK UNBOUND:                -0.328
REMARK SMILES CCCCCCCCCCCC(=O)[O-]
REMARK SMILES IDX 7 1 8 2 9 3 10 4 11 5 12 6 13 7 14 8 6 9 5 10 4 11 3 12 2 13
REMARK SMILES IDX 1 14
REMARK H PARENT
REMARK Flexibility Score: inf
ROOT
ATOM      1  C   UNL     1       1.620  -2.963 -13.685  1.00  0.00     0.000 C 
ENDROOT
BRANCH   1   2
ATOM      2  C   UNL     1       3.084  -3.095 -14.123  1.00  0.00     0.000 C 
BRANCH   2   3
ATOM      3  C   UNL     1       4.018  -2.363 -13.153  1.00  0.00     0.000 C 
BRANCH   3   4
ATOM      4  C   UNL     1       5.213  -1.748 -13.898  1.00  0.00     0.006 C 
BRANCH   4   5
ATOM      5  C   UNL     1       6.553  -2.317 -13.414  1.00  0.00     0.053 C 
BRANCH   5   6
ATOM      6  C   UNL     1       6.452  -3.776 -13.089  1.00  0.00     0.041 C 
ATOM      7  O   UNL     1       5.996  -4.585 -13.940  1.00  0.00    -0.550 OA
ATOM      8  O   UNL     1       6.830  -4.237 -11.835  1.00  0.00    -0.550 OA
ENDBRANCH   5   6
ENDBRANCH   4   5
ENDBRANCH   3   4
ENDBRANCH   2   3
ENDBRANCH   1   2
BRANCH   1   9
ATOM      9  C   UNL     1       0.800  -4.181 -14.125  1.00  0.00     0.000 C 
BRANCH   9  10
ATOM     10  C   UNL     1      -0.697  -3.960 -13.859  1.00  0.00    -0.000 C 
BRANCH  10  11
ATOM     11  C   UNL     1      -1.392  -5.213 -13.300  1.00  0.00    -0.000 C 
BRANCH  11  12
ATOM     12  C   UNL     1      -2.623  -5.623 -14.125  1.00  0.00    -0.000 C 
BRANCH  12  13
ATOM     13  C   UNL     1      -3.639  -6.433 -13.303  1.00  0.00    -0.003 C 
ATOM     14  C   UNL     1      -4.297  -7.551 -14.109  1.00  0.00     0.004 C 
ENDBRANCH  12  13
ENDBRANCH  11  12
ENDBRANCH  10  11
ENDBRANCH   9  10
ENDBRANCH   1   9
TORSDOF 10
ENDMDL
MODEL 5
REMARK VINA RESULT:     1.694     14.779     17.005
REMARK INTER + INTRA:           2.356
REMARK INTER:                   2.798
REMARK INTRA:                  -0.442
REMARK UNBOUND:                -0.328
REMARK SMILES CCCCCCCCCCCC(=O)[O-]
REMARK SMILES IDX 7 1 8 2 9 3 10 4 11 5 12 6 13 7 14 8 6 9 5 10 4 11 3 12 2 13
REMARK SMILES IDX 1 14
REMARK H PARENT
REMARK Flexibility Score: inf
ROOT
ATOM      1  C   UNL     1       2.881  -2.448 -13.448  1.00  0.00     0.000 C 
ENDROOT
BRANCH   1   2
ATOM      2  C   UNL     1       2.112  -3.591 -14.124  1.00  0.00     0.000 C 
BRANCH   2   3
ATOM      3  C   UNL     1       0.615  -3.513 -13.804  1.00  0.00     0.000 C 
BRANCH   3   4
ATOM      4  C   UNL     1      -0.087  -4.841 -14.125  1.00  0.00     0.006 C 
BRANCH   4   5
ATOM      5  C   UNL     1      -1.610  -4.742 -13.978  1.00  0.00     0.053 C 
BRANCH   5   6
ATOM      6  C   UNL     1      -2.131  -5.687 -12.938  1.00  0.00     0.041 C 
ATOM      7  O   UNL     1      -1.498  -5.856 -11.862  1.00  0.00    -0.550 OA
ATOM      8  O   UNL     1      -3.297  -6.404 -13.171  1.00  0.00    -0.550 OA
ENDBRANCH   5   6
ENDBRANCH   4   5
ENDBRANCH   3   4
ENDBRANCH   2   3
ENDBRANCH   1   2
BRANCH   1   9
ATOM      9  C   UNL     1       4.254  -2.248 -14.099  1.00  0.00     0.000 C 
BRANCH   9  10
ATOM     10  C   UNL     1       5.295  -1.807 -13.058  1.00  0.00    -0.000 C 
BRANCH  10  11
ATOM     11  C   UNL     1       6.566  -2.672 -13.085  1.00  0.00    -0.000 C 
BRANCH  11  12
ATOM     12  C   UNL     1       6.416  -3.967 -12.271  1.00  0.00    -0.000 C 
BRANCH  12  13
ATOM     13  C   UNL     1       5.826  -5.119 -13.101  1.00  0.00    -0.003 C 
ATOM     14  C   UNL     1       6.850  -5.764 -14.033  1.00  0.00     0.004 C 
ENDBRANCH  12  13
ENDBRANCH  11  12
ENDBRANCH  10  11
ENDBRANCH   9  10
ENDBRANCH   1   9
TORSDOF 10
ENDMDL
MODEL 6
REMARK VINA RESULT:     1.861     15.055     17.163
REMARK INTER + INTRA:           2.620
REMARK INTER:                   2.930
REMARK INTRA:                  -0.310
REMARK UNBOUND:                -0.328
REMARK SMILES CCCCCCCCCCCC(=O)[O-]
REMARK SMILES IDX 7 1 8 2 9 3 10 4 11 5 12 6 13 7 14 8 6 9 5 10 4 11 3 12 2 13
REMARK SMILES IDX 1 14
REMARK H PARENT
REMARK Flexibility Score: inf
ROOT
ATOM      1  C   UNL     1       2.951  -2.635 -13.029  1.00  0.00     0.000 C 
ENDROOT
BRANCH   1   2
ATOM      2  C   UNL     1       4.165  -1.871 -13.572  1.00  0.00     0.000 C 
BRANCH   2   3
ATOM      3  C   UNL     1       5.270  -2.835 -14.018  1.00  0.00     0.000 C 
BRANCH   3   4
ATOM      4  C   UNL     1       4.970  -4.269 -13.553  1.00  0.00     0.006 C 
BRANCH   4   5
ATOM      5  C   UNL     1       6.196  -4.942 -12.922  1.00  0.00     0.053 C 
BRANCH   5   6
ATOM      6  C   UNL     1       6.786  -4.107 -11.827  1.00  0.00     0.041 C 
ATOM      7  O   UNL     1       7.809  -3.407 -12.045  1.00  0.00    -0.550 OA
ATOM      8  O   UNL     1       6.224  -4.130 -10.556  1.00  0.00    -0.550 OA
ENDBRANCH   5   6
ENDBRANCH   4   5
ENDBRANCH   3   4
ENDBRANCH   2   3
ENDBRANCH   1   2
BRANCH   1   9
ATOM      9  C   UNL     1       1.899  -2.850 -14.123  1.00  0.00     0.000 C 
BRANCH   9  10
ATOM     10  C   UNL     1       1.112  -4.147 -13.880  1.00  0.00    -0.000 C 
BRANCH  10  11
ATOM     11  C   UNL     1      -0.397  -3.981 -14.125  1.00  0.00    -0.000 C 
BRANCH  11  12
ATOM     12  C   UNL     1      -1.149  -5.322 -14.115  1.00  0.00    -0.000 C 
BRANCH  12  13
ATOM     13  C   UNL     1      -2.675  -5.141 -14.120  1.00  0.00    -0.003 C 
ATOM     14  C   UNL     1      -3.425  -6.415 -13.733  1.00  0.00     0.004 C 
ENDBRANCH  12  13
ENDBRANCH  11  12
ENDBRANCH  10  11
ENDBRANCH   9  10
ENDBRANCH   1   9
TORSDOF 10
ENDMDL
