MODEL 1
REMARK VINA RESULT:    -4.510      0.000      0.000
REMARK INTER + INTRA:          -5.074
REMARK INTER:                  -5.038
REMARK INTRA:                  -0.036
REMARK UNBOUND:                -0.036
REMARK SMILES O=C([O-])c1ccc(O)c(O)c1
REMARK SMILES IDX 4 1 11 2 5 3 9 4 6 5 7 6 2 7 1 8 3 9 10 10 8 12
REMARK H PARENT 10 11 8 13
REMARK Flexibility Score: inf
ROOT
ATOM      1  C   UNL     1      -5.600  21.373  -9.253  1.00  0.00     0.001 A 
ATOM      2  C   UNL     1      -5.359  20.001  -9.059  1.00  0.00     0.060 A 
ATOM      3  C   UNL     1      -4.889  22.306  -8.479  1.00  0.00     0.014 A 
ATOM      4  C   UNL     1      -4.424  19.569  -8.106  1.00  0.00     0.158 A 
ATOM      5  C   UNL     1      -3.958  21.876  -7.530  1.00  0.00     0.051 A 
ATOM      6  C   UNL     1      -3.721  20.512  -7.338  1.00  0.00     0.157 A 
ENDROOT
BRANCH   1   7
ATOM      7  C   UNL     1      -6.586  21.823 -10.260  1.00  0.00     0.072 C 
ATOM      8  O   UNL     1      -6.230  22.061 -11.444  1.00  0.00    -0.545 OA
ATOM      9  O   UNL     1      -7.922  21.989  -9.911  1.00  0.00    -0.545 OA
ENDBRANCH   1   7
BRANCH   4  10
ATOM     10  O   UNL     1      -4.192  18.206  -7.920  1.00  0.00    -0.504 OA
ATOM     11  H   UNL     1      -3.418  17.732  -8.371  1.00  0.00     0.293 HD
ENDBRANCH   4  10
BRANCH   6  12
ATOM     12  O   UNL     1      -2.786  20.114  -6.384  1.00  0.00    -0.504 OA
ATOM     13  H   UNL     1      -1.963  20.666  -6.175  1.00  0.00     0.293 HD
ENDBRANCH   6  12
TORSDOF 3
ENDMDL
MODEL 2
REMARK VINA RESULT:    -4.387      2.731      5.387
REMARK INTER + INTRA:          -4.935
REMARK INTER:                  -4.899
REMARK INTRA:                  -0.036
REMARK UNBOUND:                -0.036
REMARK SMILES O=C([O-])c1ccc(O)c(O)c1
REMARK SMILES IDX 4 1 11 2 5 3 9 4 6 5 7 6 2 7 1 8 3 9 10 10 8 12
REMARK H PARENT 10 11 8 13
REMARK Flexibility Score: inf
ROOT
ATOM      1  C   UNL     1      -7.475  21.342  -9.320  1.00  0.00     0.001 A 
ATOM      2  C   UNL     1      -7.720  22.270 -10.348  1.00  0.00     0.060 A 
ATOM      3  C   UNL     1      -8.327  21.321  -8.202  1.00  0.00     0.014 A 
ATOM      4  C   UNL     1      -8.799  23.164 -10.260  1.00  0.00     0.158 A 
ATOM      5  C   UNL     1      -9.402  22.211  -8.115  1.00  0.00     0.051 A 
ATOM      6  C   UNL     1      -9.642  23.133  -9.138  1.00  0.00     0.157 A 
ENDROOT
BRANCH   1   7
ATOM      7  C   UNL     1      -6.337  20.402  -9.418  1.00  0.00     0.072 C 
ATOM      8  O   UNL     1      -6.522  19.205  -9.763  1.00  0.00    -0.545 OA
ATOM      9  O   UNL     1      -5.045  20.828  -9.129  1.00  0.00    -0.545 OA
ENDBRANCH   1   7
BRANCH   4  10
ATOM     10  O   UNL     1      -9.033  24.081 -11.284  1.00  0.00    -0.504 OA
ATOM     11  H   UNL     1      -8.783  23.879 -12.245  1.00  0.00     0.293 HD
ENDBRANCH   4  10
BRANCH   6  12
ATOM     12  O   UNL     1     -10.722  24.007  -9.021  1.00  0.00    -0.504 OA
ATOM     13  H   UNL     1     -11.102  24.501  -9.820  1.00  0.00     0.293 HD
ENDBRANCH   6  12
TORSDOF 3
ENDMDL
MODEL 3
REMARK VINA RESULT:    -4.347      1.791      4.581
REMARK INTER + INTRA:          -4.891
REMARK INTER:                  -4.852
REMARK INTRA:                  -0.039
REMARK UNBOUND:                -0.036
REMARK SMILES O=C([O-])c1ccc(O)c(O)c1
REMARK SMILES IDX 4 1 11 2 5 3 9 4 6 5 7 6 2 7 1 8 3 9 10 10 8 12
REMARK H PARENT 10 11 8 13
REMARK Flexibility Score: inf
ROOT
ATOM      1  C   UNL     1      -5.861  21.032  -9.275  1.00  0.00     0.001 A 
ATOM      2  C   UNL     1      -7.095  20.662  -8.713  1.00  0.00     0.060 A 
ATOM      3  C   UNL     1      -5.839  21.996 -10.298  1.00  0.00     0.014 A 
ATOM      4  C   UNL     1      -8.289  21.244  -9.165  1.00  0.00     0.158 A 
ATOM      5  C   UNL     1      -7.028  22.577 -10.748  1.00  0.00     0.051 A 
ATOM      6  C   UNL     1      -8.253  22.207 -10.187  1.00  0.00     0.157 A 
ENDROOT
BRANCH   1   7
ATOM      7  C   UNL     1      -4.605  20.414  -8.795  1.00  0.00     0.072 C 
ATOM      8  O   UNL     1      -3.641  21.132  -8.419  1.00  0.00    -0.545 OA
ATOM      9  O   UNL     1      -4.472  19.030  -8.752  1.00  0.00    -0.545 OA
ENDBRANCH   1   7
BRANCH   4  10
ATOM     10  O   UNL     1      -9.508  20.870  -8.601  1.00  0.00    -0.504 OA
ATOM     11  H   UNL     1     -10.139  20.233  -9.073  1.00  0.00     0.293 HD
ENDBRANCH   4  10
BRANCH   6  12
ATOM     12  O   UNL     1      -9.422  22.804 -10.658  1.00  0.00    -0.504 OA
ATOM     13  H   UNL     1      -9.445  23.334 -11.521  1.00  0.00     0.293 HD
ENDBRANCH   6  12
TORSDOF 3
ENDMDL
MODEL 4
REMARK VINA RESULT:    -4.337      3.647      5.650
REMARK INTER + INTRA:          -4.880
REMARK INTER:                  -4.835
REMARK INTRA:                  -0.044
REMARK UNBOUND:                -0.036
REMARK SMILES O=C([O-])c1ccc(O)c(O)c1
REMARK SMILES IDX 4 1 11 2 5 3 9 4 6 5 7 6 2 7 1 8 3 9 10 10 8 12
REMARK H PARENT 10 11 8 13
REMARK Flexibility Score: inf
ROOT
ATOM      1  C   UNL     1      -8.851  21.702  -7.184  1.00  0.00     0.001 A 
ATOM      2  C   UNL     1      -7.867  21.428  -8.150  1.00  0.00     0.060 A 
ATOM      3  C   UNL     1     -10.128  22.110  -7.607  1.00  0.00     0.014 A 
ATOM      4  C   UNL     1      -8.153  21.561  -9.517  1.00  0.00     0.158 A 
ATOM      5  C   UNL     1     -10.414  22.242  -8.969  1.00  0.00     0.051 A 
ATOM      6  C   UNL     1      -9.432  21.970  -9.927  1.00  0.00     0.157 A 
ENDROOT
BRANCH   1   7
ATOM      7  C   UNL     1      -8.545  21.560  -5.743  1.00  0.00     0.072 C 
ATOM      8  O   UNL     1      -7.413  21.155  -5.366  1.00  0.00    -0.545 OA
ATOM      9  O   UNL     1      -9.503  21.873  -4.785  1.00  0.00    -0.545 OA
ENDBRANCH   1   7
BRANCH   4  10
ATOM     10  O   UNL     1      -7.170  21.288 -10.467  1.00  0.00    -0.504 OA
ATOM     11  H   UNL     1      -6.818  20.349 -10.614  1.00  0.00     0.293 HD
ENDBRANCH   4  10
BRANCH   6  12
ATOM     12  O   UNL     1      -9.747  22.110 -11.278  1.00  0.00    -0.504 OA
ATOM     13  H   UNL     1      -9.514  22.946 -11.800  1.00  0.00     0.293 HD
ENDBRANCH   6  12
TORSDOF 3
ENDMDL
MODEL 5
REMARK VINA RESULT:    -4.258      1.163      2.226
REMARK INTER + INTRA:          -4.791
REMARK INTER:                  -4.748
REMARK INTRA:                  -0.044
REMARK UNBOUND:                -0.036
REMARK SMILES O=C([O-])c1ccc(O)c(O)c1
REMARK SMILES IDX 4 1 11 2 5 3 9 4 6 5 7 6 2 7 1 8 3 9 10 10 8 12
REMARK H PARENT 10 11 8 13
REMARK Flexibility Score: inf
ROOT
ATOM      1  C   UNL     1      -5.840  21.772  -9.670  1.00  0.00     0.001 A 
ATOM      2  C   UNL     1      -4.697  21.872  -8.857  1.00  0.00     0.060 A 
ATOM      3  C   UNL     1      -6.413  20.507  -9.889  1.00  0.00     0.014 A 
ATOM      4  C   UNL     1      -4.135  20.726  -8.273  1.00  0.00     0.158 A 
ATOM      5  C   UNL     1      -5.854  19.366  -9.307  1.00  0.00     0.051 A 
ATOM      6  C   UNL     1      -4.717  19.468  -8.500  1.00  0.00     0.157 A 
ENDROOT
BRANCH   1   7
ATOM      7  C   UNL     1      -6.428  22.983 -10.284  1.00  0.00     0.072 C 
ATOM      8  O   UNL     1      -5.768  24.053 -10.350  1.00  0.00    -0.545 OA
ATOM      9  O   UNL     1      -7.721  22.956 -10.796  1.00  0.00    -0.545 OA
ENDBRANCH   1   7
BRANCH   4  10
ATOM     10  O   UNL     1      -3.001  20.836  -7.468  1.00  0.00    -0.504 OA
ATOM     11  H   UNL     1      -2.911  21.568  -6.774  1.00  0.00     0.293 HD
ENDBRANCH   4  10
BRANCH   6  12
ATOM     12  O   UNL     1      -4.182  18.312  -7.933  1.00  0.00    -0.504 OA
ATOM     13  H   UNL     1      -3.185  18.191  -7.799  1.00  0.00     0.293 HD
ENDBRANCH   6  12
TORSDOF 3
ENDMDL
MODEL 6
REMARK VINA RESULT:    -4.230      2.792      5.362
REMARK INTER + INTRA:          -4.760
REMARK INTER:                  -4.716
REMARK INTRA:                  -0.044
REMARK UNBOUND:                -0.036
REMARK SMILES O=C([O-])c1ccc(O)c(O)c1
REMARK SMILES IDX 4 1 11 2 5 3 9 4 6 5 7 6 2 7 1 8 3 9 10 10 8 12
REMARK H PARENT 10 11 8 13
REMARK Flexibility Score: inf
ROOT
ATOM      1  C   UNL     1      -7.570  21.729  -8.337  1.00  0.00     0.001 A 
ATOM      2  C   UNL     1      -8.963  21.632  -8.506  1.00  0.00     0.060 A 
ATOM      3  C   UNL     1      -6.785  22.202  -9.402  1.00  0.00     0.014 A 
ATOM      4  C   UNL     1      -9.561  22.001  -9.722  1.00  0.00     0.158 A 
ATOM      5  C   UNL     1      -7.380  22.569 -10.612  1.00  0.00     0.051 A 
ATOM      6  C   UNL     1      -8.765  22.472 -10.778  1.00  0.00     0.157 A 
ENDROOT
BRANCH   1   7
ATOM      7  C   UNL     1      -6.945  21.339  -7.054  1.00  0.00     0.072 C 
ATOM      8  O   UNL     1      -5.693  21.248  -6.953  1.00  0.00    -0.545 OA
ATOM      9  O   UNL     1      -7.732  21.066  -5.941  1.00  0.00    -0.545 OA
ENDBRANCH   1   7
BRANCH   4  10
ATOM     10  O   UNL     1     -10.943  21.901  -9.880  1.00  0.00    -0.504 OA
ATOM     11  H   UNL     1     -11.582  22.122  -9.125  1.00  0.00     0.293 HD
ENDBRANCH   4  10
BRANCH   6  12
ATOM     12  O   UNL     1      -9.329  22.846 -11.997  1.00  0.00    -0.504 OA
ATOM     13  H   UNL     1      -9.397  22.204 -12.777  1.00  0.00     0.293 HD
ENDBRANCH   6  12
TORSDOF 3
ENDMDL
MODEL 7
REMARK VINA RESULT:    -4.147      1.642      2.072
REMARK INTER + INTRA:          -4.668
REMARK INTER:                  -4.626
REMARK INTRA:                  -0.042
REMARK UNBOUND:                -0.036
REMARK SMILES O=C([O-])c1ccc(O)c(O)c1
REMARK SMILES IDX 4 1 11 2 5 3 9 4 6 5 7 6 2 7 1 8 3 9 10 10 8 12
REMARK H PARENT 10 11 8 13
REMARK Flexibility Score: inf
ROOT
ATOM      1  C   UNL     1      -7.142  21.760  -9.722  1.00  0.00     0.001 A 
ATOM      2  C   UNL     1      -6.735  20.452  -9.405  1.00  0.00     0.060 A 
ATOM      3  C   UNL     1      -6.203  22.804  -9.647  1.00  0.00     0.014 A 
ATOM      4  C   UNL     1      -5.411  20.191  -9.018  1.00  0.00     0.158 A 
ATOM      5  C   UNL     1      -4.885  22.544  -9.262  1.00  0.00     0.051 A 
ATOM      6  C   UNL     1      -4.483  21.242  -8.947  1.00  0.00     0.157 A 
ENDROOT
BRANCH   1   7
ATOM      7  C   UNL     1      -8.539  22.030 -10.130  1.00  0.00     0.072 C 
ATOM      8  O   UNL     1      -9.482  21.316  -9.698  1.00  0.00    -0.545 OA
ATOM      9  O   UNL     1      -8.829  23.078 -10.996  1.00  0.00    -0.545 OA
ENDBRANCH   1   7
BRANCH   4  10
ATOM     10  O   UNL     1      -5.018  18.890  -8.705  1.00  0.00    -0.504 OA
ATOM     11  H   UNL     1      -4.505  18.317  -9.365  1.00  0.00     0.293 HD
ENDBRANCH   4  10
BRANCH   6  12
ATOM     12  O   UNL     1      -3.162  21.015  -8.566  1.00  0.00    -0.504 OA
ATOM     13  H   UNL     1      -2.692  20.137  -8.754  1.00  0.00     0.293 HD
ENDBRANCH   6  12
TORSDOF 3
ENDMDL
MODEL 8
REMARK VINA RESULT:    -4.128      2.846      3.849
REMARK INTER + INTRA:          -4.646
REMARK INTER:                  -4.603
REMARK INTRA:                  -0.043
REMARK UNBOUND:                -0.036
REMARK SMILES O=C([O-])c1ccc(O)c(O)c1
REMARK SMILES IDX 4 1 11 2 5 3 9 4 6 5 7 6 2 7 1 8 3 9 10 10 8 12
REMARK H PARENT 10 11 8 13
REMARK Flexibility Score: inf
ROOT
ATOM      1  C   UNL     1      -7.338  23.499 -10.111  1.00  0.00     0.001 A 
ATOM      2  C   UNL     1      -8.323  22.631  -9.608  1.00  0.00     0.060 A 
ATOM      3  C   UNL     1      -6.056  22.990 -10.385  1.00  0.00     0.014 A 
ATOM      4  C   UNL     1      -8.033  21.277  -9.381  1.00  0.00     0.158 A 
ATOM      5  C   UNL     1      -5.767  21.641 -10.160  1.00  0.00     0.051 A 
ATOM      6  C   UNL     1      -6.749  20.781  -9.659  1.00  0.00     0.157 A 
ENDROOT
BRANCH   1   7
ATOM      7  C   UNL     1      -7.649  24.926 -10.348  1.00  0.00     0.072 C 
ATOM      8  O   UNL     1      -6.724  25.776 -10.440  1.00  0.00    -0.545 OA
ATOM      9  O   UNL     1      -8.968  25.348 -10.473  1.00  0.00    -0.545 OA
ENDBRANCH   1   7
BRANCH   4  10
ATOM     10  O   UNL     1      -9.018  20.425  -8.882  1.00  0.00    -0.504 OA
ATOM     11  H   UNL     1     -10.003  20.656  -8.945  1.00  0.00     0.293 HD
ENDBRANCH   4  10
BRANCH   6  12
ATOM     12  O   UNL     1      -6.431  19.441  -9.445  1.00  0.00    -0.504 OA
ATOM     13  H   UNL     1      -5.551  19.157  -9.030  1.00  0.00     0.293 HD
ENDBRANCH   6  12
TORSDOF 3
ENDMDL
MODEL 9
REMARK VINA RESULT:    -4.115      3.389      5.212
REMARK INTER + INTRA:          -4.632
REMARK INTER:                  -4.591
REMARK INTRA:                  -0.042
REMARK UNBOUND:                -0.036
REMARK SMILES O=C([O-])c1ccc(O)c(O)c1
REMARK SMILES IDX 4 1 11 2 5 3 9 4 6 5 7 6 2 7 1 8 3 9 10 10 8 12
REMARK H PARENT 10 11 8 13
REMARK Flexibility Score: inf
ROOT
ATOM      1  C   UNL     1      -8.654  21.738  -8.107  1.00  0.00     0.001 A 
ATOM      2  C   UNL     1      -9.185  22.525  -9.144  1.00  0.00     0.060 A 
ATOM      3  C   UNL     1      -7.434  21.071  -8.313  1.00  0.00     0.014 A 
ATOM      4  C   UNL     1      -8.509  22.642 -10.369  1.00  0.00     0.158 A 
ATOM      5  C   UNL     1      -6.759  21.189  -9.532  1.00  0.00     0.051 A 
ATOM      6  C   UNL     1      -7.291  21.971 -10.562  1.00  0.00     0.157 A 
ENDROOT
BRANCH   1   7
ATOM      7  C   UNL     1      -9.371  21.618  -6.818  1.00  0.00     0.072 C 
ATOM      8  O   UNL     1     -10.630  21.635  -6.782  1.00  0.00    -0.545 OA
ATOM      9  O   UNL     1      -8.663  21.484  -5.628  1.00  0.00    -0.545 OA
ENDBRANCH   1   7
BRANCH   4  10
ATOM     10  O   UNL     1      -9.044  23.424 -11.392  1.00  0.00    -0.504 OA
ATOM     11  H   UNL     1      -8.469  23.780 -12.146  1.00  0.00     0.293 HD
ENDBRANCH   4  10
BRANCH   6  12
ATOM     12  O   UNL     1      -6.595  22.068 -11.766  1.00  0.00    -0.504 OA
ATOM     13  H   UNL     1      -6.461  22.953 -12.239  1.00  0.00     0.293 HD
ENDBRANCH   6  12
TORSDOF 3
ENDMDL
