MODEL 1
REMARK VINA RESULT:    -2.976      0.000      0.000
REMARK INTER + INTRA:          -3.237
REMARK INTER:                  -3.237
REMARK INTRA:                   0.000
REMARK UNBOUND:                 0.000
REMARK SMILES [NH3+]CC(=O)[O-]
REMARK SMILES IDX 2 1 1 2 3 6 4 7 5 8
REMARK H PARENT 1 3 1 4 1 5
REMARK Flexibility Score: inf
ROOT
ATOM      1  C   UNL     1      33.942  -4.799  24.530  1.00  0.00     0.312 C 
ENDROOT
BRANCH   1   2
ATOM      2  N   UNL     1      35.016  -5.633  25.066  1.00  0.00    -0.353 N 
ATOM      3  H   UNL     1      34.679  -6.156  25.907  1.00  0.00     0.344 HD
ATOM      4  H   UNL     1      35.816  -5.022  25.346  1.00  0.00     0.344 HD
ATOM      5  H   UNL     1      35.345  -6.309  24.337  1.00  0.00     0.344 HD
ENDBRANCH   1   2
BRANCH   1   6
ATOM      6  C   UNL     1      34.413  -3.391  24.337  1.00  0.00     0.096 C 
ATOM      7  O   UNL     1      33.666  -2.425  24.647  1.00  0.00    -0.544 OA
ATOM      8  O   UNL     1      35.655  -3.144  23.767  1.00  0.00    -0.544 OA
ENDBRANCH   1   6
TORSDOF 2
ENDMDL
MODEL 2
REMARK VINA RESULT:    -2.957      0.092      1.451
REMARK INTER + INTRA:          -3.216
REMARK INTER:                  -3.216
REMARK INTRA:                   0.000
REMARK UNBOUND:                 0.000
REMARK SMILES [NH3+]CC(=O)[O-]
REMARK SMILES IDX 2 1 1 2 3 6 4 7 5 8
REMARK H PARENT 1 3 1 4 1 5
REMARK Flexibility Score: inf
ROOT
ATOM      1  C   UNL     1      34.030  -4.806  24.462  1.00  0.00     0.312 C 
ENDROOT
BRANCH   1   2
ATOM      2  N   UNL     1      35.096  -5.616  25.051  1.00  0.00    -0.353 N 
ATOM      3  H   UNL     1      35.342  -6.406  24.411  1.00  0.00     0.344 HD
ATOM      4  H   UNL     1      34.764  -6.009  25.961  1.00  0.00     0.344 HD
ATOM      5  H   UNL     1      35.942  -5.025  25.225  1.00  0.00     0.344 HD
ENDBRANCH   1   2
BRANCH   1   6
ATOM      6  C   UNL     1      34.488  -3.395  24.262  1.00  0.00     0.096 C 
ATOM      7  O   UNL     1      35.615  -3.161  23.752  1.00  0.00    -0.544 OA
ATOM      8  O   UNL     1      33.693  -2.338  24.687  1.00  0.00    -0.544 OA
ENDBRANCH   1   6
TORSDOF 2
ENDMDL
MODEL 3
REMARK VINA RESULT:    -2.700     15.836     16.181
REMARK INTER + INTRA:          -2.937
REMARK INTER:                  -2.937
REMARK INTRA:                   0.000
REMARK UNBOUND:                 0.000
REMARK SMILES [NH3+]CC(=O)[O-]
REMARK SMILES IDX 2 1 1 2 3 6 4 7 5 8
REMARK H PARENT 1 3 1 4 1 5
REMARK Flexibility Score: inf
ROOT
ATOM      1  C   UNL     1      24.271   3.752  13.953  1.00  0.00     0.312 C 
ENDROOT
BRANCH   1   2
ATOM      2  N   UNL     1      25.337   2.773  14.156  1.00  0.00    -0.353 N 
ATOM      3  H   UNL     1      25.040   1.839  13.791  1.00  0.00     0.344 HD
ATOM      4  H   UNL     1      25.534   2.690  15.179  1.00  0.00     0.344 HD
ATOM      5  H   UNL     1      26.209   3.084  13.667  1.00  0.00     0.344 HD
ENDBRANCH   1   2
BRANCH   1   6
ATOM      6  C   UNL     1      24.098   4.606  15.172  1.00  0.00     0.096 C 
ATOM      7  O   UNL     1      24.047   5.859  15.065  1.00  0.00    -0.544 OA
ATOM      8  O   UNL     1      24.046   4.020  16.430  1.00  0.00    -0.544 OA
ENDBRANCH   1   6
TORSDOF 2
ENDMDL
MODEL 4
REMARK VINA RESULT:    -2.668     16.062     16.192
REMARK INTER + INTRA:          -2.901
REMARK INTER:                  -2.901
REMARK INTRA:                   0.000
REMARK UNBOUND:                 0.000
REMARK SMILES [NH3+]CC(=O)[O-]
REMARK SMILES IDX 2 1 1 2 3 6 4 7 5 8
REMARK H PARENT 1 3 1 4 1 5
REMARK Flexibility Score: inf
ROOT
ATOM      1  C   UNL     1      23.993   4.696  16.077  1.00  0.00     0.312 C 
ENDROOT
BRANCH   1   2
ATOM      2  N   UNL     1      24.509   3.643  16.950  1.00  0.00    -0.353 N 
ATOM      3  H   UNL     1      25.012   2.922  16.383  1.00  0.00     0.344 HD
ATOM      4  H   UNL     1      23.709   3.187  17.444  1.00  0.00     0.344 HD
ATOM      5  H   UNL     1      25.159   4.052  17.660  1.00  0.00     0.344 HD
ENDBRANCH   1   2
BRANCH   1   6
ATOM      6  C   UNL     1      24.172   4.324  14.637  1.00  0.00     0.096 C 
ATOM      7  O   UNL     1      24.857   5.055  13.875  1.00  0.00    -0.544 OA
ATOM      8  O   UNL     1      23.539   3.198  14.126  1.00  0.00    -0.544 OA
ENDBRANCH   1   6
TORSDOF 2
ENDMDL
MODEL 5
REMARK VINA RESULT:    -2.647     14.751     14.961
REMARK INTER + INTRA:          -2.879
REMARK INTER:                  -2.879
REMARK INTRA:                   0.000
REMARK UNBOUND:                 0.000
REMARK SMILES [NH3+]CC(=O)[O-]
REMARK SMILES IDX 2 1 1 2 3 6 4 7 5 8
REMARK H PARENT 1 3 1 4 1 5
REMARK Flexibility Score: inf
ROOT
ATOM      1  C   UNL     1      22.231  -1.334  31.121  1.00  0.00     0.312 C 
ENDROOT
BRANCH   1   2
ATOM      2  N   UNL     1      21.537  -1.259  29.837  1.00  0.00    -0.353 N 
ATOM      3  H   UNL     1      20.686  -0.656  29.924  1.00  0.00     0.344 HD
ATOM      4  H   UNL     1      21.241  -2.220  29.552  1.00  0.00     0.344 HD
ATOM      5  H   UNL     1      22.174  -0.869  29.105  1.00  0.00     0.344 HD
ENDBRANCH   1   2
BRANCH   1   6
ATOM      6  C   UNL     1      21.696  -2.463  31.946  1.00  0.00     0.096 C 
ATOM      7  O   UNL     1      21.826  -2.450  33.198  1.00  0.00    -0.544 OA
ATOM      8  O   UNL     1      21.098  -3.555  31.328  1.00  0.00    -0.544 OA
ENDBRANCH   1   6
TORSDOF 2
ENDMDL
MODEL 6
REMARK VINA RESULT:    -2.600      3.027      3.629
REMARK INTER + INTRA:          -2.828
REMARK INTER:                  -2.828
REMARK INTRA:                   0.000
REMARK UNBOUND:                 0.000
REMARK SMILES [NH3+]CC(=O)[O-]
REMARK SMILES IDX 2 1 1 2 3 6 4 7 5 8
REMARK H PARENT 1 3 1 4 1 5
REMARK Flexibility Score: inf
ROOT
ATOM      1  C   UNL     1      35.672  -0.884  24.483  1.00  0.00     0.312 C 
ENDROOT
BRANCH   1   2
ATOM      2  N   UNL     1      36.339  -0.166  23.398  1.00  0.00    -0.353 N 
ATOM      3  H   UNL     1      36.531  -0.818  22.602  1.00  0.00     0.344 HD
ATOM      4  H   UNL     1      37.247   0.216  23.748  1.00  0.00     0.344 HD
ATOM      5  H   UNL     1      35.741   0.627  23.070  1.00  0.00     0.344 HD
ENDBRANCH   1   2
BRANCH   1   6
ATOM      6  C   UNL     1      35.305  -2.270  24.052  1.00  0.00     0.096 C 
ATOM      7  O   UNL     1      36.183  -3.039  23.579  1.00  0.00    -0.544 OA
ATOM      8  O   UNL     1      33.985  -2.696  24.126  1.00  0.00    -0.544 OA
ENDBRANCH   1   6
TORSDOF 2
ENDMDL
MODEL 7
REMARK VINA RESULT:    -2.535      2.052      2.385
REMARK INTER + INTRA:          -2.757
REMARK INTER:                  -2.757
REMARK INTRA:                   0.000
REMARK UNBOUND:                 0.000
REMARK SMILES [NH3+]CC(=O)[O-]
REMARK SMILES IDX 2 1 1 2 3 6 4 7 5 8
REMARK H PARENT 1 3 1 4 1 5
REMARK Flexibility Score: inf
ROOT
ATOM      1  C   UNL     1      33.907  -2.322  24.188  1.00  0.00     0.312 C 
ENDROOT
BRANCH   1   2
ATOM      2  N   UNL     1      33.580  -3.733  24.387  1.00  0.00    -0.353 N 
ATOM      3  H   UNL     1      32.542  -3.861  24.406  1.00  0.00     0.344 HD
ATOM      4  H   UNL     1      33.977  -4.051  25.300  1.00  0.00     0.344 HD
ATOM      5  H   UNL     1      33.993  -4.310  23.618  1.00  0.00     0.344 HD
ENDBRANCH   1   2
BRANCH   1   6
ATOM      6  C   UNL     1      35.386  -2.105  24.277  1.00  0.00     0.096 C 
ATOM      7  O   UNL     1      36.166  -2.747  23.524  1.00  0.00    -0.544 OA
ATOM      8  O   UNL     1      35.906  -1.234  25.225  1.00  0.00    -0.544 OA
ENDBRANCH   1   6
TORSDOF 2
ENDMDL
MODEL 8
REMARK VINA RESULT:    -2.458      2.810      3.159
REMARK INTER + INTRA:          -2.673
REMARK INTER:                  -2.673
REMARK INTRA:                   0.000
REMARK UNBOUND:                 0.000
REMARK SMILES [NH3+]CC(=O)[O-]
REMARK SMILES IDX 2 1 1 2 3 6 4 7 5 8
REMARK H PARENT 1 3 1 4 1 5
REMARK Flexibility Score: inf
ROOT
ATOM      1  C   UNL     1      35.215  -2.519  23.984  1.00  0.00     0.312 C 
ENDROOT
BRANCH   1   2
ATOM      2  N   UNL     1      33.837  -2.271  23.561  1.00  0.00    -0.353 N 
ATOM      3  H   UNL     1      33.829  -1.803  22.625  1.00  0.00     0.344 HD
ATOM      4  H   UNL     1      33.373  -1.645  24.257  1.00  0.00     0.344 HD
ATOM      5  H   UNL     1      33.309  -3.173  23.510  1.00  0.00     0.344 HD
ENDBRANCH   1   2
BRANCH   1   6
ATOM      6  C   UNL     1      35.832  -1.270  24.532  1.00  0.00     0.096 C 
ATOM      7  O   UNL     1      36.418  -0.463  23.763  1.00  0.00    -0.544 OA
ATOM      8  O   UNL     1      35.803  -1.021  25.898  1.00  0.00    -0.544 OA
ENDBRANCH   1   6
TORSDOF 2
ENDMDL
MODEL 9
REMARK VINA RESULT:    -2.437      2.619      2.811
REMARK INTER + INTRA:          -2.650
REMARK INTER:                  -2.650
REMARK INTRA:                   0.000
REMARK UNBOUND:                 0.000
REMARK SMILES [NH3+]CC(=O)[O-]
REMARK SMILES IDX 2 1 1 2 3 6 4 7 5 8
REMARK H PARENT 1 3 1 4 1 5
REMARK Flexibility Score: inf
ROOT
ATOM      1  C   UNL     1      33.875  -1.813  24.100  1.00  0.00     0.312 C 
ENDROOT
BRANCH   1   2
ATOM      2  N   UNL     1      34.689  -0.622  23.862  1.00  0.00    -0.353 N 
ATOM      3  H   UNL     1      35.694  -0.891  23.753  1.00  0.00     0.344 HD
ATOM      4  H   UNL     1      34.598   0.023  24.680  1.00  0.00     0.344 HD
ATOM      5  H   UNL     1      34.359  -0.128  23.001  1.00  0.00     0.344 HD
ENDBRANCH   1   2
BRANCH   1   6
ATOM      6  C   UNL     1      34.729  -3.043  24.106  1.00  0.00     0.096 C 
ATOM      7  O   UNL     1      34.273  -4.128  24.555  1.00  0.00    -0.544 OA
ATOM      8  O   UNL     1      36.044  -2.980  23.663  1.00  0.00    -0.544 OA
ENDBRANCH   1   6
TORSDOF 2
ENDMDL
