MODEL 1
REMARK VINA RESULT:    -5.842      0.000      0.000
REMARK INTER + INTRA:         -11.800
REMARK INTER:                 -10.282
REMARK INTRA:                  -1.518
REMARK UNBOUND:                -1.518
REMARK SMILES CCCCCCCCCCCCCCC(=O)[O-]
REMARK SMILES IDX 9 1 10 2 11 3 12 4 13 5 14 6 15 7 16 8 17 9 8 10 7 11 6 12
REMARK SMILES IDX 5 13 4 14 3 15 2 16 1 17
REMARK H PARENT
REMARK Flexibility Score: inf
ROOT
ATOM      1  C   UNL     1      14.360   0.380  20.244  1.00  0.00     0.000 C 
ENDROOT
BRANCH   1   2
ATOM      2  C   UNL     1      15.111  -0.950  20.414  1.00  0.00     0.000 C 
BRANCH   2   3
ATOM      3  C   UNL     1      15.696  -1.472  19.089  1.00  0.00     0.000 C 
BRANCH   3   4
ATOM      4  C   UNL     1      17.097  -0.890  18.799  1.00  0.00     0.000 C 
BRANCH   4   5
ATOM      5  C   UNL     1      17.184  -0.134  17.460  1.00  0.00     0.006 C 
BRANCH   5   6
ATOM      6  C   UNL     1      18.050  -0.835  16.402  1.00  0.00     0.053 C 
BRANCH   6   7
ATOM      7  C   UNL     1      17.221  -1.409  15.294  1.00  0.00     0.041 C 
ATOM      8  O   UNL     1      16.167  -2.048  15.557  1.00  0.00    -0.550 OA
ATOM      9  O   UNL     1      17.597  -1.222  13.970  1.00  0.00    -0.550 OA
ENDBRANCH   6   7
ENDBRANCH   5   6
ENDBRANCH   4   5
ENDBRANCH   3   4
ENDBRANCH   2   3
ENDBRANCH   1   2
BRANCH   1  10
ATOM     10  C   UNL     1      13.686   0.505  18.865  1.00  0.00     0.000 C 
BRANCH  10  11
ATOM     11  C   UNL     1      13.550   1.964  18.402  1.00  0.00    -0.000 C 
BRANCH  11  12
ATOM     12  C   UNL     1      13.125   2.077  16.927  1.00  0.00    -0.000 C 
BRANCH  12  13
ATOM     13  C   UNL     1      13.678   0.932  16.063  1.00  0.00    -0.000 C 
BRANCH  13  14
ATOM     14  C   UNL     1      14.748   1.402  15.066  1.00  0.00    -0.000 C 
BRANCH  14  15
ATOM     15  C   UNL     1      14.559   0.722  13.702  1.00  0.00    -0.000 C 
BRANCH  15  16
ATOM     16  C   UNL     1      15.235   1.495  12.558  1.00  0.00    -0.003 C 
ATOM     17  C   UNL     1      15.656   0.591  11.401  1.00  0.00     0.004 C 
ENDBRANCH  15  16
ENDBRANCH  14  15
ENDBRANCH  13  14
ENDBRANCH  12  13
ENDBRANCH  11  12
ENDBRANCH  10  11
ENDBRANCH   1  10
TORSDOF 13
ENDMDL
MODEL 2
REMARK VINA RESULT:    -5.833      2.219      5.584
REMARK INTER + INTRA:         -11.784
REMARK INTER:                 -10.443
REMARK INTRA:                  -1.340
REMARK UNBOUND:                -1.518
REMARK SMILES CCCCCCCCCCCCCCC(=O)[O-]
REMARK SMILES IDX 9 1 10 2 11 3 12 4 13 5 14 6 15 7 16 8 17 9 8 10 7 11 6 12
REMARK SMILES IDX 5 13 4 14 3 15 2 16 1 17
REMARK H PARENT
REMARK Flexibility Score: inf
ROOT
ATOM      1  C   UNL     1      15.142   1.533  14.276  1.00  0.00     0.000 C 
ENDROOT
BRANCH   1   2
ATOM      2  C   UNL     1      13.826   0.850  14.685  1.00  0.00     0.000 C 
BRANCH   2   3
ATOM      3  C   UNL     1      12.914   1.772  15.513  1.00  0.00     0.000 C 
BRANCH   3   4
ATOM      4  C   UNL     1      13.175   1.642  17.030  1.00  0.00     0.000 C 
BRANCH   4   5
ATOM      5  C   UNL     1      13.807   0.297  17.432  1.00  0.00     0.006 C 
BRANCH   5   6
ATOM      6  C   UNL     1      13.437  -0.169  18.848  1.00  0.00     0.053 C 
BRANCH   6   7
ATOM      7  C   UNL     1      14.566   0.028  19.813  1.00  0.00     0.041 C 
ATOM      8  O   UNL     1      14.387   0.689  20.870  1.00  0.00    -0.550 OA
ATOM      9  O   UNL     1      15.810  -0.536  19.558  1.00  0.00    -0.550 OA
ENDBRANCH   6   7
ENDBRANCH   5   6
ENDBRANCH   4   5
ENDBRANCH   3   4
ENDBRANCH   2   3
ENDBRANCH   1   2
BRANCH   1  10
ATOM     10  C   UNL     1      15.148   1.963  12.798  1.00  0.00     0.000 C 
BRANCH  10  11
ATOM     11  C   UNL     1      15.343   0.779  11.837  1.00  0.00    -0.000 C 
BRANCH  11  12
ATOM     12  C   UNL     1      16.799   0.641  11.359  1.00  0.00    -0.000 C 
BRANCH  12  13
ATOM     13  C   UNL     1      17.336  -0.792  11.503  1.00  0.00    -0.000 C 
BRANCH  13  14
ATOM     14  C   UNL     1      17.918  -1.073  12.897  1.00  0.00    -0.000 C 
BRANCH  14  15
ATOM     15  C   UNL     1      16.861  -1.707  13.813  1.00  0.00    -0.000 C 
BRANCH  15  16
ATOM     16  C   UNL     1      17.164  -1.490  15.304  1.00  0.00    -0.003 C 
ATOM     17  C   UNL     1      16.185  -2.224  16.219  1.00  0.00     0.004 C 
ENDBRANCH  15  16
ENDBRANCH  14  15
ENDBRANCH  13  14
ENDBRANCH  12  13
ENDBRANCH  11  12
ENDBRANCH  10  11
ENDBRANCH   1  10
TORSDOF 13
ENDMDL
MODEL 3
REMARK VINA RESULT:    -5.794      1.807      3.410
REMARK INTER + INTRA:         -11.716
REMARK INTER:                 -10.281
REMARK INTRA:                  -1.435
REMARK UNBOUND:                -1.518
REMARK SMILES CCCCCCCCCCCCCCC(=O)[O-]
REMARK SMILES IDX 9 1 10 2 11 3 12 4 13 5 14 6 15 7 16 8 17 9 8 10 7 11 6 12
REMARK SMILES IDX 5 13 4 14 3 15 2 16 1 17
REMARK H PARENT
REMARK Flexibility Score: inf
ROOT
ATOM      1  C   UNL     1      14.364   1.745  17.327  1.00  0.00     0.000 C 
ENDROOT
BRANCH   1   2
ATOM      2  C   UNL     1      13.294   0.644  17.403  1.00  0.00     0.000 C 
BRANCH   2   3
ATOM      3  C   UNL     1      13.337  -0.131  18.732  1.00  0.00     0.000 C 
BRANCH   3   4
ATOM      4  C   UNL     1      14.649   0.116  19.509  1.00  0.00     0.000 C 
BRANCH   4   5
ATOM      5  C   UNL     1      15.491  -1.157  19.714  1.00  0.00     0.006 C 
BRANCH   5   6
ATOM      6  C   UNL     1      16.392  -1.509  18.520  1.00  0.00     0.053 C 
BRANCH   6   7
ATOM      7  C   UNL     1      16.060  -2.853  17.947  1.00  0.00     0.041 C 
ATOM      8  O   UNL     1      16.981  -3.635  17.593  1.00  0.00    -0.550 OA
ATOM      9  O   UNL     1      14.735  -3.253  17.825  1.00  0.00    -0.550 OA
ENDBRANCH   6   7
ENDBRANCH   5   6
ENDBRANCH   4   5
ENDBRANCH   3   4
ENDBRANCH   2   3
ENDBRANCH   1   2
BRANCH   1  10
ATOM     10  C   UNL     1      15.267   1.605  16.088  1.00  0.00     0.000 C 
BRANCH  10  11
ATOM     11  C   UNL     1      14.994   0.314  15.298  1.00  0.00    -0.000 C 
BRANCH  11  12
ATOM     12  C   UNL     1      14.381   0.589  13.914  1.00  0.00    -0.000 C 
BRANCH  12  13
ATOM     13  C   UNL     1      15.271   1.487  13.040  1.00  0.00    -0.000 C 
BRANCH  13  14
ATOM     14  C   UNL     1      15.507   0.907  11.637  1.00  0.00    -0.000 C 
BRANCH  14  15
ATOM     15  C   UNL     1      17.006   0.701  11.376  1.00  0.00    -0.000 C 
BRANCH  15  16
ATOM     16  C   UNL     1      17.407  -0.783  11.371  1.00  0.00    -0.003 C 
ATOM     17  C   UNL     1      17.705  -1.319  12.771  1.00  0.00     0.004 C 
ENDBRANCH  15  16
ENDBRANCH  14  15
ENDBRANCH  13  14
ENDBRANCH  12  13
ENDBRANCH  11  12
ENDBRANCH  10  11
ENDBRANCH   1  10
TORSDOF 13
ENDMDL
MODEL 4
REMARK VINA RESULT:    -5.785      1.509      5.004
REMARK INTER + INTRA:         -11.700
REMARK INTER:                 -10.210
REMARK INTRA:                  -1.490
REMARK UNBOUND:                -1.518
REMARK SMILES CCCCCCCCCCCCCCC(=O)[O-]
REMARK SMILES IDX 9 1 10 2 11 3 12 4 13 5 14 6 15 7 16 8 17 9 8 10 7 11 6 12
REMARK SMILES IDX 5 13 4 14 3 15 2 16 1 17
REMARK H PARENT
REMARK Flexibility Score: inf
ROOT
ATOM      1  C   UNL     1      15.106   1.538  16.337  1.00  0.00     0.000 C 
ENDROOT
BRANCH   1   2
ATOM      2  C   UNL     1      15.649   0.459  15.386  1.00  0.00     0.000 C 
BRANCH   2   3
ATOM      3  C   UNL     1      14.809   0.323  14.104  1.00  0.00     0.000 C 
BRANCH   3   4
ATOM      4  C   UNL     1      15.120   1.438  13.081  1.00  0.00     0.000 C 
BRANCH   4   5
ATOM      5  C   UNL     1      15.434   0.907  11.671  1.00  0.00     0.006 C 
BRANCH   5   6
ATOM      6  C   UNL     1      16.936   0.824  11.354  1.00  0.00     0.053 C 
BRANCH   6   7
ATOM      7  C   UNL     1      17.372  -0.583  11.083  1.00  0.00     0.041 C 
ATOM      8  O   UNL     1      17.546  -0.975   9.899  1.00  0.00    -0.550 OA
ATOM      9  O   UNL     1      17.608  -1.457  12.137  1.00  0.00    -0.550 OA
ENDBRANCH   6   7
ENDBRANCH   5   6
ENDBRANCH   4   5
ENDBRANCH   3   4
ENDBRANCH   2   3
ENDBRANCH   1   2
BRANCH   1  10
ATOM     10  C   UNL     1      13.605   1.364  16.631  1.00  0.00     0.000 C 
BRANCH  10  11
ATOM     11  C   UNL     1      13.283   1.443  18.132  1.00  0.00    -0.000 C 
BRANCH  11  12
ATOM     12  C   UNL     1      13.492   0.098  18.851  1.00  0.00    -0.000 C 
BRANCH  12  13
ATOM     13  C   UNL     1      14.610   0.159  19.904  1.00  0.00    -0.000 C 
BRANCH  13  14
ATOM     14  C   UNL     1      15.538  -1.066  19.858  1.00  0.00    -0.000 C 
BRANCH  14  15
ATOM     15  C   UNL     1      16.714  -0.825  18.902  1.00  0.00    -0.000 C 
BRANCH  15  16
ATOM     16  C   UNL     1      16.974  -2.021  17.971  1.00  0.00    -0.003 C 
ATOM     17  C   UNL     1      15.684  -2.672  17.473  1.00  0.00     0.004 C 
ENDBRANCH  15  16
ENDBRANCH  14  15
ENDBRANCH  13  14
ENDBRANCH  12  13
ENDBRANCH  11  12
ENDBRANCH  10  11
ENDBRANCH   1  10
TORSDOF 13
ENDMDL
MODEL 5
REMARK VINA RESULT:    -5.737      1.301      4.381
REMARK INTER + INTRA:         -11.616
REMARK INTER:                  -9.914
REMARK INTRA:                  -1.702
REMARK UNBOUND:                -1.518
REMARK SMILES CCCCCCCCCCCCCCC(=O)[O-]
REMARK SMILES IDX 9 1 10 2 11 3 12 4 13 5 14 6 15 7 16 8 17 9 8 10 7 11 6 12
REMARK SMILES IDX 5 13 4 14 3 15 2 16 1 17
REMARK H PARENT
REMARK Flexibility Score: inf
ROOT
ATOM      1  C   UNL     1      13.144   2.460  18.055  1.00  0.00     0.000 C 
ENDROOT
BRANCH   1   2
ATOM      2  C   UNL     1      12.918   1.961  16.618  1.00  0.00     0.000 C 
BRANCH   2   3
ATOM      3  C   UNL     1      14.233   1.806  15.833  1.00  0.00     0.000 C 
BRANCH   3   4
ATOM      4  C   UNL     1      14.001   1.244  14.413  1.00  0.00     0.000 C 
BRANCH   4   5
ATOM      5  C   UNL     1      15.172   1.511  13.448  1.00  0.00     0.006 C 
BRANCH   5   6
ATOM      6  C   UNL     1      15.240   0.536  12.263  1.00  0.00     0.053 C 
BRANCH   6   7
ATOM      7  C   UNL     1      16.653   0.242  11.863  1.00  0.00     0.041 C 
ATOM      8  O   UNL     1      17.230   0.958  11.002  1.00  0.00    -0.550 OA
ATOM      9  O   UNL     1      17.343  -0.809  12.454  1.00  0.00    -0.550 OA
ENDBRANCH   6   7
ENDBRANCH   5   6
ENDBRANCH   4   5
ENDBRANCH   3   4
ENDBRANCH   2   3
ENDBRANCH   1   2
BRANCH   1  10
ATOM     10  C   UNL     1      13.930   1.452  18.912  1.00  0.00     0.000 C 
BRANCH  10  11
ATOM     11  C   UNL     1      13.497  -0.002  18.663  1.00  0.00    -0.000 C 
BRANCH  11  12
ATOM     12  C   UNL     1      14.270  -1.005  19.537  1.00  0.00    -0.000 C 
BRANCH  12  13
ATOM     13  C   UNL     1      15.746  -0.618  19.717  1.00  0.00    -0.000 C 
BRANCH  13  14
ATOM     14  C   UNL     1      16.648  -1.173  18.604  1.00  0.00    -0.000 C 
BRANCH  14  15
ATOM     15  C   UNL     1      17.089  -0.055  17.648  1.00  0.00    -0.000 C 
BRANCH  15  16
ATOM     16  C   UNL     1      17.086  -0.500  16.177  1.00  0.00    -0.003 C 
ATOM     17  C   UNL     1      16.001  -1.532  15.873  1.00  0.00     0.004 C 
ENDBRANCH  15  16
ENDBRANCH  14  15
ENDBRANCH  13  14
ENDBRANCH  12  13
ENDBRANCH  11  12
ENDBRANCH  10  11
ENDBRANCH   1  10
TORSDOF 13
ENDMDL
MODEL 6
REMARK VINA RESULT:    -5.719      1.265      2.111
REMARK INTER + INTRA:         -11.584
REMARK INTER:                 -10.169
REMARK INTRA:                  -1.415
REMARK UNBOUND:                -1.518
REMARK SMILES CCCCCCCCCCCCCCC(=O)[O-]
REMARK SMILES IDX 9 1 10 2 11 3 12 4 13 5 14 6 15 7 16 8 17 9 8 10 7 11 6 12
REMARK SMILES IDX 5 13 4 14 3 15 2 16 1 17
REMARK H PARENT
REMARK Flexibility Score: inf
ROOT
ATOM      1  C   UNL     1      13.241  -0.227  17.946  1.00  0.00     0.000 C 
ENDROOT
BRANCH   1   2
ATOM      2  C   UNL     1      13.454  -0.685  19.398  1.00  0.00     0.000 C 
BRANCH   2   3
ATOM      3  C   UNL     1      14.725  -0.086  20.025  1.00  0.00     0.000 C 
BRANCH   3   4
ATOM      4  C   UNL     1      15.940  -1.031  19.897  1.00  0.00     0.000 C 
BRANCH   4   5
ATOM      5  C   UNL     1      16.762  -0.805  18.615  1.00  0.00     0.006 C 
BRANCH   5   6
ATOM      6  C   UNL     1      17.205  -2.101  17.919  1.00  0.00     0.053 C 
BRANCH   6   7
ATOM      7  C   UNL     1      16.127  -2.659  17.041  1.00  0.00     0.041 C 
ATOM      8  O   UNL     1      16.195  -2.522  15.791  1.00  0.00    -0.550 OA
ATOM      9  O   UNL     1      15.059  -3.350  17.599  1.00  0.00    -0.550 OA
ENDBRANCH   6   7
ENDBRANCH   5   6
ENDBRANCH   4   5
ENDBRANCH   3   4
ENDBRANCH   2   3
ENDBRANCH   1   2
BRANCH   1  10
ATOM     10  C   UNL     1      13.146   1.304  17.818  1.00  0.00     0.000 C 
BRANCH  10  11
ATOM     11  C   UNL     1      13.580   1.812  16.433  1.00  0.00    -0.000 C 
BRANCH  11  12
ATOM     12  C   UNL     1      15.098   1.694  16.212  1.00  0.00    -0.000 C 
BRANCH  12  13
ATOM     13  C   UNL     1      15.455   0.741  15.060  1.00  0.00    -0.000 C 
BRANCH  13  14
ATOM     14  C   UNL     1      14.490   0.858  13.870  1.00  0.00    -0.000 C 
BRANCH  14  15
ATOM     15  C   UNL     1      15.118   1.683  12.736  1.00  0.00    -0.000 C 
BRANCH  15  16
ATOM     16  C   UNL     1      15.437   0.834  11.495  1.00  0.00    -0.003 C 
ATOM     17  C   UNL     1      16.935   0.591  11.314  1.00  0.00     0.004 C 
ENDBRANCH  15  16
ENDBRANCH  14  15
ENDBRANCH  13  14
ENDBRANCH  12  13
ENDBRANCH  11  12
ENDBRANCH  10  11
ENDBRANCH   1  10
TORSDOF 13
ENDMDL
MODEL 7
REMARK VINA RESULT:    -5.693      2.048      5.333
REMARK INTER + INTRA:         -11.538
REMARK INTER:                 -10.106
REMARK INTRA:                  -1.431
REMARK UNBOUND:                -1.518
REMARK SMILES CCCCCCCCCCCCCCC(=O)[O-]
REMARK SMILES IDX 9 1 10 2 11 3 12 4 13 5 14 6 15 7 16 8 17 9 8 10 7 11 6 12
REMARK SMILES IDX 5 13 4 14 3 15 2 16 1 17
REMARK H PARENT
REMARK Flexibility Score: inf
ROOT
ATOM      1  C   UNL     1      17.145   0.417  11.684  1.00  0.00     0.000 C 
ENDROOT
BRANCH   1   2
ATOM      2  C   UNL     1      17.379  -1.094  11.846  1.00  0.00     0.000 C 
BRANCH   2   3
ATOM      3  C   UNL     1      18.047  -1.447  13.187  1.00  0.00     0.000 C 
BRANCH   3   4
ATOM      4  C   UNL     1      17.193  -1.012  14.398  1.00  0.00     0.000 C 
BRANCH   4   5
ATOM      5  C   UNL     1      16.955  -2.139  15.419  1.00  0.00     0.006 C 
BRANCH   5   6
ATOM      6  C   UNL     1      15.822  -1.851  16.416  1.00  0.00     0.053 C 
BRANCH   6   7
ATOM      7  C   UNL     1      15.678  -2.946  17.428  1.00  0.00     0.041 C 
ATOM      8  O   UNL     1      14.535  -3.294  17.826  1.00  0.00    -0.550 OA
ATOM      9  O   UNL     1      16.803  -3.598  17.918  1.00  0.00    -0.550 OA
ENDBRANCH   6   7
ENDBRANCH   5   6
ENDBRANCH   4   5
ENDBRANCH   3   4
ENDBRANCH   2   3
ENDBRANCH   1   2
BRANCH   1  10
ATOM     10  C   UNL     1      15.656   0.769  11.521  1.00  0.00     0.000 C 
BRANCH  10  11
ATOM     11  C   UNL     1      15.093   1.535  12.729  1.00  0.00    -0.000 C 
BRANCH  11  12
ATOM     12  C   UNL     1      14.311   0.624  13.693  1.00  0.00    -0.000 C 
BRANCH  12  13
ATOM     13  C   UNL     1      13.839   1.365  14.954  1.00  0.00    -0.000 C 
BRANCH  13  14
ATOM     14  C   UNL     1      14.987   1.680  15.925  1.00  0.00    -0.000 C 
BRANCH  14  15
ATOM     15  C   UNL     1      14.443   2.150  17.281  1.00  0.00    -0.000 C 
BRANCH  15  16
ATOM     16  C   UNL     1      13.116   1.471  17.653  1.00  0.00    -0.003 C 
ATOM     17  C   UNL     1      13.315   0.170  18.430  1.00  0.00     0.004 C 
ENDBRANCH  15  16
ENDBRANCH  14  15
ENDBRANCH  13  14
ENDBRANCH  12  13
ENDBRANCH  11  12
ENDBRANCH  10  11
ENDBRANCH   1  10
TORSDOF 13
ENDMDL
MODEL 8
REMARK VINA RESULT:    -5.623      1.486      4.995
REMARK INTER + INTRA:         -11.414
REMARK INTER:                  -9.878
REMARK INTRA:                  -1.536
REMARK UNBOUND:                -1.518
REMARK SMILES CCCCCCCCCCCCCCC(=O)[O-]
REMARK SMILES IDX 9 1 10 2 11 3 12 4 13 5 14 6 15 7 16 8 17 9 8 10 7 11 6 12
REMARK SMILES IDX 5 13 4 14 3 15 2 16 1 17
REMARK H PARENT
REMARK Flexibility Score: inf
ROOT
ATOM      1  C   UNL     1      17.424  -1.469  16.090  1.00  0.00     0.000 C 
ENDROOT
BRANCH   1   2
ATOM      2  C   UNL     1      16.053  -1.324  15.410  1.00  0.00     0.000 C 
BRANCH   2   3
ATOM      3  C   UNL     1      15.699   0.142  15.103  1.00  0.00     0.000 C 
BRANCH   3   4
ATOM      4  C   UNL     1      14.819   0.278  13.840  1.00  0.00     0.000 C 
BRANCH   4   5
ATOM      5  C   UNL     1      15.455   1.147  12.740  1.00  0.00     0.006 C 
BRANCH   5   6
ATOM      6  C   UNL     1      15.588   0.439  11.383  1.00  0.00     0.053 C 
BRANCH   6   7
ATOM      7  C   UNL     1      16.949  -0.159  11.197  1.00  0.00     0.041 C 
ATOM      8  O   UNL     1      17.658  -0.444  12.199  1.00  0.00    -0.550 OA
ATOM      9  O   UNL     1      17.428  -0.424   9.920  1.00  0.00    -0.550 OA
ENDBRANCH   6   7
ENDBRANCH   5   6
ENDBRANCH   4   5
ENDBRANCH   3   4
ENDBRANCH   2   3
ENDBRANCH   1   2
BRANCH   1  10
ATOM     10  C   UNL     1      17.309  -1.881  17.568  1.00  0.00     0.000 C 
BRANCH  10  11
ATOM     11  C   UNL     1      17.176  -0.674  18.511  1.00  0.00    -0.000 C 
BRANCH  11  12
ATOM     12  C   UNL     1      15.938  -0.770  19.420  1.00  0.00    -0.000 C 
BRANCH  12  13
ATOM     13  C   UNL     1      14.925  -1.817  18.931  1.00  0.00    -0.000 C 
BRANCH  13  14
ATOM     14  C   UNL     1      13.651  -1.187  18.347  1.00  0.00    -0.000 C 
BRANCH  14  15
ATOM     15  C   UNL     1      13.553   0.297  18.726  1.00  0.00    -0.000 C 
BRANCH  15  16
ATOM     16  C   UNL     1      13.231   1.195  17.521  1.00  0.00    -0.003 C 
ATOM     17  C   UNL     1      13.123   2.673  17.896  1.00  0.00     0.004 C 
ENDBRANCH  15  16
ENDBRANCH  14  15
ENDBRANCH  13  14
ENDBRANCH  12  13
ENDBRANCH  11  12
ENDBRANCH  10  11
ENDBRANCH   1  10
TORSDOF 13
ENDMDL
MODEL 9
REMARK VINA RESULT:    -5.594      1.416      2.028
REMARK INTER + INTRA:         -11.363
REMARK INTER:                  -9.566
REMARK INTRA:                  -1.797
REMARK UNBOUND:                -1.518
REMARK SMILES CCCCCCCCCCCCCCC(=O)[O-]
REMARK SMILES IDX 9 1 10 2 11 3 12 4 13 5 14 6 15 7 16 8 17 9 8 10 7 11 6 12
REMARK SMILES IDX 5 13 4 14 3 15 2 16 1 17
REMARK H PARENT
REMARK Flexibility Score: inf
ROOT
ATOM      1  C   UNL     1      15.473  -0.725  19.991  1.00  0.00     0.000 C 
ENDROOT
BRANCH   1   2
ATOM      2  C   UNL     1      16.127  -1.061  18.641  1.00  0.00     0.000 C 
BRANCH   2   3
ATOM      3  C   UNL     1      16.282  -2.576  18.420  1.00  0.00     0.000 C 
BRANCH   3   4
ATOM      4  C   UNL     1      16.117  -2.969  16.936  1.00  0.00     0.000 C 
BRANCH   4   5
ATOM      5  C   UNL     1      16.101  -1.763  15.978  1.00  0.00     0.006 C 
BRANCH   5   6
ATOM      6  C   UNL     1      17.275  -1.735  14.988  1.00  0.00     0.053 C 
BRANCH   6   7
ATOM      7  C   UNL     1      18.594  -1.624  15.690  1.00  0.00     0.041 C 
ATOM      8  O   UNL     1      19.487  -2.492  15.501  1.00  0.00    -0.550 OA
ATOM      9  O   UNL     1      18.848  -0.551  16.535  1.00  0.00    -0.550 OA
ENDBRANCH   6   7
ENDBRANCH   5   6
ENDBRANCH   4   5
ENDBRANCH   3   4
ENDBRANCH   2   3
ENDBRANCH   1   2
BRANCH   1  10
ATOM     10  C   UNL     1      14.317   0.282  19.852  1.00  0.00     0.000 C 
BRANCH  10  11
ATOM     11  C   UNL     1      13.498   0.070  18.569  1.00  0.00    -0.000 C 
BRANCH  11  12
ATOM     12  C   UNL     1      13.177   1.392  17.850  1.00  0.00    -0.000 C 
BRANCH  12  13
ATOM     13  C   UNL     1      14.442   2.163  17.439  1.00  0.00    -0.000 C 
BRANCH  13  14
ATOM     14  C   UNL     1      15.003   1.708  16.083  1.00  0.00    -0.000 C 
BRANCH  14  15
ATOM     15  C   UNL     1      13.868   1.346  15.115  1.00  0.00    -0.000 C 
BRANCH  15  16
ATOM     16  C   UNL     1      14.378   0.677  13.829  1.00  0.00    -0.003 C 
ATOM     17  C   UNL     1      15.126   1.647  12.914  1.00  0.00     0.004 C 
ENDBRANCH  15  16
ENDBRANCH  14  15
ENDBRANCH  13  14
ENDBRANCH  12  13
ENDBRANCH  11  12
ENDBRANCH  10  11
ENDBRANCH   1  10
TORSDOF 13
ENDMDL
