MODEL 1
REMARK VINA RESULT:    -6.071      0.000      0.000
REMARK INTER + INTRA:          -7.852
REMARK INTER:                  -7.491
REMARK INTRA:                  -0.362
REMARK UNBOUND:                -0.362
REMARK SMILES O=c1c(O)c(-c2cc(O)c(O)c(O)c2)oc2cc(O)cc(O)c12
REMARK SMILES IDX 5 1 3 2 2 3 1 4 23 5 21 6 20 7 18 8 17 9 16 10 15 11 6 12
REMARK SMILES IDX 7 13 8 14 14 15 10 16 12 17 9 18 11 20 13 22 4 24 22 26
REMARK SMILES IDX 19 28
REMARK H PARENT 9 19 11 21 13 23 4 25 22 27 19 29
REMARK Flexibility Score: inf
ROOT
ATOM      1  C   UNL     1     253.148 -24.342  46.958  1.00  0.00     0.180 A 
ATOM      2  C   UNL     1     251.928 -24.174  46.280  1.00  0.00     0.208 A 
ATOM      3  C   UNL     1     251.911 -24.258  44.878  1.00  0.00     0.238 A 
ATOM      4  O   UNL     1     250.808 -24.161  44.281  1.00  0.00    -0.285 OA
ATOM      5  C   UNL     1     253.115 -24.492  44.172  1.00  0.00     0.111 A 
ATOM      6  C   UNL     1     253.221 -24.556  42.750  1.00  0.00     0.134 A 
ATOM      7  C   UNL     1     254.439 -24.924  42.164  1.00  0.00     0.093 A 
ATOM      8  C   UNL     1     255.571 -25.165  42.947  1.00  0.00     0.123 A 
ATOM      9  C   UNL     1     255.493 -25.047  44.332  1.00  0.00     0.094 A 
ATOM     10  C   UNL     1     254.282 -24.717  44.947  1.00  0.00     0.146 A 
ATOM     11  O   UNL     1     254.249 -24.626  46.272  1.00  0.00    -0.452 OA
ENDROOT
BRANCH   1  12
ATOM     12  C   UNL     1     253.250 -24.243  48.433  1.00  0.00     0.029 A 
ATOM     13  C   UNL     1     253.398 -23.000  49.073  1.00  0.00     0.062 A 
ATOM     14  C   UNL     1     253.518 -22.927  50.467  1.00  0.00     0.162 A 
ATOM     15  C   UNL     1     253.257 -25.414  49.204  1.00  0.00     0.062 A 
ATOM     16  C   UNL     1     253.501 -24.105  51.234  1.00  0.00     0.200 A 
ATOM     17  C   UNL     1     253.375 -25.347  50.600  1.00  0.00     0.162 A 
BRANCH  14  18
ATOM     18  O   UNL     1     253.658 -21.690  51.094  1.00  0.00    -0.504 OA
ATOM     19  H   UNL     1     254.568 -21.265  51.231  1.00  0.00     0.293 HD
ENDBRANCH  14  18
BRANCH  16  20
ATOM     20  O   UNL     1     253.614 -24.058  52.624  1.00  0.00    -0.502 OA
ATOM     21  H   UNL     1     253.162 -24.736  53.225  1.00  0.00     0.293 HD
ENDBRANCH  16  20
BRANCH  17  22
ATOM     22  O   UNL     1     253.367 -26.513  51.363  1.00  0.00    -0.504 OA
ATOM     23  H   UNL     1     254.224 -26.920  51.720  1.00  0.00     0.293 HD
ENDBRANCH  17  22
ENDBRANCH   1  12
BRANCH   2  24
ATOM     24  O   UNL     1     250.747 -23.965  46.999  1.00  0.00    -0.502 OA
ATOM     25  H   UNL     1     249.847 -24.291  46.670  1.00  0.00     0.293 HD
ENDBRANCH   2  24
BRANCH   6  26
ATOM     26  O   UNL     1     252.177 -24.245  41.875  1.00  0.00    -0.507 OA
ATOM     27  H   UNL     1     251.898 -23.308  41.623  1.00  0.00     0.293 HD
ENDBRANCH   6  26
BRANCH   8  28
ATOM     28  O   UNL     1     256.783 -25.514  42.355  1.00  0.00    -0.508 OA
ATOM     29  H   UNL     1     257.155 -26.455  42.423  1.00  0.00     0.293 HD
ENDBRANCH   8  28
TORSDOF 7
ENDMDL
MODEL 2
REMARK VINA RESULT:    -6.070     13.147     14.806
REMARK INTER + INTRA:          -7.852
REMARK INTER:                  -7.574
REMARK INTRA:                  -0.278
REMARK UNBOUND:                -0.362
REMARK SMILES O=c1c(O)c(-c2cc(O)c(O)c(O)c2)oc2cc(O)cc(O)c12
REMARK SMILES IDX 5 1 3 2 2 3 1 4 23 5 21 6 20 7 18 8 17 9 16 10 15 11 6 12
REMARK SMILES IDX 7 13 8 14 14 15 10 16 12 17 9 18 11 20 13 22 4 24 22 26
REMARK SMILES IDX 19 28
REMARK H PARENT 9 19 11 21 13 23 4 25 22 27 19 29
REMARK Flexibility Score: inf
ROOT
ATOM      1  C   UNL     1     262.043 -27.875  57.575  1.00  0.00     0.180 A 
ATOM      2  C   UNL     1     261.883 -27.089  56.421  1.00  0.00     0.208 A 
ATOM      3  C   UNL     1     262.849 -27.167  55.405  1.00  0.00     0.238 A 
ATOM      4  O   UNL     1     262.672 -26.502  54.351  1.00  0.00    -0.285 OA
ATOM      5  C   UNL     1     263.971 -28.015  55.564  1.00  0.00     0.111 A 
ATOM      6  C   UNL     1     265.032 -28.141  54.617  1.00  0.00     0.134 A 
ATOM      7  C   UNL     1     266.026 -29.108  54.818  1.00  0.00     0.093 A 
ATOM      8  C   UNL     1     266.032 -29.907  55.964  1.00  0.00     0.123 A 
ATOM      9  C   UNL     1     265.034 -29.750  56.922  1.00  0.00     0.094 A 
ATOM     10  C   UNL     1     264.009 -28.819  56.732  1.00  0.00     0.146 A 
ATOM     11  O   UNL     1     263.071 -28.710  57.666  1.00  0.00    -0.452 OA
ENDROOT
BRANCH   1  12
ATOM     12  C   UNL     1     261.079 -27.830  58.700  1.00  0.00     0.029 A 
ATOM     13  C   UNL     1     259.805 -28.416  58.593  1.00  0.00     0.062 A 
ATOM     14  C   UNL     1     258.897 -28.344  59.658  1.00  0.00     0.162 A 
ATOM     15  C   UNL     1     261.418 -27.141  59.873  1.00  0.00     0.062 A 
ATOM     16  C   UNL     1     259.255 -27.670  60.839  1.00  0.00     0.200 A 
ATOM     17  C   UNL     1     260.514 -27.067  60.942  1.00  0.00     0.162 A 
BRANCH  14  18
ATOM     18  O   UNL     1     257.639 -28.933  59.546  1.00  0.00    -0.504 OA
ATOM     19  H   UNL     1     256.969 -28.902  60.307  1.00  0.00     0.293 HD
ENDBRANCH  14  18
BRANCH  16  20
ATOM     20  O   UNL     1     258.369 -27.588  61.914  1.00  0.00    -0.502 OA
ATOM     21  H   UNL     1     257.506 -28.117  61.943  1.00  0.00     0.293 HD
ENDBRANCH  16  20
BRANCH  17  22
ATOM     22  O   UNL     1     260.861 -26.393  62.112  1.00  0.00    -0.504 OA
ATOM     23  H   UNL     1     260.219 -25.755  62.568  1.00  0.00     0.293 HD
ENDBRANCH  17  22
ENDBRANCH   1  12
BRANCH   2  24
ATOM     24  O   UNL     1     260.755 -26.275  56.275  1.00  0.00    -0.502 OA
ATOM     25  H   UNL     1     259.927 -26.387  56.846  1.00  0.00     0.293 HD
ENDBRANCH   2  24
BRANCH   6  26
ATOM     26  O   UNL     1     265.170 -27.330  53.487  1.00  0.00    -0.507 OA
ATOM     27  H   UNL     1     265.813 -27.506  52.729  1.00  0.00     0.293 HD
ENDBRANCH   6  26
BRANCH   8  28
ATOM     28  O   UNL     1     267.033 -30.855  56.163  1.00  0.00    -0.508 OA
ATOM     29  H   UNL     1     266.870 -31.690  56.715  1.00  0.00     0.293 HD
ENDBRANCH   8  28
TORSDOF 7
ENDMDL
MODEL 3
REMARK VINA RESULT:    -6.070      0.096      1.751
REMARK INTER + INTRA:          -7.851
REMARK INTER:                  -7.508
REMARK INTRA:                  -0.343
REMARK UNBOUND:                -0.362
REMARK SMILES O=c1c(O)c(-c2cc(O)c(O)c(O)c2)oc2cc(O)cc(O)c12
REMARK SMILES IDX 5 1 3 2 2 3 1 4 23 5 21 6 20 7 18 8 17 9 16 10 15 11 6 12
REMARK SMILES IDX 7 13 8 14 14 15 10 16 12 17 9 18 11 20 13 22 4 24 22 26
REMARK SMILES IDX 19 28
REMARK H PARENT 9 19 11 21 13 23 4 25 22 27 19 29
REMARK Flexibility Score: inf
ROOT
ATOM      1  C   UNL     1     253.188 -24.420  46.944  1.00  0.00     0.180 A 
ATOM      2  C   UNL     1     251.966 -24.202  46.284  1.00  0.00     0.208 A 
ATOM      3  C   UNL     1     251.933 -24.245  44.881  1.00  0.00     0.238 A 
ATOM      4  O   UNL     1     250.827 -24.102  44.298  1.00  0.00    -0.285 OA
ATOM      5  C   UNL     1     253.123 -24.489  44.155  1.00  0.00     0.111 A 
ATOM      6  C   UNL     1     253.214 -24.513  42.731  1.00  0.00     0.134 A 
ATOM      7  C   UNL     1     254.416 -24.894  42.122  1.00  0.00     0.093 A 
ATOM      8  C   UNL     1     255.550 -25.187  42.885  1.00  0.00     0.123 A 
ATOM      9  C   UNL     1     255.488 -25.107  44.274  1.00  0.00     0.094 A 
ATOM     10  C   UNL     1     254.292 -24.766  44.911  1.00  0.00     0.146 A 
ATOM     11  O   UNL     1     254.274 -24.712  46.238  1.00  0.00    -0.452 OA
ENDROOT
BRANCH   1  12
ATOM     12  C   UNL     1     253.307 -24.367  48.420  1.00  0.00     0.029 A 
ATOM     13  C   UNL     1     253.232 -25.534  49.201  1.00  0.00     0.062 A 
ATOM     14  C   UNL     1     253.323 -25.463  50.597  1.00  0.00     0.162 A 
ATOM     15  C   UNL     1     253.441 -23.125  49.058  1.00  0.00     0.062 A 
ATOM     16  C   UNL     1     253.480 -24.216  51.226  1.00  0.00     0.200 A 
ATOM     17  C   UNL     1     253.535 -23.049  50.454  1.00  0.00     0.162 A 
BRANCH  14  18
ATOM     18  O   UNL     1     253.253 -26.625  51.363  1.00  0.00    -0.504 OA
ATOM     19  H   UNL     1     254.087 -27.067  51.735  1.00  0.00     0.293 HD
ENDBRANCH  14  18
BRANCH  16  20
ATOM     20  O   UNL     1     253.577 -24.120  52.615  1.00  0.00    -0.502 OA
ATOM     21  H   UNL     1     254.161 -24.743  53.159  1.00  0.00     0.293 HD
ENDBRANCH  16  20
BRANCH  17  22
ATOM     22  O   UNL     1     253.682 -21.813  51.083  1.00  0.00    -0.504 OA
ATOM     23  H   UNL     1     254.477 -21.213  50.893  1.00  0.00     0.293 HD
ENDBRANCH  17  22
ENDBRANCH   1  12
BRANCH   2  24
ATOM     24  O   UNL     1     250.798 -23.985  47.021  1.00  0.00    -0.502 OA
ATOM     25  H   UNL     1     249.912 -24.404  46.770  1.00  0.00     0.293 HD
ENDBRANCH   2  24
BRANCH   6  26
ATOM     26  O   UNL     1     252.169 -24.151  41.877  1.00  0.00    -0.507 OA
ATOM     27  H   UNL     1     251.439 -24.774  41.564  1.00  0.00     0.293 HD
ENDBRANCH   6  26
BRANCH   8  28
ATOM     28  O   UNL     1     256.746 -25.549  42.270  1.00  0.00    -0.508 OA
ATOM     29  H   UNL     1     257.563 -24.950  42.307  1.00  0.00     0.293 HD
ENDBRANCH   8  28
TORSDOF 7
ENDMDL
MODEL 4
REMARK VINA RESULT:    -5.967      1.488      1.775
REMARK INTER + INTRA:          -7.724
REMARK INTER:                  -7.358
REMARK INTRA:                  -0.367
REMARK UNBOUND:                -0.362
REMARK SMILES O=c1c(O)c(-c2cc(O)c(O)c(O)c2)oc2cc(O)cc(O)c12
REMARK SMILES IDX 5 1 3 2 2 3 1 4 23 5 21 6 20 7 18 8 17 9 16 10 15 11 6 12
REMARK SMILES IDX 7 13 8 14 14 15 10 16 12 17 9 18 11 20 13 22 4 24 22 26
REMARK SMILES IDX 19 28
REMARK H PARENT 9 19 11 21 13 23 4 25 22 27 19 29
REMARK Flexibility Score: inf
ROOT
ATOM      1  C   UNL     1     253.127 -24.574  47.892  1.00  0.00     0.180 A 
ATOM      2  C   UNL     1     252.006 -23.791  47.566  1.00  0.00     0.208 A 
ATOM      3  C   UNL     1     251.874 -23.303  46.256  1.00  0.00     0.238 A 
ATOM      4  O   UNL     1     250.842 -22.648  45.956  1.00  0.00    -0.285 OA
ATOM      5  C   UNL     1     252.871 -23.591  45.293  1.00  0.00     0.111 A 
ATOM      6  C   UNL     1     252.860 -23.115  43.948  1.00  0.00     0.134 A 
ATOM      7  C   UNL     1     253.831 -23.569  43.046  1.00  0.00     0.093 A 
ATOM      8  C   UNL     1     254.850 -24.432  43.459  1.00  0.00     0.123 A 
ATOM      9  C   UNL     1     254.904 -24.854  44.784  1.00  0.00     0.094 A 
ATOM     10  C   UNL     1     253.928 -24.446  45.698  1.00  0.00     0.146 A 
ATOM     11  O   UNL     1     254.011 -24.882  46.950  1.00  0.00    -0.452 OA
ENDROOT
BRANCH   1  12
ATOM     12  C   UNL     1     253.348 -25.104  49.257  1.00  0.00     0.029 A 
ATOM     13  C   UNL     1     254.008 -24.343  50.238  1.00  0.00     0.062 A 
ATOM     14  C   UNL     1     254.230 -24.868  51.518  1.00  0.00     0.162 A 
ATOM     15  C   UNL     1     252.944 -26.411  49.565  1.00  0.00     0.062 A 
ATOM     16  C   UNL     1     253.801 -26.172  51.823  1.00  0.00     0.200 A 
ATOM     17  C   UNL     1     253.162 -26.942  50.844  1.00  0.00     0.162 A 
BRANCH  14  18
ATOM     18  O   UNL     1     254.880 -24.104  52.486  1.00  0.00    -0.504 OA
ATOM     19  H   UNL     1     255.712 -23.567  52.268  1.00  0.00     0.293 HD
ENDBRANCH  14  18
BRANCH  16  20
ATOM     20  O   UNL     1     254.007 -26.716  53.092  1.00  0.00    -0.502 OA
ATOM     21  H   UNL     1     254.830 -27.263  53.316  1.00  0.00     0.293 HD
ENDBRANCH  16  20
BRANCH  17  22
ATOM     22  O   UNL     1     252.746 -28.237  51.149  1.00  0.00    -0.504 OA
ATOM     23  H   UNL     1     252.086 -28.735  50.561  1.00  0.00     0.293 HD
ENDBRANCH  17  22
ENDBRANCH   1  12
BRANCH   2  24
ATOM     24  O   UNL     1     251.022 -23.538  48.526  1.00  0.00    -0.502 OA
ATOM     25  H   UNL     1     250.689 -22.604  48.729  1.00  0.00     0.293 HD
ENDBRANCH   2  24
BRANCH   6  26
ATOM     26  O   UNL     1     251.942 -22.182  43.458  1.00  0.00    -0.507 OA
ATOM     27  H   UNL     1     251.756 -21.283  43.877  1.00  0.00     0.293 HD
ENDBRANCH   6  26
BRANCH   8  28
ATOM     28  O   UNL     1     255.821 -24.866  42.559  1.00  0.00    -0.508 OA
ATOM     29  H   UNL     1     256.308 -25.746  42.689  1.00  0.00     0.293 HD
ENDBRANCH   8  28
TORSDOF 7
ENDMDL
MODEL 5
REMARK VINA RESULT:    -5.774     13.862     16.519
REMARK INTER + INTRA:          -7.486
REMARK INTER:                  -7.165
REMARK INTRA:                  -0.321
REMARK UNBOUND:                -0.362
REMARK SMILES O=c1c(O)c(-c2cc(O)c(O)c(O)c2)oc2cc(O)cc(O)c12
REMARK SMILES IDX 5 1 3 2 2 3 1 4 23 5 21 6 20 7 18 8 17 9 16 10 15 11 6 12
REMARK SMILES IDX 7 13 8 14 14 15 10 16 12 17 9 18 11 20 13 22 4 24 22 26
REMARK SMILES IDX 19 28
REMARK H PARENT 9 19 11 21 13 23 4 25 22 27 19 29
REMARK Flexibility Score: inf
ROOT
ATOM      1  C   UNL     1     262.917 -28.086  57.960  1.00  0.00     0.180 A 
ATOM      2  C   UNL     1     263.420 -27.391  59.073  1.00  0.00     0.208 A 
ATOM      3  C   UNL     1     262.544 -27.054  60.118  1.00  0.00     0.238 A 
ATOM      4  O   UNL     1     263.011 -26.480  61.136  1.00  0.00    -0.285 OA
ATOM      5  C   UNL     1     261.175 -27.400  60.029  1.00  0.00     0.111 A 
ATOM      6  C   UNL     1     260.190 -27.073  61.009  1.00  0.00     0.134 A 
ATOM      7  C   UNL     1     258.891 -27.581  60.880  1.00  0.00     0.093 A 
ATOM      8  C   UNL     1     258.525 -28.349  59.771  1.00  0.00     0.123 A 
ATOM      9  C   UNL     1     259.462 -28.623  58.779  1.00  0.00     0.094 A 
ATOM     10  C   UNL     1     260.776 -28.161  58.899  1.00  0.00     0.146 A 
ATOM     11  O   UNL     1     261.641 -28.456  57.935  1.00  0.00    -0.452 OA
ENDROOT
BRANCH   1  12
ATOM     12  C   UNL     1     263.773 -28.456  56.808  1.00  0.00     0.029 A 
ATOM     13  C   UNL     1     264.641 -29.560  56.869  1.00  0.00     0.062 A 
ATOM     14  C   UNL     1     265.461 -29.882  55.779  1.00  0.00     0.162 A 
ATOM     15  C   UNL     1     263.762 -27.657  55.655  1.00  0.00     0.062 A 
ATOM     16  C   UNL     1     265.426 -29.088  54.618  1.00  0.00     0.200 A 
ATOM     17  C   UNL     1     264.579 -27.975  54.561  1.00  0.00     0.162 A 
BRANCH  14  18
ATOM     18  O   UNL     1     266.314 -30.982  55.845  1.00  0.00    -0.504 OA
ATOM     19  H   UNL     1     265.983 -31.893  56.143  1.00  0.00     0.293 HD
ENDBRANCH  14  18
BRANCH  16  20
ATOM     20  O   UNL     1     266.230 -29.390  53.519  1.00  0.00    -0.502 OA
ATOM     21  H   UNL     1     267.200 -29.105  53.466  1.00  0.00     0.293 HD
ENDBRANCH  16  20
BRANCH  17  22
ATOM     22  O   UNL     1     264.553 -27.187  53.412  1.00  0.00    -0.504 OA
ATOM     23  H   UNL     1     264.528 -26.175  53.463  1.00  0.00     0.293 HD
ENDBRANCH  17  22
ENDBRANCH   1  12
BRANCH   2  24
ATOM     24  O   UNL     1     264.780 -27.078  59.151  1.00  0.00    -0.502 OA
ATOM     25  H   UNL     1     265.485 -27.772  59.365  1.00  0.00     0.293 HD
ENDBRANCH   2  24
BRANCH   6  26
ATOM     26  O   UNL     1     260.428 -26.239  62.105  1.00  0.00    -0.507 OA
ATOM     27  H   UNL     1     261.298 -26.193  62.614  1.00  0.00     0.293 HD
ENDBRANCH   6  26
BRANCH   8  28
ATOM     28  O   UNL     1     257.226 -28.836  59.643  1.00  0.00    -0.508 OA
ATOM     29  H   UNL     1     256.566 -28.795  60.411  1.00  0.00     0.293 HD
ENDBRANCH   8  28
TORSDOF 7
ENDMDL
MODEL 6
REMARK VINA RESULT:    -5.739     13.823     16.410
REMARK INTER + INTRA:          -7.442
REMARK INTER:                  -7.111
REMARK INTRA:                  -0.331
REMARK UNBOUND:                -0.362
REMARK SMILES O=c1c(O)c(-c2cc(O)c(O)c(O)c2)oc2cc(O)cc(O)c12
REMARK SMILES IDX 5 1 3 2 2 3 1 4 23 5 21 6 20 7 18 8 17 9 16 10 15 11 6 12
REMARK SMILES IDX 7 13 8 14 14 15 10 16 12 17 9 18 11 20 13 22 4 24 22 26
REMARK SMILES IDX 19 28
REMARK H PARENT 9 19 11 21 13 23 4 25 22 27 19 29
REMARK Flexibility Score: inf
ROOT
ATOM      1  C   UNL     1     262.918 -28.053  57.923  1.00  0.00     0.180 A 
ATOM      2  C   UNL     1     263.409 -27.389  59.060  1.00  0.00     0.208 A 
ATOM      3  C   UNL     1     262.526 -27.096  60.112  1.00  0.00     0.238 A 
ATOM      4  O   UNL     1     262.982 -26.550  61.149  1.00  0.00    -0.285 OA
ATOM      5  C   UNL     1     261.161 -27.456  60.006  1.00  0.00     0.111 A 
ATOM      6  C   UNL     1     260.169 -27.172  60.992  1.00  0.00     0.134 A 
ATOM      7  C   UNL     1     258.876 -27.690  60.842  1.00  0.00     0.093 A 
ATOM      8  C   UNL     1     258.523 -28.426  59.707  1.00  0.00     0.123 A 
ATOM      9  C   UNL     1     259.467 -28.657  58.711  1.00  0.00     0.094 A 
ATOM     10  C   UNL     1     260.775 -28.184  58.850  1.00  0.00     0.146 A 
ATOM     11  O   UNL     1     261.647 -28.437  57.881  1.00  0.00    -0.452 OA
ENDROOT
BRANCH   1  12
ATOM     12  C   UNL     1     263.782 -28.375  56.763  1.00  0.00     0.029 A 
ATOM     13  C   UNL     1     263.774 -27.581  55.603  1.00  0.00     0.062 A 
ATOM     14  C   UNL     1     264.580 -27.913  54.507  1.00  0.00     0.162 A 
ATOM     15  C   UNL     1     264.583 -29.526  56.797  1.00  0.00     0.062 A 
ATOM     16  C   UNL     1     265.397 -29.056  54.559  1.00  0.00     0.200 A 
ATOM     17  C   UNL     1     265.393 -29.863  55.704  1.00  0.00     0.162 A 
BRANCH  14  18
ATOM     18  O   UNL     1     264.571 -27.116  53.363  1.00  0.00    -0.504 OA
ATOM     19  H   UNL     1     265.359 -27.094  52.725  1.00  0.00     0.293 HD
ENDBRANCH  14  18
BRANCH  16  20
ATOM     20  O   UNL     1     266.212 -29.406  53.482  1.00  0.00    -0.502 OA
ATOM     21  H   UNL     1     266.108 -28.982  52.568  1.00  0.00     0.293 HD
ENDBRANCH  16  20
BRANCH  17  22
ATOM     22  O   UNL     1     266.198 -31.000  55.748  1.00  0.00    -0.504 OA
ATOM     23  H   UNL     1     266.783 -31.206  56.551  1.00  0.00     0.293 HD
ENDBRANCH  17  22
ENDBRANCH   1  12
BRANCH   2  24
ATOM     24  O   UNL     1     264.765 -27.063  59.153  1.00  0.00    -0.502 OA
ATOM     25  H   UNL     1     265.220 -26.441  58.497  1.00  0.00     0.293 HD
ENDBRANCH   2  24
BRANCH   6  26
ATOM     26  O   UNL     1     260.393 -26.372  62.116  1.00  0.00    -0.507 OA
ATOM     27  H   UNL     1     261.259 -26.334  62.631  1.00  0.00     0.293 HD
ENDBRANCH   6  26
BRANCH   8  28
ATOM     28  O   UNL     1     257.230 -28.924  59.558  1.00  0.00    -0.508 OA
ATOM     29  H   UNL     1     256.517 -28.406  59.057  1.00  0.00     0.293 HD
ENDBRANCH   8  28
TORSDOF 7
ENDMDL
MODEL 7
REMARK VINA RESULT:    -5.662     11.179     14.164
REMARK INTER + INTRA:          -7.348
REMARK INTER:                  -7.416
REMARK INTRA:                   0.068
REMARK UNBOUND:                -0.362
REMARK SMILES O=c1c(O)c(-c2cc(O)c(O)c(O)c2)oc2cc(O)cc(O)c12
REMARK SMILES IDX 5 1 3 2 2 3 1 4 23 5 21 6 20 7 18 8 17 9 16 10 15 11 6 12
REMARK SMILES IDX 7 13 8 14 14 15 10 16 12 17 9 18 11 20 13 22 4 24 22 26
REMARK SMILES IDX 19 28
REMARK H PARENT 9 19 11 21 13 23 4 25 22 27 19 29
REMARK Flexibility Score: inf
ROOT
ATOM      1  C   UNL     1     261.918 -27.477  57.518  1.00  0.00     0.180 A 
ATOM      2  C   UNL     1     263.300 -27.678  57.668  1.00  0.00     0.208 A 
ATOM      3  C   UNL     1     264.117 -27.681  56.526  1.00  0.00     0.238 A 
ATOM      4  O   UNL     1     265.360 -27.807  56.672  1.00  0.00    -0.285 OA
ATOM      5  C   UNL     1     263.539 -27.499  55.247  1.00  0.00     0.111 A 
ATOM      6  C   UNL     1     264.265 -27.525  54.018  1.00  0.00     0.134 A 
ATOM      7  C   UNL     1     263.610 -27.203  52.822  1.00  0.00     0.093 A 
ATOM      8  C   UNL     1     262.242 -26.921  52.803  1.00  0.00     0.123 A 
ATOM      9  C   UNL     1     261.512 -26.952  53.989  1.00  0.00     0.094 A 
ATOM     10  C   UNL     1     262.145 -27.234  55.203  1.00  0.00     0.146 A 
ATOM     11  O   UNL     1     261.414 -27.243  56.311  1.00  0.00    -0.452 OA
ENDROOT
BRANCH   1  12
ATOM     12  C   UNL     1     260.989 -27.484  58.672  1.00  0.00     0.029 A 
ATOM     13  C   UNL     1     259.764 -28.171  58.619  1.00  0.00     0.062 A 
ATOM     14  C   UNL     1     258.887 -28.148  59.712  1.00  0.00     0.162 A 
ATOM     15  C   UNL     1     261.310 -26.746  59.821  1.00  0.00     0.062 A 
ATOM     16  C   UNL     1     259.227 -27.424  60.868  1.00  0.00     0.200 A 
ATOM     17  C   UNL     1     260.437 -26.721  60.918  1.00  0.00     0.162 A 
BRANCH  14  18
ATOM     18  O   UNL     1     257.676 -28.837  59.653  1.00  0.00    -0.504 OA
ATOM     19  H   UNL     1     257.520 -29.580  58.981  1.00  0.00     0.293 HD
ENDBRANCH  14  18
BRANCH  16  20
ATOM     20  O   UNL     1     258.372 -27.389  61.970  1.00  0.00    -0.502 OA
ATOM     21  H   UNL     1     258.717 -27.278  62.916  1.00  0.00     0.293 HD
ENDBRANCH  16  20
BRANCH  17  22
ATOM     22  O   UNL     1     260.767 -25.997  62.063  1.00  0.00    -0.504 OA
ATOM     23  H   UNL     1     260.688 -26.403  62.988  1.00  0.00     0.293 HD
ENDBRANCH  17  22
ENDBRANCH   1  12
BRANCH   2  24
ATOM     24  O   UNL     1     263.853 -27.833  58.943  1.00  0.00    -0.502 OA
ATOM     25  H   UNL     1     264.787 -28.194  59.090  1.00  0.00     0.293 HD
ENDBRANCH   2  24
BRANCH   6  26
ATOM     26  O   UNL     1     265.612 -27.882  53.915  1.00  0.00    -0.507 OA
ATOM     27  H   UNL     1     266.308 -27.711  54.626  1.00  0.00     0.293 HD
ENDBRANCH   6  26
BRANCH   8  28
ATOM     28  O   UNL     1     261.595 -26.618  51.607  1.00  0.00    -0.508 OA
ATOM     29  H   UNL     1     261.734 -27.177  50.773  1.00  0.00     0.293 HD
ENDBRANCH   8  28
TORSDOF 7
ENDMDL
MODEL 8
REMARK VINA RESULT:    -5.609     15.761     17.590
REMARK INTER + INTRA:          -7.282
REMARK INTER:                  -6.941
REMARK INTRA:                  -0.341
REMARK UNBOUND:                -0.362
REMARK SMILES O=c1c(O)c(-c2cc(O)c(O)c(O)c2)oc2cc(O)cc(O)c12
REMARK SMILES IDX 5 1 3 2 2 3 1 4 23 5 21 6 20 7 18 8 17 9 16 10 15 11 6 12
REMARK SMILES IDX 7 13 8 14 14 15 10 16 12 17 9 18 11 20 13 22 4 24 22 26
REMARK SMILES IDX 19 28
REMARK H PARENT 9 19 11 21 13 23 4 25 22 27 19 29
REMARK Flexibility Score: inf
ROOT
ATOM      1  C   UNL     1     267.884 -33.680  48.601  1.00  0.00     0.180 A 
ATOM      2  C   UNL     1     268.623 -32.722  47.887  1.00  0.00     0.208 A 
ATOM      3  C   UNL     1     269.061 -33.029  46.588  1.00  0.00     0.238 A 
ATOM      4  O   UNL     1     269.676 -32.147  45.934  1.00  0.00    -0.285 OA
ATOM      5  C   UNL     1     268.770 -34.295  46.028  1.00  0.00     0.111 A 
ATOM      6  C   UNL     1     269.199 -34.728  44.737  1.00  0.00     0.134 A 
ATOM      7  C   UNL     1     268.742 -35.952  44.232  1.00  0.00     0.093 A 
ATOM      8  C   UNL     1     267.924 -36.788  44.997  1.00  0.00     0.123 A 
ATOM      9  C   UNL     1     267.549 -36.401  46.281  1.00  0.00     0.094 A 
ATOM     10  C   UNL     1     267.959 -35.169  46.799  1.00  0.00     0.146 A 
ATOM     11  O   UNL     1     267.569 -34.834  48.023  1.00  0.00    -0.452 OA
ENDROOT
BRANCH   1  12
ATOM     12  C   UNL     1     267.407 -33.439  49.983  1.00  0.00     0.029 A 
ATOM     13  C   UNL     1     268.109 -33.937  51.094  1.00  0.00     0.062 A 
ATOM     14  C   UNL     1     267.632 -33.720  52.394  1.00  0.00     0.162 A 
ATOM     15  C   UNL     1     266.202 -32.751  50.188  1.00  0.00     0.062 A 
ATOM     16  C   UNL     1     266.435 -33.009  52.590  1.00  0.00     0.200 A 
ATOM     17  C   UNL     1     265.721 -32.530  51.486  1.00  0.00     0.162 A 
BRANCH  14  18
ATOM     18  O   UNL     1     268.338 -34.211  53.491  1.00  0.00    -0.504 OA
ATOM     19  H   UNL     1     269.202 -33.781  53.801  1.00  0.00     0.293 HD
ENDBRANCH  14  18
BRANCH  16  20
ATOM     20  O   UNL     1     265.941 -32.776  53.874  1.00  0.00    -0.502 OA
ATOM     21  H   UNL     1     265.593 -33.525  54.462  1.00  0.00     0.293 HD
ENDBRANCH  16  20
BRANCH  17  22
ATOM     22  O   UNL     1     264.530 -31.832  51.684  1.00  0.00    -0.504 OA
ATOM     23  H   UNL     1     264.439 -30.855  51.432  1.00  0.00     0.293 HD
ENDBRANCH  17  22
ENDBRANCH   1  12
BRANCH   2  24
ATOM     24  O   UNL     1     268.880 -31.469  48.451  1.00  0.00    -0.502 OA
ATOM     25  H   UNL     1     269.746 -31.256  48.930  1.00  0.00     0.293 HD
ENDBRANCH   2  24
BRANCH   6  26
ATOM     26  O   UNL     1     270.088 -34.013  43.930  1.00  0.00    -0.507 OA
ATOM     27  H   UNL     1     270.068 -34.005  42.921  1.00  0.00     0.293 HD
ENDBRANCH   6  26
BRANCH   8  28
ATOM     28  O   UNL     1     267.487 -38.010  44.493  1.00  0.00    -0.508 OA
ATOM     29  H   UNL     1     267.970 -38.875  44.708  1.00  0.00     0.293 HD
ENDBRANCH   8  28
TORSDOF 7
ENDMDL
MODEL 9
REMARK VINA RESULT:    -5.609     11.084     14.052
REMARK INTER + INTRA:          -7.282
REMARK INTER:                  -7.438
REMARK INTRA:                   0.156
REMARK UNBOUND:                -0.362
REMARK SMILES O=c1c(O)c(-c2cc(O)c(O)c(O)c2)oc2cc(O)cc(O)c12
REMARK SMILES IDX 5 1 3 2 2 3 1 4 23 5 21 6 20 7 18 8 17 9 16 10 15 11 6 12
REMARK SMILES IDX 7 13 8 14 14 15 10 16 12 17 9 18 11 20 13 22 4 24 22 26
REMARK SMILES IDX 19 28
REMARK H PARENT 9 19 11 21 13 23 4 25 22 27 19 29
REMARK Flexibility Score: inf
ROOT
ATOM      1  C   UNL     1     261.957 -27.420  57.431  1.00  0.00     0.180 A 
ATOM      2  C   UNL     1     263.345 -27.597  57.556  1.00  0.00     0.208 A 
ATOM      3  C   UNL     1     264.137 -27.618  56.396  1.00  0.00     0.238 A 
ATOM      4  O   UNL     1     265.385 -27.723  56.517  1.00  0.00    -0.285 OA
ATOM      5  C   UNL     1     263.528 -27.478  55.126  1.00  0.00     0.111 A 
ATOM      6  C   UNL     1     264.227 -27.524  53.882  1.00  0.00     0.134 A 
ATOM      7  C   UNL     1     263.542 -27.243  52.693  1.00  0.00     0.093 A 
ATOM      8  C   UNL     1     262.169 -26.982  52.697  1.00  0.00     0.123 A 
ATOM      9  C   UNL     1     261.466 -26.993  53.900  1.00  0.00     0.094 A 
ATOM     10  C   UNL     1     262.130 -27.234  55.106  1.00  0.00     0.146 A 
ATOM     11  O   UNL     1     261.423 -27.225  56.230  1.00  0.00    -0.452 OA
ENDROOT
BRANCH   1  12
ATOM     12  C   UNL     1     261.054 -27.411  58.606  1.00  0.00     0.029 A 
ATOM     13  C   UNL     1     261.440 -26.813  59.818  1.00  0.00     0.062 A 
ATOM     14  C   UNL     1     260.583 -26.834  60.927  1.00  0.00     0.162 A 
ATOM     15  C   UNL     1     259.814 -28.061  58.528  1.00  0.00     0.062 A 
ATOM     16  C   UNL     1     259.332 -27.468  60.832  1.00  0.00     0.200 A 
ATOM     17  C   UNL     1     258.952 -28.084  59.634  1.00  0.00     0.162 A 
BRANCH  14  18
ATOM     18  O   UNL     1     260.971 -26.233  62.123  1.00  0.00    -0.504 OA
ATOM     19  H   UNL     1     260.798 -26.675  63.019  1.00  0.00     0.293 HD
ENDBRANCH  14  18
BRANCH  16  20
ATOM     20  O   UNL     1     258.460 -27.500  61.921  1.00  0.00    -0.502 OA
ATOM     21  H   UNL     1     258.049 -28.362  62.259  1.00  0.00     0.293 HD
ENDBRANCH  16  20
BRANCH  17  22
ATOM     22  O   UNL     1     257.714 -28.719  59.547  1.00  0.00    -0.504 OA
ATOM     23  H   UNL     1     256.867 -28.282  59.894  1.00  0.00     0.293 HD
ENDBRANCH  17  22
ENDBRANCH   1  12
BRANCH   2  24
ATOM     24  O   UNL     1     263.929 -27.711  58.821  1.00  0.00    -0.502 OA
ATOM     25  H   UNL     1     264.029 -26.921  59.446  1.00  0.00     0.293 HD
ENDBRANCH   2  24
BRANCH   6  26
ATOM     26  O   UNL     1     265.576 -27.865  53.758  1.00  0.00    -0.507 OA
ATOM     27  H   UNL     1     266.041 -28.063  52.884  1.00  0.00     0.293 HD
ENDBRANCH   6  26
BRANCH   8  28
ATOM     28  O   UNL     1     261.492 -26.719  51.509  1.00  0.00    -0.508 OA
ATOM     29  H   UNL     1     261.645 -25.862  50.990  1.00  0.00     0.293 HD
ENDBRANCH   8  28
TORSDOF 7
ENDMDL
