MODEL 1
REMARK VINA RESULT:    -3.325      0.000      0.000
REMARK INTER + INTRA:          -4.227
REMARK INTER:                  -4.006
REMARK INTRA:                  -0.222
REMARK UNBOUND:                -0.222
REMARK SMILES OCC(O)CO
REMARK SMILES IDX 3 1 5 2 6 3 2 5 1 6 4 8
REMARK H PARENT 6 4 1 7 4 9
REMARK Flexibility Score: inf
ROOT
ATOM      1  C   UNL     1     131.138 114.561 129.512  1.00  0.00     0.165 C 
ENDROOT
BRANCH   1   2
ATOM      2  C   UNL     1     130.220 115.770 129.749  1.00  0.00     0.190 C 
BRANCH   2   3
ATOM      3  O   UNL     1     130.203 116.121 131.106  1.00  0.00    -0.394 OA
ATOM      4  H   UNL     1     129.376 116.652 131.242  1.00  0.00     0.210 HD
ENDBRANCH   2   3
ENDBRANCH   1   2
BRANCH   1   5
ATOM      5  C   UNL     1     132.489 114.714 130.235  1.00  0.00     0.190 C 
BRANCH   5   6
ATOM      6  O   UNL     1     132.420 114.163 131.523  1.00  0.00    -0.394 OA
ATOM      7  H   UNL     1     133.355 113.978 131.804  1.00  0.00     0.210 HD
ENDBRANCH   5   6
ENDBRANCH   1   5
BRANCH   1   8
ATOM      8  O   UNL     1     130.496 113.366 129.884  1.00  0.00    -0.388 OA
ATOM      9  H   UNL     1     130.135 112.947 129.061  1.00  0.00     0.211 HD
ENDBRANCH   1   8
TORSDOF 5
ENDMDL
MODEL 2
REMARK VINA RESULT:    -3.175     13.875     14.922
REMARK INTER + INTRA:          -4.047
REMARK INTER:                  -3.861
REMARK INTRA:                  -0.185
REMARK UNBOUND:                -0.222
REMARK SMILES OCC(O)CO
REMARK SMILES IDX 3 1 5 2 6 3 2 5 1 6 4 8
REMARK H PARENT 6 4 1 7 4 9
REMARK Flexibility Score: inf
ROOT
ATOM      1  C   UNL     1     124.114 128.268 127.278  1.00  0.00     0.165 C 
ENDROOT
BRANCH   1   2
ATOM      2  C   UNL     1     125.436 129.038 127.144  1.00  0.00     0.190 C 
BRANCH   2   3
ATOM      3  O   UNL     1     126.465 128.381 127.834  1.00  0.00    -0.394 OA
ATOM      4  H   UNL     1     127.271 128.455 127.260  1.00  0.00     0.210 HD
ENDBRANCH   2   3
ENDBRANCH   1   2
BRANCH   1   5
ATOM      5  C   UNL     1     124.224 126.834 126.726  1.00  0.00     0.190 C 
BRANCH   5   6
ATOM      6  O   UNL     1     124.489 125.929 127.764  1.00  0.00    -0.394 OA
ATOM      7  H   UNL     1     125.477 125.853 127.830  1.00  0.00     0.210 HD
ENDBRANCH   5   6
ENDBRANCH   1   5
BRANCH   1   8
ATOM      8  O   UNL     1     123.670 128.264 128.613  1.00  0.00    -0.388 OA
ATOM      9  H   UNL     1     122.784 127.818 128.636  1.00  0.00     0.211 HD
ENDBRANCH   1   8
TORSDOF 5
ENDMDL
MODEL 3
REMARK VINA RESULT:    -3.154     19.998     21.059
REMARK INTER + INTRA:          -4.021
REMARK INTER:                  -3.800
REMARK INTRA:                  -0.221
REMARK UNBOUND:                -0.222
REMARK SMILES OCC(O)CO
REMARK SMILES IDX 3 1 5 2 6 3 2 5 1 6 4 8
REMARK H PARENT 6 4 1 7 4 9
REMARK Flexibility Score: inf
ROOT
ATOM      1  C   UNL     1     117.852 122.410 145.677  1.00  0.00     0.165 C 
ENDROOT
BRANCH   1   2
ATOM      2  C   UNL     1     118.476 121.210 144.948  1.00  0.00     0.190 C 
BRANCH   2   3
ATOM      3  O   UNL     1     118.600 121.472 143.577  1.00  0.00    -0.394 OA
ATOM      4  H   UNL     1     118.764 120.594 143.143  1.00  0.00     0.210 HD
ENDBRANCH   2   3
ENDBRANCH   1   2
BRANCH   1   5
ATOM      5  C   UNL     1     118.759 123.653 145.620  1.00  0.00     0.190 C 
BRANCH   5   6
ATOM      6  O   UNL     1     120.064 123.291 145.252  1.00  0.00    -0.394 OA
ATOM      7  H   UNL     1     120.305 123.854 144.470  1.00  0.00     0.210 HD
ENDBRANCH   5   6
ENDBRANCH   1   5
BRANCH   1   8
ATOM      8  O   UNL     1     116.572 122.693 145.168  1.00  0.00    -0.388 OA
ATOM      9  H   UNL     1     116.285 121.917 144.621  1.00  0.00     0.211 HD
ENDBRANCH   1   8
TORSDOF 5
ENDMDL
MODEL 4
REMARK VINA RESULT:    -3.148     19.387     20.332
REMARK INTER + INTRA:          -4.013
REMARK INTER:                  -3.789
REMARK INTRA:                  -0.224
REMARK UNBOUND:                -0.222
REMARK SMILES OCC(O)CO
REMARK SMILES IDX 3 1 5 2 6 3 2 5 1 6 4 8
REMARK H PARENT 6 4 1 7 4 9
REMARK Flexibility Score: inf
ROOT
ATOM      1  C   UNL     1     119.278 121.414 145.092  1.00  0.00     0.165 C 
ENDROOT
BRANCH   1   2
ATOM      2  C   UNL     1     118.395 122.616 145.458  1.00  0.00     0.190 C 
BRANCH   2   3
ATOM      3  O   UNL     1     117.997 123.309 144.306  1.00  0.00    -0.394 OA
ATOM      4  H   UNL     1     117.149 123.767 144.541  1.00  0.00     0.210 HD
ENDBRANCH   2   3
ENDBRANCH   1   2
BRANCH   1   5
ATOM      5  C   UNL     1     118.578 120.466 144.100  1.00  0.00     0.190 C 
BRANCH   5   6
ATOM      6  O   UNL     1     117.190 120.489 144.298  1.00  0.00    -0.394 OA
ATOM      7  H   UNL     1     116.934 121.442 144.408  1.00  0.00     0.210 HD
ENDBRANCH   5   6
ENDBRANCH   1   5
BRANCH   1   8
ATOM      8  O   UNL     1     120.522 121.841 144.592  1.00  0.00    -0.388 OA
ATOM      9  H   UNL     1     120.584 122.821 144.733  1.00  0.00     0.211 HD
ENDBRANCH   1   8
TORSDOF 5
ENDMDL
MODEL 5
REMARK VINA RESULT:    -3.106      0.664      2.496
REMARK INTER + INTRA:          -3.963
REMARK INTER:                  -3.748
REMARK INTRA:                  -0.215
REMARK UNBOUND:                -0.222
REMARK SMILES OCC(O)CO
REMARK SMILES IDX 3 1 5 2 6 3 2 5 1 6 4 8
REMARK H PARENT 6 4 1 7 4 9
REMARK Flexibility Score: inf
ROOT
ATOM      1  C   UNL     1     131.158 115.141 129.513  1.00  0.00     0.165 C 
ENDROOT
BRANCH   1   2
ATOM      2  C   UNL     1     132.520 114.750 130.107  1.00  0.00     0.190 C 
BRANCH   2   3
ATOM      3  O   UNL     1     132.364 114.199 131.386  1.00  0.00    -0.394 OA
ATOM      4  H   UNL     1     133.272 113.924 131.679  1.00  0.00     0.210 HD
ENDBRANCH   2   3
ENDBRANCH   1   2
BRANCH   1   5
ATOM      5  C   UNL     1     130.504 113.971 128.755  1.00  0.00     0.190 C 
BRANCH   5   6
ATOM      6  O   UNL     1     130.258 112.900 129.625  1.00  0.00    -0.394 OA
ATOM      7  H   UNL     1     130.497 113.214 130.537  1.00  0.00     0.210 HD
ENDBRANCH   5   6
ENDBRANCH   1   5
BRANCH   1   8
ATOM      8  O   UNL     1     130.302 115.639 130.512  1.00  0.00    -0.388 OA
ATOM      9  H   UNL     1     129.656 116.254 130.078  1.00  0.00     0.211 HD
ENDBRANCH   1   8
TORSDOF 5
ENDMDL
MODEL 6
REMARK VINA RESULT:    -3.074     19.429     20.513
REMARK INTER + INTRA:          -3.925
REMARK INTER:                  -3.701
REMARK INTRA:                  -0.223
REMARK UNBOUND:                -0.222
REMARK SMILES OCC(O)CO
REMARK SMILES IDX 3 1 5 2 6 3 2 5 1 6 4 8
REMARK H PARENT 6 4 1 7 4 9
REMARK Flexibility Score: inf
ROOT
ATOM      1  C   UNL     1     118.373 121.218 145.359  1.00  0.00     0.165 C 
ENDROOT
BRANCH   1   2
ATOM      2  C   UNL     1     119.751 120.789 144.834  1.00  0.00     0.190 C 
BRANCH   2   3
ATOM      3  O   UNL     1     120.561 121.909 144.596  1.00  0.00    -0.394 OA
ATOM      4  H   UNL     1     120.265 122.603 145.240  1.00  0.00     0.210 HD
ENDBRANCH   2   3
ENDBRANCH   1   2
BRANCH   1   5
ATOM      5  C   UNL     1     118.267 122.746 145.520  1.00  0.00     0.190 C 
BRANCH   5   6
ATOM      6  O   UNL     1     118.056 123.355 144.274  1.00  0.00    -0.394 OA
ATOM      7  H   UNL     1     118.939 123.388 143.820  1.00  0.00     0.210 HD
ENDBRANCH   5   6
ENDBRANCH   1   5
BRANCH   1   8
ATOM      8  O   UNL     1     117.347 120.723 144.534  1.00  0.00    -0.388 OA
ATOM      9  H   UNL     1     117.733 120.560 143.635  1.00  0.00     0.211 HD
ENDBRANCH   1   8
TORSDOF 5
ENDMDL
MODEL 7
REMARK VINA RESULT:    -3.048     16.807     17.777
REMARK INTER + INTRA:          -3.893
REMARK INTER:                  -3.669
REMARK INTRA:                  -0.224
REMARK UNBOUND:                -0.222
REMARK SMILES OCC(O)CO
REMARK SMILES IDX 3 1 5 2 6 3 2 5 1 6 4 8
REMARK H PARENT 6 4 1 7 4 9
REMARK Flexibility Score: inf
ROOT
ATOM      1  C   UNL     1     119.722 119.117 142.509  1.00  0.00     0.165 C 
ENDROOT
BRANCH   1   2
ATOM      2  C   UNL     1     118.994 120.260 143.232  1.00  0.00     0.190 C 
BRANCH   2   3
ATOM      3  O   UNL     1     117.617 120.008 143.299  1.00  0.00    -0.394 OA
ATOM      4  H   UNL     1     117.511 119.029 143.170  1.00  0.00     0.210 HD
ENDBRANCH   2   3
ENDBRANCH   1   2
BRANCH   1   5
ATOM      5  C   UNL     1     118.770 117.956 142.164  1.00  0.00     0.190 C 
BRANCH   5   6
ATOM      6  O   UNL     1     118.066 118.235 140.983  1.00  0.00    -0.394 OA
ATOM      7  H   UNL     1     117.533 117.424 140.771  1.00  0.00     0.210 HD
ENDBRANCH   5   6
ENDBRANCH   1   5
BRANCH   1   8
ATOM      8  O   UNL     1     120.380 119.590 141.360  1.00  0.00    -0.388 OA
ATOM      9  H   UNL     1     120.438 118.840 140.713  1.00  0.00     0.211 HD
ENDBRANCH   1   8
TORSDOF 5
ENDMDL
MODEL 8
REMARK VINA RESULT:    -3.017     16.825     17.781
REMARK INTER + INTRA:          -3.856
REMARK INTER:                  -3.640
REMARK INTRA:                  -0.215
REMARK UNBOUND:                -0.222
REMARK SMILES OCC(O)CO
REMARK SMILES IDX 3 1 5 2 6 3 2 5 1 6 4 8
REMARK H PARENT 6 4 1 7 4 9
REMARK Flexibility Score: inf
ROOT
ATOM      1  C   UNL     1     118.906 119.180 143.192  1.00  0.00     0.165 C 
ENDROOT
BRANCH   1   2
ATOM      2  C   UNL     1     118.676 117.885 142.397  1.00  0.00     0.190 C 
BRANCH   2   3
ATOM      3  O   UNL     1     118.020 118.156 141.188  1.00  0.00    -0.394 OA
ATOM      4  H   UNL     1     118.449 117.575 140.507  1.00  0.00     0.210 HD
ENDBRANCH   2   3
ENDBRANCH   1   2
BRANCH   1   5
ATOM      5  C   UNL     1     120.146 119.947 142.697  1.00  0.00     0.190 C 
BRANCH   5   6
ATOM      6  O   UNL     1     120.464 119.569 141.384  1.00  0.00    -0.394 OA
ATOM      7  H   UNL     1     120.128 118.642 141.266  1.00  0.00     0.210 HD
ENDBRANCH   5   6
ENDBRANCH   1   5
BRANCH   1   8
ATOM      8  O   UNL     1     117.760 119.996 143.161  1.00  0.00    -0.388 OA
ATOM      9  H   UNL     1     116.988 119.445 143.452  1.00  0.00     0.211 HD
ENDBRANCH   1   8
TORSDOF 5
ENDMDL
MODEL 9
REMARK VINA RESULT:    -3.013      8.018      8.601
REMARK INTER + INTRA:          -3.851
REMARK INTER:                  -3.672
REMARK INTRA:                  -0.180
REMARK UNBOUND:                -0.222
REMARK SMILES OCC(O)CO
REMARK SMILES IDX 3 1 5 2 6 3 2 5 1 6 4 8
REMARK H PARENT 6 4 1 7 4 9
REMARK Flexibility Score: inf
ROOT
ATOM      1  C   UNL     1     123.733 118.278 131.213  1.00  0.00     0.165 C 
ENDROOT
BRANCH   1   2
ATOM      2  C   UNL     1     124.159 119.674 130.732  1.00  0.00     0.190 C 
BRANCH   2   3
ATOM      3  O   UNL     1     123.353 120.665 131.309  1.00  0.00    -0.394 OA
ATOM      4  H   UNL     1     123.358 120.488 132.286  1.00  0.00     0.210 HD
ENDBRANCH   2   3
ENDBRANCH   1   2
BRANCH   1   5
ATOM      5  C   UNL     1     124.132 118.028 132.680  1.00  0.00     0.190 C 
BRANCH   5   6
ATOM      6  O   UNL     1     125.253 118.798 133.020  1.00  0.00    -0.394 OA
ATOM      7  H   UNL     1     124.909 119.631 133.440  1.00  0.00     0.210 HD
ENDBRANCH   5   6
ENDBRANCH   1   5
BRANCH   1   8
ATOM      8  O   UNL     1     122.353 118.084 131.023  1.00  0.00    -0.388 OA
ATOM      9  H   UNL     1     122.159 118.211 130.059  1.00  0.00     0.211 HD
ENDBRANCH   1   8
TORSDOF 5
ENDMDL
