MODEL 1
REMARK VINA RESULT:    -4.975      0.000      0.000
REMARK INTER + INTRA:          -9.875
REMARK INTER:                  -9.047
REMARK INTRA:                  -0.828
REMARK UNBOUND:                -0.828
REMARK SMILES CCCCCCCCCCCCCC[C@H](C)C(=O)[O-]
REMARK SMILES IDX 9 1 10 2 11 3 12 4 13 5 14 6 15 7 16 8 17 9 18 10 19 11 8 12
REMARK SMILES IDX 7 13 6 14 5 15 4 16 3 17 2 18 1 19
REMARK H PARENT
REMARK Flexibility Score: inf
ROOT
ATOM      1  C   UNL     1      95.363 124.087 124.120  1.00  0.00     0.000 C 
ENDROOT
BRANCH   1   2
ATOM      2  C   UNL     1      94.616 123.092 125.034  1.00  0.00     0.000 C 
BRANCH   2   3
ATOM      3  C   UNL     1      93.127 122.914 124.678  1.00  0.00     0.000 C 
BRANCH   3   4
ATOM      4  C   UNL     1      92.735 123.349 123.253  1.00  0.00     0.000 C 
BRANCH   4   5
ATOM      5  C   UNL     1      92.741 122.221 122.205  1.00  0.00     0.001 C 
BRANCH   5   6
ATOM      6  C   UNL     1      92.708 122.747 120.759  1.00  0.00     0.009 C 
BRANCH   6   7
ATOM      7  C   UNL     1      92.850 121.618 119.713  1.00  0.00     0.032 C 
ATOM      8  C   UNL     1      94.309 121.176 119.532  1.00  0.00     0.014 C 
BRANCH   7   9
ATOM      9  C   UNL     1      92.289 122.064 118.392  1.00  0.00     0.044 C 
ATOM     10  O   UNL     1      91.844 123.234 118.247  1.00  0.00    -0.550 OA
ATOM     11  O   UNL     1      92.272 121.187 117.315  1.00  0.00    -0.550 OA
ENDBRANCH   7   9
ENDBRANCH   6   7
ENDBRANCH   5   6
ENDBRANCH   4   5
ENDBRANCH   3   4
ENDBRANCH   2   3
ENDBRANCH   1   2
BRANCH   1  12
ATOM     12  C   UNL     1      96.683 124.582 124.738  1.00  0.00     0.000 C 
BRANCH  12  13
ATOM     13  C   UNL     1      96.937 124.002 126.138  1.00  0.00    -0.000 C 
BRANCH  13  14
ATOM     14  C   UNL     1      98.272 124.469 126.741  1.00  0.00    -0.000 C 
BRANCH  14  15
ATOM     15  C   UNL     1      99.387 123.455 126.460  1.00  0.00    -0.000 C 
BRANCH  15  16
ATOM     16  C   UNL     1      98.839 122.020 126.469  1.00  0.00    -0.000 C 
BRANCH  16  17
ATOM     17  C   UNL     1      99.897 120.983 126.877  1.00  0.00    -0.000 C 
BRANCH  17  18
ATOM     18  C   UNL     1     100.424 120.175 125.682  1.00  0.00    -0.003 C 
ATOM     19  C   UNL     1     101.918 120.410 125.478  1.00  0.00     0.004 C 
ENDBRANCH  17  18
ENDBRANCH  16  17
ENDBRANCH  15  16
ENDBRANCH  14  15
ENDBRANCH  13  14
ENDBRANCH  12  13
ENDBRANCH   1  12
TORSDOF 14
ENDMDL
MODEL 2
REMARK VINA RESULT:    -4.943      4.027      8.971
REMARK INTER + INTRA:          -9.816
REMARK INTER:                  -9.150
REMARK INTRA:                  -0.666
REMARK UNBOUND:                -0.828
REMARK SMILES CCCCCCCCCCCCCC[C@H](C)C(=O)[O-]
REMARK SMILES IDX 9 1 10 2 11 3 12 4 13 5 14 6 15 7 16 8 17 9 18 10 19 11 8 12
REMARK SMILES IDX 7 13 6 14 5 15 4 16 3 17 2 18 1 19
REMARK H PARENT
REMARK Flexibility Score: inf
ROOT
ATOM      1  C   UNL     1      94.625 123.206 124.973  1.00  0.00     0.000 C 
ENDROOT
BRANCH   1   2
ATOM      2  C   UNL     1      95.517 124.155 124.144  1.00  0.00     0.000 C 
BRANCH   2   3
ATOM      3  C   UNL     1      96.797 124.607 124.874  1.00  0.00     0.000 C 
BRANCH   3   4
ATOM      4  C   UNL     1      97.060 123.917 126.226  1.00  0.00     0.000 C 
BRANCH   4   5
ATOM      5  C   UNL     1      98.538 123.593 126.513  1.00  0.00     0.001 C 
BRANCH   5   6
ATOM      6  C   UNL     1      98.864 122.097 126.357  1.00  0.00     0.009 C 
BRANCH   6   7
ATOM      7  C   UNL     1     100.360 121.788 126.591  1.00  0.00     0.032 C 
ATOM      8  C   UNL     1     101.273 122.896 126.047  1.00  0.00     0.014 C 
BRANCH   7   9
ATOM      9  C   UNL     1     100.723 120.476 125.952  1.00  0.00     0.044 C 
ATOM     10  O   UNL     1     101.774 119.870 126.288  1.00  0.00    -0.550 OA
ATOM     11  O   UNL     1      99.887 119.918 124.993  1.00  0.00    -0.550 OA
ENDBRANCH   7   9
ENDBRANCH   6   7
ENDBRANCH   5   6
ENDBRANCH   4   5
ENDBRANCH   3   4
ENDBRANCH   2   3
ENDBRANCH   1   2
BRANCH   1  12
ATOM     12  C   UNL     1      93.188 123.121 124.430  1.00  0.00     0.000 C 
BRANCH  12  13
ATOM     13  C   UNL     1      93.102 123.423 122.926  1.00  0.00    -0.000 C 
BRANCH  13  14
ATOM     14  C   UNL     1      92.538 122.245 122.114  1.00  0.00    -0.000 C 
BRANCH  14  15
ATOM     15  C   UNL     1      93.247 122.121 120.759  1.00  0.00    -0.000 C 
BRANCH  15  16
ATOM     16  C   UNL     1      92.356 122.646 119.623  1.00  0.00    -0.000 C 
BRANCH  16  17
ATOM     17  C   UNL     1      92.276 121.674 118.436  1.00  0.00    -0.000 C 
BRANCH  17  18
ATOM     18  C   UNL     1      91.725 122.338 117.165  1.00  0.00    -0.003 C 
ATOM     19  C   UNL     1      91.913 121.435 115.950  1.00  0.00     0.004 C 
ENDBRANCH  17  18
ENDBRANCH  16  17
ENDBRANCH  15  16
ENDBRANCH  14  15
ENDBRANCH  13  14
ENDBRANCH  12  13
ENDBRANCH   1  12
TORSDOF 14
ENDMDL
MODEL 3
REMARK VINA RESULT:    -4.647     12.395     14.430
REMARK INTER + INTRA:          -9.279
REMARK INTER:                  -7.518
REMARK INTRA:                  -1.760
REMARK UNBOUND:                -0.828
REMARK SMILES CCCCCCCCCCCCCC[C@H](C)C(=O)[O-]
REMARK SMILES IDX 9 1 10 2 11 3 12 4 13 5 14 6 15 7 16 8 17 9 18 10 19 11 8 12
REMARK SMILES IDX 7 13 6 14 5 15 4 16 3 17 2 18 1 19
REMARK H PARENT
REMARK Flexibility Score: inf
ROOT
ATOM      1  C   UNL     1      84.444 124.241 126.892  1.00  0.00     0.000 C 
ENDROOT
BRANCH   1   2
ATOM      2  C   UNL     1      83.215 124.146 125.963  1.00  0.00     0.000 C 
BRANCH   2   3
ATOM      3  C   UNL     1      83.358 123.099 124.841  1.00  0.00     0.000 C 
BRANCH   3   4
ATOM      4  C   UNL     1      84.472 122.057 125.054  1.00  0.00     0.000 C 
BRANCH   4   5
ATOM      5  C   UNL     1      84.002 120.718 125.654  1.00  0.00     0.001 C 
BRANCH   5   6
ATOM      6  C   UNL     1      84.746 120.350 126.951  1.00  0.00     0.009 C 
BRANCH   6   7
ATOM      7  C   UNL     1      83.815 120.333 128.184  1.00  0.00     0.032 C 
ATOM      8  C   UNL     1      82.433 120.926 127.875  1.00  0.00     0.014 C 
BRANCH   7   9
ATOM      9  C   UNL     1      84.447 121.089 129.319  1.00  0.00     0.044 C 
ATOM     10  O   UNL     1      83.811 121.287 130.389  1.00  0.00    -0.550 OA
ATOM     11  O   UNL     1      85.747 121.563 129.198  1.00  0.00    -0.550 OA
ENDBRANCH   7   9
ENDBRANCH   6   7
ENDBRANCH   5   6
ENDBRANCH   4   5
ENDBRANCH   3   4
ENDBRANCH   2   3
ENDBRANCH   1   2
BRANCH   1  12
ATOM     12  C   UNL     1      84.063 124.568 128.347  1.00  0.00     0.000 C 
BRANCH  12  13
ATOM     13  C   UNL     1      82.547 124.510 128.591  1.00  0.00    -0.000 C 
BRANCH  13  14
ATOM     14  C   UNL     1      82.046 125.648 129.496  1.00  0.00    -0.000 C 
BRANCH  14  15
ATOM     15  C   UNL     1      83.218 126.476 130.038  1.00  0.00    -0.000 C 
BRANCH  15  16
ATOM     16  C   UNL     1      82.744 127.863 130.497  1.00  0.00    -0.000 C 
BRANCH  16  17
ATOM     17  C   UNL     1      83.822 128.944 130.326  1.00  0.00    -0.000 C 
BRANCH  17  18
ATOM     18  C   UNL     1      84.818 128.975 131.496  1.00  0.00    -0.003 C 
ATOM     19  C   UNL     1      84.569 130.182 132.395  1.00  0.00     0.004 C 
ENDBRANCH  17  18
ENDBRANCH  16  17
ENDBRANCH  15  16
ENDBRANCH  14  15
ENDBRANCH  13  14
ENDBRANCH  12  13
ENDBRANCH   1  12
TORSDOF 14
ENDMDL
MODEL 4
REMARK VINA RESULT:    -4.622      0.918      1.480
REMARK INTER + INTRA:          -9.233
REMARK INTER:                  -8.594
REMARK INTRA:                  -0.638
REMARK UNBOUND:                -0.828
REMARK SMILES CCCCCCCCCCCCCC[C@H](C)C(=O)[O-]
REMARK SMILES IDX 9 1 10 2 11 3 12 4 13 5 14 6 15 7 16 8 17 9 18 10 19 11 8 12
REMARK SMILES IDX 7 13 6 14 5 15 4 16 3 17 2 18 1 19
REMARK H PARENT
REMARK Flexibility Score: inf
ROOT
ATOM      1  C   UNL     1      94.470 123.132 124.943  1.00  0.00     0.000 C 
ENDROOT
BRANCH   1   2
ATOM      2  C   UNL     1      93.119 122.919 124.227  1.00  0.00     0.000 C 
BRANCH   2   3
ATOM      3  C   UNL     1      93.103 123.405 122.765  1.00  0.00     0.000 C 
BRANCH   3   4
ATOM      4  C   UNL     1      92.711 122.341 121.722  1.00  0.00     0.000 C 
BRANCH   4   5
ATOM      5  C   UNL     1      93.215 122.616 120.293  1.00  0.00     0.001 C 
BRANCH   5   6
ATOM      6  C   UNL     1      92.113 122.461 119.230  1.00  0.00     0.009 C 
BRANCH   6   7
ATOM      7  C   UNL     1      92.387 121.293 118.256  1.00  0.00     0.032 C 
ATOM      8  C   UNL     1      93.862 120.865 118.265  1.00  0.00     0.014 C 
BRANCH   7   9
ATOM      9  C   UNL     1      91.981 121.676 116.861  1.00  0.00     0.044 C 
ATOM     10  O   UNL     1      91.434 122.788 116.636  1.00  0.00    -0.550 OA
ATOM     11  O   UNL     1      92.221 120.806 115.805  1.00  0.00    -0.550 OA
ENDBRANCH   7   9
ENDBRANCH   6   7
ENDBRANCH   5   6
ENDBRANCH   4   5
ENDBRANCH   3   4
ENDBRANCH   2   3
ENDBRANCH   1   2
BRANCH   1  12
ATOM     12  C   UNL     1      95.460 123.961 124.105  1.00  0.00     0.000 C 
BRANCH  12  13
ATOM     13  C   UNL     1      96.606 124.545 124.945  1.00  0.00    -0.000 C 
BRANCH  13  14
ATOM     14  C   UNL     1      96.932 123.692 126.182  1.00  0.00    -0.000 C 
BRANCH  14  15
ATOM     15  C   UNL     1      98.447 123.520 126.348  1.00  0.00    -0.000 C 
BRANCH  15  16
ATOM     16  C   UNL     1      98.812 122.043 126.555  1.00  0.00    -0.000 C 
BRANCH  16  17
ATOM     17  C   UNL     1     100.297 121.756 126.280  1.00  0.00    -0.000 C 
BRANCH  17  18
ATOM     18  C   UNL     1     100.631 120.257 126.349  1.00  0.00    -0.003 C 
ATOM     19  C   UNL     1     102.117 120.016 126.105  1.00  0.00     0.004 C 
ENDBRANCH  17  18
ENDBRANCH  16  17
ENDBRANCH  15  16
ENDBRANCH  14  15
ENDBRANCH  13  14
ENDBRANCH  12  13
ENDBRANCH   1  12
TORSDOF 14
ENDMDL
MODEL 5
REMARK VINA RESULT:    -4.551     12.474     14.216
REMARK INTER + INTRA:          -9.104
REMARK INTER:                  -7.732
REMARK INTRA:                  -1.371
REMARK UNBOUND:                -0.828
REMARK SMILES CCCCCCCCCCCCCC[C@H](C)C(=O)[O-]
REMARK SMILES IDX 9 1 10 2 11 3 12 4 13 5 14 6 15 7 16 8 17 9 18 10 19 11 8 12
REMARK SMILES IDX 7 13 6 14 5 15 4 16 3 17 2 18 1 19
REMARK H PARENT
REMARK Flexibility Score: inf
ROOT
ATOM      1  C   UNL     1      84.131 123.221 129.602  1.00  0.00     0.000 C 
ENDROOT
BRANCH   1   2
ATOM      2  C   UNL     1      84.724 123.044 128.187  1.00  0.00     0.000 C 
BRANCH   2   3
ATOM      3  C   UNL     1      84.686 124.324 127.329  1.00  0.00     0.000 C 
BRANCH   3   4
ATOM      4  C   UNL     1      84.012 124.173 125.953  1.00  0.00     0.000 C 
BRANCH   4   5
ATOM      5  C   UNL     1      82.485 123.976 125.996  1.00  0.00     0.001 C 
BRANCH   5   6
ATOM      6  C   UNL     1      82.055 122.544 125.632  1.00  0.00     0.009 C 
BRANCH   6   7
ATOM      7  C   UNL     1      83.111 121.806 124.779  1.00  0.00     0.032 C 
ATOM      8  C   UNL     1      82.661 121.634 123.321  1.00  0.00     0.014 C 
BRANCH   7   9
ATOM      9  C   UNL     1      83.411 120.460 125.377  1.00  0.00     0.044 C 
ATOM     10  O   UNL     1      82.682 119.467 125.116  1.00  0.00    -0.550 OA
ATOM     11  O   UNL     1      84.508 120.303 126.214  1.00  0.00    -0.550 OA
ENDBRANCH   7   9
ENDBRANCH   6   7
ENDBRANCH   5   6
ENDBRANCH   4   5
ENDBRANCH   3   4
ENDBRANCH   2   3
ENDBRANCH   1   2
BRANCH   1  12
ATOM     12  C   UNL     1      82.827 124.038 129.599  1.00  0.00     0.000 C 
BRANCH  12  13
ATOM     13  C   UNL     1      82.858 125.209 130.593  1.00  0.00    -0.000 C 
BRANCH  13  14
ATOM     14  C   UNL     1      83.125 126.561 129.912  1.00  0.00    -0.000 C 
BRANCH  14  15
ATOM     15  C   UNL     1      82.310 127.680 130.572  1.00  0.00    -0.000 C 
BRANCH  15  16
ATOM     16  C   UNL     1      83.010 129.038 130.410  1.00  0.00    -0.000 C 
BRANCH  16  17
ATOM     17  C   UNL     1      84.510 128.974 130.741  1.00  0.00    -0.000 C 
BRANCH  17  18
ATOM     18  C   UNL     1      84.793 129.164 132.239  1.00  0.00    -0.003 C 
ATOM     19  C   UNL     1      84.485 130.593 132.677  1.00  0.00     0.004 C 
ENDBRANCH  17  18
ENDBRANCH  16  17
ENDBRANCH  15  16
ENDBRANCH  14  15
ENDBRANCH  13  14
ENDBRANCH  12  13
ENDBRANCH   1  12
TORSDOF 14
ENDMDL
MODEL 6
REMARK VINA RESULT:    -4.172     12.060     14.885
REMARK INTER + INTRA:          -8.414
REMARK INTER:                  -7.260
REMARK INTRA:                  -1.154
REMARK UNBOUND:                -0.828
REMARK SMILES CCCCCCCCCCCCCC[C@H](C)C(=O)[O-]
REMARK SMILES IDX 9 1 10 2 11 3 12 4 13 5 14 6 15 7 16 8 17 9 18 10 19 11 8 12
REMARK SMILES IDX 7 13 6 14 5 15 4 16 3 17 2 18 1 19
REMARK H PARENT
REMARK Flexibility Score: inf
ROOT
ATOM      1  C   UNL     1      84.495 124.560 127.897  1.00  0.00     0.000 C 
ENDROOT
BRANCH   1   2
ATOM      2  C   UNL     1      84.090 123.846 126.589  1.00  0.00     0.000 C 
BRANCH   2   3
ATOM      3  C   UNL     1      84.257 122.315 126.635  1.00  0.00     0.000 C 
BRANCH   3   4
ATOM      4  C   UNL     1      83.219 121.566 127.492  1.00  0.00     0.000 C 
BRANCH   4   5
ATOM      5  C   UNL     1      83.809 120.728 128.641  1.00  0.00     0.001 C 
BRANCH   5   6
ATOM      6  C   UNL     1      85.339 120.852 128.747  1.00  0.00     0.009 C 
BRANCH   6   7
ATOM      7  C   UNL     1      85.935 119.930 129.836  1.00  0.00     0.032 C 
ATOM      8  C   UNL     1      84.848 119.293 130.714  1.00  0.00     0.014 C 
BRANCH   7   9
ATOM      9  C   UNL     1      86.894 120.702 130.699  1.00  0.00     0.044 C 
ATOM     10  O   UNL     1      86.786 120.680 131.953  1.00  0.00    -0.550 OA
ATOM     11  O   UNL     1      87.916 121.437 130.112  1.00  0.00    -0.550 OA
ENDBRANCH   7   9
ENDBRANCH   6   7
ENDBRANCH   5   6
ENDBRANCH   4   5
ENDBRANCH   3   4
ENDBRANCH   2   3
ENDBRANCH   1   2
BRANCH   1  12
ATOM     12  C   UNL     1      83.291 125.167 128.637  1.00  0.00     0.000 C 
BRANCH  12  13
ATOM     13  C   UNL     1      83.337 124.919 130.153  1.00  0.00    -0.000 C 
BRANCH  13  14
ATOM     14  C   UNL     1      83.286 126.220 130.970  1.00  0.00    -0.000 C 
BRANCH  14  15
ATOM     15  C   UNL     1      82.944 127.418 130.076  1.00  0.00    -0.000 C 
BRANCH  15  16
ATOM     16  C   UNL     1      84.075 128.457 130.095  1.00  0.00    -0.000 C 
BRANCH  16  17
ATOM     17  C   UNL     1      83.826 129.587 131.105  1.00  0.00    -0.000 C 
BRANCH  17  18
ATOM     18  C   UNL     1      82.394 130.140 131.032  1.00  0.00    -0.003 C 
ATOM     19  C   UNL     1      82.205 131.301 132.002  1.00  0.00     0.004 C 
ENDBRANCH  17  18
ENDBRANCH  16  17
ENDBRANCH  15  16
ENDBRANCH  14  15
ENDBRANCH  13  14
ENDBRANCH  12  13
ENDBRANCH   1  12
TORSDOF 14
ENDMDL
MODEL 7
REMARK VINA RESULT:    -4.160     12.458     14.562
REMARK INTER + INTRA:          -8.393
REMARK INTER:                  -6.878
REMARK INTRA:                  -1.515
REMARK UNBOUND:                -0.828
REMARK SMILES CCCCCCCCCCCCCC[C@H](C)C(=O)[O-]
REMARK SMILES IDX 9 1 10 2 11 3 12 4 13 5 14 6 15 7 16 8 17 9 18 10 19 11 8 12
REMARK SMILES IDX 7 13 6 14 5 15 4 16 3 17 2 18 1 19
REMARK H PARENT
REMARK Flexibility Score: inf
ROOT
ATOM      1  C   UNL     1      83.382 123.579 130.580  1.00  0.00     0.000 C 
ENDROOT
BRANCH   1   2
ATOM      2  C   UNL     1      83.129 122.072 130.802  1.00  0.00     0.000 C 
BRANCH   2   3
ATOM      3  C   UNL     1      84.371 121.189 130.568  1.00  0.00     0.000 C 
BRANCH   3   4
ATOM      4  C   UNL     1      85.114 121.439 129.242  1.00  0.00     0.000 C 
BRANCH   4   5
ATOM      5  C   UNL     1      84.550 120.676 128.029  1.00  0.00     0.001 C 
BRANCH   5   6
ATOM      6  C   UNL     1      84.444 121.551 126.768  1.00  0.00     0.009 C 
BRANCH   6   7
ATOM      7  C   UNL     1      83.453 122.724 126.941  1.00  0.00     0.032 C 
ATOM      8  C   UNL     1      82.070 122.406 126.352  1.00  0.00     0.014 C 
BRANCH   7   9
ATOM      9  C   UNL     1      84.002 123.966 126.296  1.00  0.00     0.044 C 
ATOM     10  O   UNL     1      84.725 124.761 126.953  1.00  0.00    -0.550 OA
ATOM     11  O   UNL     1      83.725 124.235 124.962  1.00  0.00    -0.550 OA
ENDBRANCH   7   9
ENDBRANCH   6   7
ENDBRANCH   5   6
ENDBRANCH   4   5
ENDBRANCH   3   4
ENDBRANCH   2   3
ENDBRANCH   1   2
BRANCH   1  12
ATOM     12  C   UNL     1      82.199 124.281 129.891  1.00  0.00     0.000 C 
BRANCH  12  13
ATOM     13  C   UNL     1      82.498 125.748 129.546  1.00  0.00    -0.000 C 
BRANCH  13  14
ATOM     14  C   UNL     1      83.032 126.545 130.749  1.00  0.00    -0.000 C 
BRANCH  14  15
ATOM     15  C   UNL     1      82.451 127.965 130.769  1.00  0.00    -0.000 C 
BRANCH  15  16
ATOM     16  C   UNL     1      83.472 128.983 130.239  1.00  0.00    -0.000 C 
BRANCH  16  17
ATOM     17  C   UNL     1      84.770 129.004 131.062  1.00  0.00    -0.000 C 
BRANCH  17  18
ATOM     18  C   UNL     1      84.558 129.547 132.484  1.00  0.00    -0.003 C 
ATOM     19  C   UNL     1      84.092 130.999 132.451  1.00  0.00     0.004 C 
ENDBRANCH  17  18
ENDBRANCH  16  17
ENDBRANCH  15  16
ENDBRANCH  14  15
ENDBRANCH  13  14
ENDBRANCH  12  13
ENDBRANCH   1  12
TORSDOF 14
ENDMDL
MODEL 8
REMARK VINA RESULT:    -3.982     11.765     14.256
REMARK INTER + INTRA:          -8.069
REMARK INTER:                  -6.281
REMARK INTRA:                  -1.788
REMARK UNBOUND:                -0.828
REMARK SMILES CCCCCCCCCCCCCC[C@H](C)C(=O)[O-]
REMARK SMILES IDX 9 1 10 2 11 3 12 4 13 5 14 6 15 7 16 8 17 9 18 10 19 11 8 12
REMARK SMILES IDX 7 13 6 14 5 15 4 16 3 17 2 18 1 19
REMARK H PARENT
REMARK Flexibility Score: inf
ROOT
ATOM      1  C   UNL     1      83.576 122.933 129.058  1.00  0.00     0.000 C 
ENDROOT
BRANCH   1   2
ATOM      2  C   UNL     1      82.901 122.600 130.406  1.00  0.00     0.000 C 
BRANCH   2   3
ATOM      3  C   UNL     1      83.722 123.029 131.639  1.00  0.00     0.000 C 
BRANCH   3   4
ATOM      4  C   UNL     1      84.141 121.884 132.580  1.00  0.00     0.000 C 
BRANCH   4   5
ATOM      5  C   UNL     1      85.614 121.453 132.461  1.00  0.00     0.001 C 
BRANCH   5   6
ATOM      6  C   UNL     1      85.775 119.990 132.012  1.00  0.00     0.009 C 
BRANCH   6   7
ATOM      7  C   UNL     1      86.196 119.867 130.530  1.00  0.00     0.032 C 
ATOM      8  C   UNL     1      86.902 121.131 130.021  1.00  0.00     0.014 C 
BRANCH   7   9
ATOM      9  C   UNL     1      84.994 119.580 129.674  1.00  0.00     0.044 C 
ATOM     10  O   UNL     1      85.045 119.737 128.425  1.00  0.00    -0.550 OA
ATOM     11  O   UNL     1      83.819 119.125 130.259  1.00  0.00    -0.550 OA
ENDBRANCH   7   9
ENDBRANCH   6   7
ENDBRANCH   5   6
ENDBRANCH   4   5
ENDBRANCH   3   4
ENDBRANCH   2   3
ENDBRANCH   1   2
BRANCH   1  12
ATOM     12  C   UNL     1      83.727 124.448 128.830  1.00  0.00     0.000 C 
BRANCH  12  13
ATOM     13  C   UNL     1      84.594 124.781 127.606  1.00  0.00    -0.000 C 
BRANCH  13  14
ATOM     14  C   UNL     1      84.645 123.633 126.584  1.00  0.00    -0.000 C 
BRANCH  14  15
ATOM     15  C   UNL     1      83.834 123.978 125.328  1.00  0.00    -0.000 C 
BRANCH  15  16
ATOM     16  C   UNL     1      83.128 122.732 124.772  1.00  0.00    -0.000 C 
BRANCH  16  17
ATOM     17  C   UNL     1      83.692 121.424 125.349  1.00  0.00    -0.000 C 
BRANCH  17  18
ATOM     18  C   UNL     1      82.924 120.185 124.865  1.00  0.00    -0.003 C 
ATOM     19  C   UNL     1      82.577 120.300 123.384  1.00  0.00     0.004 C 
ENDBRANCH  17  18
ENDBRANCH  16  17
ENDBRANCH  15  16
ENDBRANCH  14  15
ENDBRANCH  13  14
ENDBRANCH  12  13
ENDBRANCH   1  12
TORSDOF 14
ENDMDL
MODEL 9
REMARK VINA RESULT:    -3.942     12.336     15.114
REMARK INTER + INTRA:          -7.997
REMARK INTER:                  -6.932
REMARK INTRA:                  -1.065
REMARK UNBOUND:                -0.828
REMARK SMILES CCCCCCCCCCCCCC[C@H](C)C(=O)[O-]
REMARK SMILES IDX 9 1 10 2 11 3 12 4 13 5 14 6 15 7 16 8 17 9 18 10 19 11 8 12
REMARK SMILES IDX 7 13 6 14 5 15 4 16 3 17 2 18 1 19
REMARK H PARENT
REMARK Flexibility Score: inf
ROOT
ATOM      1  C   UNL     1      82.409 126.583 130.464  1.00  0.00     0.000 C 
ENDROOT
BRANCH   1   2
ATOM      2  C   UNL     1      81.978 125.570 129.382  1.00  0.00     0.000 C 
BRANCH   2   3
ATOM      3  C   UNL     1      82.676 124.200 129.494  1.00  0.00     0.000 C 
BRANCH   3   4
ATOM      4  C   UNL     1      82.596 123.316 128.235  1.00  0.00     0.000 C 
BRANCH   4   5
ATOM      5  C   UNL     1      81.980 124.000 127.000  1.00  0.00     0.001 C 
BRANCH   5   6
ATOM      6  C   UNL     1      81.995 123.103 125.750  1.00  0.00     0.009 C 
BRANCH   6   7
ATOM      7  C   UNL     1      83.302 122.288 125.619  1.00  0.00     0.032 C 
ATOM      8  C   UNL     1      84.469 123.144 125.107  1.00  0.00     0.014 C 
BRANCH   7   9
ATOM      9  C   UNL     1      83.091 121.118 124.700  1.00  0.00     0.044 C 
ATOM     10  O   UNL     1      83.008 119.949 125.161  1.00  0.00    -0.550 OA
ATOM     11  O   UNL     1      82.974 121.324 123.332  1.00  0.00    -0.550 OA
ENDBRANCH   7   9
ENDBRANCH   6   7
ENDBRANCH   5   6
ENDBRANCH   4   5
ENDBRANCH   3   4
ENDBRANCH   2   3
ENDBRANCH   1   2
BRANCH   1  12
ATOM     12  C   UNL     1      83.300 125.949 131.547  1.00  0.00     0.000 C 
BRANCH  12  13
ATOM     13  C   UNL     1      83.298 126.746 132.860  1.00  0.00    -0.000 C 
BRANCH  13  14
ATOM     14  C   UNL     1      84.555 127.615 133.031  1.00  0.00    -0.000 C 
BRANCH  14  15
ATOM     15  C   UNL     1      84.194 129.106 133.051  1.00  0.00    -0.000 C 
BRANCH  15  16
ATOM     16  C   UNL     1      84.205 129.693 131.631  1.00  0.00    -0.000 C 
BRANCH  16  17
ATOM     17  C   UNL     1      82.817 130.172 131.178  1.00  0.00    -0.000 C 
BRANCH  17  18
ATOM     18  C   UNL     1      82.257 131.289 132.072  1.00  0.00    -0.003 C 
ATOM     19  C   UNL     1      82.705 132.661 131.579  1.00  0.00     0.004 C 
ENDBRANCH  17  18
ENDBRANCH  16  17
ENDBRANCH  15  16
ENDBRANCH  14  15
ENDBRANCH  13  14
ENDBRANCH  12  13
ENDBRANCH   1  12
TORSDOF 14
ENDMDL
