MODEL 1
REMARK VINA RESULT:    -5.831      0.000      0.000
REMARK INTER + INTRA:          -5.831
REMARK INTER:                  -5.831
REMARK INTRA:                   0.000
REMARK UNBOUND:                 0.000
REMARK SMILES O=c1ccc2ccccc2o1
REMARK SMILES IDX 7 1 8 2 9 3 10 4 5 5 6 6 4 7 3 8 2 9 1 10 11 11
REMARK H PARENT
REMARK Flexibility Score: inf
ROOT
ATOM      1  C   UNL     1      56.259  16.947   0.818  1.00  0.00     0.001 A 
ATOM      2  C   UNL     1      55.815  17.011  -0.507  1.00  0.00     0.004 A 
ATOM      3  C   UNL     1      54.472  17.283  -0.787  1.00  0.00     0.048 A 
ATOM      4  C   UNL     1      53.566  17.492   0.259  1.00  0.00     0.138 A 
ATOM      5  C   UNL     1      54.014  17.428   1.598  1.00  0.00     0.018 A 
ATOM      6  C   UNL     1      55.363  17.154   1.871  1.00  0.00     0.012 A 
ATOM      7  C   UNL     1      53.087  17.641   2.622  1.00  0.00     0.019 A 
ATOM      8  C   UNL     1      51.758  17.909   2.297  1.00  0.00     0.094 A 
ATOM      9  C   UNL     1      51.386  17.958   0.949  1.00  0.00     0.336 A 
ATOM     10  O   UNL     1      50.191  18.200   0.636  1.00  0.00    -0.246 OA
ATOM     11  O   UNL     1      52.289  17.752  -0.007  1.00  0.00    -0.423 OA
ENDROOT
TORSDOF 0
ENDMDL
MODEL 2
REMARK VINA RESULT:    -5.776      2.204      3.106
REMARK INTER + INTRA:          -5.776
REMARK INTER:                  -5.776
REMARK INTRA:                   0.000
REMARK UNBOUND:                 0.000
REMARK SMILES O=c1ccc2ccccc2o1
REMARK SMILES IDX 7 1 8 2 9 3 10 4 5 5 6 6 4 7 3 8 2 9 1 10 11 11
REMARK H PARENT
REMARK Flexibility Score: inf
ROOT
ATOM      1  C   UNL     1      54.310  14.080  -0.045  1.00  0.00     0.001 A 
ATOM      2  C   UNL     1      54.040  14.502   1.261  1.00  0.00     0.004 A 
ATOM      3  C   UNL     1      53.256  15.639   1.485  1.00  0.00     0.048 A 
ATOM      4  C   UNL     1      52.738  16.359   0.402  1.00  0.00     0.138 A 
ATOM      5  C   UNL     1      53.011  15.932  -0.918  1.00  0.00     0.018 A 
ATOM      6  C   UNL     1      53.798  14.791  -1.135  1.00  0.00     0.012 A 
ATOM      7  C   UNL     1      52.481  16.671  -1.980  1.00  0.00     0.019 A 
ATOM      8  C   UNL     1      51.705  17.798  -1.709  1.00  0.00     0.094 A 
ATOM      9  C   UNL     1      51.476  18.160  -0.377  1.00  0.00     0.336 A 
ATOM     10  O   UNL     1      50.778  19.173  -0.114  1.00  0.00    -0.246 OA
ATOM     11  O   UNL     1      51.992  17.439   0.615  1.00  0.00    -0.423 OA
ENDROOT
TORSDOF 0
ENDMDL
MODEL 3
REMARK VINA RESULT:    -5.705      3.373      4.871
REMARK INTER + INTRA:          -5.705
REMARK INTER:                  -5.705
REMARK INTRA:                   0.000
REMARK UNBOUND:                 0.000
REMARK SMILES O=c1ccc2ccccc2o1
REMARK SMILES IDX 7 1 8 2 9 3 10 4 5 5 6 6 4 7 3 8 2 9 1 10 11 11
REMARK H PARENT
REMARK Flexibility Score: inf
ROOT
ATOM      1  C   UNL     1      52.908  17.140  -1.495  1.00  0.00     0.001 A 
ATOM      2  C   UNL     1      54.028  17.877  -1.095  1.00  0.00     0.004 A 
ATOM      3  C   UNL     1      55.143  17.227  -0.556  1.00  0.00     0.048 A 
ATOM      4  C   UNL     1      55.142  15.835  -0.414  1.00  0.00     0.138 A 
ATOM      5  C   UNL     1      54.011  15.090  -0.818  1.00  0.00     0.018 A 
ATOM      6  C   UNL     1      52.896  15.748  -1.357  1.00  0.00     0.012 A 
ATOM      7  C   UNL     1      54.038  13.700  -0.664  1.00  0.00     0.019 A 
ATOM      8  C   UNL     1      55.171  13.094  -0.121  1.00  0.00     0.094 A 
ATOM      9  C   UNL     1      56.255  13.896   0.256  1.00  0.00     0.336 A 
ATOM     10  O   UNL     1      57.286  13.367   0.746  1.00  0.00    -0.246 OA
ATOM     11  O   UNL     1      56.203  15.216   0.098  1.00  0.00    -0.423 OA
ENDROOT
TORSDOF 0
ENDMDL
MODEL 4
REMARK VINA RESULT:    -5.672      2.946      4.765
REMARK INTER + INTRA:          -5.672
REMARK INTER:                  -5.672
REMARK INTRA:                   0.000
REMARK UNBOUND:                 0.000
REMARK SMILES O=c1ccc2ccccc2o1
REMARK SMILES IDX 7 1 8 2 9 3 10 4 5 5 6 6 4 7 3 8 2 9 1 10 11 11
REMARK H PARENT
REMARK Flexibility Score: inf
ROOT
ATOM      1  C   UNL     1      53.018  17.017   1.899  1.00  0.00     0.001 A 
ATOM      2  C   UNL     1      52.736  15.697   1.531  1.00  0.00     0.004 A 
ATOM      3  C   UNL     1      53.750  14.876   1.025  1.00  0.00     0.048 A 
ATOM      4  C   UNL     1      55.051  15.373   0.885  1.00  0.00     0.138 A 
ATOM      5  C   UNL     1      55.335  16.706   1.258  1.00  0.00     0.018 A 
ATOM      6  C   UNL     1      54.314  17.524   1.764  1.00  0.00     0.012 A 
ATOM      7  C   UNL     1      56.644  17.175   1.107  1.00  0.00     0.019 A 
ATOM      8  C   UNL     1      57.622  16.321   0.599  1.00  0.00     0.094 A 
ATOM      9  C   UNL     1      57.267  15.013   0.251  1.00  0.00     0.336 A 
ATOM     10  O   UNL     1      58.137  14.228  -0.208  1.00  0.00    -0.246 OA
ATOM     11  O   UNL     1      56.014  14.592   0.405  1.00  0.00    -0.423 OA
ENDROOT
TORSDOF 0
ENDMDL
MODEL 5
REMARK VINA RESULT:    -5.485      3.000      4.175
REMARK INTER + INTRA:          -5.485
REMARK INTER:                  -5.485
REMARK INTRA:                   0.000
REMARK UNBOUND:                 0.000
REMARK SMILES O=c1ccc2ccccc2o1
REMARK SMILES IDX 7 1 8 2 9 3 10 4 5 5 6 6 4 7 3 8 2 9 1 10 11 11
REMARK H PARENT
REMARK Flexibility Score: inf
ROOT
ATOM      1  C   UNL     1      51.862  17.920  -0.483  1.00  0.00     0.001 A 
ATOM      2  C   UNL     1      52.072  17.437  -1.779  1.00  0.00     0.004 A 
ATOM      3  C   UNL     1      52.799  16.259  -1.982  1.00  0.00     0.048 A 
ATOM      4  C   UNL     1      53.319  15.558  -0.888  1.00  0.00     0.138 A 
ATOM      5  C   UNL     1      53.106  16.046   0.421  1.00  0.00     0.018 A 
ATOM      6  C   UNL     1      52.377  17.228   0.618  1.00  0.00     0.012 A 
ATOM      7  C   UNL     1      53.638  15.325   1.495  1.00  0.00     0.019 A 
ATOM      8  C   UNL     1      54.356  14.156   1.246  1.00  0.00     0.094 A 
ATOM      9  C   UNL     1      54.526  13.733  -0.077  1.00  0.00     0.336 A 
ATOM     10  O   UNL     1      55.170  12.680  -0.321  1.00  0.00    -0.246 OA
ATOM     11  O   UNL     1      54.009  14.438  -1.081  1.00  0.00    -0.423 OA
ENDROOT
TORSDOF 0
ENDMDL
MODEL 6
REMARK VINA RESULT:    -5.467      1.179      2.397
REMARK INTER + INTRA:          -5.467
REMARK INTER:                  -5.467
REMARK INTRA:                   0.000
REMARK UNBOUND:                 0.000
REMARK SMILES O=c1ccc2ccccc2o1
REMARK SMILES IDX 7 1 8 2 9 3 10 4 5 5 6 6 4 7 3 8 2 9 1 10 11 11
REMARK H PARENT
REMARK Flexibility Score: inf
ROOT
ATOM      1  C   UNL     1      55.784  16.802   1.111  1.00  0.00     0.001 A 
ATOM      2  C   UNL     1      55.047  17.185   2.237  1.00  0.00     0.004 A 
ATOM      3  C   UNL     1      53.708  17.568   2.104  1.00  0.00     0.048 A 
ATOM      4  C   UNL     1      53.100  17.569   0.843  1.00  0.00     0.138 A 
ATOM      5  C   UNL     1      53.845  17.181  -0.294  1.00  0.00     0.018 A 
ATOM      6  C   UNL     1      55.188  16.799  -0.154  1.00  0.00     0.012 A 
ATOM      7  C   UNL     1      53.212  17.192  -1.540  1.00  0.00     0.019 A 
ATOM      8  C   UNL     1      51.875  17.581  -1.626  1.00  0.00     0.094 A 
ATOM      9  C   UNL     1      51.200  17.951  -0.457  1.00  0.00     0.336 A 
ATOM     10  O   UNL     1      49.994  18.304  -0.514  1.00  0.00    -0.246 OA
ATOM     11  O   UNL     1      51.827  17.932   0.717  1.00  0.00    -0.423 OA
ENDROOT
TORSDOF 0
ENDMDL
MODEL 7
REMARK VINA RESULT:    -5.466      2.083      4.432
REMARK INTER + INTRA:          -5.466
REMARK INTER:                  -5.466
REMARK INTRA:                   0.000
REMARK UNBOUND:                 0.000
REMARK SMILES O=c1ccc2ccccc2o1
REMARK SMILES IDX 7 1 8 2 9 3 10 4 5 5 6 6 4 7 3 8 2 9 1 10 11 11
REMARK H PARENT
REMARK Flexibility Score: inf
ROOT
ATOM      1  C   UNL     1      51.545  17.757   1.164  1.00  0.00     0.001 A 
ATOM      2  C   UNL     1      52.092  17.736   2.452  1.00  0.00     0.004 A 
ATOM      3  C   UNL     1      53.463  17.523   2.630  1.00  0.00     0.048 A 
ATOM      4  C   UNL     1      54.293  17.330   1.520  1.00  0.00     0.138 A 
ATOM      5  C   UNL     1      53.741  17.350   0.219  1.00  0.00     0.018 A 
ATOM      6  C   UNL     1      52.365  17.564   0.048  1.00  0.00     0.012 A 
ATOM      7  C   UNL     1      54.594  17.154  -0.870  1.00  0.00     0.019 A 
ATOM      8  C   UNL     1      55.954  16.945  -0.645  1.00  0.00     0.094 A 
ATOM      9  C   UNL     1      56.431  16.938   0.670  1.00  0.00     0.336 A 
ATOM     10  O   UNL     1      57.656  16.753   0.893  1.00  0.00    -0.246 OA
ATOM     11  O   UNL     1      55.597  17.128   1.690  1.00  0.00    -0.423 OA
ENDROOT
TORSDOF 0
ENDMDL
MODEL 8
REMARK VINA RESULT:    -5.439      2.342      2.643
REMARK INTER + INTRA:          -5.439
REMARK INTER:                  -5.439
REMARK INTRA:                   0.000
REMARK UNBOUND:                 0.000
REMARK SMILES O=c1ccc2ccccc2o1
REMARK SMILES IDX 7 1 8 2 9 3 10 4 5 5 6 6 4 7 3 8 2 9 1 10 11 11
REMARK H PARENT
REMARK Flexibility Score: inf
ROOT
ATOM      1  C   UNL     1      54.260  14.343   0.962  1.00  0.00     0.001 A 
ATOM      2  C   UNL     1      54.312  13.984  -0.389  1.00  0.00     0.004 A 
ATOM      3  C   UNL     1      53.647  14.757  -1.348  1.00  0.00     0.048 A 
ATOM      4  C   UNL     1      52.928  15.892  -0.959  1.00  0.00     0.138 A 
ATOM      5  C   UNL     1      52.876  16.255   0.406  1.00  0.00     0.018 A 
ATOM      6  C   UNL     1      53.544  15.476   1.363  1.00  0.00     0.012 A 
ATOM      7  C   UNL     1      52.150  17.394   0.766  1.00  0.00     0.019 A 
ATOM      8  C   UNL     1      51.503  18.134  -0.224  1.00  0.00     0.094 A 
ATOM      9  C   UNL     1      51.599  17.715  -1.556  1.00  0.00     0.336 A 
ATOM     10  O   UNL     1      51.023  18.371  -2.463  1.00  0.00    -0.246 OA
ATOM     11  O   UNL     1      52.297  16.627  -1.871  1.00  0.00    -0.423 OA
ENDROOT
TORSDOF 0
ENDMDL
MODEL 9
REMARK VINA RESULT:    -5.389      3.457      4.910
REMARK INTER + INTRA:          -5.389
REMARK INTER:                  -5.389
REMARK INTRA:                   0.000
REMARK UNBOUND:                 0.000
REMARK SMILES O=c1ccc2ccccc2o1
REMARK SMILES IDX 7 1 8 2 9 3 10 4 5 5 6 6 4 7 3 8 2 9 1 10 11 11
REMARK H PARENT
REMARK Flexibility Score: inf
ROOT
ATOM      1  C   UNL     1      53.837  17.393   1.558  1.00  0.00     0.001 A 
ATOM      2  C   UNL     1      55.144  17.891   1.550  1.00  0.00     0.004 A 
ATOM      3  C   UNL     1      56.206  17.072   1.149  1.00  0.00     0.048 A 
ATOM      4  C   UNL     1      55.963  15.751   0.756  1.00  0.00     0.138 A 
ATOM      5  C   UNL     1      54.643  15.249   0.764  1.00  0.00     0.018 A 
ATOM      6  C   UNL     1      53.582  16.075   1.167  1.00  0.00     0.012 A 
ATOM      7  C   UNL     1      54.431  13.926   0.366  1.00  0.00     0.019 A 
ATOM      8  C   UNL     1      55.519  13.146  -0.025  1.00  0.00     0.094 A 
ATOM      9  C   UNL     1      56.799  13.711  -0.008  1.00  0.00     0.336 A 
ATOM     10  O   UNL     1      57.793  13.023  -0.359  1.00  0.00    -0.246 OA
ATOM     11  O   UNL     1      56.973  14.973   0.375  1.00  0.00    -0.423 OA
ENDROOT
TORSDOF 0
ENDMDL
