MODEL 1
REMARK VINA RESULT:    -5.629      0.000      0.000
REMARK INTER + INTRA:          -7.221
REMARK INTER:                  -6.945
REMARK INTRA:                  -0.276
REMARK UNBOUND:                -0.276
REMARK SMILES O=c1c(O)c(-c2cc(O)c(O)c(O)c2)oc2cc(O)cc(O)c12
REMARK SMILES IDX 5 1 3 2 2 3 1 4 23 5 21 6 20 7 18 8 17 9 16 10 15 11 6 12
REMARK SMILES IDX 7 13 8 14 14 15 10 16 12 17 9 18 11 20 13 22 4 24 22 26
REMARK SMILES IDX 19 28
REMARK H PARENT 9 19 11 21 13 23 4 25 22 27 19 29
REMARK Flexibility Score: inf
ROOT
ATOM      1  C   UNL     1      -6.958  22.934  -8.767  1.00  0.00     0.180 A 
ATOM      2  C   UNL     1      -7.163  21.666  -9.338  1.00  0.00     0.208 A 
ATOM      3  C   UNL     1      -6.281  20.623  -9.016  1.00  0.00     0.238 A 
ATOM      4  O   UNL     1      -6.436  19.505  -9.574  1.00  0.00    -0.285 OA
ATOM      5  C   UNL     1      -5.213  20.856  -8.115  1.00  0.00     0.111 A 
ATOM      6  C   UNL     1      -4.283  19.862  -7.687  1.00  0.00     0.134 A 
ATOM      7  C   UNL     1      -3.190  20.235  -6.894  1.00  0.00     0.093 A 
ATOM      8  C   UNL     1      -3.031  21.554  -6.461  1.00  0.00     0.123 A 
ATOM      9  C   UNL     1      -3.967  22.519  -6.825  1.00  0.00     0.094 A 
ATOM     10  C   UNL     1      -5.048  22.184  -7.645  1.00  0.00     0.146 A 
ATOM     11  O   UNL     1      -5.911  23.137  -7.977  1.00  0.00    -0.452 OA
ENDROOT
BRANCH   1  12
ATOM     12  C   UNL     1      -7.861  24.076  -9.039  1.00  0.00     0.029 A 
ATOM     13  C   UNL     1      -8.785  24.474  -8.060  1.00  0.00     0.062 A 
ATOM     14  C   UNL     1      -9.663  25.535  -8.297  1.00  0.00     0.162 A 
ATOM     15  C   UNL     1      -7.854  24.734 -10.280  1.00  0.00     0.062 A 
ATOM     16  C   UNL     1      -9.638  26.206  -9.532  1.00  0.00     0.200 A 
ATOM     17  C   UNL     1      -8.732  25.798 -10.527  1.00  0.00     0.162 A 
BRANCH  14  18
ATOM     18  O   UNL     1     -10.555  25.910  -7.293  1.00  0.00    -0.504 OA
ATOM     19  H   UNL     1     -10.639  26.869  -6.976  1.00  0.00     0.293 HD
ENDBRANCH  14  18
BRANCH  16  20
ATOM     20  O   UNL     1     -10.516  27.266  -9.760  1.00  0.00    -0.502 OA
ATOM     21  H   UNL     1     -11.507  27.124  -9.903  1.00  0.00     0.293 HD
ENDBRANCH  16  20
BRANCH  17  22
ATOM     22  O   UNL     1      -8.712  26.449 -11.760  1.00  0.00    -0.504 OA
ATOM     23  H   UNL     1      -8.674  27.460 -11.826  1.00  0.00     0.293 HD
ENDBRANCH  17  22
ENDBRANCH   1  12
BRANCH   2  24
ATOM     24  O   UNL     1      -8.209  21.464 -10.243  1.00  0.00    -0.502 OA
ATOM     25  H   UNL     1      -8.057  21.112 -11.181  1.00  0.00     0.293 HD
ENDBRANCH   2  24
BRANCH   6  26
ATOM     26  O   UNL     1      -4.401  18.502  -7.987  1.00  0.00    -0.507 OA
ATOM     27  H   UNL     1      -4.729  18.133  -8.867  1.00  0.00     0.293 HD
ENDBRANCH   6  26
BRANCH   8  28
ATOM     28  O   UNL     1      -1.950  21.913  -5.659  1.00  0.00    -0.508 OA
ATOM     29  H   UNL     1      -1.237  21.241  -5.399  1.00  0.00     0.293 HD
ENDBRANCH   8  28
TORSDOF 7
ENDMDL
MODEL 2
REMARK VINA RESULT:    -5.624      0.099      1.757
REMARK INTER + INTRA:          -7.215
REMARK INTER:                  -6.947
REMARK INTRA:                  -0.268
REMARK UNBOUND:                -0.276
REMARK SMILES O=c1c(O)c(-c2cc(O)c(O)c(O)c2)oc2cc(O)cc(O)c12
REMARK SMILES IDX 5 1 3 2 2 3 1 4 23 5 21 6 20 7 18 8 17 9 16 10 15 11 6 12
REMARK SMILES IDX 7 13 8 14 14 15 10 16 12 17 9 18 11 20 13 22 4 24 22 26
REMARK SMILES IDX 19 28
REMARK H PARENT 9 19 11 21 13 23 4 25 22 27 19 29
REMARK Flexibility Score: inf
ROOT
ATOM      1  C   UNL     1      -7.051  22.958  -8.748  1.00  0.00     0.180 A 
ATOM      2  C   UNL     1      -7.236  21.699  -9.343  1.00  0.00     0.208 A 
ATOM      3  C   UNL     1      -6.344  20.661  -9.035  1.00  0.00     0.238 A 
ATOM      4  O   UNL     1      -6.483  19.552  -9.613  1.00  0.00    -0.285 OA
ATOM      5  C   UNL     1      -5.285  20.890  -8.122  1.00  0.00     0.111 A 
ATOM      6  C   UNL     1      -4.346  19.899  -7.706  1.00  0.00     0.134 A 
ATOM      7  C   UNL     1      -3.263  20.271  -6.899  1.00  0.00     0.093 A 
ATOM      8  C   UNL     1      -3.122  21.583  -6.441  1.00  0.00     0.123 A 
ATOM      9  C   UNL     1      -4.067  22.544  -6.794  1.00  0.00     0.094 A 
ATOM     10  C   UNL     1      -5.139  22.211  -7.626  1.00  0.00     0.146 A 
ATOM     11  O   UNL     1      -6.011  23.160  -7.947  1.00  0.00    -0.452 OA
ENDROOT
BRANCH   1  12
ATOM     12  C   UNL     1      -7.965  24.095  -9.005  1.00  0.00     0.029 A 
ATOM     13  C   UNL     1      -7.910  24.760 -10.240  1.00  0.00     0.062 A 
ATOM     14  C   UNL     1      -8.746  25.849 -10.502  1.00  0.00     0.162 A 
ATOM     15  C   UNL     1      -8.850  24.559  -8.017  1.00  0.00     0.062 A 
ATOM     16  C   UNL     1      -9.646  26.297  -9.518  1.00  0.00     0.200 A 
ATOM     17  C   UNL     1      -9.692  25.651  -8.271  1.00  0.00     0.162 A 
BRANCH  14  18
ATOM     18  O   UNL     1      -8.671  26.474 -11.746  1.00  0.00    -0.504 OA
ATOM     19  H   UNL     1      -7.804  26.853 -12.108  1.00  0.00     0.293 HD
ENDBRANCH  14  18
BRANCH  16  20
ATOM     20  O   UNL     1     -10.480  27.382  -9.789  1.00  0.00    -0.502 OA
ATOM     21  H   UNL     1     -11.043  27.822  -9.073  1.00  0.00     0.293 HD
ENDBRANCH  16  20
BRANCH  17  22
ATOM     22  O   UNL     1     -10.571  26.099  -7.286  1.00  0.00    -0.504 OA
ATOM     23  H   UNL     1     -10.640  27.080  -7.042  1.00  0.00     0.293 HD
ENDBRANCH  17  22
ENDBRANCH   1  12
BRANCH   2  24
ATOM     24  O   UNL     1      -8.274  21.501 -10.259  1.00  0.00    -0.502 OA
ATOM     25  H   UNL     1      -8.154  20.965 -11.110  1.00  0.00     0.293 HD
ENDBRANCH   2  24
BRANCH   6  26
ATOM     26  O   UNL     1      -4.446  18.543  -8.031  1.00  0.00    -0.507 OA
ATOM     27  H   UNL     1      -4.555  17.798  -7.359  1.00  0.00     0.293 HD
ENDBRANCH   6  26
BRANCH   8  28
ATOM     28  O   UNL     1      -2.050  21.941  -5.626  1.00  0.00    -0.508 OA
ATOM     29  H   UNL     1      -1.984  22.864  -5.213  1.00  0.00     0.293 HD
ENDBRANCH   8  28
TORSDOF 7
ENDMDL
MODEL 3
REMARK VINA RESULT:    -5.528      1.484      7.194
REMARK INTER + INTRA:          -7.096
REMARK INTER:                  -6.739
REMARK INTRA:                  -0.357
REMARK UNBOUND:                -0.276
REMARK SMILES O=c1c(O)c(-c2cc(O)c(O)c(O)c2)oc2cc(O)cc(O)c12
REMARK SMILES IDX 5 1 3 2 2 3 1 4 23 5 21 6 20 7 18 8 17 9 16 10 15 11 6 12
REMARK SMILES IDX 7 13 8 14 14 15 10 16 12 17 9 18 11 20 13 22 4 24 22 26
REMARK SMILES IDX 19 28
REMARK H PARENT 9 19 11 21 13 23 4 25 22 27 19 29
REMARK Flexibility Score: inf
ROOT
ATOM      1  C   UNL     1      -7.490  23.298  -8.830  1.00  0.00     0.180 A 
ATOM      2  C   UNL     1      -8.436  23.522  -7.815  1.00  0.00     0.208 A 
ATOM      3  C   UNL     1      -9.276  24.643  -7.901  1.00  0.00     0.238 A 
ATOM      4  O   UNL     1     -10.083  24.868  -6.962  1.00  0.00    -0.285 OA
ATOM      5  C   UNL     1      -9.170  25.519  -9.009  1.00  0.00     0.111 A 
ATOM      6  C   UNL     1      -9.996  26.664  -9.219  1.00  0.00     0.134 A 
ATOM      7  C   UNL     1      -9.717  27.532 -10.282  1.00  0.00     0.093 A 
ATOM      8  C   UNL     1      -8.682  27.260 -11.181  1.00  0.00     0.123 A 
ATOM      9  C   UNL     1      -7.907  26.114 -11.018  1.00  0.00     0.094 A 
ATOM     10  C   UNL     1      -8.139  25.248  -9.946  1.00  0.00     0.146 A 
ATOM     11  O   UNL     1      -7.371  24.172  -9.822  1.00  0.00    -0.452 OA
ENDROOT
BRANCH   1  12
ATOM     12  C   UNL     1      -6.588  22.124  -8.821  1.00  0.00     0.029 A 
ATOM     13  C   UNL     1      -7.022  20.915  -9.387  1.00  0.00     0.062 A 
ATOM     14  C   UNL     1      -6.199  19.785  -9.374  1.00  0.00     0.162 A 
ATOM     15  C   UNL     1      -5.325  22.177  -8.206  1.00  0.00     0.062 A 
ATOM     16  C   UNL     1      -4.928  19.848  -8.777  1.00  0.00     0.200 A 
ATOM     17  C   UNL     1      -4.494  21.048  -8.187  1.00  0.00     0.162 A 
BRANCH  14  18
ATOM     18  O   UNL     1      -6.662  18.607  -9.960  1.00  0.00    -0.504 OA
ATOM     19  H   UNL     1      -7.045  18.585 -10.897  1.00  0.00     0.293 HD
ENDBRANCH  14  18
BRANCH  16  20
ATOM     20  O   UNL     1      -4.112  18.716  -8.771  1.00  0.00    -0.502 OA
ATOM     21  H   UNL     1      -3.183  18.719  -9.171  1.00  0.00     0.293 HD
ENDBRANCH  16  20
BRANCH  17  22
ATOM     22  O   UNL     1      -3.241  21.113  -7.580  1.00  0.00    -0.504 OA
ATOM     23  H   UNL     1      -2.584  21.853  -7.798  1.00  0.00     0.293 HD
ENDBRANCH  17  22
ENDBRANCH   1  12
BRANCH   2  24
ATOM     24  O   UNL     1      -8.508  22.657  -6.719  1.00  0.00    -0.502 OA
ATOM     25  H   UNL     1      -8.489  21.649  -6.818  1.00  0.00     0.293 HD
ENDBRANCH   2  24
BRANCH   6  26
ATOM     26  O   UNL     1     -11.111  26.976  -8.436  1.00  0.00    -0.507 OA
ATOM     27  H   UNL     1     -11.081  27.508  -7.579  1.00  0.00     0.293 HD
ENDBRANCH   6  26
BRANCH   8  28
ATOM     28  O   UNL     1      -8.421  28.120 -12.246  1.00  0.00    -0.508 OA
ATOM     29  H   UNL     1      -8.229  29.104 -12.097  1.00  0.00     0.293 HD
ENDBRANCH   8  28
TORSDOF 7
ENDMDL
MODEL 4
REMARK VINA RESULT:    -5.474      1.670      7.055
REMARK INTER + INTRA:          -7.030
REMARK INTER:                  -6.784
REMARK INTRA:                  -0.246
REMARK UNBOUND:                -0.276
REMARK SMILES O=c1c(O)c(-c2cc(O)c(O)c(O)c2)oc2cc(O)cc(O)c12
REMARK SMILES IDX 5 1 3 2 2 3 1 4 23 5 21 6 20 7 18 8 17 9 16 10 15 11 6 12
REMARK SMILES IDX 7 13 8 14 14 15 10 16 12 17 9 18 11 20 13 22 4 24 22 26
REMARK SMILES IDX 19 28
REMARK H PARENT 9 19 11 21 13 23 4 25 22 27 19 29
REMARK Flexibility Score: inf
ROOT
ATOM      1  C   UNL     1      -7.251  23.511  -9.321  1.00  0.00     0.180 A 
ATOM      2  C   UNL     1      -8.508  23.750  -8.741  1.00  0.00     0.208 A 
ATOM      3  C   UNL     1      -9.158  24.967  -9.002  1.00  0.00     0.238 A 
ATOM      4  O   UNL     1     -10.259  25.198  -8.436  1.00  0.00    -0.285 OA
ATOM      5  C   UNL     1      -8.549  25.923  -9.851  1.00  0.00     0.111 A 
ATOM      6  C   UNL     1      -9.135  27.172 -10.216  1.00  0.00     0.134 A 
ATOM      7  C   UNL     1      -8.387  28.095 -10.958  1.00  0.00     0.093 A 
ATOM      8  C   UNL     1      -7.099  27.787 -11.403  1.00  0.00     0.123 A 
ATOM      9  C   UNL     1      -6.542  26.546 -11.101  1.00  0.00     0.094 A 
ATOM     10  C   UNL     1      -7.250  25.619 -10.333  1.00  0.00     0.146 A 
ATOM     11  O   UNL     1      -6.677  24.453 -10.060  1.00  0.00    -0.452 OA
ENDROOT
BRANCH   1  12
ATOM     12  C   UNL     1      -6.516  22.241  -9.113  1.00  0.00     0.029 A 
ATOM     13  C   UNL     1      -5.285  22.258  -8.438  1.00  0.00     0.062 A 
ATOM     14  C   UNL     1      -4.560  21.079  -8.247  1.00  0.00     0.162 A 
ATOM     15  C   UNL     1      -6.998  21.026  -9.627  1.00  0.00     0.062 A 
ATOM     16  C   UNL     1      -5.056  19.861  -8.744  1.00  0.00     0.200 A 
ATOM     17  C   UNL     1      -6.277  19.838  -9.441  1.00  0.00     0.162 A 
BRANCH  14  18
ATOM     18  O   UNL     1      -3.349  21.135  -7.558  1.00  0.00    -0.504 OA
ATOM     19  H   UNL     1      -3.196  20.631  -6.693  1.00  0.00     0.293 HD
ENDBRANCH  14  18
BRANCH  16  20
ATOM     20  O   UNL     1      -4.328  18.687  -8.545  1.00  0.00    -0.502 OA
ATOM     21  H   UNL     1      -3.685  18.327  -9.238  1.00  0.00     0.293 HD
ENDBRANCH  16  20
BRANCH  17  22
ATOM     22  O   UNL     1      -6.767  18.636  -9.949  1.00  0.00    -0.504 OA
ATOM     23  H   UNL     1      -7.468  18.097  -9.454  1.00  0.00     0.293 HD
ENDBRANCH  17  22
ENDBRANCH   1  12
BRANCH   2  24
ATOM     24  O   UNL     1      -9.081  22.803  -7.888  1.00  0.00    -0.502 OA
ATOM     25  H   UNL     1      -9.692  22.067  -8.223  1.00  0.00     0.293 HD
ENDBRANCH   2  24
BRANCH   6  26
ATOM     26  O   UNL     1     -10.447  27.541  -9.902  1.00  0.00    -0.507 OA
ATOM     27  H   UNL     1     -11.154  27.783 -10.580  1.00  0.00     0.293 HD
ENDBRANCH   6  26
BRANCH   8  28
ATOM     28  O   UNL     1      -6.368  28.705 -12.154  1.00  0.00    -0.508 OA
ATOM     29  H   UNL     1      -5.642  28.406 -12.795  1.00  0.00     0.293 HD
ENDBRANCH   8  28
TORSDOF 7
ENDMDL
MODEL 5
REMARK VINA RESULT:    -5.181      2.788      7.093
REMARK INTER + INTRA:          -6.668
REMARK INTER:                  -6.364
REMARK INTRA:                  -0.304
REMARK UNBOUND:                -0.276
REMARK SMILES O=c1c(O)c(-c2cc(O)c(O)c(O)c2)oc2cc(O)cc(O)c12
REMARK SMILES IDX 5 1 3 2 2 3 1 4 23 5 21 6 20 7 18 8 17 9 16 10 15 11 6 12
REMARK SMILES IDX 7 13 8 14 14 15 10 16 12 17 9 18 11 20 13 22 4 24 22 26
REMARK SMILES IDX 19 28
REMARK H PARENT 9 19 11 21 13 23 4 25 22 27 19 29
REMARK Flexibility Score: inf
ROOT
ATOM      1  C   UNL     1      -5.837  21.933  -6.634  1.00  0.00     0.180 A 
ATOM      2  C   UNL     1      -6.765  21.812  -5.587  1.00  0.00     0.208 A 
ATOM      3  C   UNL     1      -8.134  21.772  -5.890  1.00  0.00     0.238 A 
ATOM      4  O   UNL     1      -8.963  21.719  -4.944  1.00  0.00    -0.285 OA
ATOM      5  C   UNL     1      -8.559  21.839  -7.240  1.00  0.00     0.111 A 
ATOM      6  C   UNL     1      -9.919  21.767  -7.666  1.00  0.00     0.134 A 
ATOM      7  C   UNL     1     -10.232  21.974  -9.015  1.00  0.00     0.093 A 
ATOM      8  C   UNL     1      -9.228  22.184  -9.964  1.00  0.00     0.123 A 
ATOM      9  C   UNL     1      -7.892  22.196  -9.566  1.00  0.00     0.094 A 
ATOM     10  C   UNL     1      -7.552  22.029  -8.221  1.00  0.00     0.146 A 
ATOM     11  O   UNL     1      -6.268  22.059  -7.884  1.00  0.00    -0.452 OA
ENDROOT
BRANCH   1  12
ATOM     12  C   UNL     1      -4.375  21.956  -6.394  1.00  0.00     0.029 A 
ATOM     13  C   UNL     1      -3.664  23.153  -6.576  1.00  0.00     0.062 A 
ATOM     14  C   UNL     1      -2.281  23.198  -6.377  1.00  0.00     0.162 A 
ATOM     15  C   UNL     1      -3.674  20.790  -6.044  1.00  0.00     0.062 A 
ATOM     16  C   UNL     1      -1.586  22.034  -6.005  1.00  0.00     0.200 A 
ATOM     17  C   UNL     1      -2.287  20.826  -5.844  1.00  0.00     0.162 A 
BRANCH  14  18
ATOM     18  O   UNL     1      -1.614  24.410  -6.552  1.00  0.00    -0.504 OA
ATOM     19  H   UNL     1      -1.566  25.110  -5.822  1.00  0.00     0.293 HD
ENDBRANCH  14  18
BRANCH  16  20
ATOM     20  O   UNL     1      -0.206  22.089  -5.805  1.00  0.00    -0.502 OA
ATOM     21  H   UNL     1       0.209  22.618  -5.050  1.00  0.00     0.293 HD
ENDBRANCH  16  20
BRANCH  17  22
ATOM     22  O   UNL     1      -1.601  19.665  -5.490  1.00  0.00    -0.504 OA
ATOM     23  H   UNL     1      -2.087  18.792  -5.323  1.00  0.00     0.293 HD
ENDBRANCH  17  22
ENDBRANCH   1  12
BRANCH   2  24
ATOM     24  O   UNL     1      -6.325  21.771  -4.260  1.00  0.00    -0.502 OA
ATOM     25  H   UNL     1      -5.969  20.926  -3.830  1.00  0.00     0.293 HD
ENDBRANCH   2  24
BRANCH   6  26
ATOM     26  O   UNL     1     -10.989  21.471  -6.816  1.00  0.00    -0.507 OA
ATOM     27  H   UNL     1     -10.923  20.900  -5.986  1.00  0.00     0.293 HD
ENDBRANCH   6  26
BRANCH   8  28
ATOM     28  O   UNL     1      -9.546  22.372 -11.307  1.00  0.00    -0.508 OA
ATOM     29  H   UNL     1      -9.412  21.637 -11.991  1.00  0.00     0.293 HD
ENDBRANCH   8  28
TORSDOF 7
ENDMDL
MODEL 6
REMARK VINA RESULT:    -5.169      2.486      3.338
REMARK INTER + INTRA:          -6.653
REMARK INTER:                  -6.299
REMARK INTRA:                  -0.353
REMARK UNBOUND:                -0.276
REMARK SMILES O=c1c(O)c(-c2cc(O)c(O)c(O)c2)oc2cc(O)cc(O)c12
REMARK SMILES IDX 5 1 3 2 2 3 1 4 23 5 21 6 20 7 18 8 17 9 16 10 15 11 6 12
REMARK SMILES IDX 7 13 8 14 14 15 10 16 12 17 9 18 11 20 13 22 4 24 22 26
REMARK SMILES IDX 19 28
REMARK H PARENT 9 19 11 21 13 23 4 25 22 27 19 29
REMARK Flexibility Score: inf
ROOT
ATOM      1  C   UNL     1      -6.157  22.049  -7.854  1.00  0.00     0.180 A 
ATOM      2  C   UNL     1      -5.359  20.893  -7.894  1.00  0.00     0.208 A 
ATOM      3  C   UNL     1      -4.056  20.947  -7.374  1.00  0.00     0.238 A 
ATOM      4  O   UNL     1      -3.327  19.925  -7.462  1.00  0.00    -0.285 OA
ATOM      5  C   UNL     1      -3.572  22.151  -6.807  1.00  0.00     0.111 A 
ATOM      6  C   UNL     1      -2.283  22.308  -6.215  1.00  0.00     0.134 A 
ATOM      7  C   UNL     1      -1.863  23.579  -5.803  1.00  0.00     0.093 A 
ATOM      8  C   UNL     1      -2.711  24.685  -5.901  1.00  0.00     0.123 A 
ATOM      9  C   UNL     1      -3.993  24.530  -6.422  1.00  0.00     0.094 A 
ATOM     10  C   UNL     1      -4.428  23.282  -6.875  1.00  0.00     0.146 A 
ATOM     11  O   UNL     1      -5.653  23.180  -7.376  1.00  0.00    -0.452 OA
ENDROOT
BRANCH   1  12
ATOM     12  C   UNL     1      -7.549  22.062  -8.360  1.00  0.00     0.029 A 
ATOM     13  C   UNL     1      -8.605  21.770  -7.482  1.00  0.00     0.062 A 
ATOM     14  C   UNL     1      -9.927  21.755  -7.937  1.00  0.00     0.162 A 
ATOM     15  C   UNL     1      -7.833  22.305  -9.714  1.00  0.00     0.062 A 
ATOM     16  C   UNL     1     -10.209  22.021  -9.288  1.00  0.00     0.200 A 
ATOM     17  C   UNL     1      -9.155  22.291 -10.179  1.00  0.00     0.162 A 
BRANCH  14  18
ATOM     18  O   UNL     1     -10.949  21.475  -7.030  1.00  0.00    -0.504 OA
ATOM     19  H   UNL     1     -11.591  22.188  -6.704  1.00  0.00     0.293 HD
ENDBRANCH  14  18
BRANCH  16  20
ATOM     20  O   UNL     1     -11.531  22.007  -9.733  1.00  0.00    -0.502 OA
ATOM     21  H   UNL     1     -12.132  21.202  -9.614  1.00  0.00     0.293 HD
ENDBRANCH  16  20
BRANCH  17  22
ATOM     22  O   UNL     1      -9.426  22.541 -11.524  1.00  0.00    -0.504 OA
ATOM     23  H   UNL     1      -9.885  21.853 -12.109  1.00  0.00     0.293 HD
ENDBRANCH  17  22
ENDBRANCH   1  12
BRANCH   2  24
ATOM     24  O   UNL     1      -5.847  19.721  -8.479  1.00  0.00    -0.502 OA
ATOM     25  H   UNL     1      -5.732  18.810  -8.051  1.00  0.00     0.293 HD
ENDBRANCH   2  24
BRANCH   6  26
ATOM     26  O   UNL     1      -1.396  21.253  -5.987  1.00  0.00    -0.507 OA
ATOM     27  H   UNL     1      -0.390  21.329  -6.024  1.00  0.00     0.293 HD
ENDBRANCH   6  26
BRANCH   8  28
ATOM     28  O   UNL     1      -2.291  25.943  -5.473  1.00  0.00    -0.508 OA
ATOM     29  H   UNL     1      -2.538  26.301  -4.557  1.00  0.00     0.293 HD
ENDBRANCH   8  28
TORSDOF 7
ENDMDL
MODEL 7
REMARK VINA RESULT:    -5.088      2.749      6.801
REMARK INTER + INTRA:          -6.553
REMARK INTER:                  -6.192
REMARK INTRA:                  -0.361
REMARK UNBOUND:                -0.276
REMARK SMILES O=c1c(O)c(-c2cc(O)c(O)c(O)c2)oc2cc(O)cc(O)c12
REMARK SMILES IDX 5 1 3 2 2 3 1 4 23 5 21 6 20 7 18 8 17 9 16 10 15 11 6 12
REMARK SMILES IDX 7 13 8 14 14 15 10 16 12 17 9 18 11 20 13 22 4 24 22 26
REMARK SMILES IDX 19 28
REMARK H PARENT 9 19 11 21 13 23 4 25 22 27 19 29
REMARK Flexibility Score: inf
ROOT
ATOM      1  C   UNL     1      -5.256  22.197  -7.753  1.00  0.00     0.180 A 
ATOM      2  C   UNL     1      -5.273  22.338  -9.151  1.00  0.00     0.208 A 
ATOM      3  C   UNL     1      -6.505  22.316  -9.823  1.00  0.00     0.238 A 
ATOM      4  O   UNL     1      -6.509  22.388 -11.080  1.00  0.00    -0.285 OA
ATOM      5  C   UNL     1      -7.706  22.168  -9.089  1.00  0.00     0.111 A 
ATOM      6  C   UNL     1      -9.013  22.172  -9.662  1.00  0.00     0.134 A 
ATOM      7  C   UNL     1     -10.122  21.888  -8.856  1.00  0.00     0.093 A 
ATOM      8  C   UNL     1      -9.977  21.665  -7.484  1.00  0.00     0.123 A 
ATOM      9  C   UNL     1      -8.712  21.718  -6.905  1.00  0.00     0.094 A 
ATOM     10  C   UNL     1      -7.582  21.963  -7.690  1.00  0.00     0.146 A 
ATOM     11  O   UNL     1      -6.394  21.994  -7.099  1.00  0.00    -0.452 OA
ENDROOT
BRANCH   1  12
ATOM     12  C   UNL     1      -3.998  22.235  -6.972  1.00  0.00     0.029 A 
ATOM     13  C   UNL     1      -3.393  21.032  -6.578  1.00  0.00     0.062 A 
ATOM     14  C   UNL     1      -2.217  21.039  -5.822  1.00  0.00     0.162 A 
ATOM     15  C   UNL     1      -3.427  23.453  -6.566  1.00  0.00     0.062 A 
ATOM     16  C   UNL     1      -1.636  22.260  -5.437  1.00  0.00     0.200 A 
ATOM     17  C   UNL     1      -2.249  23.470  -5.807  1.00  0.00     0.162 A 
BRANCH  14  18
ATOM     18  O   UNL     1      -1.638  19.822  -5.463  1.00  0.00    -0.504 OA
ATOM     19  H   UNL     1      -1.084  19.716  -4.622  1.00  0.00     0.293 HD
ENDBRANCH  14  18
BRANCH  16  20
ATOM     20  O   UNL     1      -0.461  22.259  -4.685  1.00  0.00    -0.502 OA
ATOM     21  H   UNL     1       0.409  22.631  -5.043  1.00  0.00     0.293 HD
ENDBRANCH  16  20
BRANCH  17  22
ATOM     22  O   UNL     1      -1.686  24.684  -5.416  1.00  0.00    -0.504 OA
ATOM     23  H   UNL     1      -1.994  25.564  -5.814  1.00  0.00     0.293 HD
ENDBRANCH  17  22
ENDBRANCH   1  12
BRANCH   2  24
ATOM     24  O   UNL     1      -4.074  22.460  -9.859  1.00  0.00    -0.502 OA
ATOM     25  H   UNL     1      -4.046  22.672 -10.850  1.00  0.00     0.293 HD
ENDBRANCH   2  24
BRANCH   6  26
ATOM     26  O   UNL     1      -9.276  22.474 -11.002  1.00  0.00    -0.507 OA
ATOM     27  H   UNL     1     -10.169  22.784 -11.356  1.00  0.00     0.293 HD
ENDBRANCH   6  26
BRANCH   8  28
ATOM     28  O   UNL     1     -11.088  21.398  -6.686  1.00  0.00    -0.508 OA
ATOM     29  H   UNL     1     -11.563  22.135  -6.177  1.00  0.00     0.293 HD
ENDBRANCH   8  28
TORSDOF 7
ENDMDL
MODEL 8
REMARK VINA RESULT:    -5.067      2.651      4.173
REMARK INTER + INTRA:          -6.528
REMARK INTER:                  -6.576
REMARK INTRA:                   0.049
REMARK UNBOUND:                -0.276
REMARK SMILES O=c1c(O)c(-c2cc(O)c(O)c(O)c2)oc2cc(O)cc(O)c12
REMARK SMILES IDX 5 1 3 2 2 3 1 4 23 5 21 6 20 7 18 8 17 9 16 10 15 11 6 12
REMARK SMILES IDX 7 13 8 14 14 15 10 16 12 17 9 18 11 20 13 22 4 24 22 26
REMARK SMILES IDX 19 28
REMARK H PARENT 9 19 11 21 13 23 4 25 22 27 19 29
REMARK Flexibility Score: inf
ROOT
ATOM      1  C   UNL     1      -5.792  22.421  -8.529  1.00  0.00     0.180 A 
ATOM      2  C   UNL     1      -5.140  21.530  -7.662  1.00  0.00     0.208 A 
ATOM      3  C   UNL     1      -3.785  21.738  -7.362  1.00  0.00     0.238 A 
ATOM      4  O   UNL     1      -3.192  20.905  -6.629  1.00  0.00    -0.285 OA
ATOM      5  C   UNL     1      -3.102  22.845  -7.922  1.00  0.00     0.111 A 
ATOM      6  C   UNL     1      -1.739  23.176  -7.657  1.00  0.00     0.134 A 
ATOM      7  C   UNL     1      -1.130  24.219  -8.366  1.00  0.00     0.093 A 
ATOM      8  C   UNL     1      -1.854  24.984  -9.284  1.00  0.00     0.123 A 
ATOM      9  C   UNL     1      -3.201  24.706  -9.507  1.00  0.00     0.094 A 
ATOM     10  C   UNL     1      -3.826  23.649  -8.840  1.00  0.00     0.146 A 
ATOM     11  O   UNL     1      -5.109  23.412  -9.089  1.00  0.00    -0.452 OA
ENDROOT
BRANCH   1  12
ATOM     12  C   UNL     1      -7.227  22.281  -8.872  1.00  0.00     0.029 A 
ATOM     13  C   UNL     1      -7.649  22.526 -10.188  1.00  0.00     0.062 A 
ATOM     14  C   UNL     1      -9.000  22.421 -10.534  1.00  0.00     0.162 A 
ATOM     15  C   UNL     1      -8.184  21.964  -7.893  1.00  0.00     0.062 A 
ATOM     16  C   UNL     1      -9.952  22.082  -9.557  1.00  0.00     0.200 A 
ATOM     17  C   UNL     1      -9.540  21.859  -8.232  1.00  0.00     0.162 A 
BRANCH  14  18
ATOM     18  O   UNL     1      -9.377  22.657 -11.856  1.00  0.00    -0.504 OA
ATOM     19  H   UNL     1      -9.951  22.006 -12.377  1.00  0.00     0.293 HD
ENDBRANCH  14  18
BRANCH  16  20
ATOM     20  O   UNL     1     -11.297  21.977  -9.912  1.00  0.00    -0.502 OA
ATOM     21  H   UNL     1     -11.978  21.524  -9.317  1.00  0.00     0.293 HD
ENDBRANCH  16  20
BRANCH  17  22
ATOM     22  O   UNL     1     -10.481  21.536  -7.254  1.00  0.00    -0.504 OA
ATOM     23  H   UNL     1     -11.291  22.122  -7.083  1.00  0.00     0.293 HD
ENDBRANCH  17  22
ENDBRANCH   1  12
BRANCH   2  24
ATOM     24  O   UNL     1      -5.826  20.430  -7.138  1.00  0.00    -0.502 OA
ATOM     25  H   UNL     1      -6.183  20.412  -6.190  1.00  0.00     0.293 HD
ENDBRANCH   2  24
BRANCH   6  26
ATOM     26  O   UNL     1      -0.954  22.535  -6.694  1.00  0.00    -0.507 OA
ATOM     27  H   UNL     1      -1.312  22.101  -5.856  1.00  0.00     0.293 HD
ENDBRANCH   6  26
BRANCH   8  28
ATOM     28  O   UNL     1      -1.245  26.030  -9.975  1.00  0.00    -0.508 OA
ATOM     29  H   UNL     1      -1.770  26.844 -10.273  1.00  0.00     0.293 HD
ENDBRANCH   8  28
TORSDOF 7
ENDMDL
MODEL 9
REMARK VINA RESULT:    -4.994      1.390      7.059
REMARK INTER + INTRA:          -6.437
REMARK INTER:                  -6.073
REMARK INTRA:                  -0.364
REMARK UNBOUND:                -0.276
REMARK SMILES O=c1c(O)c(-c2cc(O)c(O)c(O)c2)oc2cc(O)cc(O)c12
REMARK SMILES IDX 5 1 3 2 2 3 1 4 23 5 21 6 20 7 18 8 17 9 16 10 15 11 6 12
REMARK SMILES IDX 7 13 8 14 14 15 10 16 12 17 9 18 11 20 13 22 4 24 22 26
REMARK SMILES IDX 19 28
REMARK H PARENT 9 19 11 21 13 23 4 25 22 27 19 29
REMARK Flexibility Score: inf
ROOT
ATOM      1  C   UNL     1      -6.558  23.068  -7.842  1.00  0.00     0.180 A 
ATOM      2  C   UNL     1      -7.808  23.081  -7.200  1.00  0.00     0.208 A 
ATOM      3  C   UNL     1      -8.813  23.934  -7.681  1.00  0.00     0.238 A 
ATOM      4  O   UNL     1      -9.911  23.981  -7.068  1.00  0.00    -0.285 OA
ATOM      5  C   UNL     1      -8.562  24.752  -8.809  1.00  0.00     0.111 A 
ATOM      6  C   UNL     1      -9.520  25.625  -9.407  1.00  0.00     0.134 A 
ATOM      7  C   UNL     1      -9.123  26.483 -10.440  1.00  0.00     0.093 A 
ATOM      8  C   UNL     1      -7.818  26.454 -10.940  1.00  0.00     0.123 A 
ATOM      9  C   UNL     1      -6.892  25.563 -10.402  1.00  0.00     0.094 A 
ATOM     10  C   UNL     1      -7.249  24.719  -9.347  1.00  0.00     0.146 A 
ATOM     11  O   UNL     1      -6.332  23.893  -8.857  1.00  0.00    -0.452 OA
ENDROOT
BRANCH   1  12
ATOM     12  C   UNL     1      -5.458  22.177  -7.408  1.00  0.00     0.029 A 
ATOM     13  C   UNL     1      -4.455  22.679  -6.564  1.00  0.00     0.062 A 
ATOM     14  C   UNL     1      -3.393  21.867  -6.155  1.00  0.00     0.162 A 
ATOM     15  C   UNL     1      -5.364  20.853  -7.869  1.00  0.00     0.062 A 
ATOM     16  C   UNL     1      -3.314  20.536  -6.602  1.00  0.00     0.200 A 
ATOM     17  C   UNL     1      -4.302  20.031  -7.465  1.00  0.00     0.162 A 
BRANCH  14  18
ATOM     18  O   UNL     1      -2.425  22.399  -5.305  1.00  0.00    -0.504 OA
ATOM     19  H   UNL     1      -2.410  23.379  -5.050  1.00  0.00     0.293 HD
ENDBRANCH  14  18
BRANCH  16  20
ATOM     20  O   UNL     1      -2.253  19.731  -6.186  1.00  0.00    -0.502 OA
ATOM     21  H   UNL     1      -1.612  19.303  -6.841  1.00  0.00     0.293 HD
ENDBRANCH  16  20
BRANCH  17  22
ATOM     22  O   UNL     1      -4.222  18.717  -7.923  1.00  0.00    -0.504 OA
ATOM     23  H   UNL     1      -4.738  17.967  -7.478  1.00  0.00     0.293 HD
ENDBRANCH  17  22
ENDBRANCH   1  12
BRANCH   2  24
ATOM     24  O   UNL     1      -8.027  22.282  -6.074  1.00  0.00    -0.502 OA
ATOM     25  H   UNL     1      -8.955  22.089  -5.715  1.00  0.00     0.293 HD
ENDBRANCH   2  24
BRANCH   6  26
ATOM     26  O   UNL     1     -10.870  25.667  -9.045  1.00  0.00    -0.507 OA
ATOM     27  H   UNL     1     -11.614  25.205  -9.547  1.00  0.00     0.293 HD
ENDBRANCH   6  26
BRANCH   8  28
ATOM     28  O   UNL     1      -7.435  27.300 -11.978  1.00  0.00    -0.508 OA
ATOM     29  H   UNL     1      -7.193  28.269 -11.809  1.00  0.00     0.293 HD
ENDBRANCH   8  28
TORSDOF 7
ENDMDL
