MODEL 1
REMARK VINA RESULT:    -6.010      0.000      0.000
REMARK INTER + INTRA:          -7.029
REMARK INTER:                  -6.537
REMARK INTRA:                  -0.492
REMARK UNBOUND:                -0.492
REMARK SMILES C=C(C)[C@H]1CC[C@@]2(C)CC[C@]3(C)[C@H](CC[C@H]4[C@]5(C)CC[C@H](O)C(C)(C)[C@@H]5CC[C@]43C)[C@H]12
REMARK SMILES IDX 4 1 5 2 6 3 7 4 31 5 13 6 14 7 15 8 16 9 17 10 19 11 20 12
REMARK SMILES IDX 21 13 23 14 26 15 27 16 28 17 29 18 11 19 10 20 9 21 12 22
REMARK SMILES IDX 30 23 24 24 25 25 18 26 8 27 2 28 3 29 1 30 22 31
REMARK H PARENT 22 32
REMARK Flexibility Score: inf
ROOT
ATOM      1  C   UNL     1      14.184 -14.512  25.347  1.00  0.00     0.018 C 
ATOM      2  C   UNL     1      13.985 -16.044  25.130  1.00  0.00     0.009 C 
ATOM      3  C   UNL     1      15.062 -16.493  24.103  1.00  0.00     0.008 C 
ATOM      4  C   UNL     1      16.147 -15.399  24.236  1.00  0.00    -0.029 C 
ATOM      5  C   UNL     1      15.226 -14.156  24.273  1.00  0.00     0.006 C 
ATOM      6  C   UNL     1      15.867 -12.728  24.015  1.00  0.00    -0.000 C 
ATOM      7  C   UNL     1      15.193 -11.601  24.805  1.00  0.00     0.005 C 
ATOM      8  C   UNL     1      15.831 -10.218  24.584  1.00  0.00     0.005 C 
ATOM      9  C   UNL     1      16.741 -10.114  23.310  1.00  0.00     0.002 C 
ATOM     10  C   UNL     1      17.137  -8.586  22.949  1.00  0.00    -0.026 C 
ATOM     11  C   UNL     1      17.421  -8.429  21.399  1.00  0.00     0.010 C 
ATOM     12  C   UNL     1      18.644  -7.558  21.054  1.00  0.00     0.033 C 
ATOM     13  C   UNL     1      18.688  -6.287  21.925  1.00  0.00     0.120 C 
ATOM     14  C   UNL     1      18.897  -6.599  23.457  1.00  0.00    -0.006 C 
ATOM     15  C   UNL     1      18.347  -8.060  23.846  1.00  0.00     0.003 C 
ATOM     16  C   UNL     1      19.492  -9.115  23.931  1.00  0.00     0.005 C 
ATOM     17  C   UNL     1      19.020 -10.494  24.375  1.00  0.00     0.008 C 
ATOM     18  C   UNL     1      17.941 -11.161  23.453  1.00  0.00    -0.024 C 
ATOM     19  C   UNL     1      17.423 -12.634  24.063  1.00  0.00    -0.024 C 
ATOM     20  C   UNL     1      18.002 -13.927  23.271  1.00  0.00     0.008 C 
ATOM     21  C   UNL     1      17.093 -15.188  23.066  1.00  0.00     0.007 C 
ATOM     22  C   UNL     1      17.806 -12.743  25.583  1.00  0.00     0.012 C 
ATOM     23  C   UNL     1      18.640 -11.364  22.072  1.00  0.00     0.012 C 
ATOM     24  C   UNL     1      18.158  -5.519  24.297  1.00  0.00     0.014 C 
ATOM     25  C   UNL     1      20.399  -6.415  23.828  1.00  0.00     0.014 C 
ATOM     26  C   UNL     1      15.888  -7.677  23.215  1.00  0.00     0.012 C 
ATOM     27  C   UNL     1      16.997 -15.821  25.494  1.00  0.00     0.011 C 
ENDROOT
BRANCH   1  28
ATOM     28  C   UNL     1      12.866 -13.741  25.278  1.00  0.00    -0.077 C 
ATOM     29  C   UNL     1      12.129 -13.508  23.977  1.00  0.00     0.039 C 
ATOM     30  C   UNL     1      12.325 -13.253  26.412  1.00  0.00     0.008 C 
ENDBRANCH   1  28
BRANCH  13  31
ATOM     31  O   UNL     1      19.622  -5.354  21.446  1.00  0.00    -0.393 OA
ATOM     32  H   UNL     1      20.418  -5.841  21.078  1.00  0.00     0.210 HD
ENDBRANCH  13  31
TORSDOF 2
ENDMDL
MODEL 2
REMARK VINA RESULT:    -5.991      4.469      7.705
REMARK INTER + INTRA:          -7.009
REMARK INTER:                  -6.517
REMARK INTRA:                  -0.492
REMARK UNBOUND:                -0.492
REMARK SMILES C=C(C)[C@H]1CC[C@@]2(C)CC[C@]3(C)[C@H](CC[C@H]4[C@]5(C)CC[C@H](O)C(C)(C)[C@@H]5CC[C@]43C)[C@H]12
REMARK SMILES IDX 4 1 5 2 6 3 7 4 31 5 13 6 14 7 15 8 16 9 17 10 19 11 20 12
REMARK SMILES IDX 21 13 23 14 26 15 27 16 28 17 29 18 11 19 10 20 9 21 12 22
REMARK SMILES IDX 30 23 24 24 25 25 18 26 8 27 2 28 3 29 1 30 22 31
REMARK H PARENT 22 32
REMARK Flexibility Score: inf
ROOT
ATOM      1  C   UNL     1      19.197 -15.227  18.319  1.00  0.00     0.018 C 
ATOM      2  C   UNL     1      19.467 -16.181  17.114  1.00  0.00     0.009 C 
ATOM      3  C   UNL     1      18.230 -17.117  17.001  1.00  0.00     0.008 C 
ATOM      4  C   UNL     1      17.116 -16.309  17.706  1.00  0.00    -0.029 C 
ATOM      5  C   UNL     1      17.920 -15.822  18.936  1.00  0.00     0.006 C 
ATOM      6  C   UNL     1      17.125 -15.259  20.188  1.00  0.00    -0.000 C 
ATOM      7  C   UNL     1      17.862 -14.140  20.931  1.00  0.00     0.005 C 
ATOM      8  C   UNL     1      17.082 -13.567  22.127  1.00  0.00     0.005 C 
ATOM      9  C   UNL     1      15.909 -14.476  22.639  1.00  0.00     0.002 C 
ATOM     10  C   UNL     1      15.321 -13.992  24.067  1.00  0.00    -0.026 C 
ATOM     11  C   UNL     1      14.694 -15.211  24.861  1.00  0.00     0.010 C 
ATOM     12  C   UNL     1      13.359 -14.902  25.564  1.00  0.00     0.033 C 
ATOM     13  C   UNL     1      13.404 -13.533  26.270  1.00  0.00     0.120 C 
ATOM     14  C   UNL     1      13.561 -12.327  25.264  1.00  0.00    -0.006 C 
ATOM     15  C   UNL     1      14.299 -12.779  23.907  1.00  0.00     0.003 C 
ATOM     16  C   UNL     1      13.290 -13.036  22.747  1.00  0.00     0.005 C 
ATOM     17  C   UNL     1      13.957 -13.388  21.424  1.00  0.00     0.008 C 
ATOM     18  C   UNL     1      14.859 -14.670  21.449  1.00  0.00    -0.024 C 
ATOM     19  C   UNL     1      15.615 -14.932  19.976  1.00  0.00    -0.024 C 
ATOM     20  C   UNL     1      14.983 -16.148  19.106  1.00  0.00     0.008 C 
ATOM     21  C   UNL     1      15.923 -17.071  18.257  1.00  0.00     0.007 C 
ATOM     22  C   UNL     1      15.584 -13.613  19.123  1.00  0.00     0.012 C 
ATOM     23  C   UNL     1      13.893 -15.853  21.778  1.00  0.00     0.012 C 
ATOM     24  C   UNL     1      14.376 -11.197  25.954  1.00  0.00     0.014 C 
ATOM     25  C   UNL     1      12.167 -11.686  24.993  1.00  0.00     0.014 C 
ATOM     26  C   UNL     1      16.521 -13.519  24.960  1.00  0.00     0.012 C 
ATOM     27  C   UNL     1      16.600 -15.295  16.617  1.00  0.00     0.011 C 
ENDROOT
BRANCH   1  28
ATOM     28  C   UNL     1      20.401 -15.119  19.254  1.00  0.00    -0.077 C 
ATOM     29  C   UNL     1      20.835 -16.256  20.154  1.00  0.00     0.039 C 
ATOM     30  C   UNL     1      21.118 -13.978  19.282  1.00  0.00     0.008 C 
ENDBRANCH   1  28
BRANCH  13  31
ATOM     31  O   UNL     1      12.315 -13.353  27.139  1.00  0.00    -0.393 OA
ATOM     32  H   UNL     1      11.775 -14.198  27.172  1.00  0.00     0.210 HD
ENDBRANCH  13  31
TORSDOF 2
ENDMDL
MODEL 3
REMARK VINA RESULT:    -5.695      4.825      8.896
REMARK INTER + INTRA:          -6.686
REMARK INTER:                  -6.193
REMARK INTRA:                  -0.493
REMARK UNBOUND:                -0.492
REMARK SMILES C=C(C)[C@H]1CC[C@@]2(C)CC[C@]3(C)[C@H](CC[C@H]4[C@]5(C)CC[C@H](O)C(C)(C)[C@@H]5CC[C@]43C)[C@H]12
REMARK SMILES IDX 4 1 5 2 6 3 7 4 31 5 13 6 14 7 15 8 16 9 17 10 19 11 20 12
REMARK SMILES IDX 21 13 23 14 26 15 27 16 28 17 29 18 11 19 10 20 9 21 12 22
REMARK SMILES IDX 30 23 24 24 25 25 18 26 8 27 2 28 3 29 1 30 22 31
REMARK H PARENT 22 32
REMARK Flexibility Score: inf
ROOT
ATOM      1  C   UNL     1      18.145  -7.731  24.504  1.00  0.00     0.018 C 
ATOM      2  C   UNL     1      19.339  -8.537  23.905  1.00  0.00     0.009 C 
ATOM      3  C   UNL     1      20.480  -7.514  23.641  1.00  0.00     0.008 C 
ATOM      4  C   UNL     1      20.137  -6.355  24.605  1.00  0.00    -0.029 C 
ATOM      5  C   UNL     1      18.613  -6.275  24.347  1.00  0.00     0.006 C 
ATOM      6  C   UNL     1      17.831  -4.976  24.814  1.00  0.00    -0.000 C 
ATOM      7  C   UNL     1      16.395  -5.253  25.267  1.00  0.00     0.005 C 
ATOM      8  C   UNL     1      15.641  -4.002  25.751  1.00  0.00     0.005 C 
ATOM      9  C   UNL     1      16.283  -2.640  25.308  1.00  0.00     0.002 C 
ATOM     10  C   UNL     1      15.307  -1.375  25.571  1.00  0.00    -0.026 C 
ATOM     11  C   UNL     1      15.621  -0.201  24.554  1.00  0.00     0.010 C 
ATOM     12  C   UNL     1      15.626   1.206  25.180  1.00  0.00     0.033 C 
ATOM     13  C   UNL     1      14.441   1.391  26.148  1.00  0.00     0.120 C 
ATOM     14  C   UNL     1      14.522   0.445  27.408  1.00  0.00    -0.006 C 
ATOM     15  C   UNL     1      15.356  -0.894  27.090  1.00  0.00     0.003 C 
ATOM     16  C   UNL     1      16.822  -0.811  27.613  1.00  0.00     0.005 C 
ATOM     17  C   UNL     1      17.620  -2.092  27.402  1.00  0.00     0.008 C 
ATOM     18  C   UNL     1      17.762  -2.554  25.911  1.00  0.00    -0.024 C 
ATOM     19  C   UNL     1      18.580  -4.011  25.783  1.00  0.00    -0.024 C 
ATOM     20  C   UNL     1      20.104  -3.877  25.239  1.00  0.00     0.008 C 
ATOM     21  C   UNL     1      20.691  -4.976  24.287  1.00  0.00     0.007 C 
ATOM     22  C   UNL     1      18.590  -4.737  27.177  1.00  0.00     0.012 C 
ATOM     23  C   UNL     1      18.564  -1.420  25.197  1.00  0.00     0.012 C 
ATOM     24  C   UNL     1      13.080   0.073  27.853  1.00  0.00     0.014 C 
ATOM     25  C   UNL     1      15.108   1.233  28.618  1.00  0.00     0.014 C 
ATOM     26  C   UNL     1      13.838  -1.807  25.231  1.00  0.00     0.012 C 
ATOM     27  C   UNL     1      20.704  -6.809  26.003  1.00  0.00     0.011 C 
ENDROOT
BRANCH   1  28
ATOM     28  C   UNL     1      16.816  -8.079  23.835  1.00  0.00    -0.077 C 
ATOM     29  C   UNL     1      15.691  -8.772  24.573  1.00  0.00     0.039 C 
ATOM     30  C   UNL     1      16.622  -7.753  22.541  1.00  0.00     0.008 C 
ENDBRANCH   1  28
BRANCH  13  31
ATOM     31  O   UNL     1      14.265   2.737  26.512  1.00  0.00    -0.393 OA
ATOM     32  H   UNL     1      14.859   2.949  27.292  1.00  0.00     0.210 HD
ENDBRANCH  13  31
TORSDOF 2
ENDMDL
MODEL 4
REMARK VINA RESULT:    -5.659      2.653      7.769
REMARK INTER + INTRA:          -6.647
REMARK INTER:                  -6.157
REMARK INTRA:                  -0.490
REMARK UNBOUND:                -0.492
REMARK SMILES C=C(C)[C@H]1CC[C@@]2(C)CC[C@]3(C)[C@H](CC[C@H]4[C@]5(C)CC[C@H](O)C(C)(C)[C@@H]5CC[C@]43C)[C@H]12
REMARK SMILES IDX 4 1 5 2 6 3 7 4 31 5 13 6 14 7 15 8 16 9 17 10 19 11 20 12
REMARK SMILES IDX 21 13 23 14 26 15 27 16 28 17 29 18 11 19 10 20 9 21 12 22
REMARK SMILES IDX 30 23 24 24 25 25 18 26 8 27 2 28 3 29 1 30 22 31
REMARK H PARENT 22 32
REMARK Flexibility Score: inf
ROOT
ATOM      1  C   UNL     1      17.824  -5.806  24.318  1.00  0.00     0.018 C 
ATOM      2  C   UNL     1      18.996  -4.784  24.186  1.00  0.00     0.009 C 
ATOM      3  C   UNL     1      20.241  -5.591  23.721  1.00  0.00     0.008 C 
ATOM      4  C   UNL     1      19.618  -6.842  23.060  1.00  0.00    -0.029 C 
ATOM      5  C   UNL     1      18.535  -7.156  24.120  1.00  0.00     0.006 C 
ATOM      6  C   UNL     1      17.855  -8.589  24.111  1.00  0.00    -0.000 C 
ATOM      7  C   UNL     1      16.387  -8.575  24.549  1.00  0.00     0.005 C 
ATOM      8  C   UNL     1      15.713  -9.958  24.511  1.00  0.00     0.005 C 
ATOM      9  C   UNL     1      16.708 -11.170  24.457  1.00  0.00     0.002 C 
ATOM     10  C   UNL     1      15.979 -12.590  24.726  1.00  0.00    -0.026 C 
ATOM     11  C   UNL     1      16.995 -13.638  25.340  1.00  0.00     0.010 C 
ATOM     12  C   UNL     1      16.886 -15.058  24.754  1.00  0.00     0.033 C 
ATOM     13  C   UNL     1      15.413 -15.488  24.605  1.00  0.00     0.120 C 
ATOM     14  C   UNL     1      14.619 -14.613  23.559  1.00  0.00    -0.006 C 
ATOM     15  C   UNL     1      15.252 -13.140  23.418  1.00  0.00     0.003 C 
ATOM     16  C   UNL     1      16.167 -13.011  22.163  1.00  0.00     0.005 C 
ATOM     17  C   UNL     1      16.721 -11.607  21.951  1.00  0.00     0.008 C 
ATOM     18  C   UNL     1      17.590 -11.046  23.129  1.00  0.00    -0.024 C 
ATOM     19  C   UNL     1      18.085  -9.470  22.845  1.00  0.00    -0.024 C 
ATOM     20  C   UNL     1      19.650  -9.323  22.440  1.00  0.00     0.008 C 
ATOM     21  C   UNL     1      20.476  -8.092  22.951  1.00  0.00     0.007 C 
ATOM     22  C   UNL     1      17.196  -8.831  21.718  1.00  0.00     0.012 C 
ATOM     23  C   UNL     1      18.829 -11.993  23.221  1.00  0.00     0.012 C 
ATOM     24  C   UNL     1      13.136 -14.506  24.012  1.00  0.00     0.014 C 
ATOM     25  C   UNL     1      14.553 -15.361  22.193  1.00  0.00     0.014 C 
ATOM     26  C   UNL     1      14.901 -12.386  25.847  1.00  0.00     0.012 C 
ATOM     27  C   UNL     1      19.226  -6.380  21.606  1.00  0.00     0.011 C 
ENDROOT
BRANCH   1  28
ATOM     28  C   UNL     1      17.058  -5.643  25.630  1.00  0.00    -0.077 C 
ATOM     29  C   UNL     1      15.607  -5.217  25.676  1.00  0.00     0.039 C 
ATOM     30  C   UNL     1      17.684  -5.897  26.798  1.00  0.00     0.008 C 
ENDBRANCH   1  28
BRANCH  13  31
ATOM     31  O   UNL     1      15.291 -16.863  24.339  1.00  0.00    -0.393 OA
ATOM     32  H   UNL     1      16.196 -17.292  24.394  1.00  0.00     0.210 HD
ENDBRANCH  13  31
TORSDOF 2
ENDMDL
MODEL 5
REMARK VINA RESULT:    -5.626      3.613      6.034
REMARK INTER + INTRA:          -6.611
REMARK INTER:                  -6.371
REMARK INTRA:                  -0.241
REMARK UNBOUND:                -0.492
REMARK SMILES C=C(C)[C@H]1CC[C@@]2(C)CC[C@]3(C)[C@H](CC[C@H]4[C@]5(C)CC[C@H](O)C(C)(C)[C@@H]5CC[C@]43C)[C@H]12
REMARK SMILES IDX 4 1 5 2 6 3 7 4 31 5 13 6 14 7 15 8 16 9 17 10 19 11 20 12
REMARK SMILES IDX 21 13 23 14 26 15 27 16 28 17 29 18 11 19 10 20 9 21 12 22
REMARK SMILES IDX 30 23 24 24 25 25 18 26 8 27 2 28 3 29 1 30 22 31
REMARK H PARENT 22 32
REMARK Flexibility Score: inf
ROOT
ATOM      1  C   UNL     1      13.968 -11.334  25.638  1.00  0.00     0.018 C 
ATOM      2  C   UNL     1      12.745 -11.511  26.590  1.00  0.00     0.009 C 
ATOM      3  C   UNL     1      11.957 -12.750  26.078  1.00  0.00     0.008 C 
ATOM      4  C   UNL     1      13.026 -13.539  25.287  1.00  0.00    -0.029 C 
ATOM      5  C   UNL     1      13.678 -12.358  24.528  1.00  0.00     0.006 C 
ATOM      6  C   UNL     1      14.594 -12.675  23.272  1.00  0.00    -0.000 C 
ATOM      7  C   UNL     1      15.757 -11.694  23.097  1.00  0.00     0.005 C 
ATOM      8  C   UNL     1      16.668 -12.015  21.899  1.00  0.00     0.005 C 
ATOM      9  C   UNL     1      16.038 -12.987  20.840  1.00  0.00     0.002 C 
ATOM     10  C   UNL     1      16.893 -13.054  19.467  1.00  0.00    -0.026 C 
ATOM     11  C   UNL     1      15.962 -13.431  18.242  1.00  0.00     0.010 C 
ATOM     12  C   UNL     1      16.573 -14.448  17.260  1.00  0.00     0.033 C 
ATOM     13  C   UNL     1      18.050 -14.122  16.966  1.00  0.00     0.120 C 
ATOM     14  C   UNL     1      18.976 -14.258  18.237  1.00  0.00    -0.006 C 
ATOM     15  C   UNL     1      18.150 -14.025  19.599  1.00  0.00     0.003 C 
ATOM     16  C   UNL     1      17.761 -15.369  20.287  1.00  0.00     0.005 C 
ATOM     17  C   UNL     1      17.047 -15.188  21.621  1.00  0.00     0.008 C 
ATOM     18  C   UNL     1      15.707 -14.377  21.558  1.00  0.00    -0.024 C 
ATOM     19  C   UNL     1      15.038 -14.157  23.079  1.00  0.00    -0.024 C 
ATOM     20  C   UNL     1      13.741 -15.086  23.380  1.00  0.00     0.008 C 
ATOM     21  C   UNL     1      12.549 -14.512  24.222  1.00  0.00     0.007 C 
ATOM     22  C   UNL     1      16.128 -14.418  24.181  1.00  0.00     0.012 C 
ATOM     23  C   UNL     1      14.748 -15.225  20.664  1.00  0.00     0.012 C 
ATOM     24  C   UNL     1      20.128 -13.220  18.137  1.00  0.00     0.014 C 
ATOM     25  C   UNL     1      19.697 -15.640  18.212  1.00  0.00     0.014 C 
ATOM     26  C   UNL     1      17.410 -11.611  19.138  1.00  0.00     0.012 C 
ATOM     27  C   UNL     1      13.825 -14.346  26.378  1.00  0.00     0.011 C 
ENDROOT
BRANCH   1  28
ATOM     28  C   UNL     1      14.141  -9.886  25.179  1.00  0.00    -0.077 C 
ATOM     29  C   UNL     1      15.489  -9.200  25.144  1.00  0.00     0.039 C 
ATOM     30  C   UNL     1      13.061  -9.186  24.777  1.00  0.00     0.008 C 
ENDBRANCH   1  28
BRANCH  13  31
ATOM     31  O   UNL     1      18.545 -14.857  15.875  1.00  0.00    -0.393 OA
ATOM     32  H   UNL     1      19.132 -15.596  16.213  1.00  0.00     0.210 HD
ENDBRANCH  13  31
TORSDOF 2
ENDMDL
MODEL 6
REMARK VINA RESULT:    -5.568      9.097     13.793
REMARK INTER + INTRA:          -6.549
REMARK INTER:                  -6.061
REMARK INTRA:                  -0.487
REMARK UNBOUND:                -0.492
REMARK SMILES C=C(C)[C@H]1CC[C@@]2(C)CC[C@]3(C)[C@H](CC[C@H]4[C@]5(C)CC[C@H](O)C(C)(C)[C@@H]5CC[C@]43C)[C@H]12
REMARK SMILES IDX 4 1 5 2 6 3 7 4 31 5 13 6 14 7 15 8 16 9 17 10 19 11 20 12
REMARK SMILES IDX 21 13 23 14 26 15 27 16 28 17 29 18 11 19 10 20 9 21 12 22
REMARK SMILES IDX 30 23 24 24 25 25 18 26 8 27 2 28 3 29 1 30 22 31
REMARK H PARENT 22 32
REMARK Flexibility Score: inf
ROOT
ATOM      1  C   UNL     1      13.954  -1.553  25.545  1.00  0.00     0.018 C 
ATOM      2  C   UNL     1      12.683  -1.359  24.661  1.00  0.00     0.009 C 
ATOM      3  C   UNL     1      12.161   0.079  24.939  1.00  0.00     0.008 C 
ATOM      4  C   UNL     1      13.419   0.810  25.465  1.00  0.00    -0.029 C 
ATOM      5  C   UNL     1      13.948  -0.287  26.420  1.00  0.00     0.006 C 
ATOM      6  C   UNL     1      15.028   0.112  27.511  1.00  0.00    -0.000 C 
ATOM      7  C   UNL     1      16.030  -1.004  27.820  1.00  0.00     0.005 C 
ATOM      8  C   UNL     1      17.101  -0.612  28.854  1.00  0.00     0.005 C 
ATOM      9  C   UNL     1      16.747   0.654  29.712  1.00  0.00     0.002 C 
ATOM     10  C   UNL     1      17.740   0.847  30.977  1.00  0.00    -0.026 C 
ATOM     11  C   UNL     1      17.013   1.628  32.148  1.00  0.00     0.010 C 
ATOM     12  C   UNL     1      17.878   2.699  32.840  1.00  0.00     0.033 C 
ATOM     13  C   UNL     1      19.306   2.181  33.099  1.00  0.00     0.120 C 
ATOM     14  C   UNL     1      20.105   1.886  31.770  1.00  0.00    -0.006 C 
ATOM     15  C   UNL     1      19.116   1.530  30.552  1.00  0.00     0.003 C 
ATOM     16  C   UNL     1      18.878   2.751  29.612  1.00  0.00     0.005 C 
ATOM     17  C   UNL     1      18.010   2.430  28.401  1.00  0.00     0.008 C 
ATOM     18  C   UNL     1      16.571   1.903  28.730  1.00  0.00    -0.024 C 
ATOM     19  C   UNL     1      15.722   1.499  27.342  1.00  0.00    -0.024 C 
ATOM     20  C   UNL     1      14.567   2.562  26.932  1.00  0.00     0.008 C 
ATOM     21  C   UNL     1      13.217   2.050  26.318  1.00  0.00     0.007 C 
ATOM     22  C   UNL     1      16.720   1.328  26.141  1.00  0.00     0.012 C 
ATOM     23  C   UNL     1      15.858   3.074  29.477  1.00  0.00     0.012 C 
ATOM     24  C   UNL     1      21.079   0.702  32.019  1.00  0.00     0.014 C 
ATOM     25  C   UNL     1      21.037   3.091  31.442  1.00  0.00     0.014 C 
ATOM     26  C   UNL     1      18.050  -0.567  31.581  1.00  0.00     0.012 C 
ATOM     27  C   UNL     1      14.220   1.220  24.172  1.00  0.00     0.011 C 
ENDROOT
BRANCH   1  28
ATOM     28  C   UNL     1      13.938  -2.882  26.299  1.00  0.00    -0.077 C 
ATOM     29  C   UNL     1      14.959  -3.970  26.047  1.00  0.00     0.039 C 
ATOM     30  C   UNL     1      12.992  -3.102  27.234  1.00  0.00     0.008 C 
ENDBRANCH   1  28
BRANCH  13  31
ATOM     31  O   UNL     1      20.022   3.024  33.966  1.00  0.00    -0.393 OA
ATOM     32  H   UNL     1      20.905   2.601  34.184  1.00  0.00     0.210 HD
ENDBRANCH  13  31
TORSDOF 2
ENDMDL
MODEL 7
REMARK VINA RESULT:    -5.477      5.507     11.055
REMARK INTER + INTRA:          -6.450
REMARK INTER:                  -5.957
REMARK INTRA:                  -0.492
REMARK UNBOUND:                -0.492
REMARK SMILES C=C(C)[C@H]1CC[C@@]2(C)CC[C@]3(C)[C@H](CC[C@H]4[C@]5(C)CC[C@H](O)C(C)(C)[C@@H]5CC[C@]43C)[C@H]12
REMARK SMILES IDX 4 1 5 2 6 3 7 4 31 5 13 6 14 7 15 8 16 9 17 10 19 11 20 12
REMARK SMILES IDX 21 13 23 14 26 15 27 16 28 17 29 18 11 19 10 20 9 21 12 22
REMARK SMILES IDX 30 23 24 24 25 25 18 26 8 27 2 28 3 29 1 30 22 31
REMARK H PARENT 22 32
REMARK Flexibility Score: inf
ROOT
ATOM      1  C   UNL     1      13.783   0.442  26.580  1.00  0.00     0.018 C 
ATOM      2  C   UNL     1      13.622   1.883  27.156  1.00  0.00     0.009 C 
ATOM      3  C   UNL     1      15.050   2.377  27.525  1.00  0.00     0.008 C 
ATOM      4  C   UNL     1      15.962   1.501  26.636  1.00  0.00    -0.029 C 
ATOM      5  C   UNL     1      15.265   0.136  26.853  1.00  0.00     0.006 C 
ATOM      6  C   UNL     1      16.045  -1.187  26.457  1.00  0.00    -0.000 C 
ATOM      7  C   UNL     1      15.135  -2.307  25.943  1.00  0.00     0.005 C 
ATOM      8  C   UNL     1      15.889  -3.582  25.527  1.00  0.00     0.005 C 
ATOM      9  C   UNL     1      17.353  -3.687  26.084  1.00  0.00     0.002 C 
ATOM     10  C   UNL     1      17.993  -5.160  25.883  1.00  0.00    -0.026 C 
ATOM     11  C   UNL     1      19.089  -5.454  26.988  1.00  0.00     0.010 C 
ATOM     12  C   UNL     1      20.361  -6.145  26.464  1.00  0.00     0.033 C 
ATOM     13  C   UNL     1      20.015  -7.277  25.478  1.00  0.00     0.120 C 
ATOM     14  C   UNL     1      19.328  -6.754  24.157  1.00  0.00    -0.006 C 
ATOM     15  C   UNL     1      18.550  -5.368  24.403  1.00  0.00     0.003 C 
ATOM     16  C   UNL     1      19.380  -4.136  23.930  1.00  0.00     0.005 C 
ATOM     17  C   UNL     1      18.642  -2.810  24.074  1.00  0.00     0.008 C 
ATOM     18  C   UNL     1      18.198  -2.446  25.532  1.00  0.00    -0.024 C 
ATOM     19  C   UNL     1      17.324  -1.017  25.581  1.00  0.00    -0.024 C 
ATOM     20  C   UNL     1      18.145   0.250  26.178  1.00  0.00     0.008 C 
ATOM     21  C   UNL     1      17.406   1.310  27.066  1.00  0.00     0.007 C 
ATOM     22  C   UNL     1      16.804  -0.664  24.140  1.00  0.00     0.012 C 
ATOM     23  C   UNL     1      19.522  -2.297  26.347  1.00  0.00     0.012 C 
ATOM     24  C   UNL     1      18.332  -7.832  23.645  1.00  0.00     0.014 C 
ATOM     25  C   UNL     1      20.392  -6.642  23.023  1.00  0.00     0.014 C 
ATOM     26  C   UNL     1      16.873  -6.225  26.148  1.00  0.00     0.012 C 
ATOM     27  C   UNL     1      15.952   2.205  25.227  1.00  0.00     0.011 C 
ENDROOT
BRANCH   1  28
ATOM     28  C   UNL     1      12.779  -0.539  27.185  1.00  0.00    -0.077 C 
ATOM     29  C   UNL     1      12.877  -1.024  28.615  1.00  0.00     0.039 C 
ATOM     30  C   UNL     1      11.756  -0.989  26.429  1.00  0.00     0.008 C 
ENDBRANCH   1  28
BRANCH  13  31
ATOM     31  O   UNL     1      21.125  -8.095  25.205  1.00  0.00    -0.393 OA
ATOM     32  H   UNL     1      20.958  -9.013  25.572  1.00  0.00     0.210 HD
ENDBRANCH  13  31
TORSDOF 2
ENDMDL
