MODEL 1
REMARK VINA RESULT:    -4.532      0.000      0.000
REMARK INTER + INTRA:         -13.660
REMARK INTER:                 -11.420
REMARK INTRA:                  -2.240
REMARK UNBOUND:                -2.240
REMARK SMILES CCCCCCCCCCCCCCCCCCCCCCCCCCCC(=O)[O-]
REMARK SMILES IDX 15 1 16 2 17 3 18 4 19 5 20 6 21 7 22 8 23 9 24 10 25 11
REMARK SMILES IDX 26 12 27 13 28 14 29 15 30 16 14 17 13 18 12 19 11 20 10 21
REMARK SMILES IDX 9 22 8 23 7 24 6 25 5 26 4 27 3 28 2 29 1 30
REMARK H PARENT
REMARK Flexibility Score: inf
ROOT
ATOM      1  C   UNL     1      12.989  25.627  33.370  1.00  0.00     0.000 C 
ENDROOT
BRANCH   1   2
ATOM      2  C   UNL     1      14.477  25.998  33.313  1.00  0.00     0.000 C 
BRANCH   2   3
ATOM      3  C   UNL     1      15.351  24.738  33.256  1.00  0.00     0.000 C 
BRANCH   3   4
ATOM      4  C   UNL     1      16.576  24.874  34.170  1.00  0.00     0.000 C 
BRANCH   4   5
ATOM      5  C   UNL     1      16.289  24.455  35.623  1.00  0.00     0.000 C 
BRANCH   5   6
ATOM      6  C   UNL     1      15.176  23.393  35.755  1.00  0.00     0.000 C 
BRANCH   6   7
ATOM      7  C   UNL     1      15.735  21.959  35.734  1.00  0.00     0.000 C 
BRANCH   7   8
ATOM      8  C   UNL     1      15.886  21.400  34.306  1.00  0.00     0.000 C 
BRANCH   8   9
ATOM      9  C   UNL     1      16.403  19.950  34.244  1.00  0.00     0.000 C 
BRANCH   9  10
ATOM     10  C   UNL     1      15.341  18.927  34.685  1.00  0.00     0.000 C 
BRANCH  10  11
ATOM     11  C   UNL     1      15.908  17.503  34.809  1.00  0.00     0.000 C 
BRANCH  11  12
ATOM     12  C   UNL     1      14.898  16.420  34.387  1.00  0.00     0.006 C 
BRANCH  12  13
ATOM     13  C   UNL     1      15.582  15.092  34.034  1.00  0.00     0.053 C 
BRANCH  13  14
ATOM     14  C   UNL     1      14.585  14.007  33.764  1.00  0.00     0.041 C 
ATOM     15  O   UNL     1      14.075  13.362  34.719  1.00  0.00    -0.550 OA
ATOM     16  O   UNL     1      14.248  13.683  32.455  1.00  0.00    -0.550 OA
ENDBRANCH  13  14
ENDBRANCH  12  13
ENDBRANCH  11  12
ENDBRANCH  10  11
ENDBRANCH   9  10
ENDBRANCH   8   9
ENDBRANCH   7   8
ENDBRANCH   6   7
ENDBRANCH   5   6
ENDBRANCH   4   5
ENDBRANCH   3   4
ENDBRANCH   2   3
ENDBRANCH   1   2
BRANCH   1  17
ATOM     17  C   UNL     1      12.212  26.429  34.428  1.00  0.00     0.000 C 
BRANCH  17  18
ATOM     18  C   UNL     1      12.698  26.180  35.871  1.00  0.00     0.000 C 
BRANCH  18  19
ATOM     19  C   UNL     1      12.305  27.323  36.821  1.00  0.00     0.000 C 
BRANCH  19  20
ATOM     20  C   UNL     1      11.772  28.529  36.039  1.00  0.00     0.000 C 
BRANCH  20  21
ATOM     21  C   UNL     1      12.715  29.734  36.179  1.00  0.00     0.000 C 
BRANCH  21  22
ATOM     22  C   UNL     1      14.156  29.325  36.527  1.00  0.00    -0.000 C 
BRANCH  22  23
ATOM     23  C   UNL     1      15.017  29.065  35.278  1.00  0.00    -0.000 C 
BRANCH  23  24
ATOM     24  C   UNL     1      16.118  30.123  35.080  1.00  0.00    -0.000 C 
BRANCH  24  25
ATOM     25  C   UNL     1      15.623  31.501  34.597  1.00  0.00    -0.000 C 
BRANCH  25  26
ATOM     26  C   UNL     1      16.381  32.079  33.385  1.00  0.00    -0.000 C 
BRANCH  26  27
ATOM     27  C   UNL     1      16.738  31.050  32.293  1.00  0.00    -0.000 C 
BRANCH  27  28
ATOM     28  C   UNL     1      16.379  31.473  30.855  1.00  0.00    -0.000 C 
BRANCH  28  29
ATOM     29  C   UNL     1      16.712  30.431  29.773  1.00  0.00    -0.003 C 
ATOM     30  C   UNL     1      16.202  30.827  28.388  1.00  0.00     0.004 C 
ENDBRANCH  28  29
ENDBRANCH  27  28
ENDBRANCH  26  27
ENDBRANCH  25  26
ENDBRANCH  24  25
ENDBRANCH  23  24
ENDBRANCH  22  23
ENDBRANCH  21  22
ENDBRANCH  20  21
ENDBRANCH  19  20
ENDBRANCH  18  19
ENDBRANCH  17  18
ENDBRANCH   1  17
TORSDOF 26
ENDMDL
MODEL 2
REMARK VINA RESULT:    -4.361      4.616     12.089
REMARK INTER + INTRA:         -13.228
REMARK INTER:                 -10.940
REMARK INTRA:                  -2.289
REMARK UNBOUND:                -2.240
REMARK SMILES CCCCCCCCCCCCCCCCCCCCCCCCCCCC(=O)[O-]
REMARK SMILES IDX 15 1 16 2 17 3 18 4 19 5 20 6 21 7 22 8 23 9 24 10 25 11
REMARK SMILES IDX 26 12 27 13 28 14 29 15 30 16 14 17 13 18 12 19 11 20 10 21
REMARK SMILES IDX 9 22 8 23 7 24 6 25 5 26 4 27 3 28 2 29 1 30
REMARK H PARENT
REMARK Flexibility Score: inf
ROOT
ATOM      1  C   UNL     1      14.457  24.150  36.313  1.00  0.00     0.000 C 
ENDROOT
BRANCH   1   2
ATOM      2  C   UNL     1      15.423  24.473  35.165  1.00  0.00     0.000 C 
BRANCH   2   3
ATOM      3  C   UNL     1      14.863  23.981  33.824  1.00  0.00     0.000 C 
BRANCH   3   4
ATOM      4  C   UNL     1      14.133  25.109  33.082  1.00  0.00     0.000 C 
BRANCH   4   5
ATOM      5  C   UNL     1      12.679  25.293  33.552  1.00  0.00     0.000 C 
BRANCH   5   6
ATOM      6  C   UNL     1      12.274  26.769  33.756  1.00  0.00     0.000 C 
BRANCH   6   7
ATOM      7  C   UNL     1      12.199  27.151  35.245  1.00  0.00     0.000 C 
BRANCH   7   8
ATOM      8  C   UNL     1      13.571  27.536  35.831  1.00  0.00     0.000 C 
BRANCH   8   9
ATOM      9  C   UNL     1      13.962  29.010  35.613  1.00  0.00     0.000 C 
BRANCH   9  10
ATOM     10  C   UNL     1      15.387  29.163  35.050  1.00  0.00     0.000 C 
BRANCH  10  11
ATOM     11  C   UNL     1      15.665  28.208  33.878  1.00  0.00     0.000 C 
BRANCH  11  12
ATOM     12  C   UNL     1      16.778  28.719  32.945  1.00  0.00     0.006 C 
BRANCH  12  13
ATOM     13  C   UNL     1      16.545  30.169  32.500  1.00  0.00     0.053 C 
BRANCH  13  14
ATOM     14  C   UNL     1      16.732  30.336  31.023  1.00  0.00     0.041 C 
ATOM     15  O   UNL     1      16.782  31.488  30.515  1.00  0.00    -0.550 OA
ATOM     16  O   UNL     1      16.812  29.217  30.202  1.00  0.00    -0.550 OA
ENDBRANCH  13  14
ENDBRANCH  12  13
ENDBRANCH  11  12
ENDBRANCH  10  11
ENDBRANCH   9  10
ENDBRANCH   8   9
ENDBRANCH   7   8
ENDBRANCH   6   7
ENDBRANCH   5   6
ENDBRANCH   4   5
ENDBRANCH   3   4
ENDBRANCH   2   3
ENDBRANCH   1   2
BRANCH   1  17
ATOM     17  C   UNL     1      14.884  22.914  37.125  1.00  0.00     0.000 C 
BRANCH  17  18
ATOM     18  C   UNL     1      16.391  22.597  37.020  1.00  0.00     0.000 C 
BRANCH  18  19
ATOM     19  C   UNL     1      16.675  21.090  37.125  1.00  0.00     0.000 C 
BRANCH  19  20
ATOM     20  C   UNL     1      15.914  20.311  36.045  1.00  0.00     0.000 C 
BRANCH  20  21
ATOM     21  C   UNL     1      16.798  19.211  35.437  1.00  0.00     0.000 C 
BRANCH  21  22
ATOM     22  C   UNL     1      16.045  18.336  34.421  1.00  0.00    -0.000 C 
BRANCH  22  23
ATOM     23  C   UNL     1      16.299  16.832  34.630  1.00  0.00    -0.000 C 
BRANCH  23  24
ATOM     24  C   UNL     1      15.170  16.139  35.416  1.00  0.00    -0.000 C 
BRANCH  24  25
ATOM     25  C   UNL     1      15.453  14.677  35.816  1.00  0.00    -0.000 C 
BRANCH  25  26
ATOM     26  C   UNL     1      15.010  13.620  34.785  1.00  0.00    -0.000 C 
BRANCH  26  27
ATOM     27  C   UNL     1      14.458  14.194  33.464  1.00  0.00    -0.000 C 
BRANCH  27  28
ATOM     28  C   UNL     1      14.506  13.230  32.262  1.00  0.00    -0.000 C 
BRANCH  28  29
ATOM     29  C   UNL     1      15.799  13.297  31.431  1.00  0.00    -0.003 C 
ATOM     30  C   UNL     1      16.842  14.241  32.027  1.00  0.00     0.004 C 
ENDBRANCH  28  29
ENDBRANCH  27  28
ENDBRANCH  26  27
ENDBRANCH  25  26
ENDBRANCH  24  25
ENDBRANCH  23  24
ENDBRANCH  22  23
ENDBRANCH  21  22
ENDBRANCH  20  21
ENDBRANCH  19  20
ENDBRANCH  18  19
ENDBRANCH  17  18
ENDBRANCH   1  17
TORSDOF 26
ENDMDL
MODEL 3
REMARK VINA RESULT:    -4.220      2.145      4.518
REMARK INTER + INTRA:         -12.874
REMARK INTER:                  -9.708
REMARK INTRA:                  -3.166
REMARK UNBOUND:                -2.240
REMARK SMILES CCCCCCCCCCCCCCCCCCCCCCCCCCCC(=O)[O-]
REMARK SMILES IDX 15 1 16 2 17 3 18 4 19 5 20 6 21 7 22 8 23 9 24 10 25 11
REMARK SMILES IDX 26 12 27 13 28 14 29 15 30 16 14 17 13 18 12 19 11 20 10 21
REMARK SMILES IDX 9 22 8 23 7 24 6 25 5 26 4 27 3 28 2 29 1 30
REMARK H PARENT
REMARK Flexibility Score: inf
ROOT
ATOM      1  C   UNL     1      17.118  25.722  34.398  1.00  0.00     0.000 C 
ENDROOT
BRANCH   1   2
ATOM      2  C   UNL     1      17.121  24.187  34.451  1.00  0.00     0.000 C 
BRANCH   2   3
ATOM      3  C   UNL     1      15.985  23.609  33.598  1.00  0.00     0.000 C 
BRANCH   3   4
ATOM      4  C   UNL     1      16.374  22.246  33.010  1.00  0.00     0.000 C 
BRANCH   4   5
ATOM      5  C   UNL     1      16.646  21.184  34.090  1.00  0.00     0.000 C 
BRANCH   5   6
ATOM      6  C   UNL     1      15.511  20.147  34.241  1.00  0.00     0.000 C 
BRANCH   6   7
ATOM      7  C   UNL     1      15.401  19.613  35.681  1.00  0.00     0.000 C 
BRANCH   7   8
ATOM      8  C   UNL     1      16.447  18.526  35.994  1.00  0.00     0.000 C 
BRANCH   8   9
ATOM      9  C   UNL     1      15.853  17.213  36.537  1.00  0.00     0.000 C 
BRANCH   9  10
ATOM     10  C   UNL     1      15.435  16.247  35.414  1.00  0.00     0.000 C 
BRANCH  10  11
ATOM     11  C   UNL     1      15.498  14.773  35.846  1.00  0.00     0.000 C 
BRANCH  11  12
ATOM     12  C   UNL     1      15.328  13.798  34.668  1.00  0.00     0.006 C 
BRANCH  12  13
ATOM     13  C   UNL     1      16.175  14.201  33.452  1.00  0.00     0.053 C 
BRANCH  13  14
ATOM     14  C   UNL     1      15.622  13.640  32.178  1.00  0.00     0.041 C 
ATOM     15  O   UNL     1      16.366  13.498  31.172  1.00  0.00    -0.550 OA
ATOM     16  O   UNL     1      14.275  13.309  32.091  1.00  0.00    -0.550 OA
ENDBRANCH  13  14
ENDBRANCH  12  13
ENDBRANCH  11  12
ENDBRANCH  10  11
ENDBRANCH   9  10
ENDBRANCH   8   9
ENDBRANCH   7   8
ENDBRANCH   6   7
ENDBRANCH   5   6
ENDBRANCH   4   5
ENDBRANCH   3   4
ENDBRANCH   2   3
ENDBRANCH   1   2
BRANCH   1  17
ATOM     17  C   UNL     1      16.473  26.275  33.115  1.00  0.00     0.000 C 
BRANCH  17  18
ATOM     18  C   UNL     1      16.478  27.816  33.036  1.00  0.00     0.000 C 
BRANCH  18  19
ATOM     19  C   UNL     1      15.527  28.452  34.061  1.00  0.00     0.000 C 
BRANCH  19  20
ATOM     20  C   UNL     1      16.309  29.204  35.145  1.00  0.00     0.000 C 
BRANCH  20  21
ATOM     21  C   UNL     1      15.389  29.604  36.309  1.00  0.00     0.000 C 
BRANCH  21  22
ATOM     22  C   UNL     1      14.520  30.830  35.987  1.00  0.00    -0.000 C 
BRANCH  22  23
ATOM     23  C   UNL     1      13.171  30.812  36.727  1.00  0.00    -0.000 C 
BRANCH  23  24
ATOM     24  C   UNL     1      12.531  29.412  36.768  1.00  0.00    -0.000 C 
BRANCH  24  25
ATOM     25  C   UNL     1      11.696  29.037  35.527  1.00  0.00    -0.000 C 
BRANCH  25  26
ATOM     26  C   UNL     1      11.402  27.533  35.367  1.00  0.00    -0.000 C 
BRANCH  26  27
ATOM     27  C   UNL     1      12.198  26.832  34.248  1.00  0.00    -0.000 C 
BRANCH  27  28
ATOM     28  C   UNL     1      13.222  25.785  34.731  1.00  0.00    -0.000 C 
BRANCH  28  29
ATOM     29  C   UNL     1      13.224  25.536  36.249  1.00  0.00    -0.003 C 
ATOM     30  C   UNL     1      14.544  25.923  36.914  1.00  0.00     0.004 C 
ENDBRANCH  28  29
ENDBRANCH  27  28
ENDBRANCH  26  27
ENDBRANCH  25  26
ENDBRANCH  24  25
ENDBRANCH  23  24
ENDBRANCH  22  23
ENDBRANCH  21  22
ENDBRANCH  20  21
ENDBRANCH  19  20
ENDBRANCH  18  19
ENDBRANCH  17  18
ENDBRANCH   1  17
TORSDOF 26
ENDMDL
MODEL 4
REMARK VINA RESULT:    -4.209      4.389     11.321
REMARK INTER + INTRA:         -12.847
REMARK INTER:                  -9.882
REMARK INTRA:                  -2.965
REMARK UNBOUND:                -2.240
REMARK SMILES CCCCCCCCCCCCCCCCCCCCCCCCCCCC(=O)[O-]
REMARK SMILES IDX 15 1 16 2 17 3 18 4 19 5 20 6 21 7 22 8 23 9 24 10 25 11
REMARK SMILES IDX 26 12 27 13 28 14 29 15 30 16 14 17 13 18 12 19 11 20 10 21
REMARK SMILES IDX 9 22 8 23 7 24 6 25 5 26 4 27 3 28 2 29 1 30
REMARK H PARENT
REMARK Flexibility Score: inf
ROOT
ATOM      1  C   UNL     1      14.470  25.015  37.017  1.00  0.00     0.000 C 
ENDROOT
BRANCH   1   2
ATOM      2  C   UNL     1      13.200  25.403  36.247  1.00  0.00     0.000 C 
BRANCH   2   3
ATOM      3  C   UNL     1      13.420  25.280  34.734  1.00  0.00     0.000 C 
BRANCH   3   4
ATOM      4  C   UNL     1      12.287  25.959  33.953  1.00  0.00     0.000 C 
BRANCH   4   5
ATOM      5  C   UNL     1      12.313  27.493  34.072  1.00  0.00     0.000 C 
BRANCH   5   6
ATOM      6  C   UNL     1      11.246  28.059  35.034  1.00  0.00     0.000 C 
BRANCH   6   7
ATOM      7  C   UNL     1      11.863  28.580  36.345  1.00  0.00     0.000 C 
BRANCH   7   8
ATOM      8  C   UNL     1      12.818  29.768  36.122  1.00  0.00     0.000 C 
BRANCH   8   9
ATOM      9  C   UNL     1      14.260  29.522  36.605  1.00  0.00     0.000 C 
BRANCH   9  10
ATOM     10  C   UNL     1      15.278  29.541  35.450  1.00  0.00     0.000 C 
BRANCH  10  11
ATOM     11  C   UNL     1      15.831  28.143  35.126  1.00  0.00     0.000 C 
BRANCH  11  12
ATOM     12  C   UNL     1      15.631  27.749  33.652  1.00  0.00     0.006 C 
BRANCH  12  13
ATOM     13  C   UNL     1      16.934  27.834  32.845  1.00  0.00     0.053 C 
BRANCH  13  14
ATOM     14  C   UNL     1      16.883  28.924  31.818  1.00  0.00     0.041 C 
ATOM     15  O   UNL     1      17.077  28.659  30.602  1.00  0.00    -0.550 OA
ATOM     16  O   UNL     1      16.659  30.238  32.211  1.00  0.00    -0.550 OA
ENDBRANCH  13  14
ENDBRANCH  12  13
ENDBRANCH  11  12
ENDBRANCH  10  11
ENDBRANCH   9  10
ENDBRANCH   8   9
ENDBRANCH   7   8
ENDBRANCH   6   7
ENDBRANCH   5   6
ENDBRANCH   4   5
ENDBRANCH   3   4
ENDBRANCH   2   3
ENDBRANCH   1   2
BRANCH   1  17
ATOM     17  C   UNL     1      15.621  24.578  36.093  1.00  0.00     0.000 C 
BRANCH  17  18
ATOM     18  C   UNL     1      16.764  23.852  36.833  1.00  0.00     0.000 C 
BRANCH  18  19
ATOM     19  C   UNL     1      17.125  22.514  36.170  1.00  0.00     0.000 C 
BRANCH  19  20
ATOM     20  C   UNL     1      16.240  22.250  34.946  1.00  0.00     0.000 C 
BRANCH  20  21
ATOM     21  C   UNL     1      16.781  21.071  34.122  1.00  0.00     0.000 C 
BRANCH  21  22
ATOM     22  C   UNL     1      15.704  20.018  33.813  1.00  0.00    -0.000 C 
BRANCH  22  23
ATOM     23  C   UNL     1      15.246  19.251  35.067  1.00  0.00    -0.000 C 
BRANCH  23  24
ATOM     24  C   UNL     1      16.346  18.343  35.646  1.00  0.00    -0.000 C 
BRANCH  24  25
ATOM     25  C   UNL     1      15.861  16.968  36.151  1.00  0.00    -0.000 C 
BRANCH  25  26
ATOM     26  C   UNL     1      15.510  15.953  35.046  1.00  0.00    -0.000 C 
BRANCH  26  27
ATOM     27  C   UNL     1      16.467  15.954  33.837  1.00  0.00    -0.000 C 
BRANCH  27  28
ATOM     28  C   UNL     1      16.307  14.760  32.875  1.00  0.00    -0.000 C 
BRANCH  28  29
ATOM     29  C   UNL     1      15.284  13.702  33.323  1.00  0.00    -0.003 C 
ATOM     30  C   UNL     1      14.446  13.157  32.168  1.00  0.00     0.004 C 
ENDBRANCH  28  29
ENDBRANCH  27  28
ENDBRANCH  26  27
ENDBRANCH  25  26
ENDBRANCH  24  25
ENDBRANCH  23  24
ENDBRANCH  22  23
ENDBRANCH  21  22
ENDBRANCH  20  21
ENDBRANCH  19  20
ENDBRANCH  18  19
ENDBRANCH  17  18
ENDBRANCH   1  17
TORSDOF 26
ENDMDL
MODEL 5
REMARK VINA RESULT:    -4.073      3.933     11.917
REMARK INTER + INTRA:         -12.505
REMARK INTER:                 -10.047
REMARK INTRA:                  -2.457
REMARK UNBOUND:                -2.240
REMARK SMILES CCCCCCCCCCCCCCCCCCCCCCCCCCCC(=O)[O-]
REMARK SMILES IDX 15 1 16 2 17 3 18 4 19 5 20 6 21 7 22 8 23 9 24 10 25 11
REMARK SMILES IDX 26 12 27 13 28 14 29 15 30 16 14 17 13 18 12 19 11 20 10 21
REMARK SMILES IDX 9 22 8 23 7 24 6 25 5 26 4 27 3 28 2 29 1 30
REMARK H PARENT
REMARK Flexibility Score: inf
ROOT
ATOM      1  C   UNL     1      16.547  24.970  34.773  1.00  0.00     0.000 C 
ENDROOT
BRANCH   1   2
ATOM      2  C   UNL     1      17.125  25.996  33.788  1.00  0.00     0.000 C 
BRANCH   2   3
ATOM      3  C   UNL     1      16.009  26.647  32.961  1.00  0.00     0.000 C 
BRANCH   3   4
ATOM      4  C   UNL     1      16.076  28.177  33.049  1.00  0.00     0.000 C 
BRANCH   4   5
ATOM      5  C   UNL     1      16.750  28.819  31.823  1.00  0.00     0.000 C 
BRANCH   5   6
ATOM      6  C   UNL     1      17.091  30.313  32.013  1.00  0.00     0.000 C 
BRANCH   6   7
ATOM      7  C   UNL     1      17.033  30.739  33.491  1.00  0.00     0.000 C 
BRANCH   7   8
ATOM      8  C   UNL     1      16.001  31.853  33.750  1.00  0.00     0.000 C 
BRANCH   8   9
ATOM      9  C   UNL     1      15.417  31.858  35.175  1.00  0.00     0.000 C 
BRANCH   9  10
ATOM     10  C   UNL     1      15.535  30.486  35.864  1.00  0.00     0.000 C 
BRANCH  10  11
ATOM     11  C   UNL     1      14.208  29.711  35.868  1.00  0.00     0.000 C 
BRANCH  11  12
ATOM     12  C   UNL     1      14.376  28.242  36.296  1.00  0.00     0.006 C 
BRANCH  12  13
ATOM     13  C   UNL     1      13.029  27.527  36.466  1.00  0.00     0.053 C 
BRANCH  13  14
ATOM     14  C   UNL     1      12.208  27.581  35.214  1.00  0.00     0.041 C 
ATOM     15  O   UNL     1      11.109  28.198  35.201  1.00  0.00    -0.550 OA
ATOM     16  O   UNL     1      12.638  26.918  34.070  1.00  0.00    -0.550 OA
ENDBRANCH  13  14
ENDBRANCH  12  13
ENDBRANCH  11  12
ENDBRANCH  10  11
ENDBRANCH   9  10
ENDBRANCH   8   9
ENDBRANCH   7   8
ENDBRANCH   6   7
ENDBRANCH   5   6
ENDBRANCH   4   5
ENDBRANCH   3   4
ENDBRANCH   2   3
ENDBRANCH   1   2
BRANCH   1  17
ATOM     17  C   UNL     1      15.467  24.075  34.141  1.00  0.00     0.000 C 
BRANCH  17  18
ATOM     18  C   UNL     1      15.614  22.582  34.500  1.00  0.00     0.000 C 
BRANCH  18  19
ATOM     19  C   UNL     1      16.424  21.809  33.447  1.00  0.00     0.000 C 
BRANCH  19  20
ATOM     20  C   UNL     1      16.819  20.422  33.967  1.00  0.00     0.000 C 
BRANCH  20  21
ATOM     21  C   UNL     1      15.598  19.681  34.535  1.00  0.00     0.000 C 
BRANCH  21  22
ATOM     22  C   UNL     1      15.978  18.638  35.600  1.00  0.00    -0.000 C 
BRANCH  22  23
ATOM     23  C   UNL     1      15.646  17.199  35.165  1.00  0.00    -0.000 C 
BRANCH  23  24
ATOM     24  C   UNL     1      15.725  16.191  36.327  1.00  0.00    -0.000 C 
BRANCH  24  25
ATOM     25  C   UNL     1      15.883  14.717  35.904  1.00  0.00    -0.000 C 
BRANCH  25  26
ATOM     26  C   UNL     1      14.565  13.981  35.595  1.00  0.00    -0.000 C 
BRANCH  26  27
ATOM     27  C   UNL     1      14.562  13.182  34.276  1.00  0.00    -0.000 C 
BRANCH  27  28
ATOM     28  C   UNL     1      14.665  14.035  32.996  1.00  0.00    -0.000 C 
BRANCH  28  29
ATOM     29  C   UNL     1      15.810  13.640  32.047  1.00  0.00    -0.003 C 
ATOM     30  C   UNL     1      16.982  14.619  32.087  1.00  0.00     0.004 C 
ENDBRANCH  28  29
ENDBRANCH  27  28
ENDBRANCH  26  27
ENDBRANCH  25  26
ENDBRANCH  24  25
ENDBRANCH  23  24
ENDBRANCH  22  23
ENDBRANCH  21  22
ENDBRANCH  20  21
ENDBRANCH  19  20
ENDBRANCH  18  19
ENDBRANCH  17  18
ENDBRANCH   1  17
TORSDOF 26
ENDMDL
MODEL 6
REMARK VINA RESULT:    -3.952      4.344     11.875
REMARK INTER + INTRA:         -12.198
REMARK INTER:                 -10.914
REMARK INTRA:                  -1.284
REMARK UNBOUND:                -2.240
REMARK SMILES CCCCCCCCCCCCCCCCCCCCCCCCCCCC(=O)[O-]
REMARK SMILES IDX 15 1 16 2 17 3 18 4 19 5 20 6 21 7 22 8 23 9 24 10 25 11
REMARK SMILES IDX 26 12 27 13 28 14 29 15 30 16 14 17 13 18 12 19 11 20 10 21
REMARK SMILES IDX 9 22 8 23 7 24 6 25 5 26 4 27 3 28 2 29 1 30
REMARK H PARENT
REMARK Flexibility Score: inf
ROOT
ATOM      1  C   UNL     1      12.263  25.945  33.952  1.00  0.00     0.000 C 
ENDROOT
BRANCH   1   2
ATOM      2  C   UNL     1      12.350  27.468  34.125  1.00  0.00     0.000 C 
BRANCH   2   3
ATOM      3  C   UNL     1      11.493  27.932  35.310  1.00  0.00     0.000 C 
BRANCH   3   4
ATOM      4  C   UNL     1      11.996  27.326  36.627  1.00  0.00     0.000 C 
BRANCH   4   5
ATOM      5  C   UNL     1      13.318  27.950  37.108  1.00  0.00     0.000 C 
BRANCH   5   6
ATOM      6  C   UNL     1      13.955  28.918  36.088  1.00  0.00     0.000 C 
BRANCH   6   7
ATOM      7  C   UNL     1      15.491  28.810  36.066  1.00  0.00     0.000 C 
BRANCH   7   8
ATOM      8  C   UNL     1      16.152  29.907  35.209  1.00  0.00     0.000 C 
BRANCH   8   9
ATOM      9  C   UNL     1      15.950  31.337  35.744  1.00  0.00     0.000 C 
BRANCH   9  10
ATOM     10  C   UNL     1      16.573  32.403  34.824  1.00  0.00     0.000 C 
BRANCH  10  11
ATOM     11  C   UNL     1      15.958  32.400  33.415  1.00  0.00     0.000 C 
BRANCH  11  12
ATOM     12  C   UNL     1      17.004  32.181  32.307  1.00  0.00     0.006 C 
BRANCH  12  13
ATOM     13  C   UNL     1      16.361  31.804  30.966  1.00  0.00     0.053 C 
BRANCH  13  14
ATOM     14  C   UNL     1      16.704  30.404  30.557  1.00  0.00     0.041 C 
ATOM     15  O   UNL     1      16.890  30.125  29.343  1.00  0.00    -0.550 OA
ATOM     16  O   UNL     1      16.781  29.399  31.515  1.00  0.00    -0.550 OA
ENDBRANCH  13  14
ENDBRANCH  12  13
ENDBRANCH  11  12
ENDBRANCH  10  11
ENDBRANCH   9  10
ENDBRANCH   8   9
ENDBRANCH   7   8
ENDBRANCH   6   7
ENDBRANCH   5   6
ENDBRANCH   4   5
ENDBRANCH   3   4
ENDBRANCH   2   3
ENDBRANCH   1   2
BRANCH   1  17
ATOM     17  C   UNL     1      13.605  25.235  34.206  1.00  0.00     0.000 C 
BRANCH  17  18
ATOM     18  C   UNL     1      14.455  25.048  32.933  1.00  0.00     0.000 C 
BRANCH  18  19
ATOM     19  C   UNL     1      15.350  23.801  33.011  1.00  0.00     0.000 C 
BRANCH  19  20
ATOM     20  C   UNL     1      16.162  23.788  34.312  1.00  0.00     0.000 C 
BRANCH  20  21
ATOM     21  C   UNL     1      16.036  22.432  35.024  1.00  0.00     0.000 C 
BRANCH  21  22
ATOM     22  C   UNL     1      16.469  21.252  34.139  1.00  0.00    -0.000 C 
BRANCH  22  23
ATOM     23  C   UNL     1      16.517  19.920  34.908  1.00  0.00    -0.000 C 
BRANCH  23  24
ATOM     24  C   UNL     1      15.348  18.982  34.552  1.00  0.00    -0.000 C 
BRANCH  24  25
ATOM     25  C   UNL     1      15.550  17.505  34.947  1.00  0.00    -0.000 C 
BRANCH  25  26
ATOM     26  C   UNL     1      16.636  16.758  34.148  1.00  0.00    -0.000 C 
BRANCH  26  27
ATOM     27  C   UNL     1      16.237  15.345  33.677  1.00  0.00    -0.000 C 
BRANCH  27  28
ATOM     28  C   UNL     1      14.730  15.030  33.760  1.00  0.00    -0.000 C 
BRANCH  28  29
ATOM     29  C   UNL     1      14.344  13.603  33.331  1.00  0.00    -0.003 C 
ATOM     30  C   UNL     1      15.138  13.109  32.123  1.00  0.00     0.004 C 
ENDBRANCH  28  29
ENDBRANCH  27  28
ENDBRANCH  26  27
ENDBRANCH  25  26
ENDBRANCH  24  25
ENDBRANCH  23  24
ENDBRANCH  22  23
ENDBRANCH  21  22
ENDBRANCH  20  21
ENDBRANCH  19  20
ENDBRANCH  18  19
ENDBRANCH  17  18
ENDBRANCH   1  17
TORSDOF 26
ENDMDL
MODEL 7
REMARK VINA RESULT:    -3.849      2.142      4.641
REMARK INTER + INTRA:         -11.939
REMARK INTER:                  -9.930
REMARK INTRA:                  -2.009
REMARK UNBOUND:                -2.240
REMARK SMILES CCCCCCCCCCCCCCCCCCCCCCCCCCCC(=O)[O-]
REMARK SMILES IDX 15 1 16 2 17 3 18 4 19 5 20 6 21 7 22 8 23 9 24 10 25 11
REMARK SMILES IDX 26 12 27 13 28 14 29 15 30 16 14 17 13 18 12 19 11 20 10 21
REMARK SMILES IDX 9 22 8 23 7 24 6 25 5 26 4 27 3 28 2 29 1 30
REMARK H PARENT
REMARK Flexibility Score: inf
ROOT
ATOM      1  C   UNL     1      14.722  24.090  33.499  1.00  0.00     0.000 C 
ENDROOT
BRANCH   1   2
ATOM      2  C   UNL     1      15.600  22.912  33.054  1.00  0.00     0.000 C 
BRANCH   2   3
ATOM      3  C   UNL     1      16.689  22.619  34.094  1.00  0.00     0.000 C 
BRANCH   3   4
ATOM      4  C   UNL     1      16.930  21.110  34.233  1.00  0.00     0.000 C 
BRANCH   4   5
ATOM      5  C   UNL     1      15.694  20.269  33.866  1.00  0.00     0.000 C 
BRANCH   5   6
ATOM      6  C   UNL     1      15.569  18.962  34.677  1.00  0.00     0.000 C 
BRANCH   6   7
ATOM      7  C   UNL     1      16.924  18.252  34.848  1.00  0.00     0.000 C 
BRANCH   7   8
ATOM      8  C   UNL     1      16.945  16.849  34.212  1.00  0.00     0.000 C 
BRANCH   8   9
ATOM      9  C   UNL     1      16.212  15.770  35.033  1.00  0.00     0.000 C 
BRANCH   9  10
ATOM     10  C   UNL     1      14.844  15.401  34.430  1.00  0.00     0.000 C 
BRANCH  10  11
ATOM     11  C   UNL     1      14.501  13.914  34.610  1.00  0.00     0.000 C 
BRANCH  11  12
ATOM     12  C   UNL     1      15.280  13.001  33.646  1.00  0.00     0.006 C 
BRANCH  12  13
ATOM     13  C   UNL     1      14.938  13.280  32.176  1.00  0.00     0.053 C 
BRANCH  13  14
ATOM     14  C   UNL     1      16.168  13.511  31.352  1.00  0.00     0.041 C 
ATOM     15  O   UNL     1      17.059  14.308  31.751  1.00  0.00    -0.550 OA
ATOM     16  O   UNL     1      16.313  12.875  30.125  1.00  0.00    -0.550 OA
ENDBRANCH  13  14
ENDBRANCH  12  13
ENDBRANCH  11  12
ENDBRANCH  10  11
ENDBRANCH   9  10
ENDBRANCH   8   9
ENDBRANCH   7   8
ENDBRANCH   6   7
ENDBRANCH   5   6
ENDBRANCH   4   5
ENDBRANCH   3   4
ENDBRANCH   2   3
ENDBRANCH   1   2
BRANCH   1  17
ATOM     17  C   UNL     1      15.542  25.282  34.024  1.00  0.00     0.000 C 
BRANCH  17  18
ATOM     18  C   UNL     1      15.051  26.648  33.500  1.00  0.00     0.000 C 
BRANCH  18  19
ATOM     19  C   UNL     1      16.165  27.431  32.788  1.00  0.00     0.000 C 
BRANCH  19  20
ATOM     20  C   UNL     1      17.049  28.171  33.799  1.00  0.00     0.000 C 
BRANCH  20  21
ATOM     21  C   UNL     1      16.687  29.664  33.855  1.00  0.00     0.000 C 
BRANCH  21  22
ATOM     22  C   UNL     1      16.242  30.116  35.255  1.00  0.00    -0.000 C 
BRANCH  22  23
ATOM     23  C   UNL     1      15.185  31.234  35.210  1.00  0.00    -0.000 C 
BRANCH  23  24
ATOM     24  C   UNL     1      14.415  31.382  36.535  1.00  0.00    -0.000 C 
BRANCH  24  25
ATOM     25  C   UNL     1      13.035  32.061  36.418  1.00  0.00    -0.000 C 
BRANCH  25  26
ATOM     26  C   UNL     1      11.829  31.140  36.684  1.00  0.00    -0.000 C 
BRANCH  26  27
ATOM     27  C   UNL     1      12.130  29.631  36.583  1.00  0.00    -0.000 C 
BRANCH  27  28
ATOM     28  C   UNL     1      11.441  28.904  35.412  1.00  0.00    -0.000 C 
BRANCH  28  29
ATOM     29  C   UNL     1      11.851  27.432  35.233  1.00  0.00    -0.003 C 
ATOM     30  C   UNL     1      12.123  26.724  36.559  1.00  0.00     0.004 C 
ENDBRANCH  28  29
ENDBRANCH  27  28
ENDBRANCH  26  27
ENDBRANCH  25  26
ENDBRANCH  24  25
ENDBRANCH  23  24
ENDBRANCH  22  23
ENDBRANCH  21  22
ENDBRANCH  20  21
ENDBRANCH  19  20
ENDBRANCH  18  19
ENDBRANCH  17  18
ENDBRANCH   1  17
TORSDOF 26
ENDMDL
MODEL 8
REMARK VINA RESULT:    -3.818      4.353     12.018
REMARK INTER + INTRA:         -11.861
REMARK INTER:                  -9.378
REMARK INTRA:                  -2.483
REMARK UNBOUND:                -2.240
REMARK SMILES CCCCCCCCCCCCCCCCCCCCCCCCCCCC(=O)[O-]
REMARK SMILES IDX 15 1 16 2 17 3 18 4 19 5 20 6 21 7 22 8 23 9 24 10 25 11
REMARK SMILES IDX 26 12 27 13 28 14 29 15 30 16 14 17 13 18 12 19 11 20 10 21
REMARK SMILES IDX 9 22 8 23 7 24 6 25 5 26 4 27 3 28 2 29 1 30
REMARK H PARENT
REMARK Flexibility Score: inf
ROOT
ATOM      1  C   UNL     1      14.442  24.193  33.861  1.00  0.00     0.000 C 
ENDROOT
BRANCH   1   2
ATOM      2  C   UNL     1      13.944  25.366  33.006  1.00  0.00     0.000 C 
BRANCH   2   3
ATOM      3  C   UNL     1      14.087  26.693  33.763  1.00  0.00     0.000 C 
BRANCH   3   4
ATOM      4  C   UNL     1      15.540  26.929  34.197  1.00  0.00     0.000 C 
BRANCH   4   5
ATOM      5  C   UNL     1      15.697  27.056  35.723  1.00  0.00     0.000 C 
BRANCH   5   6
ATOM      6  C   UNL     1      16.162  28.453  36.185  1.00  0.00     0.000 C 
BRANCH   6   7
ATOM      7  C   UNL     1      16.243  29.454  35.018  1.00  0.00     0.000 C 
BRANCH   7   8
ATOM      8  C   UNL     1      16.522  30.895  35.488  1.00  0.00     0.000 C 
BRANCH   8   9
ATOM      9  C   UNL     1      15.304  31.835  35.409  1.00  0.00     0.000 C 
BRANCH   9  10
ATOM     10  C   UNL     1      14.409  31.743  36.658  1.00  0.00     0.000 C 
BRANCH  10  11
ATOM     11  C   UNL     1      12.941  32.090  36.361  1.00  0.00     0.000 C 
BRANCH  11  12
ATOM     12  C   UNL     1      11.990  30.901  36.585  1.00  0.00     0.006 C 
BRANCH  12  13
ATOM     13  C   UNL     1      12.607  29.569  36.134  1.00  0.00     0.053 C 
BRANCH  13  14
ATOM     14  C   UNL     1      11.561  28.597  35.679  1.00  0.00     0.041 C 
ATOM     15  O   UNL     1      11.544  27.424  36.138  1.00  0.00    -0.550 OA
ATOM     16  O   UNL     1      10.629  28.976  34.721  1.00  0.00    -0.550 OA
ENDBRANCH  13  14
ENDBRANCH  12  13
ENDBRANCH  11  12
ENDBRANCH  10  11
ENDBRANCH   9  10
ENDBRANCH   8   9
ENDBRANCH   7   8
ENDBRANCH   6   7
ENDBRANCH   5   6
ENDBRANCH   4   5
ENDBRANCH   3   4
ENDBRANCH   2   3
ENDBRANCH   1   2
BRANCH   1  17
ATOM     17  C   UNL     1      15.602  23.424  33.206  1.00  0.00     0.000 C 
BRANCH  17  18
ATOM     18  C   UNL     1      16.871  23.355  34.082  1.00  0.00     0.000 C 
BRANCH  18  19
ATOM     19  C   UNL     1      16.587  22.751  35.466  1.00  0.00     0.000 C 
BRANCH  19  20
ATOM     20  C   UNL     1      17.031  21.285  35.528  1.00  0.00     0.000 C 
BRANCH  20  21
ATOM     21  C   UNL     1      15.882  20.346  35.127  1.00  0.00     0.000 C 
BRANCH  21  22
ATOM     22  C   UNL     1      16.378  19.031  34.505  1.00  0.00    -0.000 C 
BRANCH  22  23
ATOM     23  C   UNL     1      15.460  17.838  34.830  1.00  0.00    -0.000 C 
BRANCH  23  24
ATOM     24  C   UNL     1      15.902  17.069  36.088  1.00  0.00    -0.000 C 
BRANCH  24  25
ATOM     25  C   UNL     1      17.030  16.042  35.865  1.00  0.00    -0.000 C 
BRANCH  25  26
ATOM     26  C   UNL     1      16.753  14.634  36.428  1.00  0.00    -0.000 C 
BRANCH  26  27
ATOM     27  C   UNL     1      16.261  13.606  35.390  1.00  0.00    -0.000 C 
BRANCH  27  28
ATOM     28  C   UNL     1      16.203  14.119  33.938  1.00  0.00    -0.000 C 
BRANCH  28  29
ATOM     29  C   UNL     1      14.784  14.324  33.380  1.00  0.00    -0.003 C 
ATOM     30  C   UNL     1      14.410  13.296  32.314  1.00  0.00     0.004 C 
ENDBRANCH  28  29
ENDBRANCH  27  28
ENDBRANCH  26  27
ENDBRANCH  25  26
ENDBRANCH  24  25
ENDBRANCH  23  24
ENDBRANCH  22  23
ENDBRANCH  21  22
ENDBRANCH  20  21
ENDBRANCH  19  20
ENDBRANCH  18  19
ENDBRANCH  17  18
ENDBRANCH   1  17
TORSDOF 26
ENDMDL
MODEL 9
REMARK VINA RESULT:    -3.464      4.324     12.047
REMARK INTER + INTRA:         -10.969
REMARK INTER:                  -9.576
REMARK INTRA:                  -1.394
REMARK UNBOUND:                -2.240
REMARK SMILES CCCCCCCCCCCCCCCCCCCCCCCCCCCC(=O)[O-]
REMARK SMILES IDX 15 1 16 2 17 3 18 4 19 5 20 6 21 7 22 8 23 9 24 10 25 11
REMARK SMILES IDX 26 12 27 13 28 14 29 15 30 16 14 17 13 18 12 19 11 20 10 21
REMARK SMILES IDX 9 22 8 23 7 24 6 25 5 26 4 27 3 28 2 29 1 30
REMARK H PARENT
REMARK Flexibility Score: inf
ROOT
ATOM      1  C   UNL     1      13.446  25.905  35.764  1.00  0.00     0.000 C 
ENDROOT
BRANCH   1   2
ATOM      2  C   UNL     1      13.255  25.883  34.241  1.00  0.00     0.000 C 
BRANCH   2   3
ATOM      3  C   UNL     1      11.844  26.350  33.862  1.00  0.00     0.000 C 
BRANCH   3   4
ATOM      4  C   UNL     1      11.666  27.850  34.132  1.00  0.00     0.000 C 
BRANCH   4   5
ATOM      5  C   UNL     1      11.472  28.172  35.624  1.00  0.00     0.000 C 
BRANCH   5   6
ATOM      6  C   UNL     1      12.048  29.541  36.045  1.00  0.00     0.000 C 
BRANCH   6   7
ATOM      7  C   UNL     1      13.469  29.420  36.625  1.00  0.00     0.000 C 
BRANCH   7   8
ATOM      8  C   UNL     1      14.541  29.225  35.535  1.00  0.00     0.000 C 
BRANCH   8   9
ATOM      9  C   UNL     1      15.658  30.285  35.548  1.00  0.00     0.000 C 
BRANCH   9  10
ATOM     10  C   UNL     1      15.258  31.571  34.801  1.00  0.00     0.000 C 
BRANCH  10  11
ATOM     11  C   UNL     1      16.341  32.046  33.819  1.00  0.00     0.000 C 
BRANCH  11  12
ATOM     12  C   UNL     1      16.877  30.911  32.928  1.00  0.00     0.006 C 
BRANCH  12  13
ATOM     13  C   UNL     1      16.735  31.229  31.433  1.00  0.00     0.053 C 
BRANCH  13  14
ATOM     14  C   UNL     1      16.709  29.985  30.599  1.00  0.00     0.041 C 
ATOM     15  O   UNL     1      17.041  28.878  31.100  1.00  0.00    -0.550 OA
ATOM     16  O   UNL     1      16.355  30.055  29.257  1.00  0.00    -0.550 OA
ENDBRANCH  13  14
ENDBRANCH  12  13
ENDBRANCH  11  12
ENDBRANCH  10  11
ENDBRANCH   9  10
ENDBRANCH   8   9
ENDBRANCH   7   8
ENDBRANCH   6   7
ENDBRANCH   5   6
ENDBRANCH   4   5
ENDBRANCH   3   4
ENDBRANCH   2   3
ENDBRANCH   1   2
BRANCH   1  17
ATOM     17  C   UNL     1      13.988  24.576  36.319  1.00  0.00     0.000 C 
BRANCH  17  18
ATOM     18  C   UNL     1      15.250  24.070  35.589  1.00  0.00     0.000 C 
BRANCH  18  19
ATOM     19  C   UNL     1      15.657  22.660  36.044  1.00  0.00     0.000 C 
BRANCH  19  20
ATOM     20  C   UNL     1      15.618  21.672  34.872  1.00  0.00     0.000 C 
BRANCH  20  21
ATOM     21  C   UNL     1      16.230  20.321  35.272  1.00  0.00     0.000 C 
BRANCH  21  22
ATOM     22  C   UNL     1      16.320  19.336  34.095  1.00  0.00    -0.000 C 
BRANCH  22  23
ATOM     23  C   UNL     1      16.388  17.868  34.553  1.00  0.00    -0.000 C 
BRANCH  23  24
ATOM     24  C   UNL     1      15.994  17.685  36.030  1.00  0.00    -0.000 C 
BRANCH  24  25
ATOM     25  C   UNL     1      15.564  16.256  36.421  1.00  0.00    -0.000 C 
BRANCH  25  26
ATOM     26  C   UNL     1      15.925  15.163  35.397  1.00  0.00    -0.000 C 
BRANCH  26  27
ATOM     27  C   UNL     1      14.717  14.469  34.737  1.00  0.00    -0.000 C 
BRANCH  27  28
ATOM     28  C   UNL     1      14.935  14.025  33.277  1.00  0.00    -0.000 C 
BRANCH  28  29
ATOM     29  C   UNL     1      16.310  14.388  32.689  1.00  0.00    -0.003 C 
ATOM     30  C   UNL     1      16.585  13.708  31.350  1.00  0.00     0.004 C 
ENDBRANCH  28  29
ENDBRANCH  27  28
ENDBRANCH  26  27
ENDBRANCH  25  26
ENDBRANCH  24  25
ENDBRANCH  23  24
ENDBRANCH  22  23
ENDBRANCH  21  22
ENDBRANCH  20  21
ENDBRANCH  19  20
ENDBRANCH  18  19
ENDBRANCH  17  18
ENDBRANCH   1  17
TORSDOF 26
ENDMDL
