MODEL 1
REMARK VINA RESULT:    -0.045      0.000      0.000
REMARK INTER + INTRA:           0.462
REMARK INTER:                  -0.069
REMARK INTRA:                   0.531
REMARK UNBOUND:                 0.531
REMARK SMILES O=C([O-])CCCCCCCCC(=O)[O-]
REMARK SMILES IDX 7 1 6 2 5 3 4 4 2 5 1 6 3 7 8 8 9 9 10 10 11 11 12 12 13 13
REMARK SMILES IDX 14 14
REMARK H PARENT
REMARK Flexibility Score: inf
ROOT
ATOM      1  C   UNL     1      11.088  16.530   0.716  1.00  0.00     0.000 C 
ENDROOT
BRANCH   1   2
ATOM      2  C   UNL     1      10.382  17.466   1.719  1.00  0.00     0.000 C 
BRANCH   2   3
ATOM      3  C   UNL     1       8.943  17.036   2.054  1.00  0.00     0.006 C 
BRANCH   3   4
ATOM      4  C   UNL     1       8.657  15.577   1.687  1.00  0.00     0.053 C 
BRANCH   4   5
ATOM      5  C   UNL     1       7.225  15.240   1.961  1.00  0.00     0.041 C 
ATOM      6  O   UNL     1       6.869  14.039   2.088  1.00  0.00    -0.550 OA
ATOM      7  O   UNL     1       6.291  16.255   2.125  1.00  0.00    -0.550 OA
ENDBRANCH   4   5
ENDBRANCH   3   4
ENDBRANCH   2   3
ENDBRANCH   1   2
BRANCH   1   8
ATOM      8  C   UNL     1      12.378  15.925   1.296  1.00  0.00     0.000 C 
BRANCH   8   9
ATOM      9  C   UNL     1      12.121  14.652   2.118  1.00  0.00     0.000 C 
BRANCH   9  10
ATOM     10  C   UNL     1      10.887  13.875   1.633  1.00  0.00     0.006 C 
BRANCH  10  11
ATOM     11  C   UNL     1      11.215  13.056   0.381  1.00  0.00     0.053 C 
BRANCH  11  12
ATOM     12  C   UNL     1      10.727  13.759  -0.846  1.00  0.00     0.041 C 
ATOM     13  O   UNL     1      11.536  14.085  -1.755  1.00  0.00    -0.550 OA
ATOM     14  O   UNL     1       9.371  14.011  -1.010  1.00  0.00    -0.550 OA
ENDBRANCH  11  12
ENDBRANCH  10  11
ENDBRANCH   9  10
ENDBRANCH   8   9
ENDBRANCH   1   8
TORSDOF 9
ENDMDL
MODEL 2
REMARK VINA RESULT:    -0.033      1.147      4.726
REMARK INTER + INTRA:           0.480
REMARK INTER:                   0.839
REMARK INTRA:                  -0.359
REMARK UNBOUND:                 0.531
REMARK SMILES O=C([O-])CCCCCCCCC(=O)[O-]
REMARK SMILES IDX 7 1 6 2 5 3 4 4 2 5 1 6 3 7 8 8 9 9 10 10 11 11 12 12 13 13
REMARK SMILES IDX 14 14
REMARK H PARENT
REMARK Flexibility Score: inf
ROOT
ATOM      1  C   UNL     1      11.133  17.220   1.790  1.00  0.00     0.000 C 
ENDROOT
BRANCH   1   2
ATOM      2  C   UNL     1      12.278  16.347   1.233  1.00  0.00     0.000 C 
BRANCH   2   3
ATOM      3  C   UNL     1      12.253  14.897   1.748  1.00  0.00     0.006 C 
BRANCH   3   4
ATOM      4  C   UNL     1      11.163  14.048   1.085  1.00  0.00     0.053 C 
BRANCH   4   5
ATOM      5  C   UNL     1      11.578  13.648  -0.295  1.00  0.00     0.041 C 
ATOM      6  O   UNL     1      10.924  14.046  -1.295  1.00  0.00    -0.550 OA
ATOM      7  O   UNL     1      12.718  12.876  -0.482  1.00  0.00    -0.550 OA
ENDBRANCH   4   5
ENDBRANCH   3   4
ENDBRANCH   2   3
ENDBRANCH   1   2
BRANCH   1   8
ATOM      8  C   UNL     1       9.813  16.996   1.033  1.00  0.00     0.000 C 
BRANCH   8   9
ATOM      9  C   UNL     1       8.594  16.942   1.968  1.00  0.00     0.000 C 
BRANCH   9  10
ATOM     10  C   UNL     1       8.032  15.521   2.125  1.00  0.00     0.006 C 
BRANCH  10  11
ATOM     11  C   UNL     1       6.500  15.533   2.091  1.00  0.00     0.053 C 
BRANCH  11  12
ATOM     12  C   UNL     1       5.974  14.174   1.753  1.00  0.00     0.041 C 
ATOM     13  O   UNL     1       4.908  14.052   1.094  1.00  0.00    -0.550 OA
ATOM     14  O   UNL     1       6.686  13.040   2.125  1.00  0.00    -0.550 OA
ENDBRANCH  11  12
ENDBRANCH  10  11
ENDBRANCH   9  10
ENDBRANCH   8   9
ENDBRANCH   1   8
TORSDOF 9
ENDMDL
MODEL 3
REMARK VINA RESULT:    -0.011      0.663      4.464
REMARK INTER + INTRA:           0.515
REMARK INTER:                  -0.407
REMARK INTRA:                   0.922
REMARK UNBOUND:                 0.531
REMARK SMILES O=C([O-])CCCCCCCCC(=O)[O-]
REMARK SMILES IDX 7 1 6 2 5 3 4 4 2 5 1 6 3 7 8 8 9 9 10 10 11 11 12 12 13 13
REMARK SMILES IDX 14 14
REMARK H PARENT
REMARK Flexibility Score: inf
ROOT
ATOM      1  C   UNL     1      11.315  14.870   1.896  1.00  0.00     0.000 C 
ENDROOT
BRANCH   1   2
ATOM      2  C   UNL     1      12.431  13.852   1.579  1.00  0.00     0.000 C 
BRANCH   2   3
ATOM      3  C   UNL     1      12.177  13.040   0.297  1.00  0.00     0.006 C 
BRANCH   3   4
ATOM      4  C   UNL     1      10.704  13.039  -0.126  1.00  0.00     0.053 C 
BRANCH   4   5
ATOM      5  C   UNL     1      10.506  13.900  -1.333  1.00  0.00     0.041 C 
ATOM      6  O   UNL     1      11.500  14.318  -1.984  1.00  0.00    -0.550 OA
ATOM      7  O   UNL     1       9.223  14.200  -1.771  1.00  0.00    -0.550 OA
ENDBRANCH   4   5
ENDBRANCH   3   4
ENDBRANCH   2   3
ENDBRANCH   1   2
BRANCH   1   8
ATOM      8  C   UNL     1      11.233  15.987   0.842  1.00  0.00     0.000 C 
BRANCH   8   9
ATOM      9  C   UNL     1      10.337  17.155   1.283  1.00  0.00     0.000 C 
BRANCH   9  10
ATOM     10  C   UNL     1       9.137  16.695   2.125  1.00  0.00     0.006 C 
BRANCH  10  11
ATOM     11  C   UNL     1       8.524  15.416   1.548  1.00  0.00     0.053 C 
BRANCH  11  12
ATOM     12  C   UNL     1       7.078  15.316   1.919  1.00  0.00     0.041 C 
ATOM     13  O   UNL     1       6.402  16.357   2.125  1.00  0.00    -0.550 OA
ATOM     14  O   UNL     1       6.463  14.071   1.990  1.00  0.00    -0.550 OA
ENDBRANCH  11  12
ENDBRANCH  10  11
ENDBRANCH   9  10
ENDBRANCH   8   9
ENDBRANCH   1   8
TORSDOF 9
ENDMDL
MODEL 4
REMARK VINA RESULT:     0.169      2.311      3.427
REMARK INTER + INTRA:           0.788
REMARK INTER:                   0.970
REMARK INTRA:                  -0.182
REMARK UNBOUND:                 0.531
REMARK SMILES O=C([O-])CCCCCCCCC(=O)[O-]
REMARK SMILES IDX 7 1 6 2 5 3 4 4 2 5 1 6 3 7 8 8 9 9 10 10 11 11 12 12 13 13
REMARK SMILES IDX 14 14
REMARK H PARENT
REMARK Flexibility Score: inf
ROOT
ATOM      1  C   UNL     1      10.732  13.999  -1.295  1.00  0.00     0.000 C 
ENDROOT
BRANCH   1   2
ATOM      2  C   UNL     1       9.231  14.358  -1.288  1.00  0.00     0.000 C 
BRANCH   2   3
ATOM      3  C   UNL     1       8.709  14.792   0.093  1.00  0.00     0.006 C 
BRANCH   3   4
ATOM      4  C   UNL     1       9.439  16.020   0.647  1.00  0.00     0.053 C 
BRANCH   4   5
ATOM      5  C   UNL     1       8.595  16.713   1.669  1.00  0.00     0.041 C 
ATOM      6  O   UNL     1       8.939  17.837   2.120  1.00  0.00    -0.550 OA
ATOM      7  O   UNL     1       7.401  16.140   2.089  1.00  0.00    -0.550 OA
ENDBRANCH   4   5
ENDBRANCH   3   4
ENDBRANCH   2   3
ENDBRANCH   1   2
BRANCH   1   8
ATOM      8  C   UNL     1      11.142  13.196  -0.049  1.00  0.00     0.000 C 
BRANCH   8   9
ATOM      9  C   UNL     1      12.656  13.240   0.215  1.00  0.00     0.000 C 
BRANCH   9  10
ATOM     10  C   UNL     1      12.994  13.682   1.647  1.00  0.00     0.006 C 
BRANCH  10  11
ATOM     11  C   UNL     1      12.051  14.795   2.112  1.00  0.00     0.053 C 
BRANCH  11  12
ATOM     12  C   UNL     1      12.757  16.115   2.108  1.00  0.00     0.041 C 
ATOM     13  O   UNL     1      14.015  16.161   2.125  1.00  0.00    -0.550 OA
ATOM     14  O   UNL     1      12.026  17.294   2.038  1.00  0.00    -0.550 OA
ENDBRANCH  11  12
ENDBRANCH  10  11
ENDBRANCH   9  10
ENDBRANCH   8   9
ENDBRANCH   1   8
TORSDOF 9
ENDMDL
MODEL 5
REMARK VINA RESULT:     0.788      2.352      3.335
REMARK INTER + INTRA:           1.734
REMARK INTER:                   0.615
REMARK INTRA:                   1.119
REMARK UNBOUND:                 0.531
REMARK SMILES O=C([O-])CCCCCCCCC(=O)[O-]
REMARK SMILES IDX 7 1 6 2 5 3 4 4 2 5 1 6 3 7 8 8 9 9 10 10 11 11 12 12 13 13
REMARK SMILES IDX 14 14
REMARK H PARENT
REMARK Flexibility Score: inf
ROOT
ATOM      1  C   UNL     1       9.648  15.232  -1.463  1.00  0.00     0.000 C 
ENDROOT
BRANCH   1   2
ATOM      2  C   UNL     1       8.821  15.037  -0.174  1.00  0.00     0.000 C 
BRANCH   2   3
ATOM      3  C   UNL     1       9.579  15.424   1.107  1.00  0.00     0.006 C 
BRANCH   3   4
ATOM      4  C   UNL     1       9.834  16.931   1.218  1.00  0.00     0.053 C 
BRANCH   4   5
ATOM      5  C   UNL     1       8.548  17.687   1.107  1.00  0.00     0.041 C 
ATOM      6  O   UNL     1       8.306  18.381   0.085  1.00  0.00    -0.550 OA
ATOM      7  O   UNL     1       7.593  17.587   2.111  1.00  0.00    -0.550 OA
ENDBRANCH   4   5
ENDBRANCH   3   4
ENDBRANCH   2   3
ENDBRANCH   1   2
BRANCH   1   8
ATOM      8  C   UNL     1      10.765  14.183  -1.598  1.00  0.00     0.000 C 
BRANCH   8   9
ATOM      9  C   UNL     1      11.627  14.065  -0.331  1.00  0.00     0.000 C 
BRANCH   9  10
ATOM     10  C   UNL     1      11.220  12.876   0.552  1.00  0.00     0.006 C 
BRANCH  10  11
ATOM     11  C   UNL     1      11.650  13.102   2.005  1.00  0.00     0.053 C 
BRANCH  11  12
ATOM     12  C   UNL     1      13.001  13.742   2.057  1.00  0.00     0.041 C 
ATOM     13  O   UNL     1      13.108  14.996   2.097  1.00  0.00    -0.550 OA
ATOM     14  O   UNL     1      14.143  12.953   2.110  1.00  0.00    -0.550 OA
ENDBRANCH  11  12
ENDBRANCH  10  11
ENDBRANCH   9  10
ENDBRANCH   8   9
ENDBRANCH   1   8
TORSDOF 9
ENDMDL
MODEL 6
REMARK VINA RESULT:     1.037      1.672      4.426
REMARK INTER + INTRA:           2.114
REMARK INTER:                   2.577
REMARK INTRA:                  -0.463
REMARK UNBOUND:                 0.531
REMARK SMILES O=C([O-])CCCCCCCCC(=O)[O-]
REMARK SMILES IDX 7 1 6 2 5 3 4 4 2 5 1 6 3 7 8 8 9 9 10 10 11 11 12 12 13 13
REMARK SMILES IDX 14 14
REMARK H PARENT
REMARK Flexibility Score: inf
ROOT
ATOM      1  C   UNL     1      12.131  14.905   2.125  1.00  0.00     0.000 C 
ENDROOT
BRANCH   1   2
ATOM      2  C   UNL     1      12.693  13.545   1.659  1.00  0.00     0.000 C 
BRANCH   2   3
ATOM      3  C   UNL     1      12.432  13.248   0.172  1.00  0.00     0.006 C 
BRANCH   3   4
ATOM      4  C   UNL     1      10.949  13.025  -0.140  1.00  0.00     0.053 C 
BRANCH   4   5
ATOM      5  C   UNL     1      10.423  14.134  -0.996  1.00  0.00     0.041 C 
ATOM      6  O   UNL     1       9.184  14.251  -1.191  1.00  0.00    -0.550 OA
ATOM      7  O   UNL     1      11.296  15.067  -1.540  1.00  0.00    -0.550 OA
ENDBRANCH   4   5
ENDBRANCH   3   4
ENDBRANCH   2   3
ENDBRANCH   1   2
BRANCH   1   8
ATOM      8  C   UNL     1      12.687  16.076   1.297  1.00  0.00     0.000 C 
BRANCH   8   9
ATOM      9  C   UNL     1      12.214  17.445   1.811  1.00  0.00     0.000 C 
BRANCH   9  10
ATOM     10  C   UNL     1      10.711  17.472   2.125  1.00  0.00     0.006 C 
BRANCH  10  11
ATOM     11  C   UNL     1       9.887  17.139   0.878  1.00  0.00     0.053 C 
BRANCH  11  12
ATOM     12  C   UNL     1       8.504  17.699   0.999  1.00  0.00     0.041 C 
ATOM     13  O   UNL     1       7.846  17.537   2.060  1.00  0.00    -0.550 OA
ATOM     14  O   UNL     1       7.960  18.441  -0.042  1.00  0.00    -0.550 OA
ENDBRANCH  11  12
ENDBRANCH  10  11
ENDBRANCH   9  10
ENDBRANCH   8   9
ENDBRANCH   1   8
TORSDOF 9
ENDMDL
MODEL 7
REMARK VINA RESULT:     1.184      2.253      3.431
REMARK INTER + INTRA:           2.339
REMARK INTER:                   1.044
REMARK INTRA:                   1.294
REMARK UNBOUND:                 0.531
REMARK SMILES O=C([O-])CCCCCCCCC(=O)[O-]
REMARK SMILES IDX 7 1 6 2 5 3 4 4 2 5 1 6 3 7 8 8 9 9 10 10 11 11 12 12 13 13
REMARK SMILES IDX 14 14
REMARK H PARENT
REMARK Flexibility Score: inf
ROOT
ATOM      1  C   UNL     1      11.473  13.635  -1.057  1.00  0.00     0.000 C 
ENDROOT
BRANCH   1   2
ATOM      2  C   UNL     1       9.937  13.558  -0.926  1.00  0.00     0.000 C 
BRANCH   2   3
ATOM      3  C   UNL     1       9.280  14.907  -0.583  1.00  0.00     0.006 C 
BRANCH   3   4
ATOM      4  C   UNL     1       7.867  14.753  -0.010  1.00  0.00     0.053 C 
BRANCH   4   5
ATOM      5  C   UNL     1       7.928  14.421   1.447  1.00  0.00     0.041 C 
ATOM      6  O   UNL     1       9.000  14.576   2.089  1.00  0.00    -0.550 OA
ATOM      7  O   UNL     1       6.787  13.987   2.110  1.00  0.00    -0.550 OA
ENDBRANCH   4   5
ENDBRANCH   3   4
ENDBRANCH   2   3
ENDBRANCH   1   2
BRANCH   1   8
ATOM      8  C   UNL     1      12.189  12.876   0.073  1.00  0.00     0.000 C 
BRANCH   8   9
ATOM      9  C   UNL     1      12.554  13.782   1.260  1.00  0.00     0.000 C 
BRANCH   9  10
ATOM     10  C   UNL     1      11.488  14.852   1.537  1.00  0.00     0.006 C 
BRANCH  10  11
ATOM     11  C   UNL     1      12.123  16.118   2.120  1.00  0.00     0.053 C 
BRANCH  11  12
ATOM     12  C   UNL     1      11.325  17.326   1.744  1.00  0.00     0.041 C 
ATOM     13  O   UNL     1      10.211  17.197   1.173  1.00  0.00    -0.550 OA
ATOM     14  O   UNL     1      11.789  18.595   2.068  1.00  0.00    -0.550 OA
ENDBRANCH  11  12
ENDBRANCH  10  11
ENDBRANCH   9  10
ENDBRANCH   8   9
ENDBRANCH   1   8
TORSDOF 9
ENDMDL
