MODEL 1
REMARK VINA RESULT:    -5.011      0.000      0.000
REMARK INTER + INTRA:          -6.738
REMARK INTER:                  -7.062
REMARK INTRA:                   0.323
REMARK UNBOUND:                 0.323
REMARK SMILES CC1=CCC(=C(C)C)C(=O)CC(C)=CCC1
REMARK SMILES IDX 12 1 14 2 13 3 15 4 16 5 2 6 1 7 3 8 11 10 9 11 10 12 5 13
REMARK SMILES IDX 6 14 7 15 8 16 4 17
REMARK H PARENT
REMARK Flexibility Score: 60.00
ROOT
ATOM      1  C   UNL     1      -3.583 -13.172  31.271  1.00  0.00    -0.070 C 
ATOM      2  C   UNL     1      -2.361 -13.624  31.627  1.00  0.00    -0.027 C 
ATOM      3  C   UNL     1      -4.759 -14.101  31.452  1.00  0.00     0.039 C 
ENDROOT
BRANCH   2   4
ATOM      4  C   UNL     1      -1.082 -12.815  31.611  1.00  0.00     0.032 C 
BRANCH   4   5
ATOM      5  C   UNL     1      -0.741 -12.169  30.252  1.00  0.00     0.034 C 
BRANCH   5   6
ATOM      6  C   UNL     1      -0.656 -13.175  29.116  1.00  0.00    -0.077 C 
ATOM      7  C   UNL     1       0.371 -14.273  29.229  1.00  0.00     0.039 C 
ATOM      8  C   UNL     1      -1.486 -13.190  28.045  1.00  0.00    -0.023 CG0
ATOM      9  G   UNL     1      -2.571 -12.184  27.715  1.00  0.00     0.000 G0
ENDBRANCH   5   6
ENDBRANCH   4   5
ENDBRANCH   2   4
BRANCH   1  10
ATOM     10  C   UNL     1      -3.840 -11.759  30.787  1.00  0.00     0.111 C 
BRANCH  10  11
ATOM     11  C   UNL     1      -4.451 -11.745  29.411  1.00  0.00     0.163 C 
ATOM     12  O   UNL     1      -5.410 -10.955  29.195  1.00  0.00    -0.294 OA
BRANCH  11  13
ATOM     13  C   UNL     1      -3.924 -12.580  28.292  1.00  0.00    -0.002 C 
ATOM     14  C   UNL     1      -4.671 -13.600  27.768  1.00  0.00    -0.069 C 
ATOM     15  C   UNL     1      -5.979 -14.018  28.401  1.00  0.00     0.039 C 
ATOM     16  C   UNL     1      -4.234 -14.359  26.535  1.00  0.00     0.039 C 
BRANCH  13  17
ATOM     17  C   UNL     1      -2.578 -12.187  27.704  1.00  0.00     0.066 CG0
ATOM     18  G   UNL     1      -1.488 -13.185  28.043  1.00  0.00     0.000 G0
ENDBRANCH  13  17
ENDBRANCH  11  13
ENDBRANCH  10  11
ENDBRANCH   1  10
TORSDOF 0
ENDMDL
MODEL 2
REMARK VINA RESULT:    -4.934      1.869      3.969
REMARK INTER + INTRA:          -6.629
REMARK INTER:                  -6.822
REMARK INTRA:                   0.192
REMARK UNBOUND:                 0.323
REMARK SMILES CC1=CCC(=C(C)C)C(=O)CC(C)=CCC1
REMARK SMILES IDX 12 1 14 2 13 3 15 4 16 5 2 6 1 7 3 8 11 10 9 11 10 12 5 13
REMARK SMILES IDX 6 14 7 15 8 16 4 17
REMARK H PARENT
REMARK Flexibility Score: 60.00
ROOT
ATOM      1  C   UNL     1      -4.109 -10.335  31.541  1.00  0.00    -0.070 C 
ATOM      2  C   UNL     1      -4.779  -9.956  30.431  1.00  0.00    -0.027 C 
ATOM      3  C   UNL     1      -4.850 -10.311  32.855  1.00  0.00     0.039 C 
ENDROOT
BRANCH   2   4
ATOM      4  C   UNL     1      -4.242 -10.002  29.017  1.00  0.00     0.032 C 
BRANCH   4   5
ATOM      5  C   UNL     1      -4.529 -11.314  28.257  1.00  0.00     0.034 C 
BRANCH   5   6
ATOM      6  C   UNL     1      -3.339 -11.813  27.455  1.00  0.00    -0.077 C 
ATOM      7  C   UNL     1      -3.035 -11.121  26.151  1.00  0.00     0.039 C 
ATOM      8  C   UNL     1      -2.495 -12.789  27.867  1.00  0.00    -0.023 CG0
ATOM      9  G   UNL     1      -2.612 -13.630  29.124  1.00  0.00     0.000 G0
ENDBRANCH   5   6
ENDBRANCH   4   5
ENDBRANCH   2   4
BRANCH   1  10
ATOM     10  C   UNL     1      -2.689 -10.863  31.516  1.00  0.00     0.111 C 
BRANCH  10  11
ATOM     11  C   UNL     1      -2.656 -12.360  31.360  1.00  0.00     0.163 C 
ATOM     12  O   UNL     1      -3.379 -13.054  32.125  1.00  0.00    -0.294 OA
BRANCH  11  13
ATOM     13  C   UNL     1      -1.850 -13.037  30.301  1.00  0.00    -0.002 C 
ATOM     14  C   UNL     1      -0.497 -13.183  30.438  1.00  0.00    -0.069 C 
ATOM     15  C   UNL     1       0.251 -12.532  31.580  1.00  0.00     0.039 C 
ATOM     16  C   UNL     1       0.323 -14.000  29.463  1.00  0.00     0.039 C 
BRANCH  13  17
ATOM     17  C   UNL     1      -2.607 -13.634  29.126  1.00  0.00     0.066 CG0
ATOM     18  G   UNL     1      -2.481 -12.792  27.871  1.00  0.00     0.000 G0
ENDBRANCH  13  17
ENDBRANCH  11  13
ENDBRANCH  10  11
ENDBRANCH   1  10
TORSDOF 0
ENDMDL
MODEL 3
REMARK VINA RESULT:    -4.857      1.626      3.744
REMARK INTER + INTRA:          -6.522
REMARK INTER:                  -7.270
REMARK INTRA:                   0.749
REMARK UNBOUND:                 0.323
REMARK SMILES CC1=CCC(=C(C)C)C(=O)CC(C)=CCC1
REMARK SMILES IDX 12 1 14 2 13 3 15 4 16 5 2 6 1 7 3 8 11 10 9 11 10 12 5 13
REMARK SMILES IDX 6 14 7 15 8 16 4 17
REMARK H PARENT
REMARK Flexibility Score: 60.00
ROOT
ATOM      1  C   UNL     1      -0.374 -13.031  30.994  1.00  0.00    -0.070 C 
ATOM      2  C   UNL     1      -0.251 -13.128  29.652  1.00  0.00    -0.027 C 
ATOM      3  C   UNL     1       0.698 -12.283  31.748  1.00  0.00     0.039 C 
ENDROOT
BRANCH   2   4
ATOM      4  C   UNL     1      -1.264 -13.751  28.716  1.00  0.00     0.032 C 
BRANCH   4   5
ATOM      5  C   UNL     1      -2.271 -12.758  28.098  1.00  0.00     0.034 C 
BRANCH   5   6
ATOM      6  C   UNL     1      -3.616 -13.389  27.784  1.00  0.00    -0.077 C 
ATOM      7  C   UNL     1      -3.737 -14.182  26.507  1.00  0.00     0.039 C 
ATOM      8  C   UNL     1      -4.691 -13.345  28.607  1.00  0.00    -0.023 CG0
ATOM      9  G   UNL     1      -4.807 -12.599  29.922  1.00  0.00     0.000 G0
ENDBRANCH   5   6
ENDBRANCH   4   5
ENDBRANCH   2   4
BRANCH   1  10
ATOM     10  C   UNL     1      -1.571 -13.555  31.760  1.00  0.00     0.111 C 
BRANCH  10  11
ATOM     11  C   UNL     1      -2.798 -12.717  31.516  1.00  0.00     0.163 C 
ATOM     12  O   UNL     1      -2.701 -11.468  31.653  1.00  0.00    -0.294 OA
BRANCH  11  13
ATOM     13  C   UNL     1      -4.093 -13.306  31.062  1.00  0.00    -0.002 C 
ATOM     14  C   UNL     1      -4.638 -14.379  31.711  1.00  0.00    -0.069 C 
ATOM     15  C   UNL     1      -3.882 -15.103  32.803  1.00  0.00     0.039 C 
ATOM     16  C   UNL     1      -6.020 -14.898  31.378  1.00  0.00     0.039 C 
BRANCH  13  17
ATOM     17  C   UNL     1      -4.814 -12.606  29.922  1.00  0.00     0.066 CG0
ATOM     18  G   UNL     1      -4.681 -13.354  28.610  1.00  0.00     0.000 G0
ENDBRANCH  13  17
ENDBRANCH  11  13
ENDBRANCH  10  11
ENDBRANCH   1  10
TORSDOF 0
ENDMDL
MODEL 4
REMARK VINA RESULT:    -4.399      2.063      3.521
REMARK INTER + INTRA:          -5.876
REMARK INTER:                  -6.326
REMARK INTRA:                   0.451
REMARK UNBOUND:                 0.323
REMARK SMILES CC1=CCC(=C(C)C)C(=O)CC(C)=CCC1
REMARK SMILES IDX 12 1 14 2 13 3 15 4 16 5 2 6 1 7 3 8 11 10 9 11 10 12 5 13
REMARK SMILES IDX 6 14 7 15 8 16 4 17
REMARK H PARENT
REMARK Flexibility Score: 60.00
ROOT
ATOM      1  C   UNL     1      -3.382 -11.119  28.283  1.00  0.00    -0.070 C 
ATOM      2  C   UNL     1      -2.526 -10.395  29.038  1.00  0.00    -0.027 C 
ATOM      3  C   UNL     1      -3.014 -11.365  26.841  1.00  0.00     0.039 C 
ENDROOT
BRANCH   2   4
ATOM      4  C   UNL     1      -2.670 -10.124  30.520  1.00  0.00     0.032 C 
BRANCH   4   5
ATOM      5  C   UNL     1      -1.545 -10.712  31.398  1.00  0.00     0.034 C 
BRANCH   5   6
ATOM      6  C   UNL     1      -1.253 -12.172  31.098  1.00  0.00    -0.077 C 
ATOM      7  C   UNL     1       0.139 -12.528  30.640  1.00  0.00     0.039 C 
ATOM      8  C   UNL     1      -2.138 -13.181  31.279  1.00  0.00    -0.023 CG0
ATOM      9  G   UNL     1      -3.587 -13.061  31.710  1.00  0.00     0.000 G0
ENDBRANCH   5   6
ENDBRANCH   4   5
ENDBRANCH   2   4
BRANCH   1  10
ATOM     10  C   UNL     1      -4.635 -11.767  28.835  1.00  0.00     0.111 C 
BRANCH  10  11
ATOM     11  C   UNL     1      -4.387 -13.190  29.258  1.00  0.00     0.163 C 
ATOM     12  O   UNL     1      -3.975 -14.005  28.389  1.00  0.00    -0.294 OA
BRANCH  11  13
ATOM     13  C   UNL     1      -4.551 -13.645  30.671  1.00  0.00    -0.002 C 
ATOM     14  C   UNL     1      -5.470 -14.606  30.993  1.00  0.00    -0.069 C 
ATOM     15  C   UNL     1      -6.454 -15.125  29.969  1.00  0.00     0.039 C 
ATOM     16  C   UNL     1      -5.551 -15.202  32.382  1.00  0.00     0.039 C 
BRANCH  13  17
ATOM     17  C   UNL     1      -3.595 -13.070  31.703  1.00  0.00     0.066 CG0
ATOM     18  G   UNL     1      -2.146 -13.176  31.269  1.00  0.00     0.000 G0
ENDBRANCH  13  17
ENDBRANCH  11  13
ENDBRANCH  10  11
ENDBRANCH   1  10
TORSDOF 0
ENDMDL
MODEL 5
REMARK VINA RESULT:    -4.224      1.668      3.154
REMARK INTER + INTRA:          -5.629
REMARK INTER:                  -6.434
REMARK INTRA:                   0.805
REMARK UNBOUND:                 0.323
REMARK SMILES CC1=CCC(=C(C)C)C(=O)CC(C)=CCC1
REMARK SMILES IDX 12 1 14 2 13 3 15 4 16 5 2 6 1 7 3 8 11 10 9 11 10 12 5 13
REMARK SMILES IDX 6 14 7 15 8 16 4 17
REMARK H PARENT
REMARK Flexibility Score: 60.00
ROOT
ATOM      1  C   UNL     1      -1.051 -13.287  29.197  1.00  0.00    -0.070 C 
ATOM      2  C   UNL     1      -0.803 -13.657  30.473  1.00  0.00    -0.027 C 
ATOM      3  C   UNL     1      -0.820 -14.308  28.110  1.00  0.00     0.039 C 
ENDROOT
BRANCH   2   4
ATOM      4  C   UNL     1      -1.062 -12.813  31.702  1.00  0.00     0.032 C 
BRANCH   4   5
ATOM      5  C   UNL     1      -2.508 -12.294  31.839  1.00  0.00     0.034 C 
BRANCH   5   6
ATOM      6  C   UNL     1      -3.554 -13.377  31.634  1.00  0.00    -0.077 C 
ATOM      7  C   UNL     1      -3.565 -14.532  32.602  1.00  0.00     0.039 C 
ATOM      8  C   UNL     1      -4.519 -13.337  30.683  1.00  0.00    -0.023 CG0
ATOM      9  G   UNL     1      -4.692 -12.292  29.598  1.00  0.00     0.000 G0
ENDBRANCH   5   6
ENDBRANCH   4   5
ENDBRANCH   2   4
BRANCH   1  10
ATOM     10  C   UNL     1      -1.629 -11.939  28.818  1.00  0.00     0.111 C 
BRANCH  10  11
ATOM     11  C   UNL     1      -2.790 -12.079  27.870  1.00  0.00     0.163 C 
ATOM     12  O   UNL     1      -2.637 -11.688  26.682  1.00  0.00    -0.294 OA
BRANCH  11  13
ATOM     13  C   UNL     1      -4.081 -12.714  28.272  1.00  0.00    -0.002 C 
ATOM     14  C   UNL     1      -4.642 -13.700  27.508  1.00  0.00    -0.069 C 
ATOM     15  C   UNL     1      -4.067 -14.071  26.159  1.00  0.00     0.039 C 
ATOM     16  C   UNL     1      -5.860 -14.472  27.967  1.00  0.00     0.039 C 
BRANCH  13  17
ATOM     17  C   UNL     1      -4.681 -12.288  29.602  1.00  0.00     0.066 CG0
ATOM     18  G   UNL     1      -4.516 -13.347  30.675  1.00  0.00     0.000 G0
ENDBRANCH  13  17
ENDBRANCH  11  13
ENDBRANCH  10  11
ENDBRANCH   1  10
TORSDOF 0
ENDMDL
MODEL 6
REMARK VINA RESULT:    -4.148      1.932      3.657
REMARK INTER + INTRA:          -5.522
REMARK INTER:                  -5.692
REMARK INTRA:                   0.170
REMARK UNBOUND:                 0.323
REMARK SMILES CC1=CCC(=C(C)C)C(=O)CC(C)=CCC1
REMARK SMILES IDX 12 1 14 2 13 3 15 4 16 5 2 6 1 7 3 8 11 10 9 11 10 12 5 13
REMARK SMILES IDX 6 14 7 15 8 16 4 17
REMARK H PARENT
REMARK Flexibility Score: 60.00
ROOT
ATOM      1  C   UNL     1      -0.547 -12.821  31.036  1.00  0.00    -0.070 C 
ATOM      2  C   UNL     1      -0.370 -13.668  29.998  1.00  0.00    -0.027 C 
ATOM      3  C   UNL     1       0.674 -12.387  31.809  1.00  0.00     0.039 C 
ENDROOT
BRANCH   2   4
ATOM      4  C   UNL     1      -1.450 -14.138  29.048  1.00  0.00     0.032 C 
BRANCH   4   5
ATOM      5  C   UNL     1      -1.681 -13.225  27.826  1.00  0.00     0.034 C 
BRANCH   5   6
ATOM      6  C   UNL     1      -3.151 -13.022  27.501  1.00  0.00    -0.077 C 
ATOM      7  C   UNL     1      -3.891 -14.170  26.861  1.00  0.00     0.039 C 
ATOM      8  C   UNL     1      -3.856 -11.907  27.811  1.00  0.00    -0.023 CG0
ATOM      9  G   UNL     1      -3.323 -10.632  28.435  1.00  0.00     0.000 G0
ENDBRANCH   5   6
ENDBRANCH   4   5
ENDBRANCH   2   4
BRANCH   1  10
ATOM     10  C   UNL     1      -1.889 -12.220  31.400  1.00  0.00     0.111 C 
BRANCH  10  11
ATOM     11  C   UNL     1      -2.133 -10.922  30.679  1.00  0.00     0.163 C 
ATOM     12  O   UNL     1      -1.200 -10.074  30.652  1.00  0.00    -0.294 OA
BRANCH  11  13
ATOM     13  C   UNL     1      -3.405 -10.636  29.950  1.00  0.00    -0.002 C 
ATOM     14  C   UNL     1      -4.547 -10.324  30.635  1.00  0.00    -0.069 C 
ATOM     15  C   UNL     1      -4.606 -10.410  32.144  1.00  0.00     0.039 C 
ATOM     16  C   UNL     1      -5.807  -9.875  29.926  1.00  0.00     0.039 C 
BRANCH  13  17
ATOM     17  C   UNL     1      -3.346 -10.613  28.432  1.00  0.00     0.066 CG0
ATOM     18  G   UNL     1      -3.859 -11.901  27.816  1.00  0.00     0.000 G0
ENDBRANCH  13  17
ENDBRANCH  11  13
ENDBRANCH  10  11
ENDBRANCH   1  10
TORSDOF 0
ENDMDL
MODEL 7
REMARK VINA RESULT:    -4.112      1.650      4.040
REMARK INTER + INTRA:          -5.471
REMARK INTER:                  -5.929
REMARK INTRA:                   0.458
REMARK UNBOUND:                 0.323
REMARK SMILES CC1=CCC(=C(C)C)C(=O)CC(C)=CCC1
REMARK SMILES IDX 12 1 14 2 13 3 15 4 16 5 2 6 1 7 3 8 11 10 9 11 10 12 5 13
REMARK SMILES IDX 6 14 7 15 8 16 4 17
REMARK H PARENT
REMARK Flexibility Score: 60.00
ROOT
ATOM      1  C   UNL     1      -5.068 -14.030  30.744  1.00  0.00    -0.070 C 
ATOM      2  C   UNL     1      -5.687 -14.185  29.553  1.00  0.00    -0.027 C 
ATOM      3  C   UNL     1      -5.309 -15.075  31.805  1.00  0.00     0.039 C 
ENDROOT
BRANCH   2   4
ATOM      4  C   UNL     1      -5.498 -13.302  28.339  1.00  0.00     0.032 C 
BRANCH   4   5
ATOM      5  C   UNL     1      -4.477 -13.827  27.308  1.00  0.00     0.034 C 
BRANCH   5   6
ATOM      6  C   UNL     1      -3.277 -12.911  27.135  1.00  0.00    -0.077 C 
ATOM      7  C   UNL     1      -3.377 -11.813  26.107  1.00  0.00     0.039 C 
ATOM      8  C   UNL     1      -2.154 -12.972  27.890  1.00  0.00    -0.023 CG0
ATOM      9  G   UNL     1      -1.826 -13.994  28.961  1.00  0.00     0.000 G0
ENDBRANCH   5   6
ENDBRANCH   4   5
ENDBRANCH   2   4
BRANCH   1  10
ATOM     10  C   UNL     1      -4.082 -12.916  31.031  1.00  0.00     0.111 C 
BRANCH  10  11
ATOM     11  C   UNL     1      -2.705 -13.453  31.318  1.00  0.00     0.163 C 
ATOM     12  O   UNL     1      -2.512 -14.037  32.418  1.00  0.00    -0.294 OA
BRANCH  11  13
ATOM     13  C   UNL     1      -1.590 -13.370  30.327  1.00  0.00    -0.002 C 
ATOM     14  C   UNL     1      -0.384 -12.829  30.676  1.00  0.00    -0.069 C 
ATOM     15  C   UNL     1      -0.184 -12.155  32.015  1.00  0.00     0.039 C 
ATOM     16  C   UNL     1       0.811 -12.875  29.749  1.00  0.00     0.039 C 
BRANCH  13  17
ATOM     17  C   UNL     1      -1.825 -13.997  28.963  1.00  0.00     0.066 CG0
ATOM     18  G   UNL     1      -2.160 -12.965  27.904  1.00  0.00     0.000 G0
ENDBRANCH  13  17
ENDBRANCH  11  13
ENDBRANCH  10  11
ENDBRANCH   1  10
TORSDOF 0
ENDMDL
MODEL 8
REMARK VINA RESULT:    -4.033      1.853      3.948
REMARK INTER + INTRA:          -5.360
REMARK INTER:                  -6.506
REMARK INTRA:                   1.146
REMARK UNBOUND:                 0.323
REMARK SMILES CC1=CCC(=C(C)C)C(=O)CC(C)=CCC1
REMARK SMILES IDX 12 1 14 2 13 3 15 4 16 5 2 6 1 7 3 8 11 10 9 11 10 12 5 13
REMARK SMILES IDX 6 14 7 15 8 16 4 17
REMARK H PARENT
REMARK Flexibility Score: 60.00
ROOT
ATOM      1  C   UNL     1      -4.833 -13.322  28.839  1.00  0.00    -0.070 C 
ATOM      2  C   UNL     1      -4.984 -13.999  29.999  1.00  0.00    -0.027 C 
ATOM      3  C   UNL     1      -5.092 -14.064  27.551  1.00  0.00     0.039 C 
ENDROOT
BRANCH   2   4
ATOM      4  C   UNL     1      -4.865 -13.408  31.387  1.00  0.00     0.032 C 
BRANCH   4   5
ATOM      5  C   UNL     1      -3.516 -12.722  31.686  1.00  0.00     0.034 C 
BRANCH   5   6
ATOM      6  C   UNL     1      -3.630 -11.213  31.825  1.00  0.00    -0.077 C 
ATOM      7  C   UNL     1      -4.718 -10.672  32.718  1.00  0.00     0.039 C 
ATOM      8  C   UNL     1      -2.778 -10.327  31.255  1.00  0.00    -0.023 CG0
ATOM      9  G   UNL     1      -1.632 -10.637  30.312  1.00  0.00     0.000 G0
ENDBRANCH   5   6
ENDBRANCH   4   5
ENDBRANCH   2   4
BRANCH   1  10
ATOM     10  C   UNL     1      -4.508 -11.844  28.775  1.00  0.00     0.111 C 
BRANCH  10  11
ATOM     11  C   UNL     1      -3.070 -11.606  28.402  1.00  0.00     0.163 C 
ATOM     12  O   UNL     1      -2.819 -11.185  27.240  1.00  0.00    -0.294 OA
BRANCH  11  13
ATOM     13  C   UNL     1      -1.949 -11.791  29.372  1.00  0.00    -0.002 C 
ATOM     14  C   UNL     1      -1.193 -12.931  29.357  1.00  0.00    -0.069 C 
ATOM     15  C   UNL     1      -1.558 -14.103  28.474  1.00  0.00     0.039 C 
ATOM     16  C   UNL     1       0.043 -13.082  30.216  1.00  0.00     0.039 C 
BRANCH  13  17
ATOM     17  C   UNL     1      -1.632 -10.629  30.298  1.00  0.00     0.066 CG0
ATOM     18  G   UNL     1      -2.765 -10.334  31.262  1.00  0.00     0.000 G0
ENDBRANCH  13  17
ENDBRANCH  11  13
ENDBRANCH  10  11
ENDBRANCH   1  10
TORSDOF 0
ENDMDL
MODEL 9
REMARK VINA RESULT:    -3.915      2.240      4.679
REMARK INTER + INTRA:          -5.194
REMARK INTER:                  -6.694
REMARK INTRA:                   1.500
REMARK UNBOUND:                 0.323
REMARK SMILES CC1=CCC(=C(C)C)C(=O)CC(C)=CCC1
REMARK SMILES IDX 12 1 14 2 13 3 15 4 16 5 2 6 1 7 3 8 11 10 9 11 10 12 5 13
REMARK SMILES IDX 6 14 7 15 8 16 4 17
REMARK H PARENT
REMARK Flexibility Score: 60.00
ROOT
ATOM      1  C   UNL     1      -1.360 -13.177  28.630  1.00  0.00    -0.070 C 
ATOM      2  C   UNL     1      -2.372 -12.954  27.762  1.00  0.00    -0.027 C 
ATOM      3  C   UNL     1      -0.440 -14.341  28.358  1.00  0.00     0.039 C 
ENDROOT
BRANCH   2   4
ATOM      4  C   UNL     1      -3.335 -11.789  27.810  1.00  0.00     0.032 C 
BRANCH   4   5
ATOM      5  C   UNL     1      -4.337 -11.824  28.983  1.00  0.00     0.034 C 
BRANCH   5   6
ATOM      6  C   UNL     1      -4.829 -13.224  29.307  1.00  0.00    -0.077 C 
ATOM      7  C   UNL     1      -5.429 -14.033  28.185  1.00  0.00     0.039 C 
ATOM      8  C   UNL     1      -4.700 -13.817  30.519  1.00  0.00    -0.023 CG0
ATOM      9  G   UNL     1      -4.150 -13.196  31.788  1.00  0.00     0.000 G0
ENDBRANCH   5   6
ENDBRANCH   4   5
ENDBRANCH   2   4
BRANCH   1  10
ATOM     10  C   UNL     1      -1.055 -12.267  29.803  1.00  0.00     0.111 C 
BRANCH  10  11
ATOM     11  C   UNL     1      -1.712 -12.751  31.068  1.00  0.00     0.163 C 
ATOM     12  O   UNL     1      -1.102 -13.606  31.765  1.00  0.00    -0.294 OA
BRANCH  11  13
ATOM     13  C   UNL     1      -3.019 -12.211  31.549  1.00  0.00    -0.002 C 
ATOM     14  C   UNL     1      -3.216 -10.862  31.667  1.00  0.00    -0.069 C 
ATOM     15  C   UNL     1      -2.081  -9.883  31.470  1.00  0.00     0.039 C 
ATOM     16  C   UNL     1      -4.573 -10.279  31.998  1.00  0.00     0.039 C 
BRANCH  13  17
ATOM     17  C   UNL     1      -4.134 -13.211  31.804  1.00  0.00     0.066 CG0
ATOM     18  G   UNL     1      -4.685 -13.800  30.519  1.00  0.00     0.000 G0
ENDBRANCH  13  17
ENDBRANCH  11  13
ENDBRANCH  10  11
ENDBRANCH   1  10
TORSDOF 0
ENDMDL
