MODEL 1
REMARK VINA RESULT:     4.330      0.000      0.000
REMARK INTER + INTRA:           4.367
REMARK INTER:                   4.710
REMARK INTRA:                  -0.343
REMARK UNBOUND:                -0.343
REMARK SMILES CC1=C[C@@H]2[C@@H](CC1)[C@](C)(O)CC[C@H]2C(C)C
REMARK SMILES IDX 1 1 2 2 3 3 4 4 13 5 12 6 11 7 8 8 5 9 6 10 7 11 9 12 14 13
REMARK SMILES IDX 15 14 16 15 10 16
REMARK H PARENT 10 17
REMARK Flexibility Score: inf
ROOT
ATOM      1  C   UNL     1     -36.495  25.633   6.705  1.00  0.00     0.039 C 
ATOM      2  C   UNL     1     -37.711  24.841   7.105  1.00  0.00    -0.077 C 
ATOM      3  C   UNL     1     -38.812  24.893   6.324  1.00  0.00    -0.024 C 
ATOM      4  C   UNL     1     -40.110  24.177   6.666  1.00  0.00     0.021 C 
ATOM      5  C   UNL     1     -40.916  23.808   5.363  1.00  0.00    -0.001 C 
ATOM      6  C   UNL     1     -41.445  22.347   5.427  1.00  0.00     0.007 C 
ATOM      7  C   UNL     1     -42.124  22.053   6.768  1.00  0.00     0.035 C 
ATOM      8  C   UNL     1     -41.152  22.202   7.986  1.00  0.00     0.065 C 
ATOM      9  C   UNL     1     -39.833  22.956   7.579  1.00  0.00     0.028 C 
ATOM     10  C   UNL     1     -38.972  23.397   8.779  1.00  0.00     0.011 C 
ATOM     11  C   UNL     1     -37.611  23.906   8.294  1.00  0.00     0.031 C 
ATOM     12  C   UNL     1     -41.906  22.921   9.125  1.00  0.00     0.042 C 
ENDROOT
BRANCH   5  13
ATOM     13  C   UNL     1     -42.050  24.859   5.073  1.00  0.00    -0.014 C 
ATOM     14  C   UNL     1     -41.906  25.532   3.694  1.00  0.00     0.007 C 
ATOM     15  C   UNL     1     -42.095  25.960   6.148  1.00  0.00     0.007 C 
ENDBRANCH   5  13
BRANCH   8  16
ATOM     16  O   UNL     1     -40.811  20.920   8.467  1.00  0.00    -0.390 OA
ATOM     17  H   UNL     1     -40.774  20.300   7.693  1.00  0.00     0.211 HD
ENDBRANCH   8  16
TORSDOF 2
ENDMDL
