MODEL 1
REMARK VINA RESULT:    -7.452      0.000      0.000
REMARK INTER + INTRA:          -9.303
REMARK INTER:                  -8.977
REMARK INTRA:                  -0.326
REMARK UNBOUND:                -0.326
REMARK SMILES Oc1cc(O)c2cc(O)c(-c3ccc(O)c(O)c3)[o+]c2c1
REMARK SMILES IDX 10 1 19 2 20 3 21 4 2 5 3 6 4 7 6 8 7 9 8 10 11 11 12 12
REMARK SMILES IDX 13 13 14 14 18 15 16 16 15 17 17 19 9 21 1 23 5 25
REMARK H PARENT 15 18 17 20 9 22 1 24 5 26
REMARK Flexibility Score: inf
ROOT
ATOM      1  C   UNL     1      11.224  38.891  22.556  1.00  0.00     0.402 A 
ATOM      2  O   UNL     1      10.525  39.994  22.304  1.00  0.00    -0.202 OA
ATOM      3  C   UNL     1      10.473  40.566  21.105  1.00  0.00     0.368 A 
ATOM      4  C   UNL     1       9.713  41.727  20.940  1.00  0.00     0.162 A 
ATOM      5  C   UNL     1       9.641  42.351  19.694  1.00  0.00     0.128 A 
ATOM      6  C   UNL     1      10.336  41.814  18.604  1.00  0.00     0.093 A 
ATOM      7  C   UNL     1      11.105  40.652  18.745  1.00  0.00     0.136 A 
ATOM      8  C   UNL     1      11.178  40.012  20.010  1.00  0.00     0.125 A 
ATOM      9  C   UNL     1      11.911  38.838  20.241  1.00  0.00     0.078 A 
ATOM     10  C   UNL     1      11.932  38.263  21.515  1.00  0.00     0.223 A 
ENDROOT
BRANCH   1  11
ATOM     11  C   UNL     1      11.212  38.354  23.937  1.00  0.00     0.087 A 
ATOM     12  C   UNL     1      12.298  38.546  24.808  1.00  0.00     0.022 A 
ATOM     13  C   UNL     1      12.253  38.050  26.113  1.00  0.00     0.051 A 
ATOM     14  C   UNL     1      11.120  37.366  26.572  1.00  0.00     0.157 A 
ATOM     15  C   UNL     1      10.069  37.686  24.408  1.00  0.00     0.068 A 
ATOM     16  C   UNL     1      10.021  37.187  25.714  1.00  0.00     0.158 A 
BRANCH  14  17
ATOM     17  O   UNL     1      11.079  36.870  27.873  1.00  0.00    -0.504 OA
ATOM     18  H   UNL     1      10.402  36.171  28.154  1.00  0.00     0.293 HD
ENDBRANCH  14  17
BRANCH  16  19
ATOM     19  O   UNL     1       8.875  36.517  26.142  1.00  0.00    -0.504 OA
ATOM     20  H   UNL     1       8.553  35.666  25.699  1.00  0.00     0.293 HD
ENDBRANCH  16  19
ENDBRANCH   1  11
BRANCH  10  21
ATOM     21  O   UNL     1      12.620  37.069  21.732  1.00  0.00    -0.500 OA
ATOM     22  H   UNL     1      12.508  36.270  21.120  1.00  0.00     0.294 HD
ENDBRANCH  10  21
BRANCH   5  23
ATOM     23  O   UNL     1       8.878  43.507  19.548  1.00  0.00    -0.507 OA
ATOM     24  H   UNL     1       8.439  43.958  20.343  1.00  0.00     0.293 HD
ENDBRANCH   5  23
BRANCH   7  25
ATOM     25  O   UNL     1      11.771  40.180  17.610  1.00  0.00    -0.507 OA
ATOM     26  H   UNL     1      12.157  39.251  17.520  1.00  0.00     0.293 HD
ENDBRANCH   7  25
TORSDOF 6
ENDMDL
MODEL 2
REMARK VINA RESULT:    -6.986      1.799      7.053
REMARK INTER + INTRA:          -8.741
REMARK INTER:                  -8.389
REMARK INTRA:                  -0.352
REMARK UNBOUND:                -0.326
REMARK SMILES Oc1cc(O)c2cc(O)c(-c3ccc(O)c(O)c3)[o+]c2c1
REMARK SMILES IDX 10 1 19 2 20 3 21 4 2 5 3 6 4 7 6 8 7 9 8 10 11 11 12 12
REMARK SMILES IDX 13 13 14 14 18 15 16 16 15 17 17 19 9 21 1 23 5 25
REMARK H PARENT 15 18 17 20 9 22 1 24 5 26
REMARK Flexibility Score: inf
ROOT
ATOM      1  C   UNL     1      11.154  39.276  22.556  1.00  0.00     0.402 A 
ATOM      2  O   UNL     1      12.415  39.323  22.978  1.00  0.00    -0.202 OA
ATOM      3  C   UNL     1      12.824  38.770  24.116  1.00  0.00     0.368 A 
ATOM      4  C   UNL     1      14.170  38.876  24.476  1.00  0.00     0.162 A 
ATOM      5  C   UNL     1      14.628  38.309  25.665  1.00  0.00     0.128 A 
ATOM      6  C   UNL     1      13.736  37.630  26.503  1.00  0.00     0.093 A 
ATOM      7  C   UNL     1      12.382  37.512  26.165  1.00  0.00     0.136 A 
ATOM      8  C   UNL     1      11.912  38.085  24.954  1.00  0.00     0.125 A 
ATOM      9  C   UNL     1      10.577  38.004  24.527  1.00  0.00     0.078 A 
ATOM     10  C   UNL     1      10.190  38.591  23.319  1.00  0.00     0.223 A 
ENDROOT
BRANCH   1  11
ATOM     11  C   UNL     1      10.818  39.940  21.275  1.00  0.00     0.087 A 
ATOM     12  C   UNL     1      10.429  41.289  21.228  1.00  0.00     0.022 A 
ATOM     13  C   UNL     1      10.141  41.899  20.005  1.00  0.00     0.051 A 
ATOM     14  C   UNL     1      10.248  41.176  18.810  1.00  0.00     0.157 A 
ATOM     15  C   UNL     1      10.945  39.224  20.073  1.00  0.00     0.068 A 
ATOM     16  C   UNL     1      10.656  39.832  18.846  1.00  0.00     0.158 A 
BRANCH  14  17
ATOM     17  O   UNL     1       9.957  41.786  17.592  1.00  0.00    -0.504 OA
ATOM     18  H   UNL     1       9.375  42.615  17.539  1.00  0.00     0.293 HD
ENDBRANCH  14  17
BRANCH  16  19
ATOM     19  O   UNL     1      10.780  39.085  17.674  1.00  0.00    -0.504 OA
ATOM     20  H   UNL     1      11.178  39.474  16.828  1.00  0.00     0.293 HD
ENDBRANCH  16  19
ENDBRANCH   1  11
BRANCH  10  21
ATOM     21  O   UNL     1       8.875  38.468  22.871  1.00  0.00    -0.500 OA
ATOM     22  H   UNL     1       8.300  37.670  23.118  1.00  0.00     0.294 HD
ENDBRANCH  10  21
BRANCH   5  23
ATOM     23  O   UNL     1      15.974  38.423  26.007  1.00  0.00    -0.507 OA
ATOM     24  H   UNL     1      16.275  38.992  26.789  1.00  0.00     0.293 HD
ENDBRANCH   5  23
BRANCH   7  25
ATOM     25  O   UNL     1      11.554  36.822  27.055  1.00  0.00    -0.507 OA
ATOM     26  H   UNL     1      11.168  37.221  27.900  1.00  0.00     0.293 HD
ENDBRANCH   7  25
TORSDOF 6
ENDMDL
MODEL 3
REMARK VINA RESULT:    -6.966      5.108      7.744
REMARK INTER + INTRA:          -8.718
REMARK INTER:                  -8.396
REMARK INTRA:                  -0.322
REMARK UNBOUND:                -0.326
REMARK SMILES Oc1cc(O)c2cc(O)c(-c3ccc(O)c(O)c3)[o+]c2c1
REMARK SMILES IDX 10 1 19 2 20 3 21 4 2 5 3 6 4 7 6 8 7 9 8 10 11 11 12 12
REMARK SMILES IDX 13 13 14 14 18 15 16 16 15 17 17 19 9 21 1 23 5 25
REMARK H PARENT 15 18 17 20 9 22 1 24 5 26
REMARK Flexibility Score: inf
ROOT
ATOM      1  C   UNL     1      12.313  43.961  21.121  1.00  0.00     0.402 A 
ATOM      2  O   UNL     1      13.540  43.611  21.497  1.00  0.00    -0.202 OA
ATOM      3  C   UNL     1      14.423  44.470  21.997  1.00  0.00     0.368 A 
ATOM      4  C   UNL     1      15.690  44.007  22.360  1.00  0.00     0.162 A 
ATOM      5  C   UNL     1      16.638  44.885  22.886  1.00  0.00     0.128 A 
ATOM      6  C   UNL     1      16.320  46.238  23.049  1.00  0.00     0.093 A 
ATOM      7  C   UNL     1      15.056  46.727  22.691  1.00  0.00     0.136 A 
ATOM      8  C   UNL     1      14.089  45.836  22.160  1.00  0.00     0.125 A 
ATOM      9  C   UNL     1      12.794  46.233  21.787  1.00  0.00     0.078 A 
ATOM     10  C   UNL     1      11.893  45.295  21.274  1.00  0.00     0.223 A 
ENDROOT
BRANCH   1  11
ATOM     11  C   UNL     1      11.424  42.914  20.568  1.00  0.00     0.087 A 
ATOM     12  C   UNL     1      10.445  42.289  21.360  1.00  0.00     0.022 A 
ATOM     13  C   UNL     1       9.602  41.322  20.809  1.00  0.00     0.051 A 
ATOM     14  C   UNL     1       9.716  40.971  19.457  1.00  0.00     0.157 A 
ATOM     15  C   UNL     1      11.520  42.574  19.208  1.00  0.00     0.068 A 
ATOM     16  C   UNL     1      10.678  41.605  18.653  1.00  0.00     0.158 A 
BRANCH  14  17
ATOM     17  O   UNL     1       8.875  40.003  18.911  1.00  0.00    -0.504 OA
ATOM     18  H   UNL     1       8.595  39.184  19.439  1.00  0.00     0.293 HD
ENDBRANCH  14  17
BRANCH  16  19
ATOM     19  O   UNL     1      10.812  41.284  17.302  1.00  0.00    -0.504 OA
ATOM     20  H   UNL     1      10.128  41.567  16.611  1.00  0.00     0.293 HD
ENDBRANCH  16  19
ENDBRANCH   1  11
BRANCH  10  21
ATOM     21  O   UNL     1      10.592  45.680  20.951  1.00  0.00    -0.500 OA
ATOM     22  H   UNL     1       9.806  45.462  21.553  1.00  0.00     0.294 HD
ENDBRANCH  10  21
BRANCH   5  23
ATOM     23  O   UNL     1      17.896  44.405  23.243  1.00  0.00    -0.507 OA
ATOM     24  H   UNL     1      18.023  43.467  23.605  1.00  0.00     0.293 HD
ENDBRANCH   5  23
BRANCH   7  25
ATOM     25  O   UNL     1      14.817  48.091  22.882  1.00  0.00    -0.507 OA
ATOM     26  H   UNL     1      15.541  48.793  22.949  1.00  0.00     0.293 HD
ENDBRANCH   7  25
TORSDOF 6
ENDMDL
MODEL 4
REMARK VINA RESULT:    -6.961      1.856      2.402
REMARK INTER + INTRA:          -8.712
REMARK INTER:                  -8.361
REMARK INTRA:                  -0.351
REMARK UNBOUND:                -0.326
REMARK SMILES Oc1cc(O)c2cc(O)c(-c3ccc(O)c(O)c3)[o+]c2c1
REMARK SMILES IDX 10 1 19 2 20 3 21 4 2 5 3 6 4 7 6 8 7 9 8 10 11 11 12 12
REMARK SMILES IDX 13 13 14 14 18 15 16 16 15 17 17 19 9 21 1 23 5 25
REMARK H PARENT 15 18 17 20 9 22 1 24 5 26
REMARK Flexibility Score: inf
ROOT
ATOM      1  C   UNL     1      11.003  38.271  24.265  1.00  0.00     0.402 A 
ATOM      2  O   UNL     1      10.136  38.657  23.333  1.00  0.00    -0.202 OA
ATOM      3  C   UNL     1      10.503  39.171  22.163  1.00  0.00     0.368 A 
ATOM      4  C   UNL     1       9.517  39.550  21.249  1.00  0.00     0.162 A 
ATOM      5  C   UNL     1       9.872  40.095  20.015  1.00  0.00     0.128 A 
ATOM      6  C   UNL     1      11.223  40.263  19.690  1.00  0.00     0.093 A 
ATOM      7  C   UNL     1      12.230  39.891  20.589  1.00  0.00     0.136 A 
ATOM      8  C   UNL     1      11.872  39.334  21.845  1.00  0.00     0.125 A 
ATOM      9  C   UNL     1      12.812  38.920  22.802  1.00  0.00     0.078 A 
ATOM     10  C   UNL     1      12.384  38.376  24.017  1.00  0.00     0.223 A 
ENDROOT
BRANCH   1  11
ATOM     11  C   UNL     1      10.470  37.723  25.534  1.00  0.00     0.087 A 
ATOM     12  C   UNL     1      10.314  38.531  26.673  1.00  0.00     0.022 A 
ATOM     13  C   UNL     1       9.787  37.997  27.852  1.00  0.00     0.051 A 
ATOM     14  C   UNL     1       9.398  36.652  27.907  1.00  0.00     0.157 A 
ATOM     15  C   UNL     1      10.059  36.381  25.588  1.00  0.00     0.068 A 
ATOM     16  C   UNL     1       9.532  35.842  26.767  1.00  0.00     0.158 A 
BRANCH  14  17
ATOM     17  O   UNL     1       8.875  36.122  29.085  1.00  0.00    -0.504 OA
ATOM     18  H   UNL     1       8.206  36.635  29.647  1.00  0.00     0.293 HD
ENDBRANCH  14  17
BRANCH  16  19
ATOM     19  O   UNL     1       9.147  34.502  26.786  1.00  0.00    -0.504 OA
ATOM     20  H   UNL     1       8.540  34.126  27.504  1.00  0.00     0.293 HD
ENDBRANCH  16  19
ENDBRANCH   1  11
BRANCH  10  21
ATOM     21  O   UNL     1      13.318  37.919  24.947  1.00  0.00    -0.500 OA
ATOM     22  H   UNL     1      13.378  36.941  25.206  1.00  0.00     0.294 HD
ENDBRANCH  10  21
BRANCH   5  23
ATOM     23  O   UNL     1       8.875  40.466  19.116  1.00  0.00    -0.507 OA
ATOM     24  H   UNL     1       8.601  41.435  18.998  1.00  0.00     0.293 HD
ENDBRANCH   5  23
BRANCH   7  25
ATOM     25  O   UNL     1      13.554  40.094  20.192  1.00  0.00    -0.507 OA
ATOM     26  H   UNL     1      14.356  39.676  20.644  1.00  0.00     0.293 HD
ENDBRANCH   7  25
TORSDOF 6
ENDMDL
MODEL 5
REMARK VINA RESULT:    -6.902      4.831      7.152
REMARK INTER + INTRA:          -8.640
REMARK INTER:                  -8.946
REMARK INTRA:                   0.306
REMARK UNBOUND:                -0.326
REMARK SMILES Oc1cc(O)c2cc(O)c(-c3ccc(O)c(O)c3)[o+]c2c1
REMARK SMILES IDX 10 1 19 2 20 3 21 4 2 5 3 6 4 7 6 8 7 9 8 10 11 11 12 12
REMARK SMILES IDX 13 13 14 14 18 15 16 16 15 17 17 19 9 21 1 23 5 25
REMARK H PARENT 15 18 17 20 9 22 1 24 5 26
REMARK Flexibility Score: inf
ROOT
ATOM      1  C   UNL     1      13.037  43.517  21.113  1.00  0.00     0.402 A 
ATOM      2  O   UNL     1      13.309  42.221  21.238  1.00  0.00    -0.202 OA
ATOM      3  C   UNL     1      12.529  41.262  20.750  1.00  0.00     0.368 A 
ATOM      4  C   UNL     1      12.897  39.927  20.936  1.00  0.00     0.162 A 
ATOM      5  C   UNL     1      12.097  38.899  20.438  1.00  0.00     0.128 A 
ATOM      6  C   UNL     1      10.917  39.205  19.749  1.00  0.00     0.093 A 
ATOM      7  C   UNL     1      10.526  40.535  19.551  1.00  0.00     0.136 A 
ATOM      8  C   UNL     1      11.339  41.584  20.054  1.00  0.00     0.125 A 
ATOM      9  C   UNL     1      11.034  42.945  19.891  1.00  0.00     0.078 A 
ATOM     10  C   UNL     1      11.887  43.922  20.411  1.00  0.00     0.223 A 
ENDROOT
BRANCH   1  11
ATOM     11  C   UNL     1      13.980  44.492  21.709  1.00  0.00     0.087 A 
ATOM     12  C   UNL     1      13.595  45.817  21.973  1.00  0.00     0.022 A 
ATOM     13  C   UNL     1      14.495  46.711  22.558  1.00  0.00     0.051 A 
ATOM     14  C   UNL     1      15.788  46.293  22.900  1.00  0.00     0.157 A 
ATOM     15  C   UNL     1      15.270  44.071  22.073  1.00  0.00     0.068 A 
ATOM     16  C   UNL     1      16.174  44.963  22.659  1.00  0.00     0.158 A 
BRANCH  14  17
ATOM     17  O   UNL     1      16.684  47.188  23.481  1.00  0.00    -0.504 OA
ATOM     18  H   UNL     1      16.551  48.190  23.413  1.00  0.00     0.293 HD
ENDBRANCH  14  17
BRANCH  16  19
ATOM     19  O   UNL     1      17.451  44.513  22.993  1.00  0.00    -0.504 OA
ATOM     20  H   UNL     1      18.250  45.134  23.023  1.00  0.00     0.293 HD
ENDBRANCH  16  19
ENDBRANCH   1  11
BRANCH  10  21
ATOM     21  O   UNL     1      11.610  45.274  20.206  1.00  0.00    -0.500 OA
ATOM     22  H   UNL     1      10.672  45.647  20.305  1.00  0.00     0.294 HD
ENDBRANCH  10  21
BRANCH   5  23
ATOM     23  O   UNL     1      12.480  37.574  20.632  1.00  0.00    -0.507 OA
ATOM     24  H   UNL     1      11.806  36.818  20.611  1.00  0.00     0.293 HD
ENDBRANCH   5  23
BRANCH   7  25
ATOM     25  O   UNL     1       9.333  40.758  18.857  1.00  0.00    -0.507 OA
ATOM     26  H   UNL     1       8.482  40.233  19.001  1.00  0.00     0.293 HD
ENDBRANCH   7  25
TORSDOF 6
ENDMDL
MODEL 6
REMARK VINA RESULT:    -6.789      1.377      1.796
REMARK INTER + INTRA:          -8.504
REMARK INTER:                  -8.179
REMARK INTRA:                  -0.324
REMARK UNBOUND:                -0.326
REMARK SMILES Oc1cc(O)c2cc(O)c(-c3ccc(O)c(O)c3)[o+]c2c1
REMARK SMILES IDX 10 1 19 2 20 3 21 4 2 5 3 6 4 7 6 8 7 9 8 10 11 11 12 12
REMARK SMILES IDX 13 13 14 14 18 15 16 16 15 17 17 19 9 21 1 23 5 25
REMARK H PARENT 15 18 17 20 9 22 1 24 5 26
REMARK Flexibility Score: inf
ROOT
ATOM      1  C   UNL     1      10.852  39.128  22.887  1.00  0.00     0.402 A 
ATOM      2  O   UNL     1      10.024  39.839  22.127  1.00  0.00    -0.202 OA
ATOM      3  C   UNL     1      10.403  40.449  21.008  1.00  0.00     0.368 A 
ATOM      4  C   UNL     1       9.460  41.177  20.279  1.00  0.00     0.162 A 
ATOM      5  C   UNL     1       9.829  41.830  19.103  1.00  0.00     0.128 A 
ATOM      6  C   UNL     1      11.153  41.758  18.651  1.00  0.00     0.093 A 
ATOM      7  C   UNL     1      12.117  41.036  19.366  1.00  0.00     0.136 A 
ATOM      8  C   UNL     1      11.744  40.367  20.561  1.00  0.00     0.125 A 
ATOM      9  C   UNL     1      12.638  39.609  21.334  1.00  0.00     0.078 A 
ATOM     10  C   UNL     1      12.196  38.975  22.499  1.00  0.00     0.223 A 
ENDROOT
BRANCH   1  11
ATOM     11  C   UNL     1      10.312  38.503  24.117  1.00  0.00     0.087 A 
ATOM     12  C   UNL     1       9.616  37.283  24.075  1.00  0.00     0.022 A 
ATOM     13  C   UNL     1       9.137  36.702  25.252  1.00  0.00     0.051 A 
ATOM     14  C   UNL     1       9.356  37.323  26.488  1.00  0.00     0.157 A 
ATOM     15  C   UNL     1      10.549  39.111  25.361  1.00  0.00     0.068 A 
ATOM     16  C   UNL     1      10.070  38.533  26.542  1.00  0.00     0.158 A 
BRANCH  14  17
ATOM     17  O   UNL     1       8.875  36.742  27.660  1.00  0.00    -0.504 OA
ATOM     18  H   UNL     1       9.367  35.984  28.117  1.00  0.00     0.293 HD
ENDBRANCH  14  17
BRANCH  16  19
ATOM     19  O   UNL     1      10.311  39.173  27.757  1.00  0.00    -0.504 OA
ATOM     20  H   UNL     1      10.597  40.143  27.807  1.00  0.00     0.293 HD
ENDBRANCH  16  19
ENDBRANCH   1  11
BRANCH  10  21
ATOM     21  O   UNL     1      13.072  38.182  23.239  1.00  0.00    -0.500 OA
ATOM     22  H   UNL     1      13.531  37.374  22.835  1.00  0.00     0.294 HD
ENDBRANCH  10  21
BRANCH   5  23
ATOM     23  O   UNL     1       8.875  42.550  18.388  1.00  0.00    -0.507 OA
ATOM     24  H   UNL     1       8.266  42.100  17.714  1.00  0.00     0.293 HD
ENDBRANCH   5  23
BRANCH   7  25
ATOM     25  O   UNL     1      13.416  41.015  18.851  1.00  0.00    -0.507 OA
ATOM     26  H   UNL     1      14.089  41.759  18.971  1.00  0.00     0.293 HD
ENDBRANCH   7  25
TORSDOF 6
ENDMDL
MODEL 7
REMARK VINA RESULT:    -6.664      1.849      7.179
REMARK INTER + INTRA:          -8.354
REMARK INTER:                  -8.302
REMARK INTRA:                  -0.051
REMARK UNBOUND:                -0.326
REMARK SMILES Oc1cc(O)c2cc(O)c(-c3ccc(O)c(O)c3)[o+]c2c1
REMARK SMILES IDX 10 1 19 2 20 3 21 4 2 5 3 6 4 7 6 8 7 9 8 10 11 11 12 12
REMARK SMILES IDX 13 13 14 14 18 15 16 16 15 17 17 19 9 21 1 23 5 25
REMARK H PARENT 15 18 17 20 9 22 1 24 5 26
REMARK Flexibility Score: inf
ROOT
ATOM      1  C   UNL     1      11.325  39.031  22.696  1.00  0.00     0.402 A 
ATOM      2  O   UNL     1      12.351  38.639  23.448  1.00  0.00    -0.202 OA
ATOM      3  C   UNL     1      12.206  38.087  24.648  1.00  0.00     0.368 A 
ATOM      4  C   UNL     1      13.346  37.711  25.364  1.00  0.00     0.162 A 
ATOM      5  C   UNL     1      13.226  37.132  26.628  1.00  0.00     0.128 A 
ATOM      6  C   UNL     1      11.957  36.928  27.183  1.00  0.00     0.093 A 
ATOM      7  C   UNL     1      10.800  37.297  26.486  1.00  0.00     0.136 A 
ATOM      8  C   UNL     1      10.918  37.884  25.199  1.00  0.00     0.125 A 
ATOM      9  C   UNL     1       9.815  38.271  24.422  1.00  0.00     0.078 A 
ATOM     10  C   UNL     1      10.011  38.839  23.159  1.00  0.00     0.223 A 
ENDROOT
BRANCH   1  11
ATOM     11  C   UNL     1      11.615  39.642  21.379  1.00  0.00     0.087 A 
ATOM     12  C   UNL     1      12.490  40.735  21.254  1.00  0.00     0.022 A 
ATOM     13  C   UNL     1      12.766  41.280  19.998  1.00  0.00     0.051 A 
ATOM     14  C   UNL     1      12.183  40.735  18.846  1.00  0.00     0.157 A 
ATOM     15  C   UNL     1      11.050  39.085  20.219  1.00  0.00     0.068 A 
ATOM     16  C   UNL     1      11.323  39.629  18.959  1.00  0.00     0.158 A 
BRANCH  14  17
ATOM     17  O   UNL     1      12.458  41.282  17.595  1.00  0.00    -0.504 OA
ATOM     18  H   UNL     1      11.742  41.749  17.050  1.00  0.00     0.293 HD
ENDBRANCH  14  17
BRANCH  16  19
ATOM     19  O   UNL     1      10.732  39.058  17.832  1.00  0.00    -0.504 OA
ATOM     20  H   UNL     1       9.841  39.376  17.472  1.00  0.00     0.293 HD
ENDBRANCH  16  19
ENDBRANCH   1  11
BRANCH  10  21
ATOM     21  O   UNL     1       8.914  39.179  22.368  1.00  0.00    -0.500 OA
ATOM     22  H   UNL     1       8.412  38.485  21.826  1.00  0.00     0.294 HD
ENDBRANCH  10  21
BRANCH   5  23
ATOM     23  O   UNL     1      14.373  36.763  27.326  1.00  0.00    -0.507 OA
ATOM     24  H   UNL     1      14.377  35.970  27.957  1.00  0.00     0.293 HD
ENDBRANCH   5  23
BRANCH   7  25
ATOM     25  O   UNL     1       9.571  37.063  27.109  1.00  0.00    -0.507 OA
ATOM     26  H   UNL     1       9.428  37.072  28.110  1.00  0.00     0.293 HD
ENDBRANCH   7  25
TORSDOF 6
ENDMDL
MODEL 8
REMARK VINA RESULT:    -6.617      1.455      6.931
REMARK INTER + INTRA:          -8.297
REMARK INTER:                  -8.203
REMARK INTRA:                  -0.094
REMARK UNBOUND:                -0.326
REMARK SMILES Oc1cc(O)c2cc(O)c(-c3ccc(O)c(O)c3)[o+]c2c1
REMARK SMILES IDX 10 1 19 2 20 3 21 4 2 5 3 6 4 7 6 8 7 9 8 10 11 11 12 12
REMARK SMILES IDX 13 13 14 14 18 15 16 16 15 17 17 19 9 21 1 23 5 25
REMARK H PARENT 15 18 17 20 9 22 1 24 5 26
REMARK Flexibility Score: inf
ROOT
ATOM      1  C   UNL     1      11.048  39.127  22.959  1.00  0.00     0.402 A 
ATOM      2  O   UNL     1      10.177  38.792  23.907  1.00  0.00    -0.202 OA
ATOM      3  C   UNL     1      10.528  38.208  25.048  1.00  0.00     0.368 A 
ATOM      4  C   UNL     1       9.538  37.890  25.980  1.00  0.00     0.162 A 
ATOM      5  C   UNL     1       9.876  37.275  27.186  1.00  0.00     0.128 A 
ATOM      6  C   UNL     1      11.215  36.972  27.462  1.00  0.00     0.093 A 
ATOM      7  C   UNL     1      12.225  37.279  26.542  1.00  0.00     0.136 A 
ATOM      8  C   UNL     1      11.885  37.908  25.317  1.00  0.00     0.125 A 
ATOM      9  C   UNL     1      12.831  38.266  24.343  1.00  0.00     0.078 A 
ATOM     10  C   UNL     1      12.420  38.888  23.160  1.00  0.00     0.223 A 
ENDROOT
BRANCH   1  11
ATOM     11  C   UNL     1      10.532  39.764  21.725  1.00  0.00     0.087 A 
ATOM     12  C   UNL     1       9.789  40.956  21.771  1.00  0.00     0.022 A 
ATOM     13  C   UNL     1       9.334  41.550  20.591  1.00  0.00     0.051 A 
ATOM     14  C   UNL     1       9.623  40.971  19.349  1.00  0.00     0.157 A 
ATOM     15  C   UNL     1      10.838  39.198  20.476  1.00  0.00     0.068 A 
ATOM     16  C   UNL     1      10.383  39.790  19.293  1.00  0.00     0.158 A 
BRANCH  14  17
ATOM     17  O   UNL     1       9.165  41.564  18.175  1.00  0.00    -0.504 OA
ATOM     18  H   UNL     1       8.576  41.062  17.521  1.00  0.00     0.293 HD
ENDBRANCH  14  17
BRANCH  16  19
ATOM     19  O   UNL     1      10.694  39.191  18.072  1.00  0.00    -0.504 OA
ATOM     20  H   UNL     1      11.328  39.620  17.409  1.00  0.00     0.293 HD
ENDBRANCH  16  19
ENDBRANCH   1  11
BRANCH  10  21
ATOM     21  O   UNL     1      13.365  39.287  22.215  1.00  0.00    -0.500 OA
ATOM     22  H   UNL     1      14.356  39.127  22.351  1.00  0.00     0.294 HD
ENDBRANCH  10  21
BRANCH   5  23
ATOM     23  O   UNL     1       8.876  36.966  28.105  1.00  0.00    -0.507 OA
ATOM     24  H   UNL     1       8.097  36.365  27.859  1.00  0.00     0.293 HD
ENDBRANCH   5  23
BRANCH   7  25
ATOM     25  O   UNL     1      13.536  36.942  26.891  1.00  0.00    -0.507 OA
ATOM     26  H   UNL     1      14.344  37.114  26.308  1.00  0.00     0.293 HD
ENDBRANCH   7  25
TORSDOF 6
ENDMDL
MODEL 9
REMARK VINA RESULT:    -6.426      5.366      7.463
REMARK INTER + INTRA:          -8.066
REMARK INTER:                  -8.461
REMARK INTRA:                   0.394
REMARK UNBOUND:                -0.326
REMARK SMILES Oc1cc(O)c2cc(O)c(-c3ccc(O)c(O)c3)[o+]c2c1
REMARK SMILES IDX 10 1 19 2 20 3 21 4 2 5 3 6 4 7 6 8 7 9 8 10 11 11 12 12
REMARK SMILES IDX 13 13 14 14 18 15 16 16 15 17 17 19 9 21 1 23 5 25
REMARK H PARENT 15 18 17 20 9 22 1 24 5 26
REMARK Flexibility Score: inf
ROOT
ATOM      1  C   UNL     1      13.371  44.230  21.464  1.00  0.00     0.402 A 
ATOM      2  O   UNL     1      13.440  42.991  20.985  1.00  0.00    -0.202 OA
ATOM      3  C   UNL     1      12.427  42.389  20.370  1.00  0.00     0.368 A 
ATOM      4  C   UNL     1      12.595  41.083  19.905  1.00  0.00     0.162 A 
ATOM      5  C   UNL     1      11.549  40.424  19.258  1.00  0.00     0.128 A 
ATOM      6  C   UNL     1      10.323  41.075  19.075  1.00  0.00     0.093 A 
ATOM      7  C   UNL     1      10.129  42.384  19.534  1.00  0.00     0.136 A 
ATOM      8  C   UNL     1      11.192  43.058  20.190  1.00  0.00     0.125 A 
ATOM      9  C   UNL     1      11.094  44.374  20.669  1.00  0.00     0.078 A 
ATOM     10  C   UNL     1      12.187  44.973  21.302  1.00  0.00     0.223 A 
ENDROOT
BRANCH   1  11
ATOM     11  C   UNL     1      14.565  44.788  22.140  1.00  0.00     0.087 A 
ATOM     12  C   UNL     1      15.579  43.955  22.643  1.00  0.00     0.022 A 
ATOM     13  C   UNL     1      16.707  44.506  23.255  1.00  0.00     0.051 A 
ATOM     14  C   UNL     1      16.846  45.896  23.364  1.00  0.00     0.157 A 
ATOM     15  C   UNL     1      14.718  46.182  22.232  1.00  0.00     0.068 A 
ATOM     16  C   UNL     1      15.846  46.737  22.845  1.00  0.00     0.158 A 
BRANCH  14  17
ATOM     17  O   UNL     1      17.971  46.443  23.977  1.00  0.00    -0.504 OA
ATOM     18  H   UNL     1      18.049  47.438  24.154  1.00  0.00     0.293 HD
ENDBRANCH  14  17
BRANCH  16  19
ATOM     19  O   UNL     1      15.957  48.125  22.931  1.00  0.00    -0.504 OA
ATOM     20  H   UNL     1      15.334  48.746  22.430  1.00  0.00     0.293 HD
ENDBRANCH  16  19
ENDBRANCH   1  11
BRANCH  10  21
ATOM     21  O   UNL     1      12.105  46.297  21.734  1.00  0.00    -0.500 OA
ATOM     22  H   UNL     1      11.614  46.551  22.583  1.00  0.00     0.294 HD
ENDBRANCH  10  21
BRANCH   5  23
ATOM     23  O   UNL     1      11.735  39.122  18.799  1.00  0.00    -0.507 OA
ATOM     24  H   UNL     1      11.217  38.343  19.190  1.00  0.00     0.293 HD
ENDBRANCH   5  23
BRANCH   7  25
ATOM     25  O   UNL     1       8.876  42.963  19.315  1.00  0.00    -0.507 OA
ATOM     26  H   UNL     1       8.335  43.437  20.025  1.00  0.00     0.293 HD
ENDBRANCH   7  25
TORSDOF 6
ENDMDL
