MODEL 1
REMARK VINA RESULT:     2.353      0.000      0.000
REMARK INTER + INTRA:           3.652
REMARK INTER:                   5.103
REMARK INTRA:                  -1.451
REMARK UNBOUND:                -1.451
REMARK SMILES CCCCCCCCCCCCCCCCCCCCCC(=O)[O-]
REMARK SMILES IDX 12 1 11 2 10 3 9 4 8 5 7 6 6 7 5 8 4 9 3 10 2 11 1 12 13 13
REMARK SMILES IDX 14 14 15 15 16 16 17 17 18 18 19 19 20 20 21 21 22 22 23 23
REMARK SMILES IDX 24 24
REMARK H PARENT
REMARK Flexibility Score: inf
ROOT
ATOM      1  C   UNL     1       4.469 -38.371  22.232  1.00  0.00     0.000 C 
ENDROOT
BRANCH   1   2
ATOM      2  C   UNL     1       5.076 -37.611  21.042  1.00  0.00     0.000 C 
BRANCH   2   3
ATOM      3  C   UNL     1       4.063 -36.678  20.354  1.00  0.00     0.000 C 
BRANCH   3   4
ATOM      4  C   UNL     1       4.418 -36.402  18.884  1.00  0.00    -0.000 C 
BRANCH   4   5
ATOM      5  C   UNL     1       3.621 -37.283  17.909  1.00  0.00    -0.000 C 
BRANCH   5   6
ATOM      6  C   UNL     1       2.169 -37.447  18.377  1.00  0.00    -0.000 C 
BRANCH   6   7
ATOM      7  C   UNL     1       1.187 -37.042  17.269  1.00  0.00    -0.000 C 
BRANCH   7   8
ATOM      8  C   UNL     1       1.772 -35.994  16.306  1.00  0.00    -0.000 C 
BRANCH   8   9
ATOM      9  C   UNL     1       1.767 -36.401  14.818  1.00  0.00    -0.000 C 
BRANCH   9  10
ATOM     10  C   UNL     1       3.060 -36.077  14.044  1.00  0.00    -0.000 C 
BRANCH  10  11
ATOM     11  C   UNL     1       4.299 -36.873  14.492  1.00  0.00    -0.003 C 
ATOM     12  C   UNL     1       4.158 -38.376  14.255  1.00  0.00     0.004 C 
ENDBRANCH  10  11
ENDBRANCH   9  10
ENDBRANCH   8   9
ENDBRANCH   7   8
ENDBRANCH   6   7
ENDBRANCH   5   6
ENDBRANCH   4   5
ENDBRANCH   3   4
ENDBRANCH   2   3
ENDBRANCH   1   2
BRANCH   1  13
ATOM     13  C   UNL     1       5.112 -37.980  23.574  1.00  0.00     0.000 C 
BRANCH  13  14
ATOM     14  C   UNL     1       4.838 -36.516  23.954  1.00  0.00     0.000 C 
BRANCH  14  15
ATOM     15  C   UNL     1       5.031 -36.249  25.455  1.00  0.00     0.000 C 
BRANCH  15  16
ATOM     16  C   UNL     1       5.124 -37.566  26.239  1.00  0.00     0.000 C 
BRANCH  16  17
ATOM     17  C   UNL     1       3.771 -38.015  26.814  1.00  0.00     0.000 C 
BRANCH  17  18
ATOM     18  C   UNL     1       2.627 -37.047  26.465  1.00  0.00     0.000 C 
BRANCH  18  19
ATOM     19  C   UNL     1       1.495 -37.076  27.505  1.00  0.00     0.000 C 
BRANCH  19  20
ATOM     20  C   UNL     1       0.968 -35.669  27.844  1.00  0.00     0.006 C 
BRANCH  20  21
ATOM     21  C   UNL     1       1.953 -34.874  28.714  1.00  0.00     0.053 C 
BRANCH  21  22
ATOM     22  C   UNL     1       1.250 -34.105  29.792  1.00  0.00     0.041 C 
ATOM     23  O   UNL     1       1.870 -33.760  30.834  1.00  0.00    -0.550 OA
ATOM     24  O   UNL     1      -0.080 -33.739  29.630  1.00  0.00    -0.550 OA
ENDBRANCH  21  22
ENDBRANCH  20  21
ENDBRANCH  19  20
ENDBRANCH  18  19
ENDBRANCH  17  18
ENDBRANCH  16  17
ENDBRANCH  15  16
ENDBRANCH  14  15
ENDBRANCH  13  14
ENDBRANCH   1  13
TORSDOF 20
ENDMDL
MODEL 2
REMARK VINA RESULT:     3.475      1.054      2.327
REMARK INTER + INTRA:           6.086
REMARK INTER:                   5.172
REMARK INTRA:                   0.914
REMARK UNBOUND:                -1.451
REMARK SMILES CCCCCCCCCCCCCCCCCCCCCC(=O)[O-]
REMARK SMILES IDX 12 1 11 2 10 3 9 4 8 5 7 6 6 7 5 8 4 9 3 10 2 11 1 12 13 13
REMARK SMILES IDX 14 14 15 15 16 16 17 17 18 18 19 19 20 20 21 21 22 22 23 23
REMARK SMILES IDX 24 24
REMARK H PARENT
REMARK Flexibility Score: inf
ROOT
ATOM      1  C   UNL     1       4.133 -38.035  21.660  1.00  0.00     0.000 C 
ENDROOT
BRANCH   1   2
ATOM      2  C   UNL     1       5.039 -37.058  20.894  1.00  0.00     0.000 C 
BRANCH   2   3
ATOM      3  C   UNL     1       4.258 -36.172  19.906  1.00  0.00     0.000 C 
BRANCH   3   4
ATOM      4  C   UNL     1       5.111 -35.026  19.338  1.00  0.00    -0.000 C 
BRANCH   4   5
ATOM      5  C   UNL     1       4.560 -34.482  18.011  1.00  0.00    -0.000 C 
BRANCH   5   6
ATOM      6  C   UNL     1       3.803 -35.572  17.242  1.00  0.00    -0.000 C 
BRANCH   6   7
ATOM      7  C   UNL     1       3.682 -35.211  15.754  1.00  0.00    -0.000 C 
BRANCH   7   8
ATOM      8  C   UNL     1       3.251 -36.405  14.884  1.00  0.00    -0.000 C 
BRANCH   8   9
ATOM      9  C   UNL     1       2.355 -37.439  15.595  1.00  0.00    -0.000 C 
BRANCH   9  10
ATOM     10  C   UNL     1       1.574 -36.905  16.813  1.00  0.00    -0.000 C 
BRANCH  10  11
ATOM     11  C   UNL     1       1.892 -37.607  18.145  1.00  0.00    -0.003 C 
ATOM     12  C   UNL     1       0.687 -37.679  19.082  1.00  0.00     0.004 C 
ENDBRANCH  10  11
ENDBRANCH   9  10
ENDBRANCH   8   9
ENDBRANCH   7   8
ENDBRANCH   6   7
ENDBRANCH   5   6
ENDBRANCH   4   5
ENDBRANCH   3   4
ENDBRANCH   2   3
ENDBRANCH   1   2
BRANCH   1  13
ATOM     13  C   UNL     1       4.918 -38.929  22.635  1.00  0.00     0.000 C 
BRANCH  13  14
ATOM     14  C   UNL     1       5.093 -38.280  24.018  1.00  0.00     0.000 C 
BRANCH  14  15
ATOM     15  C   UNL     1       5.125 -36.746  23.952  1.00  0.00     0.000 C 
BRANCH  15  16
ATOM     16  C   UNL     1       5.101 -36.136  25.361  1.00  0.00     0.000 C 
BRANCH  16  17
ATOM     17  C   UNL     1       4.631 -37.131  26.434  1.00  0.00     0.000 C 
BRANCH  17  18
ATOM     18  C   UNL     1       3.124 -37.428  26.349  1.00  0.00     0.000 C 
BRANCH  18  19
ATOM     19  C   UNL     1       2.453 -37.458  27.732  1.00  0.00     0.000 C 
BRANCH  19  20
ATOM     20  C   UNL     1       1.382 -36.362  27.894  1.00  0.00     0.006 C 
BRANCH  20  21
ATOM     21  C   UNL     1       1.992 -35.008  28.283  1.00  0.00     0.053 C 
BRANCH  21  22
ATOM     22  C   UNL     1       1.230 -34.351  29.394  1.00  0.00     0.041 C 
ATOM     23  O   UNL     1       0.020 -34.036  29.236  1.00  0.00    -0.550 OA
ATOM     24  O   UNL     1       1.847 -34.121  30.617  1.00  0.00    -0.550 OA
ENDBRANCH  21  22
ENDBRANCH  20  21
ENDBRANCH  19  20
ENDBRANCH  18  19
ENDBRANCH  17  18
ENDBRANCH  16  17
ENDBRANCH  15  16
ENDBRANCH  14  15
ENDBRANCH  13  14
ENDBRANCH   1  13
TORSDOF 20
ENDMDL
MODEL 3
REMARK VINA RESULT:     4.060      1.228      2.130
REMARK INTER + INTRA:           7.355
REMARK INTER:                   7.510
REMARK INTRA:                  -0.156
REMARK UNBOUND:                -1.451
REMARK SMILES CCCCCCCCCCCCCCCCCCCCCC(=O)[O-]
REMARK SMILES IDX 12 1 11 2 10 3 9 4 8 5 7 6 6 7 5 8 4 9 3 10 2 11 1 12 13 13
REMARK SMILES IDX 14 14 15 15 16 16 17 17 18 18 19 19 20 20 21 21 22 22 23 23
REMARK SMILES IDX 24 24
REMARK H PARENT
REMARK Flexibility Score: inf
ROOT
ATOM      1  C   UNL     1       3.811 -34.142  22.950  1.00  0.00     0.000 C 
ENDROOT
BRANCH   1   2
ATOM      2  C   UNL     1       3.770 -34.898  21.613  1.00  0.00     0.000 C 
BRANCH   2   3
ATOM      3  C   UNL     1       5.124 -35.533  21.247  1.00  0.00     0.000 C 
BRANCH   3   4
ATOM      4  C   UNL     1       5.021 -37.047  21.007  1.00  0.00    -0.000 C 
BRANCH   4   5
ATOM      5  C   UNL     1       4.425 -37.388  19.633  1.00  0.00    -0.000 C 
BRANCH   5   6
ATOM      6  C   UNL     1       2.932 -37.724  19.748  1.00  0.00    -0.000 C 
BRANCH   6   7
ATOM      7  C   UNL     1       2.240 -37.627  18.382  1.00  0.00    -0.000 C 
BRANCH   7   8
ATOM      8  C   UNL     1       3.232 -37.670  17.206  1.00  0.00    -0.000 C 
BRANCH   8   9
ATOM      9  C   UNL     1       3.658 -36.292  16.662  1.00  0.00    -0.000 C 
BRANCH   9  10
ATOM     10  C   UNL     1       2.504 -35.393  16.175  1.00  0.00    -0.000 C 
BRANCH  10  11
ATOM     11  C   UNL     1       1.820 -35.863  14.878  1.00  0.00    -0.003 C 
ATOM     12  C   UNL     1       2.800 -36.473  13.876  1.00  0.00     0.004 C 
ENDBRANCH  10  11
ENDBRANCH   9  10
ENDBRANCH   8   9
ENDBRANCH   7   8
ENDBRANCH   6   7
ENDBRANCH   5   6
ENDBRANCH   4   5
ENDBRANCH   3   4
ENDBRANCH   2   3
ENDBRANCH   1   2
BRANCH   1  13
ATOM     13  C   UNL     1       5.123 -34.371  23.720  1.00  0.00     0.000 C 
BRANCH  13  14
ATOM     14  C   UNL     1       5.031 -35.551  24.701  1.00  0.00     0.000 C 
BRANCH  14  15
ATOM     15  C   UNL     1       5.027 -36.913  23.991  1.00  0.00     0.000 C 
BRANCH  15  16
ATOM     16  C   UNL     1       4.777 -38.052  24.990  1.00  0.00     0.000 C 
BRANCH  16  17
ATOM     17  C   UNL     1       4.261 -37.551  26.349  1.00  0.00     0.000 C 
BRANCH  17  18
ATOM     18  C   UNL     1       2.729 -37.622  26.463  1.00  0.00     0.000 C 
BRANCH  18  19
ATOM     19  C   UNL     1       2.208 -37.003  27.771  1.00  0.00     0.000 C 
BRANCH  19  20
ATOM     20  C   UNL     1       1.717 -35.555  27.586  1.00  0.00     0.006 C 
BRANCH  20  21
ATOM     21  C   UNL     1       2.125 -34.650  28.758  1.00  0.00     0.053 C 
BRANCH  21  22
ATOM     22  C   UNL     1       0.940 -34.218  29.568  1.00  0.00     0.041 C 
ATOM     23  O   UNL     1      -0.219 -34.263  29.073  1.00  0.00    -0.550 OA
ATOM     24  O   UNL     1       1.111 -33.800  30.881  1.00  0.00    -0.550 OA
ENDBRANCH  21  22
ENDBRANCH  20  21
ENDBRANCH  19  20
ENDBRANCH  18  19
ENDBRANCH  17  18
ENDBRANCH  16  17
ENDBRANCH  15  16
ENDBRANCH  14  15
ENDBRANCH  13  14
ENDBRANCH   1  13
TORSDOF 20
ENDMDL
MODEL 4
REMARK VINA RESULT:     4.280      3.513      9.854
REMARK INTER + INTRA:           7.833
REMARK INTER:                   8.358
REMARK INTRA:                  -0.524
REMARK UNBOUND:                -1.451
REMARK SMILES CCCCCCCCCCCCCCCCCCCCCC(=O)[O-]
REMARK SMILES IDX 12 1 11 2 10 3 9 4 8 5 7 6 6 7 5 8 4 9 3 10 2 11 1 12 13 13
REMARK SMILES IDX 14 14 15 15 16 16 17 17 18 18 19 19 20 20 21 21 22 22 23 23
REMARK SMILES IDX 24 24
REMARK H PARENT
REMARK Flexibility Score: inf
ROOT
ATOM      1  C   UNL     1       3.545 -38.169  21.416  1.00  0.00     0.000 C 
ENDROOT
BRANCH   1   2
ATOM      2  C   UNL     1       4.887 -38.918  21.467  1.00  0.00     0.000 C 
BRANCH   2   3
ATOM      3  C   UNL     1       5.124 -39.621  22.816  1.00  0.00     0.000 C 
BRANCH   3   4
ATOM      4  C   UNL     1       4.266 -39.033  23.948  1.00  0.00    -0.000 C 
BRANCH   4   5
ATOM      5  C   UNL     1       5.110 -38.343  25.031  1.00  0.00    -0.000 C 
BRANCH   5   6
ATOM      6  C   UNL     1       4.841 -36.833  25.061  1.00  0.00    -0.000 C 
BRANCH   6   7
ATOM      7  C   UNL     1       4.018 -36.446  26.298  1.00  0.00    -0.000 C 
BRANCH   7   8
ATOM      8  C   UNL     1       3.283 -37.645  26.924  1.00  0.00    -0.000 C 
BRANCH   8   9
ATOM      9  C   UNL     1       1.980 -37.292  27.669  1.00  0.00    -0.000 C 
BRANCH   9  10
ATOM     10  C   UNL     1       1.567 -35.808  27.603  1.00  0.00    -0.000 C 
BRANCH  10  11
ATOM     11  C   UNL     1       1.924 -34.981  28.851  1.00  0.00    -0.003 C 
ATOM     12  C   UNL     1       0.774 -34.091  29.324  1.00  0.00     0.004 C 
ENDBRANCH  10  11
ENDBRANCH   9  10
ENDBRANCH   8   9
ENDBRANCH   7   8
ENDBRANCH   6   7
ENDBRANCH   5   6
ENDBRANCH   4   5
ENDBRANCH   3   4
ENDBRANCH   2   3
ENDBRANCH   1   2
BRANCH   1  13
ATOM     13  C   UNL     1       3.716 -36.643  21.514  1.00  0.00     0.000 C 
BRANCH  13  14
ATOM     14  C   UNL     1       5.124 -36.180  21.107  1.00  0.00     0.000 C 
BRANCH  14  15
ATOM     15  C   UNL     1       5.100 -35.119  19.996  1.00  0.00     0.000 C 
BRANCH  15  16
ATOM     16  C   UNL     1       5.003 -35.777  18.612  1.00  0.00     0.000 C 
BRANCH  16  17
ATOM     17  C   UNL     1       3.639 -35.553  17.940  1.00  0.00     0.000 C 
BRANCH  17  18
ATOM     18  C   UNL     1       3.702 -35.697  16.409  1.00  0.00     0.000 C 
BRANCH  18  19
ATOM     19  C   UNL     1       2.310 -35.649  15.757  1.00  0.00     0.000 C 
BRANCH  19  20
ATOM     20  C   UNL     1       1.386 -36.779  16.249  1.00  0.00     0.006 C 
BRANCH  20  21
ATOM     21  C   UNL     1       1.992 -37.550  17.432  1.00  0.00     0.053 C 
BRANCH  21  22
ATOM     22  C   UNL     1       0.987 -37.784  18.519  1.00  0.00     0.041 C 
ATOM     23  O   UNL     1       1.007 -37.081  19.565  1.00  0.00    -0.550 OA
ATOM     24  O   UNL     1       0.006 -38.754  18.361  1.00  0.00    -0.550 OA
ENDBRANCH  21  22
ENDBRANCH  20  21
ENDBRANCH  19  20
ENDBRANCH  18  19
ENDBRANCH  17  18
ENDBRANCH  16  17
ENDBRANCH  15  16
ENDBRANCH  14  15
ENDBRANCH  13  14
ENDBRANCH   1  13
TORSDOF 20
ENDMDL
MODEL 5
REMARK VINA RESULT:     4.310      4.885     11.161
REMARK INTER + INTRA:           7.898
REMARK INTER:                   5.581
REMARK INTRA:                   2.317
REMARK UNBOUND:                -1.451
REMARK SMILES CCCCCCCCCCCCCCCCCCCCCC(=O)[O-]
REMARK SMILES IDX 12 1 11 2 10 3 9 4 8 5 7 6 6 7 5 8 4 9 3 10 2 11 1 12 13 13
REMARK SMILES IDX 14 14 15 15 16 16 17 17 18 18 19 19 20 20 21 21 22 22 23 23
REMARK SMILES IDX 24 24
REMARK H PARENT
REMARK Flexibility Score: inf
ROOT
ATOM      1  C   UNL     1       5.124 -37.030  23.048  1.00  0.00     0.000 C 
ENDROOT
BRANCH   1   2
ATOM      2  C   UNL     1       5.069 -35.517  22.782  1.00  0.00     0.000 C 
BRANCH   2   3
ATOM      3  C   UNL     1       5.012 -34.687  24.078  1.00  0.00     0.000 C 
BRANCH   3   4
ATOM      4  C   UNL     1       5.107 -35.558  25.342  1.00  0.00    -0.000 C 
BRANCH   4   5
ATOM      5  C   UNL     1       5.113 -37.061  25.023  1.00  0.00    -0.000 C 
BRANCH   5   6
ATOM      6  C   UNL     1       4.063 -37.805  25.858  1.00  0.00    -0.000 C 
BRANCH   6   7
ATOM      7  C   UNL     1       3.533 -36.916  26.992  1.00  0.00    -0.000 C 
BRANCH   7   8
ATOM      8  C   UNL     1       2.114 -37.308  27.443  1.00  0.00    -0.000 C 
BRANCH   8   9
ATOM      9  C   UNL     1       1.246 -36.139  27.951  1.00  0.00    -0.000 C 
BRANCH   9  10
ATOM     10  C   UNL     1       2.020 -34.999  28.645  1.00  0.00    -0.000 C 
BRANCH  10  11
ATOM     11  C   UNL     1       1.137 -33.947  29.338  1.00  0.00    -0.003 C 
ATOM     12  C   UNL     1       1.303 -33.939  30.858  1.00  0.00     0.004 C 
ENDBRANCH  10  11
ENDBRANCH   9  10
ENDBRANCH   8   9
ENDBRANCH   7   8
ENDBRANCH   6   7
ENDBRANCH   5   6
ENDBRANCH   4   5
ENDBRANCH   3   4
ENDBRANCH   2   3
ENDBRANCH   1   2
BRANCH   1  13
ATOM     13  C   UNL     1       4.722 -37.861  21.817  1.00  0.00     0.000 C 
BRANCH  13  14
ATOM     14  C   UNL     1       4.997 -37.127  20.495  1.00  0.00     0.000 C 
BRANCH  14  15
ATOM     15  C   UNL     1       4.277 -37.771  19.300  1.00  0.00     0.000 C 
BRANCH  15  16
ATOM     16  C   UNL     1       3.374 -36.751  18.591  1.00  0.00     0.000 C 
BRANCH  16  17
ATOM     17  C   UNL     1       2.051 -37.363  18.103  1.00  0.00     0.000 C 
BRANCH  17  18
ATOM     18  C   UNL     1       1.817 -37.147  16.598  1.00  0.00     0.000 C 
BRANCH  18  19
ATOM     19  C   UNL     1       2.249 -35.747  16.131  1.00  0.00     0.000 C 
BRANCH  19  20
ATOM     20  C   UNL     1       2.211 -35.597  14.598  1.00  0.00     0.006 C 
BRANCH  20  21
ATOM     21  C   UNL     1       2.593 -36.899  13.878  1.00  0.00     0.053 C 
BRANCH  21  22
ATOM     22  C   UNL     1       3.947 -37.390  14.293  1.00  0.00     0.041 C 
ATOM     23  O   UNL     1       4.110 -38.593  14.635  1.00  0.00    -0.550 OA
ATOM     24  O   UNL     1       5.036 -36.529  14.267  1.00  0.00    -0.550 OA
ENDBRANCH  21  22
ENDBRANCH  20  21
ENDBRANCH  19  20
ENDBRANCH  18  19
ENDBRANCH  17  18
ENDBRANCH  16  17
ENDBRANCH  15  16
ENDBRANCH  14  15
ENDBRANCH  13  14
ENDBRANCH   1  13
TORSDOF 20
ENDMDL
MODEL 6
REMARK VINA RESULT:     4.351      1.969      3.164
REMARK INTER + INTRA:           7.988
REMARK INTER:                   7.734
REMARK INTRA:                   0.254
REMARK UNBOUND:                -1.451
REMARK SMILES CCCCCCCCCCCCCCCCCCCCCC(=O)[O-]
REMARK SMILES IDX 12 1 11 2 10 3 9 4 8 5 7 6 6 7 5 8 4 9 3 10 2 11 1 12 13 13
REMARK SMILES IDX 14 14 15 15 16 16 17 17 18 18 19 19 20 20 21 21 22 22 23 23
REMARK SMILES IDX 24 24
REMARK H PARENT
REMARK Flexibility Score: inf
ROOT
ATOM      1  C   UNL     1       4.025 -34.779  22.563  1.00  0.00     0.000 C 
ENDROOT
BRANCH   1   2
ATOM      2  C   UNL     1       3.920 -34.234  21.130  1.00  0.00     0.000 C 
BRANCH   2   3
ATOM      3  C   UNL     1       4.945 -34.874  20.174  1.00  0.00     0.000 C 
BRANCH   3   4
ATOM      4  C   UNL     1       4.814 -34.354  18.733  1.00  0.00    -0.000 C 
BRANCH   4   5
ATOM      5  C   UNL     1       4.103 -35.354  17.808  1.00  0.00    -0.000 C 
BRANCH   5   6
ATOM      6  C   UNL     1       3.771 -36.653  18.553  1.00  0.00    -0.000 C 
BRANCH   6   7
ATOM      7  C   UNL     1       2.765 -37.500  17.759  1.00  0.00    -0.000 C 
BRANCH   7   8
ATOM      8  C   UNL     1       1.673 -36.651  17.083  1.00  0.00    -0.000 C 
BRANCH   8   9
ATOM      9  C   UNL     1       1.746 -36.601  15.544  1.00  0.00    -0.000 C 
BRANCH   9  10
ATOM     10  C   UNL     1       2.922 -35.787  14.968  1.00  0.00    -0.000 C 
BRANCH  10  11
ATOM     11  C   UNL     1       4.139 -36.625  14.535  1.00  0.00    -0.003 C 
ATOM     12  C   UNL     1       3.937 -38.124  14.754  1.00  0.00     0.004 C 
ENDBRANCH  10  11
ENDBRANCH   9  10
ENDBRANCH   8   9
ENDBRANCH   7   8
ENDBRANCH   6   7
ENDBRANCH   5   6
ENDBRANCH   4   5
ENDBRANCH   3   4
ENDBRANCH   2   3
ENDBRANCH   1   2
BRANCH   1  13
ATOM     13  C   UNL     1       3.811 -36.300  22.636  1.00  0.00     0.000 C 
BRANCH  13  14
ATOM     14  C   UNL     1       5.124 -37.087  22.492  1.00  0.00     0.000 C 
BRANCH  14  15
ATOM     15  C   UNL     1       4.974 -38.331  21.602  1.00  0.00     0.000 C 
BRANCH  15  16
ATOM     16  C   UNL     1       5.121 -39.617  22.428  1.00  0.00     0.000 C 
BRANCH  16  17
ATOM     17  C   UNL     1       3.889 -39.911  23.299  1.00  0.00     0.000 C 
BRANCH  17  18
ATOM     18  C   UNL     1       4.074 -39.460  24.759  1.00  0.00     0.000 C 
BRANCH  18  19
ATOM     19  C   UNL     1       5.079 -38.304  24.894  1.00  0.00     0.000 C 
BRANCH  19  20
ATOM     20  C   UNL     1       4.978 -37.589  26.255  1.00  0.00     0.006 C 
BRANCH  20  21
ATOM     21  C   UNL     1       3.906 -36.489  26.254  1.00  0.00     0.053 C 
BRANCH  21  22
ATOM     22  C   UNL     1       2.677 -36.907  27.003  1.00  0.00     0.041 C 
ATOM     23  O   UNL     1       2.217 -36.180  27.925  1.00  0.00    -0.550 OA
ATOM     24  O   UNL     1       2.020 -38.080  26.659  1.00  0.00    -0.550 OA
ENDBRANCH  21  22
ENDBRANCH  20  21
ENDBRANCH  19  20
ENDBRANCH  18  19
ENDBRANCH  17  18
ENDBRANCH  16  17
ENDBRANCH  15  16
ENDBRANCH  14  15
ENDBRANCH  13  14
ENDBRANCH   1  13
TORSDOF 20
ENDMDL
MODEL 7
REMARK VINA RESULT:     4.995      3.494     10.083
REMARK INTER + INTRA:           9.384
REMARK INTER:                   8.744
REMARK INTRA:                   0.640
REMARK UNBOUND:                -1.451
REMARK SMILES CCCCCCCCCCCCCCCCCCCCCC(=O)[O-]
REMARK SMILES IDX 12 1 11 2 10 3 9 4 8 5 7 6 6 7 5 8 4 9 3 10 2 11 1 12 13 13
REMARK SMILES IDX 14 14 15 15 16 16 17 17 18 18 19 19 20 20 21 21 22 22 23 23
REMARK SMILES IDX 24 24
REMARK H PARENT
REMARK Flexibility Score: inf
ROOT
ATOM      1  C   UNL     1       4.076 -36.413  21.079  1.00  0.00     0.000 C 
ENDROOT
BRANCH   1   2
ATOM      2  C   UNL     1       3.830 -34.945  21.464  1.00  0.00     0.000 C 
BRANCH   2   3
ATOM      3  C   UNL     1       4.933 -34.376  22.376  1.00  0.00     0.000 C 
BRANCH   3   4
ATOM      4  C   UNL     1       5.124 -35.203  23.657  1.00  0.00    -0.000 C 
BRANCH   4   5
ATOM      5  C   UNL     1       4.987 -36.713  23.411  1.00  0.00    -0.000 C 
BRANCH   5   6
ATOM      6  C   UNL     1       5.125 -37.499  24.721  1.00  0.00    -0.000 C 
BRANCH   6   7
ATOM      7  C   UNL     1       4.282 -36.863  25.835  1.00  0.00    -0.000 C 
BRANCH   7   8
ATOM      8  C   UNL     1       3.273 -37.846  26.456  1.00  0.00    -0.000 C 
BRANCH   8   9
ATOM      9  C   UNL     1       2.135 -37.188  27.262  1.00  0.00    -0.000 C 
BRANCH   9  10
ATOM     10  C   UNL     1       2.482 -35.827  27.898  1.00  0.00    -0.000 C 
BRANCH  10  11
ATOM     11  C   UNL     1       1.285 -35.071  28.501  1.00  0.00    -0.003 C 
ATOM     12  C   UNL     1       1.674 -34.192  29.690  1.00  0.00     0.004 C 
ENDBRANCH  10  11
ENDBRANCH   9  10
ENDBRANCH   8   9
ENDBRANCH   7   8
ENDBRANCH   6   7
ENDBRANCH   5   6
ENDBRANCH   4   5
ENDBRANCH   3   4
ENDBRANCH   2   3
ENDBRANCH   1   2
BRANCH   1  13
ATOM     13  C   UNL     1       4.311 -36.597  19.570  1.00  0.00     0.000 C 
BRANCH  13  14
ATOM     14  C   UNL     1       4.520 -35.261  18.838  1.00  0.00     0.000 C 
BRANCH  14  15
ATOM     15  C   UNL     1       4.274 -35.370  17.326  1.00  0.00     0.000 C 
BRANCH  15  16
ATOM     16  C   UNL     1       4.027 -36.829  16.915  1.00  0.00     0.000 C 
BRANCH  16  17
ATOM     17  C   UNL     1       3.865 -37.002  15.396  1.00  0.00     0.000 C 
BRANCH  17  18
ATOM     18  C   UNL     1       2.918 -35.960  14.778  1.00  0.00     0.000 C 
BRANCH  18  19
ATOM     19  C   UNL     1       1.479 -36.088  15.304  1.00  0.00     0.000 C 
BRANCH  19  20
ATOM     20  C   UNL     1       1.342 -37.169  16.394  1.00  0.00     0.006 C 
BRANCH  20  21
ATOM     21  C   UNL     1       0.803 -36.598  17.714  1.00  0.00     0.053 C 
BRANCH  21  22
ATOM     22  C   UNL     1       0.665 -37.656  18.765  1.00  0.00     0.041 C 
ATOM     23  O   UNL     1       1.002 -37.418  19.957  1.00  0.00    -0.550 OA
ATOM     24  O   UNL     1       0.131 -38.896  18.437  1.00  0.00    -0.550 OA
ENDBRANCH  21  22
ENDBRANCH  20  21
ENDBRANCH  19  20
ENDBRANCH  18  19
ENDBRANCH  17  18
ENDBRANCH  16  17
ENDBRANCH  15  16
ENDBRANCH  14  15
ENDBRANCH  13  14
ENDBRANCH   1  13
TORSDOF 20
ENDMDL
MODEL 8
REMARK VINA RESULT:     5.010      4.458      5.808
REMARK INTER + INTRA:           9.416
REMARK INTER:                   8.801
REMARK INTRA:                   0.615
REMARK UNBOUND:                -1.451
REMARK SMILES CCCCCCCCCCCCCCCCCCCCCC(=O)[O-]
REMARK SMILES IDX 12 1 11 2 10 3 9 4 8 5 7 6 6 7 5 8 4 9 3 10 2 11 1 12 13 13
REMARK SMILES IDX 14 14 15 15 16 16 17 17 18 18 19 19 20 20 21 21 22 22 23 23
REMARK SMILES IDX 24 24
REMARK H PARENT
REMARK Flexibility Score: inf
ROOT
ATOM      1  C   UNL     1       3.830 -34.870  23.406  1.00  0.00     0.000 C 
ENDROOT
BRANCH   1   2
ATOM      2  C   UNL     1       4.128 -33.515  22.743  1.00  0.00     0.000 C 
BRANCH   2   3
ATOM      3  C   UNL     1       3.760 -33.491  21.248  1.00  0.00     0.000 C 
BRANCH   3   4
ATOM      4  C   UNL     1       4.681 -34.381  20.398  1.00  0.00    -0.000 C 
BRANCH   4   5
ATOM      5  C   UNL     1       5.122 -33.698  19.094  1.00  0.00    -0.000 C 
BRANCH   5   6
ATOM      6  C   UNL     1       5.101 -34.687  17.922  1.00  0.00    -0.000 C 
BRANCH   6   7
ATOM      7  C   UNL     1       3.661 -35.048  17.533  1.00  0.00    -0.000 C 
BRANCH   7   8
ATOM      8  C   UNL     1       3.565 -35.710  16.146  1.00  0.00    -0.000 C 
BRANCH   8   9
ATOM      9  C   UNL     1       3.101 -37.180  16.157  1.00  0.00    -0.000 C 
BRANCH   9  10
ATOM     10  C   UNL     1       3.079 -37.872  14.779  1.00  0.00    -0.000 C 
BRANCH  10  11
ATOM     11  C   UNL     1       4.410 -37.825  14.010  1.00  0.00    -0.003 C 
ATOM     12  C   UNL     1       5.098 -39.188  13.925  1.00  0.00     0.004 C 
ENDBRANCH  10  11
ENDBRANCH   9  10
ENDBRANCH   8   9
ENDBRANCH   7   8
ENDBRANCH   6   7
ENDBRANCH   5   6
ENDBRANCH   4   5
ENDBRANCH   3   4
ENDBRANCH   2   3
ENDBRANCH   1   2
BRANCH   1  13
ATOM     13  C   UNL     1       5.103 -35.581  23.896  1.00  0.00     0.000 C 
BRANCH  13  14
ATOM     14  C   UNL     1       5.124 -37.073  23.524  1.00  0.00     0.000 C 
BRANCH  14  15
ATOM     15  C   UNL     1       5.095 -37.991  24.756  1.00  0.00     0.000 C 
BRANCH  15  16
ATOM     16  C   UNL     1       4.990 -39.465  24.339  1.00  0.00     0.000 C 
BRANCH  16  17
ATOM     17  C   UNL     1       4.147 -39.668  23.070  1.00  0.00     0.000 C 
BRANCH  17  18
ATOM     18  C   UNL     1       4.908 -39.295  21.787  1.00  0.00     0.000 C 
BRANCH  18  19
ATOM     19  C   UNL     1       4.608 -37.860  21.322  1.00  0.00     0.000 C 
BRANCH  19  20
ATOM     20  C   UNL     1       4.038 -37.808  19.892  1.00  0.00     0.006 C 
BRANCH  20  21
ATOM     21  C   UNL     1       2.743 -36.987  19.813  1.00  0.00     0.053 C 
BRANCH  21  22
ATOM     22  C   UNL     1       1.633 -37.758  19.165  1.00  0.00     0.041 C 
ATOM     23  O   UNL     1       1.568 -39.010  19.294  1.00  0.00    -0.550 OA
ATOM     24  O   UNL     1       0.649 -37.088  18.448  1.00  0.00    -0.550 OA
ENDBRANCH  21  22
ENDBRANCH  20  21
ENDBRANCH  19  20
ENDBRANCH  18  19
ENDBRANCH  17  18
ENDBRANCH  16  17
ENDBRANCH  15  16
ENDBRANCH  14  15
ENDBRANCH  13  14
ENDBRANCH   1  13
TORSDOF 20
ENDMDL
