MODEL 1
REMARK VINA RESULT:    -5.629      0.000      0.000
REMARK INTER + INTRA:          -8.962
REMARK INTER:                  -7.768
REMARK INTRA:                  -1.195
REMARK UNBOUND:                -1.195
REMARK SMILES O=C([O-])[C@H]1O[C@@H](Oc2cc3oc(-c4ccccc4)cc(=O)c3c(O)c2O)[C@@H](O)[C@@H](O)[C@H]1O
REMARK SMILES IDX 7 1 6 2 4 3 31 4 5 5 29 6 27 7 2 8 1 9 3 10 32 11 30 13
REMARK SMILES IDX 28 15 8 17 25 18 9 19 23 20 10 21 22 22 11 23 20 24 12 25
REMARK SMILES IDX 19 26 21 27 26 28 24 30 13 32 14 33 18 34 15 35 17 36 16 37
REMARK H PARENT 32 12 30 14 28 16 26 29 24 31
REMARK Flexibility Score: inf
ROOT
ATOM      1  O   UNL     1     117.394  73.466  44.248  1.00  0.00    -0.458 OA
ENDROOT
BRANCH   1   2
ATOM      2  C   UNL     1     116.944  74.818  44.413  1.00  0.00     0.339 C 
ATOM      3  C   UNL     1     115.703  74.368  46.398  1.00  0.00     0.199 C 
ATOM      4  C   UNL     1     114.353  74.579  45.666  1.00  0.00     0.180 C 
ATOM      5  O   UNL     1     116.759  75.110  45.794  1.00  0.00    -0.328 OA
ATOM      6  C   UNL     1     114.474  74.311  44.154  1.00  0.00     0.181 C 
ATOM      7  C   UNL     1     115.663  75.105  43.599  1.00  0.00     0.214 C 
BRANCH   3   8
ATOM      8  C   UNL     1     116.105  72.930  46.654  1.00  0.00     0.073 C 
ATOM      9  O   UNL     1     117.117  72.689  47.363  1.00  0.00    -0.547 OA
ATOM     10  O   UNL     1     115.347  71.866  46.179  1.00  0.00    -0.547 OA
ENDBRANCH   3   8
BRANCH   4  11
ATOM     11  O   UNL     1     113.340  73.796  46.243  1.00  0.00    -0.387 OA
ATOM     12  H   UNL     1     113.365  72.913  45.789  1.00  0.00     0.211 HD
ENDBRANCH   4  11
BRANCH   6  13
ATOM     13  O   UNL     1     114.642  72.941  43.892  1.00  0.00    -0.387 OA
ATOM     14  H   UNL     1     115.528  72.837  43.456  1.00  0.00     0.211 HD
ENDBRANCH   6  13
BRANCH   7  15
ATOM     15  O   UNL     1     115.862  74.800  42.242  1.00  0.00    -0.384 OA
ATOM     16  H   UNL     1     116.836  74.883  42.069  1.00  0.00     0.211 HD
ENDBRANCH   7  15
ENDBRANCH   1   2
BRANCH   1  17
ATOM     17  C   UNL     1     118.724  73.021  44.142  1.00  0.00     0.172 A 
ATOM     18  C   UNL     1     119.445  73.388  42.997  1.00  0.00     0.201 A 
ATOM     19  C   UNL     1     119.336  72.223  45.123  1.00  0.00     0.098 A 
ATOM     20  C   UNL     1     120.790  72.968  42.831  1.00  0.00     0.176 A 
ATOM     21  C   UNL     1     120.656  71.803  44.975  1.00  0.00     0.146 A 
ATOM     22  C   UNL     1     121.399  72.170  43.832  1.00  0.00     0.111 A 
ATOM     23  O   UNL     1     121.203  71.053  45.928  1.00  0.00    -0.456 OA
ATOM     24  C   UNL     1     122.734  71.715  43.750  1.00  0.00     0.197 A 
ATOM     25  C   UNL     1     122.453  70.601  45.876  1.00  0.00     0.138 A 
ATOM     26  C   UNL     1     123.260  70.931  44.777  1.00  0.00     0.100 A 
ATOM     27  O   UNL     1     123.470  72.005  42.770  1.00  0.00    -0.289 OA
BRANCH  18  28
ATOM     28  O   UNL     1     118.785  74.176  42.050  1.00  0.00    -0.502 OA
ATOM     29  H   UNL     1     118.225  73.815  41.292  1.00  0.00     0.293 HD
ENDBRANCH  18  28
BRANCH  20  30
ATOM     30  O   UNL     1     121.531  73.322  41.699  1.00  0.00    -0.504 OA
ATOM     31  H   UNL     1     122.425  73.790  41.720  1.00  0.00     0.293 HD
ENDBRANCH  20  30
BRANCH  25  32
ATOM     32  C   UNL     1     122.958  69.771  47.000  1.00  0.00     0.017 A 
ATOM     33  C   UNL     1     123.653  70.337  48.086  1.00  0.00     0.012 A 
ATOM     34  C   UNL     1     122.767  68.376  46.970  1.00  0.00     0.012 A 
ATOM     35  C   UNL     1     124.125  69.527  49.125  1.00  0.00     0.001 A 
ATOM     36  C   UNL     1     123.240  67.572  48.011  1.00  0.00     0.001 A 
ATOM     37  C   UNL     1     123.916  68.147  49.089  1.00  0.00     0.000 A 
ENDBRANCH  25  32
ENDBRANCH   1  17
TORSDOF 9
ENDMDL
MODEL 2
REMARK VINA RESULT:    -5.314      1.933      8.082
REMARK INTER + INTRA:          -8.528
REMARK INTER:                  -6.896
REMARK INTRA:                  -1.632
REMARK UNBOUND:                -1.195
REMARK SMILES O=C([O-])[C@H]1O[C@@H](Oc2cc3oc(-c4ccccc4)cc(=O)c3c(O)c2O)[C@@H](O)[C@@H](O)[C@H]1O
REMARK SMILES IDX 7 1 6 2 4 3 31 4 5 5 29 6 27 7 2 8 1 9 3 10 32 11 30 13
REMARK SMILES IDX 28 15 8 17 25 18 9 19 23 20 10 21 22 22 11 23 20 24 12 25
REMARK SMILES IDX 19 26 21 27 26 28 24 30 13 32 14 33 18 34 15 35 17 36 16 37
REMARK H PARENT 32 12 30 14 28 16 26 29 24 31
REMARK Flexibility Score: inf
ROOT
ATOM      1  O   UNL     1     120.776  72.104  45.788  1.00  0.00    -0.458 OA
ENDROOT
BRANCH   1   2
ATOM      2  C   UNL     1     122.057  72.695  46.040  1.00  0.00     0.339 C 
ATOM      3  C   UNL     1     123.296  70.825  45.231  1.00  0.00     0.199 C 
ATOM      4  C   UNL     1     123.785  70.465  46.658  1.00  0.00     0.180 C 
ATOM      5  O   UNL     1     123.014  72.216  45.101  1.00  0.00    -0.328 OA
ATOM      6  C   UNL     1     122.817  70.976  47.741  1.00  0.00     0.181 C 
ATOM      7  C   UNL     1     122.528  72.462  47.493  1.00  0.00     0.214 C 
BRANCH   3   8
ATOM      8  C   UNL     1     122.175  69.972  44.675  1.00  0.00     0.073 C 
ATOM      9  O   UNL     1     121.747  70.195  43.512  1.00  0.00    -0.547 OA
ATOM     10  O   UNL     1     121.647  68.905  45.392  1.00  0.00    -0.547 OA
ENDBRANCH   3   8
BRANCH   4  11
ATOM     11  O   UNL     1     124.002  69.083  46.780  1.00  0.00    -0.387 OA
ATOM     12  H   UNL     1     123.161  68.688  47.130  1.00  0.00     0.211 HD
ENDBRANCH   4  11
BRANCH   6  13
ATOM     13  O   UNL     1     121.618  70.243  47.739  1.00  0.00    -0.387 OA
ATOM     14  H   UNL     1     121.035  70.640  48.439  1.00  0.00     0.211 HD
ENDBRANCH   6  13
BRANCH   7  15
ATOM     15  O   UNL     1     121.567  72.930  48.404  1.00  0.00    -0.384 OA
ATOM     16  H   UNL     1     122.001  73.648  48.935  1.00  0.00     0.211 HD
ENDBRANCH   7  15
ENDBRANCH   1   2
BRANCH   1  17
ATOM     17  C   UNL     1     119.640  72.734  45.249  1.00  0.00     0.172 A 
ATOM     18  C   UNL     1     119.736  73.245  43.946  1.00  0.00     0.201 A 
ATOM     19  C   UNL     1     118.441  72.877  45.965  1.00  0.00     0.098 A 
ATOM     20  C   UNL     1     118.625  73.893  43.347  1.00  0.00     0.176 A 
ATOM     21  C   UNL     1     117.341  73.511  45.391  1.00  0.00     0.146 A 
ATOM     22  C   UNL     1     117.417  74.024  44.078  1.00  0.00     0.111 A 
ATOM     23  O   UNL     1     116.221  73.623  46.099  1.00  0.00    -0.456 OA
ATOM     24  C   UNL     1     116.263  74.648  43.555  1.00  0.00     0.197 A 
ATOM     25  C   UNL     1     115.120  74.213  45.640  1.00  0.00     0.138 A 
ATOM     26  C   UNL     1     115.113  74.739  44.340  1.00  0.00     0.100 A 
ATOM     27  O   UNL     1     116.242  75.124  42.389  1.00  0.00    -0.289 OA
BRANCH  18  28
ATOM     28  O   UNL     1     120.955  73.081  43.282  1.00  0.00    -0.502 OA
ATOM     29  H   UNL     1     121.057  72.693  42.356  1.00  0.00     0.293 HD
ENDBRANCH  18  28
BRANCH  20  30
ATOM     30  O   UNL     1     118.694  74.410  42.049  1.00  0.00    -0.504 OA
ATOM     31  H   UNL     1     118.971  73.882  41.234  1.00  0.00     0.293 HD
ENDBRANCH  20  30
BRANCH  25  32
ATOM     32  C   UNL     1     113.926  74.279  46.521  1.00  0.00     0.017 A 
ATOM     33  C   UNL     1     112.784  75.024  46.166  1.00  0.00     0.012 A 
ATOM     34  C   UNL     1     113.940  73.607  47.758  1.00  0.00     0.012 A 
ATOM     35  C   UNL     1     111.679  75.075  47.023  1.00  0.00     0.001 A 
ATOM     36  C   UNL     1     112.833  73.661  48.608  1.00  0.00     0.001 A 
ATOM     37  C   UNL     1     111.701  74.392  48.240  1.00  0.00     0.000 A 
ENDBRANCH  25  32
ENDBRANCH   1  17
TORSDOF 9
ENDMDL
MODEL 3
REMARK VINA RESULT:    -5.181      2.649      5.269
REMARK INTER + INTRA:          -8.345
REMARK INTER:                  -7.585
REMARK INTRA:                  -0.760
REMARK UNBOUND:                -1.195
REMARK SMILES O=C([O-])[C@H]1O[C@@H](Oc2cc3oc(-c4ccccc4)cc(=O)c3c(O)c2O)[C@@H](O)[C@@H](O)[C@H]1O
REMARK SMILES IDX 7 1 6 2 4 3 31 4 5 5 29 6 27 7 2 8 1 9 3 10 32 11 30 13
REMARK SMILES IDX 28 15 8 17 25 18 9 19 23 20 10 21 22 22 11 23 20 24 12 25
REMARK SMILES IDX 19 26 21 27 26 28 24 30 13 32 14 33 18 34 15 35 17 36 16 37
REMARK H PARENT 32 12 30 14 28 16 26 29 24 31
REMARK Flexibility Score: inf
ROOT
ATOM      1  O   UNL     1     120.910  73.242  44.638  1.00  0.00    -0.458 OA
ENDROOT
BRANCH   1   2
ATOM      2  C   UNL     1     121.652  73.950  43.635  1.00  0.00     0.339 C 
ATOM      3  C   UNL     1     119.719  74.795  42.524  1.00  0.00     0.199 C 
ATOM      4  C   UNL     1     119.964  73.885  41.293  1.00  0.00     0.180 C 
ATOM      5  O   UNL     1     120.930  75.100  43.209  1.00  0.00    -0.328 OA
ATOM      6  C   UNL     1     120.768  72.625  41.662  1.00  0.00     0.181 C 
ATOM      7  C   UNL     1     122.023  73.043  42.441  1.00  0.00     0.214 C 
BRANCH   3   8
ATOM      8  C   UNL     1     118.634  74.345  43.480  1.00  0.00     0.073 C 
ATOM      9  O   UNL     1     118.411  75.016  44.522  1.00  0.00    -0.547 OA
ATOM     10  O   UNL     1     117.831  73.244  43.205  1.00  0.00    -0.547 OA
ENDBRANCH   3   8
BRANCH   4  11
ATOM     11  O   UNL     1     118.752  73.550  40.666  1.00  0.00    -0.387 OA
ATOM     12  H   UNL     1     118.367  72.789  41.174  1.00  0.00     0.211 HD
ENDBRANCH   4  11
BRANCH   6  13
ATOM     13  O   UNL     1     119.997  71.735  42.430  1.00  0.00    -0.387 OA
ATOM     14  H   UNL     1     119.971  72.098  43.354  1.00  0.00     0.211 HD
ENDBRANCH   6  13
BRANCH   7  15
ATOM     15  O   UNL     1     122.723  71.908  42.882  1.00  0.00    -0.384 OA
ATOM     16  H   UNL     1     122.132  71.438  43.526  1.00  0.00     0.211 HD
ENDBRANCH   7  15
ENDBRANCH   1   2
BRANCH   1  17
ATOM     17  C   UNL     1     121.407  72.299  45.556  1.00  0.00     0.172 A 
ATOM     18  C   UNL     1     122.494  72.680  46.356  1.00  0.00     0.201 A 
ATOM     19  C   UNL     1     120.867  71.009  45.684  1.00  0.00     0.098 A 
ATOM     20  C   UNL     1     123.042  71.773  47.300  1.00  0.00     0.176 A 
ATOM     21  C   UNL     1     121.394  70.107  46.606  1.00  0.00     0.146 A 
ATOM     22  C   UNL     1     122.483  70.476  47.425  1.00  0.00     0.111 A 
ATOM     23  O   UNL     1     120.853  68.896  46.702  1.00  0.00    -0.456 OA
ATOM     24  C   UNL     1     122.962  69.515  48.342  1.00  0.00     0.197 A 
ATOM     25  C   UNL     1     121.286  67.966  47.548  1.00  0.00     0.138 A 
ATOM     26  C   UNL     1     122.358  68.259  48.404  1.00  0.00     0.100 A 
ATOM     27  O   UNL     1     123.923  69.765  49.118  1.00  0.00    -0.289 OA
BRANCH  18  28
ATOM     28  O   UNL     1     122.996  73.973  46.182  1.00  0.00    -0.502 OA
ATOM     29  H   UNL     1     122.654  74.634  45.501  1.00  0.00     0.293 HD
ENDBRANCH  18  28
BRANCH  20  30
ATOM     30  O   UNL     1     124.125  72.129  48.111  1.00  0.00    -0.504 OA
ATOM     31  H   UNL     1     124.112  72.131  49.120  1.00  0.00     0.293 HD
ENDBRANCH  20  30
BRANCH  25  32
ATOM     32  C   UNL     1     120.603  66.646  47.568  1.00  0.00     0.017 A 
ATOM     33  C   UNL     1     119.751  66.237  46.524  1.00  0.00     0.012 A 
ATOM     34  C   UNL     1     120.784  65.790  48.671  1.00  0.00     0.012 A 
ATOM     35  C   UNL     1     119.115  64.991  46.577  1.00  0.00     0.001 A 
ATOM     36  C   UNL     1     120.147  64.548  48.718  1.00  0.00     0.001 A 
ATOM     37  C   UNL     1     119.314  64.147  47.670  1.00  0.00     0.000 A 
ENDBRANCH  25  32
ENDBRANCH   1  17
TORSDOF 9
ENDMDL
MODEL 4
REMARK VINA RESULT:    -4.949      1.973      8.063
REMARK INTER + INTRA:          -8.025
REMARK INTER:                  -6.477
REMARK INTRA:                  -1.548
REMARK UNBOUND:                -1.195
REMARK SMILES O=C([O-])[C@H]1O[C@@H](Oc2cc3oc(-c4ccccc4)cc(=O)c3c(O)c2O)[C@@H](O)[C@@H](O)[C@H]1O
REMARK SMILES IDX 7 1 6 2 4 3 31 4 5 5 29 6 27 7 2 8 1 9 3 10 32 11 30 13
REMARK SMILES IDX 28 15 8 17 25 18 9 19 23 20 10 21 22 22 11 23 20 24 12 25
REMARK SMILES IDX 19 26 21 27 26 28 24 30 13 32 14 33 18 34 15 35 17 36 16 37
REMARK H PARENT 32 12 30 14 28 16 26 29 24 31
REMARK Flexibility Score: inf
ROOT
ATOM      1  O   UNL     1     120.734  72.164  45.646  1.00  0.00    -0.458 OA
ENDROOT
BRANCH   1   2
ATOM      2  C   UNL     1     121.588  72.592  46.715  1.00  0.00     0.339 C 
ATOM      3  C   UNL     1     123.542  71.551  45.831  1.00  0.00     0.199 C 
ATOM      4  C   UNL     1     123.557  70.495  46.966  1.00  0.00     0.180 C 
ATOM      5  O   UNL     1     122.919  72.765  46.241  1.00  0.00    -0.328 OA
ATOM      6  C   UNL     1     122.153  70.269  47.556  1.00  0.00     0.181 C 
ATOM      7  C   UNL     1     121.538  71.627  47.919  1.00  0.00     0.214 C 
BRANCH   3   8
ATOM      8  C   UNL     1     123.020  71.081  44.489  1.00  0.00     0.073 C 
ATOM      9  O   UNL     1     123.017  71.877  43.514  1.00  0.00    -0.547 OA
ATOM     10  O   UNL     1     122.603  69.770  44.289  1.00  0.00    -0.547 OA
ENDBRANCH   3   8
BRANCH   4  11
ATOM     11  O   UNL     1     124.124  69.289  46.522  1.00  0.00    -0.387 OA
ATOM     12  H   UNL     1     123.385  68.747  46.140  1.00  0.00     0.211 HD
ENDBRANCH   4  11
BRANCH   6  13
ATOM     13  O   UNL     1     121.323  69.589  46.649  1.00  0.00    -0.387 OA
ATOM     14  H   UNL     1     121.893  69.318  45.883  1.00  0.00     0.211 HD
ENDBRANCH   6  13
BRANCH   7  15
ATOM     15  O   UNL     1     120.217  71.460  48.364  1.00  0.00    -0.384 OA
ATOM     16  H   UNL     1     120.031  70.485  48.353  1.00  0.00     0.211 HD
ENDBRANCH   7  15
ENDBRANCH   1   2
BRANCH   1  17
ATOM     17  C   UNL     1     119.531  72.761  45.227  1.00  0.00     0.172 A 
ATOM     18  C   UNL     1     119.485  73.290  43.929  1.00  0.00     0.201 A 
ATOM     19  C   UNL     1     118.402  72.854  46.057  1.00  0.00     0.098 A 
ATOM     20  C   UNL     1     118.301  73.908  43.449  1.00  0.00     0.176 A 
ATOM     21  C   UNL     1     117.233  73.457  45.600  1.00  0.00     0.146 A 
ATOM     22  C   UNL     1     117.166  73.989  44.293  1.00  0.00     0.111 A 
ATOM     23  O   UNL     1     116.182  73.522  46.413  1.00  0.00    -0.456 OA
ATOM     24  C   UNL     1     115.947  74.579  43.893  1.00  0.00     0.197 A 
ATOM     25  C   UNL     1     115.024  74.080  46.070  1.00  0.00     0.138 A 
ATOM     26  C   UNL     1     114.875  74.621  44.784  1.00  0.00     0.100 A 
ATOM     27  O   UNL     1     115.798  75.068  42.741  1.00  0.00    -0.289 OA
BRANCH  18  28
ATOM     28  O   UNL     1     120.639  73.176  43.150  1.00  0.00    -0.502 OA
ATOM     29  H   UNL     1     121.579  73.145  43.516  1.00  0.00     0.293 HD
ENDBRANCH  18  28
BRANCH  20  30
ATOM     30  O   UNL     1     118.229  74.442  42.158  1.00  0.00    -0.504 OA
ATOM     31  H   UNL     1     119.008  74.845  41.658  1.00  0.00     0.293 HD
ENDBRANCH  20  30
BRANCH  25  32
ATOM     32  C   UNL     1     113.918  74.095  47.062  1.00  0.00     0.017 A 
ATOM     33  C   UNL     1     113.815  73.118  48.072  1.00  0.00     0.012 A 
ATOM     34  C   UNL     1     112.926  75.090  46.977  1.00  0.00     0.012 A 
ATOM     35  C   UNL     1     112.756  73.154  48.985  1.00  0.00     0.001 A 
ATOM     36  C   UNL     1     111.871  75.121  47.893  1.00  0.00     0.001 A 
ATOM     37  C   UNL     1     111.787  74.155  48.898  1.00  0.00     0.000 A 
ENDBRANCH  25  32
ENDBRANCH   1  17
TORSDOF 9
ENDMDL
MODEL 5
REMARK VINA RESULT:    -4.645      1.662      2.792
REMARK INTER + INTRA:          -7.604
REMARK INTER:                  -6.335
REMARK INTRA:                  -1.269
REMARK UNBOUND:                -1.195
REMARK SMILES O=C([O-])[C@H]1O[C@@H](Oc2cc3oc(-c4ccccc4)cc(=O)c3c(O)c2O)[C@@H](O)[C@@H](O)[C@H]1O
REMARK SMILES IDX 7 1 6 2 4 3 31 4 5 5 29 6 27 7 2 8 1 9 3 10 32 11 30 13
REMARK SMILES IDX 28 15 8 17 25 18 9 19 23 20 10 21 22 22 11 23 20 24 12 25
REMARK SMILES IDX 19 26 21 27 26 28 24 30 13 32 14 33 18 34 15 35 17 36 16 37
REMARK H PARENT 32 12 30 14 28 16 26 29 24 31
REMARK Flexibility Score: inf
ROOT
ATOM      1  O   UNL     1     115.265  73.699  45.840  1.00  0.00    -0.458 OA
ENDROOT
BRANCH   1   2
ATOM      2  C   UNL     1     114.764  74.960  46.303  1.00  0.00     0.339 C 
ATOM      3  C   UNL     1     114.360  74.204  48.527  1.00  0.00     0.199 C 
ATOM      4  C   UNL     1     112.823  74.279  48.330  1.00  0.00     0.180 C 
ATOM      5  O   UNL     1     115.050  75.125  47.688  1.00  0.00    -0.328 OA
ATOM      6  C   UNL     1     112.429  74.138  46.849  1.00  0.00     0.181 C 
ATOM      7  C   UNL     1     113.255  75.125  46.014  1.00  0.00     0.214 C 
BRANCH   3   8
ATOM      8  C   UNL     1     114.973  72.821  48.464  1.00  0.00     0.073 C 
ATOM      9  O   UNL     1     116.222  72.693  48.566  1.00  0.00    -0.547 OA
ATOM     10  O   UNL     1     114.188  71.679  48.359  1.00  0.00    -0.547 OA
ENDBRANCH   3   8
BRANCH   4  11
ATOM     11  O   UNL     1     112.168  73.324  49.125  1.00  0.00    -0.387 OA
ATOM     12  H   UNL     1     112.605  72.451  48.946  1.00  0.00     0.211 HD
ENDBRANCH   4  11
BRANCH   6  13
ATOM     13  O   UNL     1     112.635  72.826  46.389  1.00  0.00    -0.387 OA
ATOM     14  H   UNL     1     113.215  72.374  47.056  1.00  0.00     0.211 HD
ENDBRANCH   6  13
BRANCH   7  15
ATOM     15  O   UNL     1     112.992  74.947  44.646  1.00  0.00    -0.384 OA
ATOM     16  H   UNL     1     112.372  75.675  44.377  1.00  0.00     0.211 HD
ENDBRANCH   7  15
ENDBRANCH   1   2
BRANCH   1  17
ATOM     17  C   UNL     1     116.454  73.467  45.124  1.00  0.00     0.172 A 
ATOM     18  C   UNL     1     116.518  73.928  43.802  1.00  0.00     0.201 A 
ATOM     19  C   UNL     1     117.552  72.789  45.679  1.00  0.00     0.098 A 
ATOM     20  C   UNL     1     117.689  73.723  43.027  1.00  0.00     0.176 A 
ATOM     21  C   UNL     1     118.709  72.581  44.932  1.00  0.00     0.146 A 
ATOM     22  C   UNL     1     118.794  73.045  43.601  1.00  0.00     0.111 A 
ATOM     23  O   UNL     1     119.730  71.940  45.493  1.00  0.00    -0.456 OA
ATOM     24  C   UNL     1     119.999  72.806  42.905  1.00  0.00     0.197 A 
ATOM     25  C   UNL     1     120.874  71.690  44.862  1.00  0.00     0.138 A 
ATOM     26  C   UNL     1     121.040  72.129  43.540  1.00  0.00     0.100 A 
ATOM     27  O   UNL     1     120.162  73.195  41.717  1.00  0.00    -0.289 OA
BRANCH  18  28
ATOM     28  O   UNL     1     115.394  74.589  43.299  1.00  0.00    -0.502 OA
ATOM     29  H   UNL     1     114.717  75.081  43.862  1.00  0.00     0.293 HD
ENDBRANCH  18  28
BRANCH  20  30
ATOM     30  O   UNL     1     117.779  74.175  41.706  1.00  0.00    -0.504 OA
ATOM     31  H   UNL     1     118.448  73.840  41.028  1.00  0.00     0.293 HD
ENDBRANCH  20  30
BRANCH  25  32
ATOM     32  C   UNL     1     121.947  70.965  45.590  1.00  0.00     0.017 A 
ATOM     33  C   UNL     1     123.114  71.618  46.031  1.00  0.00     0.012 A 
ATOM     34  C   UNL     1     121.815  69.583  45.821  1.00  0.00     0.012 A 
ATOM     35  C   UNL     1     124.112  70.905  46.706  1.00  0.00     0.001 A 
ATOM     36  C   UNL     1     122.814  68.877  46.496  1.00  0.00     0.001 A 
ATOM     37  C   UNL     1     123.961  69.538  46.940  1.00  0.00     0.000 A 
ENDBRANCH  25  32
ENDBRANCH   1  17
TORSDOF 9
ENDMDL
MODEL 6
REMARK VINA RESULT:    -4.592      2.760      5.577
REMARK INTER + INTRA:          -7.531
REMARK INTER:                  -6.584
REMARK INTRA:                  -0.947
REMARK UNBOUND:                -1.195
REMARK SMILES O=C([O-])[C@H]1O[C@@H](Oc2cc3oc(-c4ccccc4)cc(=O)c3c(O)c2O)[C@@H](O)[C@@H](O)[C@H]1O
REMARK SMILES IDX 7 1 6 2 4 3 31 4 5 5 29 6 27 7 2 8 1 9 3 10 32 11 30 13
REMARK SMILES IDX 28 15 8 17 25 18 9 19 23 20 10 21 22 22 11 23 20 24 12 25
REMARK SMILES IDX 19 26 21 27 26 28 24 30 13 32 14 33 18 34 15 35 17 36 16 37
REMARK H PARENT 32 12 30 14 28 16 26 29 24 31
REMARK Flexibility Score: inf
ROOT
ATOM      1  O   UNL     1     120.523  72.697  44.745  1.00  0.00    -0.458 OA
ENDROOT
BRANCH   1   2
ATOM      2  C   UNL     1     119.495  72.350  43.809  1.00  0.00     0.339 C 
ATOM      3  C   UNL     1     120.985  72.109  41.964  1.00  0.00     0.199 C 
ATOM      4  C   UNL     1     120.427  73.384  41.279  1.00  0.00     0.180 C 
ATOM      5  O   UNL     1     120.015  71.489  42.802  1.00  0.00    -0.328 OA
ATOM      6  C   UNL     1     119.816  74.362  42.300  1.00  0.00     0.181 C 
ATOM      7  C   UNL     1     118.828  73.600  43.192  1.00  0.00     0.214 C 
BRANCH   3   8
ATOM      8  C   UNL     1     122.318  72.258  42.665  1.00  0.00     0.073 C 
ATOM      9  O   UNL     1     122.773  73.411  42.889  1.00  0.00    -0.547 OA
ATOM     10  O   UNL     1     123.026  71.155  43.127  1.00  0.00    -0.547 OA
ENDBRANCH   3   8
BRANCH   4  11
ATOM     11  O   UNL     1     121.416  74.010  40.503  1.00  0.00    -0.387 OA
ATOM     12  H   UNL     1     121.176  74.972  40.451  1.00  0.00     0.211 HD
ENDBRANCH   4  11
BRANCH   6  13
ATOM     13  O   UNL     1     120.812  74.965  43.087  1.00  0.00    -0.387 OA
ATOM     14  H   UNL     1     121.026  74.330  43.819  1.00  0.00     0.211 HD
ENDBRANCH   6  13
BRANCH   7  15
ATOM     15  O   UNL     1     118.332  74.443  44.200  1.00  0.00    -0.384 OA
ATOM     16  H   UNL     1     117.837  73.866  44.839  1.00  0.00     0.211 HD
ENDBRANCH   7  15
ENDBRANCH   1   2
BRANCH   1  17
ATOM     17  C   UNL     1     121.153  71.844  45.670  1.00  0.00     0.172 A 
ATOM     18  C   UNL     1     122.292  72.328  46.331  1.00  0.00     0.201 A 
ATOM     19  C   UNL     1     120.694  70.544  45.937  1.00  0.00     0.098 A 
ATOM     20  C   UNL     1     122.973  71.515  47.274  1.00  0.00     0.176 A 
ATOM     21  C   UNL     1     121.351  69.734  46.860  1.00  0.00     0.146 A 
ATOM     22  C   UNL     1     122.495  70.208  47.540  1.00  0.00     0.111 A 
ATOM     23  O   UNL     1     120.884  68.511  47.090  1.00  0.00    -0.456 OA
ATOM     24  C   UNL     1     123.107  69.336  48.468  1.00  0.00     0.197 A 
ATOM     25  C   UNL     1     121.442  67.662  47.949  1.00  0.00     0.138 A 
ATOM     26  C   UNL     1     122.576  68.062  48.672  1.00  0.00     0.100 A 
ATOM     27  O   UNL     1     124.125  69.683  49.125  1.00  0.00    -0.289 OA
BRANCH  18  28
ATOM     28  O   UNL     1     122.709  73.626  46.022  1.00  0.00    -0.502 OA
ATOM     29  H   UNL     1     123.271  73.873  45.222  1.00  0.00     0.293 HD
ENDBRANCH  18  28
BRANCH  20  30
ATOM     30  O   UNL     1     124.109  71.975  47.948  1.00  0.00    -0.504 OA
ATOM     31  H   UNL     1     124.093  72.511  48.803  1.00  0.00     0.293 HD
ENDBRANCH  20  30
BRANCH  25  32
ATOM     32  C   UNL     1     120.832  66.319  48.124  1.00  0.00     0.017 A 
ATOM     33  C   UNL     1     121.531  65.263  48.742  1.00  0.00     0.012 A 
ATOM     34  C   UNL     1     119.534  66.080  47.636  1.00  0.00     0.012 A 
ATOM     35  C   UNL     1     120.932  64.006  48.884  1.00  0.00     0.001 A 
ATOM     36  C   UNL     1     118.941  64.823  47.782  1.00  0.00     0.001 A 
ATOM     37  C   UNL     1     119.638  63.787  48.408  1.00  0.00     0.000 A 
ENDBRANCH  25  32
ENDBRANCH   1  17
TORSDOF 9
ENDMDL
MODEL 7
REMARK VINA RESULT:    -4.139      1.556      2.064
REMARK INTER + INTRA:          -6.906
REMARK INTER:                  -6.676
REMARK INTRA:                  -0.230
REMARK UNBOUND:                -1.195
REMARK SMILES O=C([O-])[C@H]1O[C@@H](Oc2cc3oc(-c4ccccc4)cc(=O)c3c(O)c2O)[C@@H](O)[C@@H](O)[C@H]1O
REMARK SMILES IDX 7 1 6 2 4 3 31 4 5 5 29 6 27 7 2 8 1 9 3 10 32 11 30 13
REMARK SMILES IDX 28 15 8 17 25 18 9 19 23 20 10 21 22 22 11 23 20 24 12 25
REMARK SMILES IDX 19 26 21 27 26 28 24 30 13 32 14 33 18 34 15 35 17 36 16 37
REMARK H PARENT 32 12 30 14 28 16 26 29 24 31
REMARK Flexibility Score: inf
ROOT
ATOM      1  O   UNL     1     117.555  73.165  45.868  1.00  0.00    -0.458 OA
ENDROOT
BRANCH   1   2
ATOM      2  C   UNL     1     117.112  74.417  45.328  1.00  0.00     0.339 C 
ATOM      3  C   UNL     1     115.109  74.487  46.619  1.00  0.00     0.199 C 
ATOM      4  C   UNL     1     114.229  74.251  45.365  1.00  0.00     0.180 C 
ATOM      5  O   UNL     1     116.341  75.124  46.293  1.00  0.00    -0.328 OA
ATOM      6  C   UNL     1     115.000  73.514  44.255  1.00  0.00     0.181 C 
ATOM      7  C   UNL     1     116.331  74.234  44.007  1.00  0.00     0.214 C 
BRANCH   3   8
ATOM      8  C   UNL     1     115.320  73.289  47.521  1.00  0.00     0.073 C 
ATOM      9  O   UNL     1     115.828  73.455  48.661  1.00  0.00    -0.547 OA
ATOM     10  O   UNL     1     114.910  72.015  47.147  1.00  0.00    -0.547 OA
ENDBRANCH   3   8
BRANCH   4  11
ATOM     11  O   UNL     1     113.046  73.573  45.702  1.00  0.00    -0.387 OA
ATOM     12  H   UNL     1     112.292  74.122  45.363  1.00  0.00     0.211 HD
ENDBRANCH   4  11
BRANCH   6  13
ATOM     13  O   UNL     1     115.233  72.172  44.602  1.00  0.00    -0.387 OA
ATOM     14  H   UNL     1     114.712  71.614  43.967  1.00  0.00     0.211 HD
ENDBRANCH   6  13
BRANCH   7  15
ATOM     15  O   UNL     1     117.102  73.524  43.072  1.00  0.00    -0.384 OA
ATOM     16  H   UNL     1     117.992  73.375  43.488  1.00  0.00     0.211 HD
ENDBRANCH   7  15
ENDBRANCH   1   2
BRANCH   1  17
ATOM     17  C   UNL     1     118.865  72.652  45.860  1.00  0.00     0.172 A 
ATOM     18  C   UNL     1     119.861  73.420  45.240  1.00  0.00     0.201 A 
ATOM     19  C   UNL     1     119.196  71.412  46.431  1.00  0.00     0.098 A 
ATOM     20  C   UNL     1     121.202  72.956  45.198  1.00  0.00     0.176 A 
ATOM     21  C   UNL     1     120.507  70.943  46.397  1.00  0.00     0.146 A 
ATOM     22  C   UNL     1     121.525  71.706  45.784  1.00  0.00     0.111 A 
ATOM     23  O   UNL     1     120.783  69.766  46.953  1.00  0.00    -0.456 OA
ATOM     24  C   UNL     1     122.832  71.173  45.793  1.00  0.00     0.197 A 
ATOM     25  C   UNL     1     122.002  69.232  46.969  1.00  0.00     0.138 A 
ATOM     26  C   UNL     1     123.069  69.935  46.390  1.00  0.00     0.100 A 
ATOM     27  O   UNL     1     123.801  71.794  45.278  1.00  0.00    -0.289 OA
BRANCH  18  28
ATOM     28  O   UNL     1     119.474  74.642  44.683  1.00  0.00    -0.502 OA
ATOM     29  H   UNL     1     118.813  74.744  43.928  1.00  0.00     0.293 HD
ENDBRANCH  18  28
BRANCH  20  30
ATOM     30  O   UNL     1     122.214  73.704  44.587  1.00  0.00    -0.504 OA
ATOM     31  H   UNL     1     122.083  74.299  43.783  1.00  0.00     0.293 HD
ENDBRANCH  20  30
BRANCH  25  32
ATOM     32  C   UNL     1     122.193  67.911  47.619  1.00  0.00     0.017 A 
ATOM     33  C   UNL     1     121.100  67.122  48.030  1.00  0.00     0.012 A 
ATOM     34  C   UNL     1     123.497  67.440  47.862  1.00  0.00     0.012 A 
ATOM     35  C   UNL     1     121.313  65.885  48.649  1.00  0.00     0.001 A 
ATOM     36  C   UNL     1     123.703  66.204  48.480  1.00  0.00     0.001 A 
ATOM     37  C   UNL     1     122.612  65.425  48.871  1.00  0.00     0.000 A 
ENDBRANCH  25  32
ENDBRANCH   1  17
TORSDOF 9
ENDMDL
MODEL 8
REMARK VINA RESULT:    -3.767      4.348      8.861
REMARK INTER + INTRA:          -6.393
REMARK INTER:                  -4.912
REMARK INTRA:                  -1.481
REMARK UNBOUND:                -1.195
REMARK SMILES O=C([O-])[C@H]1O[C@@H](Oc2cc3oc(-c4ccccc4)cc(=O)c3c(O)c2O)[C@@H](O)[C@@H](O)[C@H]1O
REMARK SMILES IDX 7 1 6 2 4 3 31 4 5 5 29 6 27 7 2 8 1 9 3 10 32 11 30 13
REMARK SMILES IDX 28 15 8 17 25 18 9 19 23 20 10 21 22 22 11 23 20 24 12 25
REMARK SMILES IDX 19 26 21 27 26 28 24 30 13 32 14 33 18 34 15 35 17 36 16 37
REMARK H PARENT 32 12 30 14 28 16 26 29 24 31
REMARK Flexibility Score: inf
ROOT
ATOM      1  O   UNL     1     121.019  66.086  47.352  1.00  0.00    -0.458 OA
ENDROOT
BRANCH   1   2
ATOM      2  C   UNL     1     119.833  65.587  47.985  1.00  0.00     0.339 C 
ATOM      3  C   UNL     1     120.870  63.604  48.805  1.00  0.00     0.199 C 
ATOM      4  C   UNL     1     120.067  62.714  47.821  1.00  0.00     0.180 C 
ATOM      5  O   UNL     1     120.176  64.805  49.124  1.00  0.00    -0.328 OA
ATOM      6  C   UNL     1     119.630  63.495  46.569  1.00  0.00     0.181 C 
ATOM      7  C   UNL     1     118.941  64.794  47.004  1.00  0.00     0.214 C 
BRANCH   3   8
ATOM      8  C   UNL     1     122.313  63.873  48.433  1.00  0.00     0.073 C 
ATOM      9  O   UNL     1     122.989  64.680  49.125  1.00  0.00    -0.547 OA
ATOM     10  O   UNL     1     122.933  63.205  47.383  1.00  0.00    -0.547 OA
ENDBRANCH   3   8
BRANCH   4  11
ATOM     11  O   UNL     1     120.795  61.563  47.476  1.00  0.00    -0.387 OA
ATOM     12  H   UNL     1     120.620  60.888  48.184  1.00  0.00     0.211 HD
ENDBRANCH   4  11
BRANCH   6  13
ATOM     13  O   UNL     1     120.728  63.784  45.740  1.00  0.00    -0.387 OA
ATOM     14  H   UNL     1     120.966  62.942  45.271  1.00  0.00     0.211 HD
ENDBRANCH   6  13
BRANCH   7  15
ATOM     15  O   UNL     1     118.624  65.578  45.882  1.00  0.00    -0.384 OA
ATOM     16  H   UNL     1     119.152  65.217  45.122  1.00  0.00     0.211 HD
ENDBRANCH   7  15
ENDBRANCH   1   2
BRANCH   1  17
ATOM     17  C   UNL     1     121.359  67.431  47.124  1.00  0.00     0.172 A 
ATOM     18  C   UNL     1     122.217  68.051  48.044  1.00  0.00     0.201 A 
ATOM     19  C   UNL     1     120.866  68.163  46.031  1.00  0.00     0.098 A 
ATOM     20  C   UNL     1     122.595  69.408  47.870  1.00  0.00     0.176 A 
ATOM     21  C   UNL     1     121.228  69.495  45.846  1.00  0.00     0.146 A 
ATOM     22  C   UNL     1     122.097  70.133  46.760  1.00  0.00     0.111 A 
ATOM     23  O   UNL     1     120.745  70.154  44.797  1.00  0.00    -0.456 OA
ATOM     24  C   UNL     1     122.428  71.482  46.507  1.00  0.00     0.197 A 
ATOM     25  C   UNL     1     121.030  71.427  44.537  1.00  0.00     0.138 A 
ATOM     26  C   UNL     1     121.894  72.128  45.391  1.00  0.00     0.100 A 
ATOM     27  O   UNL     1     123.204  72.123  47.266  1.00  0.00    -0.289 OA
BRANCH  18  28
ATOM     28  O   UNL     1     122.671  67.278  49.116  1.00  0.00    -0.502 OA
ATOM     29  H   UNL     1     122.076  66.858  49.814  1.00  0.00     0.293 HD
ENDBRANCH  18  28
BRANCH  20  30
ATOM     30  O   UNL     1     123.450  70.048  48.774  1.00  0.00    -0.504 OA
ATOM     31  H   UNL     1     123.175  70.794  49.395  1.00  0.00     0.293 HD
ENDBRANCH  20  30
BRANCH  25  32
ATOM     32  C   UNL     1     120.432  72.061  43.334  1.00  0.00     0.017 A 
ATOM     33  C   UNL     1     119.414  73.029  43.435  1.00  0.00     0.012 A 
ATOM     34  C   UNL     1     120.867  71.666  42.055  1.00  0.00     0.012 A 
ATOM     35  C   UNL     1     118.863  73.601  42.282  1.00  0.00     0.001 A 
ATOM     36  C   UNL     1     120.314  72.241  40.907  1.00  0.00     0.001 A 
ATOM     37  C   UNL     1     119.315  73.209  41.021  1.00  0.00     0.000 A 
ENDBRANCH  25  32
ENDBRANCH   1  17
TORSDOF 9
ENDMDL
MODEL 9
REMARK VINA RESULT:    -3.713      1.924      7.834
REMARK INTER + INTRA:          -6.318
REMARK INTER:                  -6.258
REMARK INTRA:                  -0.060
REMARK UNBOUND:                -1.195
REMARK SMILES O=C([O-])[C@H]1O[C@@H](Oc2cc3oc(-c4ccccc4)cc(=O)c3c(O)c2O)[C@@H](O)[C@@H](O)[C@H]1O
REMARK SMILES IDX 7 1 6 2 4 3 31 4 5 5 29 6 27 7 2 8 1 9 3 10 32 11 30 13
REMARK SMILES IDX 28 15 8 17 25 18 9 19 23 20 10 21 22 22 11 23 20 24 12 25
REMARK SMILES IDX 19 26 21 27 26 28 24 30 13 32 14 33 18 34 15 35 17 36 16 37
REMARK H PARENT 32 12 30 14 28 16 26 29 24 31
REMARK Flexibility Score: inf
ROOT
ATOM      1  O   UNL     1     121.182  70.877  46.034  1.00  0.00    -0.458 OA
ENDROOT
BRANCH   1   2
ATOM      2  C   UNL     1     120.965  70.340  47.345  1.00  0.00     0.339 C 
ATOM      3  C   UNL     1     121.778  72.271  48.483  1.00  0.00     0.199 C 
ATOM      4  C   UNL     1     123.041  71.516  48.972  1.00  0.00     0.180 C 
ATOM      5  O   UNL     1     120.681  71.389  48.266  1.00  0.00    -0.328 OA
ATOM      6  C   UNL     1     123.402  70.342  48.044  1.00  0.00     0.181 C 
ATOM      7  C   UNL     1     122.154  69.477  47.822  1.00  0.00     0.214 C 
BRANCH   3   8
ATOM      8  C   UNL     1     121.977  73.215  47.315  1.00  0.00     0.073 C 
ATOM      9  O   UNL     1     121.132  74.125  47.106  1.00  0.00    -0.547 OA
ATOM     10  O   UNL     1     123.103  73.144  46.504  1.00  0.00    -0.547 OA
ENDBRANCH   3   8
BRANCH   4  11
ATOM     11  O   UNL     1     124.125  72.396  49.125  1.00  0.00    -0.387 OA
ATOM     12  H   UNL     1     124.952  71.855  49.027  1.00  0.00     0.211 HD
ENDBRANCH   4  11
BRANCH   6  13
ATOM     13  O   UNL     1     123.896  70.800  46.811  1.00  0.00    -0.387 OA
ATOM     14  H   UNL     1     124.333  70.026  46.369  1.00  0.00     0.211 HD
ENDBRANCH   6  13
BRANCH   7  15
ATOM     15  O   UNL     1     122.426  68.456  46.897  1.00  0.00    -0.384 OA
ATOM     16  H   UNL     1     123.414  68.375  46.841  1.00  0.00     0.211 HD
ENDBRANCH   7  15
ENDBRANCH   1   2
BRANCH   1  17
ATOM     17  C   UNL     1     120.320  71.717  45.305  1.00  0.00     0.172 A 
ATOM     18  C   UNL     1     120.778  72.210  44.075  1.00  0.00     0.201 A 
ATOM     19  C   UNL     1     119.046  72.080  45.770  1.00  0.00     0.098 A 
ATOM     20  C   UNL     1     119.955  73.063  43.294  1.00  0.00     0.176 A 
ATOM     21  C   UNL     1     118.226  72.917  45.015  1.00  0.00     0.146 A 
ATOM     22  C   UNL     1     118.668  73.416  43.770  1.00  0.00     0.111 A 
ATOM     23  O   UNL     1     117.024  73.234  45.485  1.00  0.00    -0.456 OA
ATOM     24  C   UNL     1     117.784  74.253  43.054  1.00  0.00     0.197 A 
ATOM     25  C   UNL     1     116.172  74.027  44.841  1.00  0.00     0.138 A 
ATOM     26  C   UNL     1     116.532  74.555  43.592  1.00  0.00     0.100 A 
ATOM     27  O   UNL     1     118.094  74.733  41.931  1.00  0.00    -0.289 OA
BRANCH  18  28
ATOM     28  O   UNL     1     122.056  71.822  43.665  1.00  0.00    -0.502 OA
ATOM     29  H   UNL     1     122.444  70.898  43.789  1.00  0.00     0.293 HD
ENDBRANCH  18  28
BRANCH  20  30
ATOM     30  O   UNL     1     120.388  73.567  42.063  1.00  0.00    -0.504 OA
ATOM     31  H   UNL     1     121.338  73.840  41.855  1.00  0.00     0.293 HD
ENDBRANCH  20  30
BRANCH  25  32
ATOM     32  C   UNL     1     114.854  74.313  45.463  1.00  0.00     0.017 A 
ATOM     33  C   UNL     1     114.598  74.032  46.820  1.00  0.00     0.012 A 
ATOM     34  C   UNL     1     113.818  74.852  44.675  1.00  0.00     0.012 A 
ATOM     35  C   UNL     1     113.342  74.304  47.374  1.00  0.00     0.001 A 
ATOM     36  C   UNL     1     112.567  75.122  45.235  1.00  0.00     0.001 A 
ATOM     37  C   UNL     1     112.329  74.851  46.584  1.00  0.00     0.000 A 
ENDBRANCH  25  32
ENDBRANCH   1  17
TORSDOF 9
ENDMDL
