MODEL 1
REMARK VINA RESULT:    -2.558      0.000      0.000
REMARK INTER + INTRA:          -5.787
REMARK INTER:                  -4.802
REMARK INTRA:                  -0.985
REMARK UNBOUND:                -0.985
REMARK SMILES O=C([O-])CCCCCCCCCCCCCCC(=O)[O-]
REMARK SMILES IDX 10 1 9 2 8 3 7 4 6 5 5 6 4 7 2 8 1 9 3 10 11 11 12 12 13 13
REMARK SMILES IDX 14 14 15 15 16 16 17 17 18 18 19 19 20 20
REMARK H PARENT
REMARK Flexibility Score: inf
ROOT
ATOM      1  C   UNL     1     -13.106 -10.641  -9.851  1.00  0.00     0.000 C 
ENDROOT
BRANCH   1   2
ATOM      2  C   UNL     1     -12.143  -9.488 -10.189  1.00  0.00     0.000 C 
BRANCH   2   3
ATOM      3  C   UNL     1     -12.515  -8.675 -11.443  1.00  0.00     0.000 C 
BRANCH   3   4
ATOM      4  C   UNL     1     -13.796  -9.180 -12.125  1.00  0.00     0.000 C 
BRANCH   4   5
ATOM      5  C   UNL     1     -14.940  -8.151 -12.086  1.00  0.00     0.000 C 
BRANCH   5   6
ATOM      6  C   UNL     1     -14.487  -6.679 -11.988  1.00  0.00     0.006 C 
BRANCH   6   7
ATOM      7  C   UNL     1     -15.636  -5.659 -11.945  1.00  0.00     0.053 C 
BRANCH   7   8
ATOM      8  C   UNL     1     -15.135  -4.252 -11.831  1.00  0.00     0.041 C 
ATOM      9  O   UNL     1     -15.947  -3.290 -11.816  1.00  0.00    -0.550 OA
ATOM     10  O   UNL     1     -13.774  -4.005 -11.706  1.00  0.00    -0.550 OA
ENDBRANCH   7   8
ENDBRANCH   6   7
ENDBRANCH   5   6
ENDBRANCH   4   5
ENDBRANCH   3   4
ENDBRANCH   2   3
ENDBRANCH   1   2
BRANCH   1  11
ATOM     11  C   UNL     1     -12.924 -11.863 -10.768  1.00  0.00     0.000 C 
BRANCH  11  12
ATOM     12  C   UNL     1     -14.223 -12.669 -10.938  1.00  0.00     0.000 C 
BRANCH  12  13
ATOM     13  C   UNL     1     -15.426 -12.007 -10.249  1.00  0.00     0.000 C 
BRANCH  13  14
ATOM     14  C   UNL     1     -16.507 -11.637 -11.271  1.00  0.00     0.000 C 
BRANCH  14  15
ATOM     15  C   UNL     1     -17.892 -12.098 -10.800  1.00  0.00     0.000 C 
BRANCH  15  16
ATOM     16  C   UNL     1     -17.824 -12.701  -9.393  1.00  0.00     0.006 C 
BRANCH  16  17
ATOM     17  C   UNL     1     -19.095 -12.389  -8.598  1.00  0.00     0.053 C 
BRANCH  17  18
ATOM     18  C   UNL     1     -19.140 -10.940  -8.229  1.00  0.00     0.041 C 
ATOM     19  O   UNL     1     -18.075 -10.270  -8.159  1.00  0.00    -0.550 OA
ATOM     20  O   UNL     1     -20.362 -10.315  -8.017  1.00  0.00    -0.550 OA
ENDBRANCH  17  18
ENDBRANCH  16  17
ENDBRANCH  15  16
ENDBRANCH  14  15
ENDBRANCH  13  14
ENDBRANCH  12  13
ENDBRANCH  11  12
ENDBRANCH   1  11
TORSDOF 15
ENDMDL
MODEL 2
REMARK VINA RESULT:    -2.351      1.819      3.315
REMARK INTER + INTRA:          -5.398
REMARK INTER:                  -4.171
REMARK INTRA:                  -1.227
REMARK UNBOUND:                -0.985
REMARK SMILES O=C([O-])CCCCCCCCCCCCCCC(=O)[O-]
REMARK SMILES IDX 10 1 9 2 8 3 7 4 6 5 5 6 4 7 2 8 1 9 3 10 11 11 12 12 13 13
REMARK SMILES IDX 14 14 15 15 16 16 17 17 18 18 19 19 20 20
REMARK H PARENT
REMARK Flexibility Score: inf
ROOT
ATOM      1  C   UNL     1     -16.390 -10.677 -10.360  1.00  0.00     0.000 C 
ENDROOT
BRANCH   1   2
ATOM      2  C   UNL     1     -15.253 -11.679 -10.091  1.00  0.00     0.000 C 
BRANCH   2   3
ATOM      3  C   UNL     1     -14.367 -12.000 -11.308  1.00  0.00     0.000 C 
BRANCH   3   4
ATOM      4  C   UNL     1     -12.949 -11.421 -11.185  1.00  0.00     0.000 C 
BRANCH   4   5
ATOM      5  C   UNL     1     -12.870 -10.232 -10.210  1.00  0.00     0.000 C 
BRANCH   5   6
ATOM      6  C   UNL     1     -12.588  -8.867 -10.870  1.00  0.00     0.006 C 
BRANCH   6   7
ATOM      7  C   UNL     1     -13.452  -8.564 -12.105  1.00  0.00     0.053 C 
BRANCH   7   8
ATOM      8  C   UNL     1     -14.362  -7.396 -11.881  1.00  0.00     0.041 C 
ATOM      9  O   UNL     1     -13.893  -6.291 -11.501  1.00  0.00    -0.550 OA
ATOM     10  O   UNL     1     -15.724  -7.517 -12.125  1.00  0.00    -0.550 OA
ENDBRANCH   7   8
ENDBRANCH   6   7
ENDBRANCH   5   6
ENDBRANCH   4   5
ENDBRANCH   3   4
ENDBRANCH   2   3
ENDBRANCH   1   2
BRANCH   1  11
ATOM     11  C   UNL     1     -16.832 -10.653 -11.833  1.00  0.00     0.000 C 
BRANCH  11  12
ATOM     12  C   UNL     1     -17.979 -11.637 -12.120  1.00  0.00     0.000 C 
BRANCH  12  13
ATOM     13  C   UNL     1     -18.514 -12.310 -10.846  1.00  0.00     0.000 C 
BRANCH  13  14
ATOM     14  C   UNL     1     -19.782 -13.117 -11.146  1.00  0.00     0.000 C 
BRANCH  14  15
ATOM     15  C   UNL     1     -21.040 -12.339 -10.742  1.00  0.00     0.000 C 
BRANCH  15  16
ATOM     16  C   UNL     1     -20.812 -11.557  -9.443  1.00  0.00     0.006 C 
BRANCH  16  17
ATOM     17  C   UNL     1     -21.025 -12.451  -8.218  1.00  0.00     0.053 C 
BRANCH  17  18
ATOM     18  C   UNL     1     -20.395 -11.840  -7.007  1.00  0.00     0.041 C 
ATOM     19  O   UNL     1     -19.530 -10.934  -7.132  1.00  0.00    -0.550 OA
ATOM     20  O   UNL     1     -20.804 -12.233  -5.739  1.00  0.00    -0.550 OA
ENDBRANCH  17  18
ENDBRANCH  16  17
ENDBRANCH  15  16
ENDBRANCH  14  15
ENDBRANCH  13  14
ENDBRANCH  12  13
ENDBRANCH  11  12
ENDBRANCH   1  11
TORSDOF 15
ENDMDL
MODEL 3
REMARK VINA RESULT:    -2.287      1.306      7.042
REMARK INTER + INTRA:          -5.278
REMARK INTER:                  -4.535
REMARK INTRA:                  -0.744
REMARK UNBOUND:                -0.985
REMARK SMILES O=C([O-])CCCCCCCCCCCCCCC(=O)[O-]
REMARK SMILES IDX 10 1 9 2 8 3 7 4 6 5 5 6 4 7 2 8 1 9 3 10 11 11 12 12 13 13
REMARK SMILES IDX 14 14 15 15 16 16 17 17 18 18 19 19 20 20
REMARK H PARENT
REMARK Flexibility Score: inf
ROOT
ATOM      1  C   UNL     1     -14.993 -12.141 -10.223  1.00  0.00     0.000 C 
ENDROOT
BRANCH   1   2
ATOM      2  C   UNL     1     -16.183 -12.356 -11.176  1.00  0.00     0.000 C 
BRANCH   2   3
ATOM      3  C   UNL     1     -17.533 -11.824 -10.661  1.00  0.00     0.000 C 
BRANCH   3   4
ATOM      4  C   UNL     1     -18.696 -12.112 -11.624  1.00  0.00     0.000 C 
BRANCH   4   5
ATOM      5  C   UNL     1     -20.032 -12.347 -10.895  1.00  0.00     0.000 C 
BRANCH   5   6
ATOM      6  C   UNL     1     -19.947 -12.307  -9.355  1.00  0.00     0.006 C 
BRANCH   6   7
ATOM      7  C   UNL     1     -20.844 -11.247  -8.694  1.00  0.00     0.053 C 
BRANCH   7   8
ATOM      8  C   UNL     1     -20.627 -11.171  -7.214  1.00  0.00     0.041 C 
ATOM      9  O   UNL     1     -20.097 -12.135  -6.601  1.00  0.00    -0.550 OA
ATOM     10  O   UNL     1     -20.978 -10.023  -6.516  1.00  0.00    -0.550 OA
ENDBRANCH   7   8
ENDBRANCH   6   7
ENDBRANCH   5   6
ENDBRANCH   4   5
ENDBRANCH   3   4
ENDBRANCH   2   3
ENDBRANCH   1   2
BRANCH   1  11
ATOM     11  C   UNL     1     -13.644 -12.532 -10.851  1.00  0.00     0.000 C 
BRANCH  11  12
ATOM     12  C   UNL     1     -13.333 -11.727 -12.124  1.00  0.00     0.000 C 
BRANCH  12  13
ATOM     13  C   UNL     1     -12.348 -10.575 -11.871  1.00  0.00     0.000 C 
BRANCH  13  14
ATOM     14  C   UNL     1     -13.039  -9.413 -11.150  1.00  0.00     0.000 C 
BRANCH  14  15
ATOM     15  C   UNL     1     -13.878  -8.578 -12.125  1.00  0.00     0.000 C 
BRANCH  15  16
ATOM     16  C   UNL     1     -13.945  -7.113 -11.680  1.00  0.00     0.006 C 
BRANCH  16  17
ATOM     17  C   UNL     1     -15.309  -6.500 -12.008  1.00  0.00     0.053 C 
BRANCH  17  18
ATOM     18  C   UNL     1     -15.331  -5.048 -11.651  1.00  0.00     0.041 C 
ATOM     19  O   UNL     1     -16.361  -4.537 -11.136  1.00  0.00    -0.550 OA
ATOM     20  O   UNL     1     -14.194  -4.270 -11.834  1.00  0.00    -0.550 OA
ENDBRANCH  17  18
ENDBRANCH  16  17
ENDBRANCH  15  16
ENDBRANCH  14  15
ENDBRANCH  13  14
ENDBRANCH  12  13
ENDBRANCH  11  12
ENDBRANCH   1  11
TORSDOF 15
ENDMDL
MODEL 4
REMARK VINA RESULT:    -1.918      1.681      2.808
REMARK INTER + INTRA:          -4.585
REMARK INTER:                  -4.324
REMARK INTRA:                  -0.261
REMARK UNBOUND:                -0.985
REMARK SMILES O=C([O-])CCCCCCCCCCCCCCC(=O)[O-]
REMARK SMILES IDX 10 1 9 2 8 3 7 4 6 5 5 6 4 7 2 8 1 9 3 10 11 11 12 12 13 13
REMARK SMILES IDX 14 14 15 15 16 16 17 17 18 18 19 19 20 20
REMARK H PARENT
REMARK Flexibility Score: inf
ROOT
ATOM      1  C   UNL     1     -15.854 -10.614 -11.241  1.00  0.00     0.000 C 
ENDROOT
BRANCH   1   2
ATOM      2  C   UNL     1     -14.646 -11.264 -11.940  1.00  0.00     0.000 C 
BRANCH   2   3
ATOM      3  C   UNL     1     -13.372 -10.400 -11.976  1.00  0.00     0.000 C 
BRANCH   3   4
ATOM      4  C   UNL     1     -13.520  -9.083 -11.197  1.00  0.00     0.000 C 
BRANCH   4   5
ATOM      5  C   UNL     1     -13.636  -7.854 -12.116  1.00  0.00     0.000 C 
BRANCH   5   6
ATOM      6  C   UNL     1     -14.804  -6.903 -11.784  1.00  0.00     0.006 C 
BRANCH   6   7
ATOM      7  C   UNL     1     -14.438  -5.410 -11.804  1.00  0.00     0.053 C 
BRANCH   7   8
ATOM      8  C   UNL     1     -15.646  -4.533 -11.698  1.00  0.00     0.041 C 
ATOM      9  O   UNL     1     -15.524  -3.280 -11.724  1.00  0.00    -0.550 OA
ATOM     10  O   UNL     1     -16.912  -5.097 -11.607  1.00  0.00    -0.550 OA
ENDBRANCH   7   8
ENDBRANCH   6   7
ENDBRANCH   5   6
ENDBRANCH   4   5
ENDBRANCH   3   4
ENDBRANCH   2   3
ENDBRANCH   1   2
BRANCH   1  11
ATOM     11  C   UNL     1     -17.203 -11.089 -11.809  1.00  0.00     0.000 C 
BRANCH  11  12
ATOM     12  C   UNL     1     -17.893 -12.120 -10.901  1.00  0.00     0.000 C 
BRANCH  12  13
ATOM     13  C   UNL     1     -18.808 -13.077 -11.680  1.00  0.00     0.000 C 
BRANCH  13  14
ATOM     14  C   UNL     1     -20.258 -12.965 -11.196  1.00  0.00     0.000 C 
BRANCH  14  15
ATOM     15  C   UNL     1     -20.322 -12.843  -9.669  1.00  0.00     0.000 C 
BRANCH  15  16
ATOM     16  C   UNL     1     -20.741 -11.431  -9.245  1.00  0.00     0.006 C 
BRANCH  16  17
ATOM     17  C   UNL     1     -20.088 -11.038  -7.917  1.00  0.00     0.053 C 
BRANCH  17  18
ATOM     18  C   UNL     1     -20.723 -11.776  -6.781  1.00  0.00     0.041 C 
ATOM     19  O   UNL     1     -21.028 -11.169  -5.721  1.00  0.00    -0.550 OA
ATOM     20  O   UNL     1     -21.031 -13.125  -6.915  1.00  0.00    -0.550 OA
ENDBRANCH  17  18
ENDBRANCH  16  17
ENDBRANCH  15  16
ENDBRANCH  14  15
ENDBRANCH  13  14
ENDBRANCH  12  13
ENDBRANCH  11  12
ENDBRANCH   1  11
TORSDOF 15
ENDMDL
MODEL 5
REMARK VINA RESULT:    -1.838      0.867      6.468
REMARK INTER + INTRA:          -4.434
REMARK INTER:                  -3.514
REMARK INTRA:                  -0.920
REMARK UNBOUND:                -0.985
REMARK SMILES O=C([O-])CCCCCCCCCCCCCCC(=O)[O-]
REMARK SMILES IDX 10 1 9 2 8 3 7 4 6 5 5 6 4 7 2 8 1 9 3 10 11 11 12 12 13 13
REMARK SMILES IDX 14 14 15 15 16 16 17 17 18 18 19 19 20 20
REMARK H PARENT
REMARK Flexibility Score: inf
ROOT
ATOM      1  C   UNL     1     -14.115 -10.773  -9.645  1.00  0.00     0.000 C 
ENDROOT
BRANCH   1   2
ATOM      2  C   UNL     1     -14.044 -12.063 -10.481  1.00  0.00     0.000 C 
BRANCH   2   3
ATOM      3  C   UNL     1     -15.215 -12.269 -11.460  1.00  0.00     0.000 C 
BRANCH   3   4
ATOM      4  C   UNL     1     -16.459 -11.446 -11.087  1.00  0.00     0.000 C 
BRANCH   4   5
ATOM      5  C   UNL     1     -17.664 -12.324 -10.704  1.00  0.00     0.000 C 
BRANCH   5   6
ATOM      6  C   UNL     1     -17.647 -12.855  -9.256  1.00  0.00     0.006 C 
BRANCH   6   7
ATOM      7  C   UNL     1     -18.915 -12.540  -8.445  1.00  0.00     0.053 C 
BRANCH   7   8
ATOM      8  C   UNL     1     -19.093 -11.070  -8.229  1.00  0.00     0.041 C 
ATOM      9  O   UNL     1     -20.226 -10.606  -7.932  1.00  0.00    -0.550 OA
ATOM     10  O   UNL     1     -18.004 -10.214  -8.323  1.00  0.00    -0.550 OA
ENDBRANCH   7   8
ENDBRANCH   6   7
ENDBRANCH   5   6
ENDBRANCH   4   5
ENDBRANCH   3   4
ENDBRANCH   2   3
ENDBRANCH   1   2
BRANCH   1  11
ATOM     11  C   UNL     1     -12.809  -9.960  -9.684  1.00  0.00     0.000 C 
BRANCH  11  12
ATOM     12  C   UNL     1     -12.035 -10.154 -10.998  1.00  0.00     0.000 C 
BRANCH  12  13
ATOM     13  C   UNL     1     -12.126  -8.932 -11.925  1.00  0.00     0.000 C 
BRANCH  13  14
ATOM     14  C   UNL     1     -13.570  -8.429 -12.027  1.00  0.00     0.000 C 
BRANCH  14  15
ATOM     15  C   UNL     1     -13.760  -7.133 -11.230  1.00  0.00     0.000 C 
BRANCH  15  16
ATOM     16  C   UNL     1     -14.294  -6.009 -12.125  1.00  0.00     0.006 C 
BRANCH  16  17
ATOM     17  C   UNL     1     -15.825  -5.974 -12.111  1.00  0.00     0.053 C 
BRANCH  17  18
ATOM     18  C   UNL     1     -16.315  -4.686 -11.530  1.00  0.00     0.041 C 
ATOM     19  O   UNL     1     -17.500  -4.588 -11.115  1.00  0.00    -0.550 OA
ATOM     20  O   UNL     1     -15.446  -3.610 -11.395  1.00  0.00    -0.550 OA
ENDBRANCH  17  18
ENDBRANCH  16  17
ENDBRANCH  15  16
ENDBRANCH  14  15
ENDBRANCH  13  14
ENDBRANCH  12  13
ENDBRANCH  11  12
ENDBRANCH   1  11
TORSDOF 15
ENDMDL
MODEL 6
REMARK VINA RESULT:    -0.847      3.168      6.872
REMARK INTER + INTRA:          -2.575
REMARK INTER:                  -1.654
REMARK INTRA:                  -0.922
REMARK UNBOUND:                -0.985
REMARK SMILES O=C([O-])CCCCCCCCCCCCCCC(=O)[O-]
REMARK SMILES IDX 10 1 9 2 8 3 7 4 6 5 5 6 4 7 2 8 1 9 3 10 11 11 12 12 13 13
REMARK SMILES IDX 14 14 15 15 16 16 17 17 18 18 19 19 20 20
REMARK H PARENT
REMARK Flexibility Score: inf
ROOT
ATOM      1  C   UNL     1     -14.928 -12.256 -10.144  1.00  0.00     0.000 C 
ENDROOT
BRANCH   1   2
ATOM      2  C   UNL     1     -16.010 -12.542 -11.201  1.00  0.00     0.000 C 
BRANCH   2   3
ATOM      3  C   UNL     1     -17.244 -11.624 -11.133  1.00  0.00     0.000 C 
BRANCH   3   4
ATOM      4  C   UNL     1     -18.440 -12.168 -11.931  1.00  0.00     0.000 C 
BRANCH   4   5
ATOM      5  C   UNL     1     -19.796 -11.744 -11.339  1.00  0.00     0.000 C 
BRANCH   5   6
ATOM      6  C   UNL     1     -20.311 -12.634 -10.189  1.00  0.00     0.006 C 
BRANCH   6   7
ATOM      7  C   UNL     1     -21.039 -11.873  -9.069  1.00  0.00     0.053 C 
BRANCH   7   8
ATOM      8  C   UNL     1     -20.155 -11.636  -7.884  1.00  0.00     0.041 C 
ATOM      9  O   UNL     1     -18.911 -11.517  -8.036  1.00  0.00    -0.550 OA
ATOM     10  O   UNL     1     -20.708 -11.513  -6.616  1.00  0.00    -0.550 OA
ENDBRANCH   7   8
ENDBRANCH   6   7
ENDBRANCH   5   6
ENDBRANCH   4   5
ENDBRANCH   3   4
ENDBRANCH   2   3
ENDBRANCH   1   2
BRANCH   1  11
ATOM     11  C   UNL     1     -13.644 -13.076 -10.364  1.00  0.00     0.000 C 
BRANCH  11  12
ATOM     12  C   UNL     1     -13.209 -13.103 -11.839  1.00  0.00     0.000 C 
BRANCH  12  13
ATOM     13  C   UNL     1     -12.023 -12.170 -12.125  1.00  0.00     0.000 C 
BRANCH  13  14
ATOM     14  C   UNL     1     -12.468 -10.703 -12.125  1.00  0.00     0.000 C 
BRANCH  14  15
ATOM     15  C   UNL     1     -11.751  -9.909 -11.027  1.00  0.00     0.000 C 
BRANCH  15  16
ATOM     16  C   UNL     1     -12.670  -9.681  -9.822  1.00  0.00     0.006 C 
BRANCH  16  17
ATOM     17  C   UNL     1     -12.420  -8.308  -9.190  1.00  0.00     0.053 C 
BRANCH  17  18
ATOM     18  C   UNL     1     -12.153  -8.445  -7.725  1.00  0.00     0.041 C 
ATOM     19  O   UNL     1     -11.812  -9.558  -7.244  1.00  0.00    -0.550 OA
ATOM     20  O   UNL     1     -12.226  -7.331  -6.899  1.00  0.00    -0.550 OA
ENDBRANCH  17  18
ENDBRANCH  16  17
ENDBRANCH  15  16
ENDBRANCH  14  15
ENDBRANCH  13  14
ENDBRANCH  12  13
ENDBRANCH  11  12
ENDBRANCH   1  11
TORSDOF 15
ENDMDL
MODEL 7
REMARK VINA RESULT:    -0.748      3.073      6.923
REMARK INTER + INTRA:          -2.388
REMARK INTER:                  -1.606
REMARK INTRA:                  -0.782
REMARK UNBOUND:                -0.985
REMARK SMILES O=C([O-])CCCCCCCCCCCCCCC(=O)[O-]
REMARK SMILES IDX 10 1 9 2 8 3 7 4 6 5 5 6 4 7 2 8 1 9 3 10 11 11 12 12 13 13
REMARK SMILES IDX 14 14 15 15 16 16 17 17 18 18 19 19 20 20
REMARK H PARENT
REMARK Flexibility Score: inf
ROOT
ATOM      1  C   UNL     1     -16.794  -9.384 -12.125  1.00  0.00     0.000 C 
ENDROOT
BRANCH   1   2
ATOM      2  C   UNL     1     -16.545 -10.847 -11.717  1.00  0.00     0.000 C 
BRANCH   2   3
ATOM      3  C   UNL     1     -17.660 -11.832 -12.115  1.00  0.00     0.000 C 
BRANCH   3   4
ATOM      4  C   UNL     1     -19.061 -11.344 -11.715  1.00  0.00     0.000 C 
BRANCH   4   5
ATOM      5  C   UNL     1     -19.803 -12.338 -10.804  1.00  0.00     0.000 C 
BRANCH   5   6
ATOM      6  C   UNL     1     -20.792 -11.694  -9.810  1.00  0.00     0.006 C 
BRANCH   6   7
ATOM      7  C   UNL     1     -20.530 -12.039  -8.335  1.00  0.00     0.053 C 
BRANCH   7   8
ATOM      8  C   UNL     1     -20.211 -10.822  -7.522  1.00  0.00     0.041 C 
ATOM      9  O   UNL     1     -20.958 -10.488  -6.564  1.00  0.00    -0.550 OA
ATOM     10  O   UNL     1     -19.073 -10.077  -7.799  1.00  0.00    -0.550 OA
ENDBRANCH   7   8
ENDBRANCH   6   7
ENDBRANCH   5   6
ENDBRANCH   4   5
ENDBRANCH   3   4
ENDBRANCH   2   3
ENDBRANCH   1   2
BRANCH   1  11
ATOM     11  C   UNL     1     -16.036  -8.377 -11.241  1.00  0.00     0.000 C 
BRANCH  11  12
ATOM     12  C   UNL     1     -15.048  -7.515 -12.046  1.00  0.00     0.000 C 
BRANCH  12  13
ATOM     13  C   UNL     1     -13.581  -7.840 -11.726  1.00  0.00     0.000 C 
BRANCH  13  14
ATOM     14  C   UNL     1     -13.317  -9.345 -11.839  1.00  0.00     0.000 C 
BRANCH  14  15
ATOM     15  C   UNL     1     -11.850  -9.673 -11.532  1.00  0.00     0.000 C 
BRANCH  15  16
ATOM     16  C   UNL     1     -11.452 -11.029 -12.125  1.00  0.00     0.006 C 
BRANCH  16  17
ATOM     17  C   UNL     1     -12.614 -12.023 -12.052  1.00  0.00     0.053 C 
BRANCH  17  18
ATOM     18  C   UNL     1     -12.816 -12.492 -10.646  1.00  0.00     0.041 C 
ATOM     19  O   UNL     1     -11.890 -13.091 -10.038  1.00  0.00    -0.550 OA
ATOM     20  O   UNL     1     -14.008 -12.218  -9.986  1.00  0.00    -0.550 OA
ENDBRANCH  17  18
ENDBRANCH  16  17
ENDBRANCH  15  16
ENDBRANCH  14  15
ENDBRANCH  13  14
ENDBRANCH  12  13
ENDBRANCH  11  12
ENDBRANCH   1  11
TORSDOF 15
ENDMDL
MODEL 8
REMARK VINA RESULT:    -0.713      3.228      4.673
REMARK INTER + INTRA:          -2.323
REMARK INTER:                  -2.064
REMARK INTRA:                  -0.258
REMARK UNBOUND:                -0.985
REMARK SMILES O=C([O-])CCCCCCCCCCCCCCC(=O)[O-]
REMARK SMILES IDX 10 1 9 2 8 3 7 4 6 5 5 6 4 7 2 8 1 9 3 10 11 11 12 12 13 13
REMARK SMILES IDX 14 14 15 15 16 16 17 17 18 18 19 19 20 20
REMARK H PARENT
REMARK Flexibility Score: inf
ROOT
ATOM      1  C   UNL     1     -15.807  -9.553 -12.063  1.00  0.00     0.000 C 
ENDROOT
BRANCH   1   2
ATOM      2  C   UNL     1     -15.376  -8.103 -11.779  1.00  0.00     0.000 C 
BRANCH   2   3
ATOM      3  C   UNL     1     -13.957  -7.946 -11.203  1.00  0.00     0.000 C 
BRANCH   3   4
ATOM      4  C   UNL     1     -12.876  -8.579 -12.093  1.00  0.00     0.000 C 
BRANCH   4   5
ATOM      5  C   UNL     1     -11.791  -9.314 -11.286  1.00  0.00     0.000 C 
BRANCH   5   6
ATOM      6  C   UNL     1     -11.421 -10.713 -11.820  1.00  0.00     0.006 C 
BRANCH   6   7
ATOM      7  C   UNL     1     -12.625 -11.620 -12.125  1.00  0.00     0.053 C 
BRANCH   7   8
ATOM      8  C   UNL     1     -12.841 -12.645 -11.055  1.00  0.00     0.041 C 
ATOM      9  O   UNL     1     -13.989 -13.125 -10.860  1.00  0.00    -0.550 OA
ATOM     10  O   UNL     1     -11.770 -13.096 -10.294  1.00  0.00    -0.550 OA
ENDBRANCH   7   8
ENDBRANCH   6   7
ENDBRANCH   5   6
ENDBRANCH   4   5
ENDBRANCH   3   4
ENDBRANCH   2   3
ENDBRANCH   1   2
BRANCH   1  11
ATOM     11  C   UNL     1     -15.594 -10.488 -10.859  1.00  0.00     0.000 C 
BRANCH  11  12
ATOM     12  C   UNL     1     -16.881 -10.701 -10.044  1.00  0.00     0.000 C 
BRANCH  12  13
ATOM     13  C   UNL     1     -17.357 -12.162 -10.057  1.00  0.00     0.000 C 
BRANCH  13  14
ATOM     14  C   UNL     1     -18.303 -12.419 -11.236  1.00  0.00     0.000 C 
BRANCH  14  15
ATOM     15  C   UNL     1     -19.615 -11.644 -11.069  1.00  0.00     0.000 C 
BRANCH  15  16
ATOM     16  C   UNL     1     -20.615 -12.430 -10.215  1.00  0.00     0.006 C 
BRANCH  16  17
ATOM     17  C   UNL     1     -20.032 -12.746  -8.834  1.00  0.00     0.053 C 
BRANCH  17  18
ATOM     18  C   UNL     1     -20.206 -11.581  -7.913  1.00  0.00     0.041 C 
ATOM     19  O   UNL     1     -21.054 -11.628  -6.983  1.00  0.00    -0.550 OA
ATOM     20  O   UNL     1     -19.391 -10.463  -8.045  1.00  0.00    -0.550 OA
ENDBRANCH  17  18
ENDBRANCH  16  17
ENDBRANCH  15  16
ENDBRANCH  14  15
ENDBRANCH  13  14
ENDBRANCH  12  13
ENDBRANCH  11  12
ENDBRANCH   1  11
TORSDOF 15
ENDMDL
