MODEL 1
REMARK VINA RESULT:    -3.408      0.000      0.000
REMARK INTER + INTRA:          -4.179
REMARK INTER:                  -4.006
REMARK INTRA:                  -0.173
REMARK UNBOUND:                -0.173
REMARK SMILES O=C([O-])CCC(=O)[O-]
REMARK SMILES IDX 4 1 2 2 1 3 3 4 5 5 6 6 7 7 8 8
REMARK H PARENT
REMARK Flexibility Score: inf
ROOT
ATOM      1  C   UNL     1      23.962  63.978   8.041  1.00  0.00     0.059 C 
ENDROOT
BRANCH   1   2
ATOM      2  C   UNL     1      22.972  63.614   6.976  1.00  0.00     0.042 C 
ATOM      3  O   UNL     1      22.624  62.414   6.819  1.00  0.00    -0.550 OA
ATOM      4  O   UNL     1      22.467  64.593   6.130  1.00  0.00    -0.550 OA
ENDBRANCH   1   2
BRANCH   1   5
ATOM      5  C   UNL     1      25.228  64.603   7.445  1.00  0.00     0.059 C 
BRANCH   5   6
ATOM      6  C   UNL     1      26.005  63.613   6.634  1.00  0.00     0.042 C 
ATOM      7  O   UNL     1      26.424  63.924   5.488  1.00  0.00    -0.550 OA
ATOM      8  O   UNL     1      26.231  62.334   7.125  1.00  0.00    -0.550 OA
ENDBRANCH   5   6
ENDBRANCH   1   5
TORSDOF 3
ENDMDL
MODEL 2
REMARK VINA RESULT:    -3.400      0.952      1.680
REMARK INTER + INTRA:          -4.170
REMARK INTER:                  -4.072
REMARK INTRA:                  -0.098
REMARK UNBOUND:                -0.173
REMARK SMILES O=C([O-])CCC(=O)[O-]
REMARK SMILES IDX 4 1 2 2 1 3 3 4 5 5 6 6 7 7 8 8
REMARK H PARENT
REMARK Flexibility Score: inf
ROOT
ATOM      1  C   UNL     1      23.844  64.106   8.021  1.00  0.00     0.059 C 
ENDROOT
BRANCH   1   2
ATOM      2  C   UNL     1      22.907  63.678   6.932  1.00  0.00     0.042 C 
ATOM      3  O   UNL     1      22.394  64.535   6.165  1.00  0.00    -0.550 OA
ATOM      4  O   UNL     1      22.568  62.338   6.792  1.00  0.00    -0.550 OA
ENDBRANCH   1   2
BRANCH   1   5
ATOM      5  C   UNL     1      25.273  64.286   7.498  1.00  0.00     0.059 C 
BRANCH   5   6
ATOM      6  C   UNL     1      26.149  63.130   7.874  1.00  0.00     0.042 C 
ATOM      7  O   UNL     1      26.394  62.222   7.037  1.00  0.00    -0.550 OA
ATOM      8  O   UNL     1      26.661  63.034   9.162  1.00  0.00    -0.550 OA
ENDBRANCH   5   6
ENDBRANCH   1   5
TORSDOF 3
ENDMDL
MODEL 3
REMARK VINA RESULT:    -3.376      0.112      3.447
REMARK INTER + INTRA:          -4.142
REMARK INTER:                  -3.992
REMARK INTRA:                  -0.150
REMARK UNBOUND:                -0.173
REMARK SMILES O=C([O-])CCC(=O)[O-]
REMARK SMILES IDX 4 1 2 2 1 3 3 4 5 5 6 6 7 7 8 8
REMARK H PARENT
REMARK Flexibility Score: inf
ROOT
ATOM      1  C   UNL     1      25.226  64.605   7.331  1.00  0.00     0.059 C 
ENDROOT
BRANCH   1   2
ATOM      2  C   UNL     1      26.055  63.573   6.629  1.00  0.00     0.042 C 
ATOM      3  O   UNL     1      26.275  62.459   7.175  1.00  0.00    -0.550 OA
ATOM      4  O   UNL     1      26.621  63.857   5.393  1.00  0.00    -0.550 OA
ENDBRANCH   1   2
BRANCH   1   5
ATOM      5  C   UNL     1      23.984  63.986   7.981  1.00  0.00     0.059 C 
BRANCH   5   6
ATOM      6  C   UNL     1      22.950  63.619   6.960  1.00  0.00     0.042 C 
ATOM      7  O   UNL     1      22.563  62.426   6.850  1.00  0.00    -0.550 OA
ATOM      8  O   UNL     1      22.444  64.588   6.103  1.00  0.00    -0.550 OA
ENDBRANCH   5   6
ENDBRANCH   1   5
TORSDOF 3
ENDMDL
MODEL 4
REMARK VINA RESULT:    -3.342     12.560     13.410
REMARK INTER + INTRA:          -4.102
REMARK INTER:                  -3.989
REMARK INTRA:                  -0.113
REMARK UNBOUND:                -0.173
REMARK SMILES O=C([O-])CCC(=O)[O-]
REMARK SMILES IDX 4 1 2 2 1 3 3 4 5 5 6 6 7 7 8 8
REMARK H PARENT
REMARK Flexibility Score: inf
ROOT
ATOM      1  C   UNL     1      19.852  53.543  15.096  1.00  0.00     0.059 C 
ENDROOT
BRANCH   1   2
ATOM      2  C   UNL     1      21.118  54.136  15.636  1.00  0.00     0.042 C 
ATOM      3  O   UNL     1      21.382  55.351  15.439  1.00  0.00    -0.550 OA
ATOM      4  O   UNL     1      22.025  53.336  16.320  1.00  0.00    -0.550 OA
ENDBRANCH   1   2
BRANCH   1   5
ATOM      5  C   UNL     1      19.570  54.017  13.667  1.00  0.00     0.059 C 
BRANCH   5   6
ATOM      6  C   UNL     1      18.388  54.934  13.611  1.00  0.00     0.042 C 
ATOM      7  O   UNL     1      17.570  54.857  12.657  1.00  0.00    -0.550 OA
ATOM      8  O   UNL     1      18.210  55.903  14.592  1.00  0.00    -0.550 OA
ENDBRANCH   5   6
ENDBRANCH   1   5
TORSDOF 3
ENDMDL
MODEL 5
REMARK VINA RESULT:    -3.341     12.715     13.688
REMARK INTER + INTRA:          -4.101
REMARK INTER:                  -4.020
REMARK INTRA:                  -0.081
REMARK UNBOUND:                -0.173
REMARK SMILES O=C([O-])CCC(=O)[O-]
REMARK SMILES IDX 4 1 2 2 1 3 3 4 5 5 6 6 7 7 8 8
REMARK H PARENT
REMARK Flexibility Score: inf
ROOT
ATOM      1  C   UNL     1      20.609  54.457  14.770  1.00  0.00     0.059 C 
ENDROOT
BRANCH   1   2
ATOM      2  C   UNL     1      20.927  53.373  15.755  1.00  0.00     0.042 C 
ATOM      3  O   UNL     1      20.089  52.461  15.985  1.00  0.00    -0.550 OA
ATOM      4  O   UNL     1      22.130  53.393  16.450  1.00  0.00    -0.550 OA
ENDBRANCH   1   2
BRANCH   1   5
ATOM      5  C   UNL     1      19.516  54.026  13.787  1.00  0.00     0.059 C 
BRANCH   5   6
ATOM      6  C   UNL     1      18.396  55.019  13.735  1.00  0.00     0.042 C 
ATOM      7  O   UNL     1      18.344  55.959  14.571  1.00  0.00    -0.550 OA
ATOM      8  O   UNL     1      17.387  54.883  12.790  1.00  0.00    -0.550 OA
ENDBRANCH   5   6
ENDBRANCH   1   5
TORSDOF 3
ENDMDL
MODEL 6
REMARK VINA RESULT:    -3.309     12.626     13.394
REMARK INTER + INTRA:          -4.063
REMARK INTER:                  -3.983
REMARK INTRA:                  -0.080
REMARK UNBOUND:                -0.173
REMARK SMILES O=C([O-])CCC(=O)[O-]
REMARK SMILES IDX 4 1 2 2 1 3 3 4 5 5 6 6 7 7 8 8
REMARK H PARENT
REMARK Flexibility Score: inf
ROOT
ATOM      1  C   UNL     1      19.433  54.057  13.906  1.00  0.00     0.059 C 
ENDROOT
BRANCH   1   2
ATOM      2  C   UNL     1      18.372  55.115  13.844  1.00  0.00     0.042 C 
ATOM      3  O   UNL     1      17.633  55.211  12.829  1.00  0.00    -0.550 OA
ATOM      4  O   UNL     1      18.230  56.020  14.888  1.00  0.00    -0.550 OA
ENDBRANCH   1   2
BRANCH   1   5
ATOM      5  C   UNL     1      20.594  54.474  14.815  1.00  0.00     0.059 C 
BRANCH   5   6
ATOM      6  C   UNL     1      20.904  53.420  15.833  1.00  0.00     0.042 C 
ATOM      7  O   UNL     1      20.061  52.521  16.092  1.00  0.00    -0.550 OA
ATOM      8  O   UNL     1      22.107  53.454  16.527  1.00  0.00    -0.550 OA
ENDBRANCH   5   6
ENDBRANCH   1   5
TORSDOF 3
ENDMDL
MODEL 7
REMARK VINA RESULT:    -3.111     12.645     13.411
REMARK INTER + INTRA:          -3.830
REMARK INTER:                  -3.740
REMARK INTRA:                  -0.089
REMARK UNBOUND:                -0.173
REMARK SMILES O=C([O-])CCC(=O)[O-]
REMARK SMILES IDX 4 1 2 2 1 3 3 4 5 5 6 6 7 7 8 8
REMARK H PARENT
REMARK Flexibility Score: inf
ROOT
ATOM      1  C   UNL     1      18.954  55.717  14.954  1.00  0.00     0.059 C 
ENDROOT
BRANCH   1   2
ATOM      2  C   UNL     1      19.846  54.595  14.515  1.00  0.00     0.042 C 
ATOM      3  O   UNL     1      20.974  54.437  15.051  1.00  0.00    -0.550 OA
ATOM      4  O   UNL     1      19.449  53.752  13.485  1.00  0.00    -0.550 OA
ENDBRANCH   1   2
BRANCH   1   5
ATOM      5  C   UNL     1      19.697  56.712  15.851  1.00  0.00     0.059 C 
BRANCH   5   6
ATOM      6  C   UNL     1      19.141  56.725  17.242  1.00  0.00     0.042 C 
ATOM      7  O   UNL     1      19.659  57.460  18.124  1.00  0.00    -0.550 OA
ATOM      8  O   UNL     1      18.078  55.896  17.576  1.00  0.00    -0.550 OA
ENDBRANCH   5   6
ENDBRANCH   1   5
TORSDOF 3
ENDMDL
MODEL 8
REMARK VINA RESULT:    -3.083      1.591      3.863
REMARK INTER + INTRA:          -3.798
REMARK INTER:                  -3.747
REMARK INTRA:                  -0.051
REMARK UNBOUND:                -0.173
REMARK SMILES O=C([O-])CCC(=O)[O-]
REMARK SMILES IDX 4 1 2 2 1 3 3 4 5 5 6 6 7 7 8 8
REMARK H PARENT
REMARK Flexibility Score: inf
ROOT
ATOM      1  C   UNL     1      25.489  63.584   7.011  1.00  0.00     0.059 C 
ENDROOT
BRANCH   1   2
ATOM      2  C   UNL     1      26.396  64.624   7.597  1.00  0.00     0.042 C 
ATOM      3  O   UNL     1      26.469  65.767   7.075  1.00  0.00    -0.550 OA
ATOM      4  O   UNL     1      27.191  64.315   8.694  1.00  0.00    -0.550 OA
ENDBRANCH   1   2
BRANCH   1   5
ATOM      5  C   UNL     1      24.231  64.211   6.400  1.00  0.00     0.059 C 
BRANCH   5   6
ATOM      6  C   UNL     1      22.984  63.689   7.043  1.00  0.00     0.042 C 
ATOM      7  O   UNL     1      22.331  64.413   7.840  1.00  0.00    -0.550 OA
ATOM      8  O   UNL     1      22.564  62.388   6.796  1.00  0.00    -0.550 OA
ENDBRANCH   5   6
ENDBRANCH   1   5
TORSDOF 3
ENDMDL
MODEL 9
REMARK VINA RESULT:    -3.017     12.736     13.635
REMARK INTER + INTRA:          -3.719
REMARK INTER:                  -3.527
REMARK INTRA:                  -0.192
REMARK UNBOUND:                -0.173
REMARK SMILES O=C([O-])CCC(=O)[O-]
REMARK SMILES IDX 4 1 2 2 1 3 3 4 5 5 6 6 7 7 8 8
REMARK H PARENT
REMARK Flexibility Score: inf
ROOT
ATOM      1  C   UNL     1      18.640  55.222  14.256  1.00  0.00     0.059 C 
ENDROOT
BRANCH   1   2
ATOM      2  C   UNL     1      17.874  55.003  15.525  1.00  0.00     0.042 C 
ATOM      3  O   UNL     1      17.900  55.869  16.438  1.00  0.00    -0.550 OA
ATOM      4  O   UNL     1      17.166  53.822  15.716  1.00  0.00    -0.550 OA
ENDBRANCH   1   2
BRANCH   1   5
ATOM      5  C   UNL     1      19.698  54.135  14.039  1.00  0.00     0.059 C 
BRANCH   5   6
ATOM      6  C   UNL     1      20.681  54.087  15.168  1.00  0.00     0.042 C 
ATOM      7  O   UNL     1      20.830  53.029  15.834  1.00  0.00    -0.550 OA
ATOM      8  O   UNL     1      21.404  55.222  15.511  1.00  0.00    -0.550 OA
ENDBRANCH   5   6
ENDBRANCH   1   5
TORSDOF 3
ENDMDL
