MODEL 1
REMARK VINA RESULT:    -7.755      0.000      0.000
REMARK INTER + INTRA:         -12.821
REMARK INTER:                 -11.382
REMARK INTRA:                  -1.439
REMARK UNBOUND:                -1.439
REMARK SMILES O=c1c(O[C@H]2O[C@H](CO)[C@@H](O)[C@@H](O)[C@H]2O)c(-c2ccc(O)c(O)c2)oc2cc(O)cc(O)c12
REMARK SMILES IDX 4 1 3 2 16 3 25 4 2 5 26 6 1 7 33 8 27 9 31 10 28 11 30 12
REMARK SMILES IDX 17 13 18 14 19 15 20 16 24 17 22 18 21 19 23 21 32 23 29 25
REMARK SMILES IDX 5 27 14 28 6 29 12 30 7 31 10 32 15 33 13 35 8 37 9 38 11 40
REMARK H PARENT 21 20 23 22 32 24 29 26 15 34 13 36 9 39 11 41
REMARK Flexibility Score: inf
ROOT
ATOM      1  O   UNL     1      54.612   5.678  81.644  1.00  0.00    -0.454 OA
ENDROOT
BRANCH   1   2
ATOM      2  C   UNL     1      53.881   5.181  80.557  1.00  0.00     0.214 A 
ATOM      3  C   UNL     1      54.448   5.059  79.273  1.00  0.00     0.180 A 
ATOM      4  O   UNL     1      53.758   4.473  78.303  1.00  0.00    -0.452 OA
ATOM      5  C   UNL     1      52.557   4.778  80.753  1.00  0.00     0.239 A 
ATOM      6  C   UNL     1      52.510   4.044  78.452  1.00  0.00     0.146 A 
ATOM      7  O   UNL     1      52.068   4.877  81.909  1.00  0.00    -0.285 OA
ATOM      8  C   UNL     1      51.820   4.223  79.680  1.00  0.00     0.111 A 
ATOM      9  C   UNL     1      51.886   3.415  77.372  1.00  0.00     0.094 A 
ATOM     10  C   UNL     1      50.460   3.796  79.766  1.00  0.00     0.134 A 
ATOM     11  C   UNL     1      50.578   2.949  77.485  1.00  0.00     0.123 A 
ATOM     12  C   UNL     1      49.874   3.138  78.677  1.00  0.00     0.093 A 
BRANCH   3  13
ATOM     13  C   UNL     1      55.799   5.572  78.956  1.00  0.00     0.025 A 
ATOM     14  C   UNL     1      56.940   4.781  79.165  1.00  0.00     0.016 A 
ATOM     15  C   UNL     1      58.210   5.283  78.871  1.00  0.00     0.051 A 
ATOM     16  C   UNL     1      58.357   6.587  78.381  1.00  0.00     0.157 A 
ATOM     17  C   UNL     1      55.952   6.887  78.488  1.00  0.00     0.062 A 
ATOM     18  C   UNL     1      57.223   7.394  78.193  1.00  0.00     0.158 A 
BRANCH  16  19
ATOM     19  O   UNL     1      59.626   7.083  78.084  1.00  0.00    -0.504 OA
ATOM     20  H   UNL     1      60.378   6.474  77.784  1.00  0.00     0.293 HD
ENDBRANCH  16  19
BRANCH  18  21
ATOM     21  O   UNL     1      57.337   8.699  77.714  1.00  0.00    -0.504 OA
ATOM     22  H   UNL     1      56.713   9.068  77.007  1.00  0.00     0.293 HD
ENDBRANCH  18  21
ENDBRANCH   3  13
BRANCH  10  23
ATOM     23  O   UNL     1      49.642   4.014  80.877  1.00  0.00    -0.507 OA
ATOM     24  H   UNL     1      49.649   3.454  81.716  1.00  0.00     0.293 HD
ENDBRANCH  10  23
BRANCH  11  25
ATOM     25  O   UNL     1      49.982   2.307  76.402  1.00  0.00    -0.508 OA
ATOM     26  H   UNL     1      50.519   2.022  75.592  1.00  0.00     0.293 HD
ENDBRANCH  11  25
ENDBRANCH   1   2
BRANCH   1  27
ATOM     27  C   UNL     1      54.854   4.918  82.835  1.00  0.00     0.339 C 
ATOM     28  C   UNL     1      54.767   5.813  84.089  1.00  0.00     0.214 C 
ATOM     29  O   UNL     1      56.107   4.258  82.769  1.00  0.00    -0.332 OA
ATOM     30  C   UNL     1      55.932   6.816  84.123  1.00  0.00     0.180 C 
ATOM     31  C   UNL     1      57.184   5.175  82.655  1.00  0.00     0.179 C 
ATOM     32  C   UNL     1      57.265   6.074  83.915  1.00  0.00     0.177 C 
BRANCH  28  33
ATOM     33  O   UNL     1      53.541   6.497  84.125  1.00  0.00    -0.384 OA
ATOM     34  H   UNL     1      52.948   5.991  84.740  1.00  0.00     0.211 HD
ENDBRANCH  28  33
BRANCH  30  35
ATOM     35  O   UNL     1      55.775   7.795  83.124  1.00  0.00    -0.387 OA
ATOM     36  H   UNL     1      56.685   8.112  82.883  1.00  0.00     0.211 HD
ENDBRANCH  30  35
BRANCH  31  37
ATOM     37  C   UNL     1      58.473   4.359  82.464  1.00  0.00     0.191 C 
BRANCH  37  38
ATOM     38  O   UNL     1      59.255   4.361  83.627  1.00  0.00    -0.394 OA
ATOM     39  H   UNL     1      60.190   4.187  83.342  1.00  0.00     0.210 HD
ENDBRANCH  37  38
ENDBRANCH  31  37
BRANCH  32  40
ATOM     40  O   UNL     1      58.310   7.003  83.781  1.00  0.00    -0.387 OA
ATOM     41  H   UNL     1      57.937   7.787  83.298  1.00  0.00     0.211 HD
ENDBRANCH  32  40
ENDBRANCH   1  27
TORSDOF 12
ENDMDL
MODEL 2
REMARK VINA RESULT:    -7.330      2.038      6.387
REMARK INTER + INTRA:         -12.198
REMARK INTER:                 -10.198
REMARK INTRA:                  -2.000
REMARK UNBOUND:                -1.439
REMARK SMILES O=c1c(O[C@H]2O[C@H](CO)[C@@H](O)[C@@H](O)[C@H]2O)c(-c2ccc(O)c(O)c2)oc2cc(O)cc(O)c12
REMARK SMILES IDX 4 1 3 2 16 3 25 4 2 5 26 6 1 7 33 8 27 9 31 10 28 11 30 12
REMARK SMILES IDX 17 13 18 14 19 15 20 16 24 17 22 18 21 19 23 21 32 23 29 25
REMARK SMILES IDX 5 27 14 28 6 29 12 30 7 31 10 32 15 33 13 35 8 37 9 38 11 40
REMARK H PARENT 21 20 23 22 32 24 29 26 15 34 13 36 9 39 11 41
REMARK Flexibility Score: inf
ROOT
ATOM      1  O   UNL     1      55.965   4.970  81.507  1.00  0.00    -0.454 OA
ENDROOT
BRANCH   1   2
ATOM      2  C   UNL     1      56.391   5.819  80.478  1.00  0.00     0.214 A 
ATOM      3  C   UNL     1      55.746   5.851  79.226  1.00  0.00     0.180 A 
ATOM      4  O   UNL     1      56.108   6.755  78.324  1.00  0.00    -0.452 OA
ATOM      5  C   UNL     1      57.476   6.672  80.704  1.00  0.00     0.239 A 
ATOM      6  C   UNL     1      57.110   7.607  78.506  1.00  0.00     0.146 A 
ATOM      7  O   UNL     1      58.032   6.644  81.833  1.00  0.00    -0.285 OA
ATOM      8  C   UNL     1      57.886   7.576  79.695  1.00  0.00     0.111 A 
ATOM      9  C   UNL     1      57.388   8.536  77.501  1.00  0.00     0.094 A 
ATOM     10  C   UNL     1      58.988   8.475  79.813  1.00  0.00     0.134 A 
ATOM     11  C   UNL     1      58.429   9.449  77.651  1.00  0.00     0.123 A 
ATOM     12  C   UNL     1      59.220   9.417  78.802  1.00  0.00     0.093 A 
BRANCH   3  13
ATOM     13  C   UNL     1      54.672   4.900  78.868  1.00  0.00     0.025 A 
ATOM     14  C   UNL     1      53.321   5.280  78.928  1.00  0.00     0.016 A 
ATOM     15  C   UNL     1      52.317   4.367  78.597  1.00  0.00     0.051 A 
ATOM     16  C   UNL     1      52.647   3.059  78.219  1.00  0.00     0.157 A 
ATOM     17  C   UNL     1      54.999   3.582  78.512  1.00  0.00     0.062 A 
ATOM     18  C   UNL     1      53.995   2.664  78.181  1.00  0.00     0.158 A 
BRANCH  16  19
ATOM     19  O   UNL     1      51.642   2.152  77.884  1.00  0.00    -0.504 OA
ATOM     20  H   UNL     1      51.563   1.769  76.950  1.00  0.00     0.293 HD
ENDBRANCH  16  19
BRANCH  18  21
ATOM     21  O   UNL     1      54.357   1.368  77.816  1.00  0.00    -0.504 OA
ATOM     22  H   UNL     1      54.783   1.161  76.921  1.00  0.00     0.293 HD
ENDBRANCH  18  21
ENDBRANCH   3  13
BRANCH  10  23
ATOM     23  O   UNL     1      59.892   8.468  80.878  1.00  0.00    -0.507 OA
ATOM     24  H   UNL     1      59.647   8.639  81.842  1.00  0.00     0.293 HD
ENDBRANCH  10  23
BRANCH  11  25
ATOM     25  O   UNL     1      58.677  10.381  76.645  1.00  0.00    -0.508 OA
ATOM     26  H   UNL     1      58.517  11.371  76.787  1.00  0.00     0.293 HD
ENDBRANCH  11  25
ENDBRANCH   1   2
BRANCH   1  27
ATOM     27  C   UNL     1      55.055   5.383  82.535  1.00  0.00     0.339 C 
ATOM     28  C   UNL     1      55.593   5.012  83.932  1.00  0.00     0.214 C 
ATOM     29  O   UNL     1      53.766   4.830  82.324  1.00  0.00    -0.332 OA
ATOM     30  C   UNL     1      55.600   3.486  84.124  1.00  0.00     0.180 C 
ATOM     31  C   UNL     1      53.787   3.411  82.357  1.00  0.00     0.179 C 
ATOM     32  C   UNL     1      54.220   2.909  83.757  1.00  0.00     0.177 C 
BRANCH  28  33
ATOM     33  O   UNL     1      56.887   5.525  84.118  1.00  0.00    -0.384 OA
ATOM     34  H   UNL     1      57.306   5.578  83.219  1.00  0.00     0.211 HD
ENDBRANCH  28  33
BRANCH  30  35
ATOM     35  O   UNL     1      56.590   2.888  83.323  1.00  0.00    -0.387 OA
ATOM     36  H   UNL     1      56.327   3.037  82.378  1.00  0.00     0.211 HD
ENDBRANCH  30  35
BRANCH  31  37
ATOM     37  C   UNL     1      52.378   2.917  81.993  1.00  0.00     0.191 C 
BRANCH  37  38
ATOM     38  O   UNL     1      51.666   2.521  83.134  1.00  0.00    -0.394 OA
ATOM     39  H   UNL     1      50.719   2.410  82.856  1.00  0.00     0.210 HD
ENDBRANCH  37  38
ENDBRANCH  31  37
BRANCH  32  40
ATOM     40  O   UNL     1      54.273   1.505  83.773  1.00  0.00    -0.387 OA
ATOM     41  H   UNL     1      53.597   1.185  83.120  1.00  0.00     0.211 HD
ENDBRANCH  32  40
ENDBRANCH   1  27
TORSDOF 12
ENDMDL
MODEL 3
REMARK VINA RESULT:    -7.108      2.267      6.117
REMARK INTER + INTRA:         -11.872
REMARK INTER:                 -10.099
REMARK INTRA:                  -1.774
REMARK UNBOUND:                -1.439
REMARK SMILES O=c1c(O[C@H]2O[C@H](CO)[C@@H](O)[C@@H](O)[C@H]2O)c(-c2ccc(O)c(O)c2)oc2cc(O)cc(O)c12
REMARK SMILES IDX 4 1 3 2 16 3 25 4 2 5 26 6 1 7 33 8 27 9 31 10 28 11 30 12
REMARK SMILES IDX 17 13 18 14 19 15 20 16 24 17 22 18 21 19 23 21 32 23 29 25
REMARK SMILES IDX 5 27 14 28 6 29 12 30 7 31 10 32 15 33 13 35 8 37 9 38 11 40
REMARK H PARENT 21 20 23 22 32 24 29 26 15 34 13 36 9 39 11 41
REMARK Flexibility Score: inf
ROOT
ATOM      1  O   UNL     1      54.991   5.771  80.184  1.00  0.00    -0.454 OA
ENDROOT
BRANCH   1   2
ATOM      2  C   UNL     1      54.704   6.575  79.074  1.00  0.00     0.214 A 
ATOM      3  C   UNL     1      53.576   6.346  78.261  1.00  0.00     0.180 A 
ATOM      4  O   UNL     1      53.278   7.204  77.293  1.00  0.00    -0.452 OA
ATOM      5  C   UNL     1      55.548   7.648  78.773  1.00  0.00     0.239 A 
ATOM      6  C   UNL     1      54.033   8.254  76.992  1.00  0.00     0.146 A 
ATOM      7  O   UNL     1      56.543   7.852  79.517  1.00  0.00    -0.285 OA
ATOM      8  C   UNL     1      55.245   8.505  77.688  1.00  0.00     0.111 A 
ATOM      9  C   UNL     1      53.609   9.110  75.972  1.00  0.00     0.094 A 
ATOM     10  C   UNL     1      56.045   9.615  77.283  1.00  0.00     0.134 A 
ATOM     11  C   UNL     1      54.369  10.224  75.624  1.00  0.00     0.123 A 
ATOM     12  C   UNL     1      55.578  10.473  76.279  1.00  0.00     0.093 A 
BRANCH   3  13
ATOM     13  C   UNL     1      52.703   5.166  78.440  1.00  0.00     0.025 A 
ATOM     14  C   UNL     1      52.845   4.032  77.624  1.00  0.00     0.016 A 
ATOM     15  C   UNL     1      52.006   2.928  77.798  1.00  0.00     0.051 A 
ATOM     16  C   UNL     1      51.006   2.949  78.778  1.00  0.00     0.157 A 
ATOM     17  C   UNL     1      51.684   5.193  79.406  1.00  0.00     0.062 A 
ATOM     18  C   UNL     1      50.841   4.089  79.583  1.00  0.00     0.158 A 
BRANCH  16  19
ATOM     19  O   UNL     1      50.174   1.844  78.952  1.00  0.00    -0.504 OA
ATOM     20  H   UNL     1      49.477   1.590  78.262  1.00  0.00     0.293 HD
ENDBRANCH  16  19
BRANCH  18  21
ATOM     21  O   UNL     1      49.850   4.144  80.561  1.00  0.00    -0.504 OA
ATOM     22  H   UNL     1      49.378   5.008  80.800  1.00  0.00     0.293 HD
ENDBRANCH  18  21
ENDBRANCH   3  13
BRANCH  10  23
ATOM     23  O   UNL     1      57.307   9.902  77.811  1.00  0.00    -0.507 OA
ATOM     24  H   UNL     1      57.985  10.514  77.383  1.00  0.00     0.293 HD
ENDBRANCH  10  23
BRANCH  11  25
ATOM     25  O   UNL     1      53.919  11.075  74.616  1.00  0.00    -0.508 OA
ATOM     26  H   UNL     1      53.951  10.806  73.640  1.00  0.00     0.293 HD
ENDBRANCH  11  25
ENDBRANCH   1   2
BRANCH   1  27
ATOM     27  C   UNL     1      54.876   6.235  81.536  1.00  0.00     0.339 C 
ATOM     28  C   UNL     1      56.154   5.919  82.340  1.00  0.00     0.214 C 
ATOM     29  O   UNL     1      53.731   5.683  82.165  1.00  0.00    -0.332 OA
ATOM     30  C   UNL     1      56.305   4.403  82.547  1.00  0.00     0.180 C 
ATOM     31  C   UNL     1      53.795   4.266  82.233  1.00  0.00     0.179 C 
ATOM     32  C   UNL     1      54.994   3.821  83.108  1.00  0.00     0.177 C 
BRANCH  28  33
ATOM     33  O   UNL     1      57.288   6.431  81.689  1.00  0.00    -0.384 OA
ATOM     34  H   UNL     1      57.930   5.678  81.598  1.00  0.00     0.211 HD
ENDBRANCH  28  33
BRANCH  30  35
ATOM     35  O   UNL     1      56.625   3.764  81.335  1.00  0.00    -0.387 OA
ATOM     36  H   UNL     1      57.473   3.269  81.483  1.00  0.00     0.211 HD
ENDBRANCH  30  35
BRANCH  31  37
ATOM     37  C   UNL     1      52.461   3.767  82.811  1.00  0.00     0.191 C 
BRANCH  37  38
ATOM     38  O   UNL     1      52.087   2.540  82.244  1.00  0.00    -0.394 OA
ATOM     39  H   UNL     1      51.128   2.620  81.999  1.00  0.00     0.210 HD
ENDBRANCH  37  38
ENDBRANCH  31  37
BRANCH  32  40
ATOM     40  O   UNL     1      55.073   2.419  83.143  1.00  0.00    -0.387 OA
ATOM     41  H   UNL     1      55.902   2.191  83.641  1.00  0.00     0.211 HD
ENDBRANCH  32  40
ENDBRANCH   1  27
TORSDOF 12
ENDMDL
MODEL 4
REMARK VINA RESULT:    -7.048      2.305      5.888
REMARK INTER + INTRA:         -11.784
REMARK INTER:                 -10.551
REMARK INTRA:                  -1.233
REMARK UNBOUND:                -1.439
REMARK SMILES O=c1c(O[C@H]2O[C@H](CO)[C@@H](O)[C@@H](O)[C@H]2O)c(-c2ccc(O)c(O)c2)oc2cc(O)cc(O)c12
REMARK SMILES IDX 4 1 3 2 16 3 25 4 2 5 26 6 1 7 33 8 27 9 31 10 28 11 30 12
REMARK SMILES IDX 17 13 18 14 19 15 20 16 24 17 22 18 21 19 23 21 32 23 29 25
REMARK SMILES IDX 5 27 14 28 6 29 12 30 7 31 10 32 15 33 13 35 8 37 9 38 11 40
REMARK H PARENT 21 20 23 22 32 24 29 26 15 34 13 36 9 39 11 41
REMARK Flexibility Score: inf
ROOT
ATOM      1  O   UNL     1      54.835   5.741  80.111  1.00  0.00    -0.454 OA
ENDROOT
BRANCH   1   2
ATOM      2  C   UNL     1      54.513   6.558  79.019  1.00  0.00     0.214 A 
ATOM      3  C   UNL     1      53.350   6.348  78.251  1.00  0.00     0.180 A 
ATOM      4  O   UNL     1      53.024   7.218  77.303  1.00  0.00    -0.452 OA
ATOM      5  C   UNL     1      55.357   7.623  78.692  1.00  0.00     0.239 A 
ATOM      6  C   UNL     1      53.778   8.262  76.980  1.00  0.00     0.146 A 
ATOM      7  O   UNL     1      56.384   7.809  79.397  1.00  0.00    -0.285 OA
ATOM      8  C   UNL     1      55.020   8.492  77.627  1.00  0.00     0.111 A 
ATOM      9  C   UNL     1      53.324   9.130  75.984  1.00  0.00     0.094 A 
ATOM     10  C   UNL     1      55.817   9.596  77.199  1.00  0.00     0.134 A 
ATOM     11  C   UNL     1      54.082  10.238  75.614  1.00  0.00     0.123 A 
ATOM     12  C   UNL     1      55.319  10.468  76.222  1.00  0.00     0.093 A 
BRANCH   3  13
ATOM     13  C   UNL     1      52.471   5.177  78.457  1.00  0.00     0.025 A 
ATOM     14  C   UNL     1      52.487   4.096  77.560  1.00  0.00     0.016 A 
ATOM     15  C   UNL     1      51.644   3.001  77.762  1.00  0.00     0.051 A 
ATOM     16  C   UNL     1      50.763   2.978  78.850  1.00  0.00     0.157 A 
ATOM     17  C   UNL     1      51.571   5.162  79.534  1.00  0.00     0.062 A 
ATOM     18  C   UNL     1      50.723   4.067  79.738  1.00  0.00     0.158 A 
BRANCH  16  19
ATOM     19  O   UNL     1      49.926   1.881  79.051  1.00  0.00    -0.504 OA
ATOM     20  H   UNL     1      49.482   1.403  78.276  1.00  0.00     0.293 HD
ENDBRANCH  16  19
BRANCH  18  21
ATOM     21  O   UNL     1      49.852   4.078  80.827  1.00  0.00    -0.504 OA
ATOM     22  H   UNL     1      49.001   3.529  80.840  1.00  0.00     0.293 HD
ENDBRANCH  18  21
ENDBRANCH   3  13
BRANCH  10  23
ATOM     23  O   UNL     1      57.102   9.864  77.678  1.00  0.00    -0.507 OA
ATOM     24  H   UNL     1      57.602  10.728  77.533  1.00  0.00     0.293 HD
ENDBRANCH  10  23
BRANCH  11  25
ATOM     25  O   UNL     1      53.602  11.103  74.633  1.00  0.00    -0.508 OA
ATOM     26  H   UNL     1      54.022  11.145  73.711  1.00  0.00     0.293 HD
ENDBRANCH  11  25
ENDBRANCH   1   2
BRANCH   1  27
ATOM     27  C   UNL     1      55.291   4.390  79.968  1.00  0.00     0.339 C 
ATOM     28  C   UNL     1      55.228   3.640  81.314  1.00  0.00     0.214 C 
ATOM     29  O   UNL     1      56.601   4.351  79.426  1.00  0.00    -0.332 OA
ATOM     30  C   UNL     1      56.261   4.209  82.302  1.00  0.00     0.180 C 
ATOM     31  C   UNL     1      57.541   5.003  80.266  1.00  0.00     0.179 C 
ATOM     32  C   UNL     1      57.644   4.274  81.629  1.00  0.00     0.177 C 
BRANCH  28  33
ATOM     33  O   UNL     1      53.940   3.719  81.866  1.00  0.00    -0.384 OA
ATOM     34  H   UNL     1      53.427   4.359  81.306  1.00  0.00     0.211 HD
ENDBRANCH  28  33
BRANCH  30  35
ATOM     35  O   UNL     1      55.883   5.495  82.731  1.00  0.00    -0.387 OA
ATOM     36  H   UNL     1      55.659   5.424  83.695  1.00  0.00     0.211 HD
ENDBRANCH  30  35
BRANCH  31  37
ATOM     37  C   UNL     1      58.892   5.015  79.532  1.00  0.00     0.191 C 
BRANCH  37  38
ATOM     38  O   UNL     1      59.206   6.299  79.063  1.00  0.00    -0.394 OA
ATOM     39  H   UNL     1      59.814   6.179  78.288  1.00  0.00     0.210 HD
ENDBRANCH  37  38
ENDBRANCH  31  37
BRANCH  32  40
ATOM     40  O   UNL     1      58.550   4.943  82.469  1.00  0.00    -0.387 OA
ATOM     41  H   UNL     1      58.200   4.857  83.395  1.00  0.00     0.211 HD
ENDBRANCH  32  40
ENDBRANCH   1  27
TORSDOF 12
ENDMDL
MODEL 5
REMARK VINA RESULT:    -6.336      2.810      5.682
REMARK INTER + INTRA:         -10.739
REMARK INTER:                  -8.998
REMARK INTRA:                  -1.741
REMARK UNBOUND:                -1.439
REMARK SMILES O=c1c(O[C@H]2O[C@H](CO)[C@@H](O)[C@@H](O)[C@H]2O)c(-c2ccc(O)c(O)c2)oc2cc(O)cc(O)c12
REMARK SMILES IDX 4 1 3 2 16 3 25 4 2 5 26 6 1 7 33 8 27 9 31 10 28 11 30 12
REMARK SMILES IDX 17 13 18 14 19 15 20 16 24 17 22 18 21 19 23 21 32 23 29 25
REMARK SMILES IDX 5 27 14 28 6 29 12 30 7 31 10 32 15 33 13 35 8 37 9 38 11 40
REMARK H PARENT 21 20 23 22 32 24 29 26 15 34 13 36 9 39 11 41
REMARK Flexibility Score: inf
ROOT
ATOM      1  O   UNL     1      56.768   6.920  79.829  1.00  0.00    -0.454 OA
ENDROOT
BRANCH   1   2
ATOM      2  C   UNL     1      55.782   6.104  80.397  1.00  0.00     0.214 A 
ATOM      3  C   UNL     1      54.427   6.206  80.026  1.00  0.00     0.180 A 
ATOM      4  O   UNL     1      53.547   5.333  80.501  1.00  0.00    -0.452 OA
ATOM      5  C   UNL     1      56.153   5.147  81.347  1.00  0.00     0.239 A 
ATOM      6  C   UNL     1      53.860   4.387  81.379  1.00  0.00     0.146 A 
ATOM      7  O   UNL     1      57.370   5.054  81.657  1.00  0.00    -0.285 OA
ATOM      8  C   UNL     1      55.180   4.276  81.892  1.00  0.00     0.111 A 
ATOM      9  C   UNL     1      52.861   3.503  81.792  1.00  0.00     0.094 A 
ATOM     10  C   UNL     1      55.446   3.278  82.877  1.00  0.00     0.134 A 
ATOM     11  C   UNL     1      53.145   2.495  82.710  1.00  0.00     0.123 A 
ATOM     12  C   UNL     1      54.431   2.385  83.245  1.00  0.00     0.093 A 
BRANCH   3  13
ATOM     13  C   UNL     1      53.936   7.268  79.121  1.00  0.00     0.025 A 
ATOM     14  C   UNL     1      53.550   8.522  79.622  1.00  0.00     0.016 A 
ATOM     15  C   UNL     1      53.079   9.513  78.756  1.00  0.00     0.051 A 
ATOM     16  C   UNL     1      52.972   9.258  77.383  1.00  0.00     0.157 A 
ATOM     17  C   UNL     1      53.805   7.008  77.748  1.00  0.00     0.062 A 
ATOM     18  C   UNL     1      53.333   7.997  76.877  1.00  0.00     0.158 A 
BRANCH  16  19
ATOM     19  O   UNL     1      52.506  10.250  76.521  1.00  0.00    -0.504 OA
ATOM     20  H   UNL     1      52.993  10.478  75.662  1.00  0.00     0.293 HD
ENDBRANCH  16  19
BRANCH  18  21
ATOM     21  O   UNL     1      53.230   7.710  75.517  1.00  0.00    -0.504 OA
ATOM     22  H   UNL     1      52.922   6.805  75.181  1.00  0.00     0.293 HD
ENDBRANCH  18  21
ENDBRANCH   3  13
BRANCH  10  23
ATOM     23  O   UNL     1      56.669   3.140  83.537  1.00  0.00    -0.507 OA
ATOM     24  H   UNL     1      57.463   2.631  83.177  1.00  0.00     0.293 HD
ENDBRANCH  10  23
BRANCH  11  25
ATOM     25  O   UNL     1      52.139   1.611  83.093  1.00  0.00    -0.508 OA
ATOM     26  H   UNL     1      52.291   0.609  83.111  1.00  0.00     0.293 HD
ENDBRANCH  11  25
ENDBRANCH   1   2
BRANCH   1  27
ATOM     27  C   UNL     1      57.296   6.707  78.513  1.00  0.00     0.339 C 
ATOM     28  C   UNL     1      58.836   6.616  78.544  1.00  0.00     0.214 C 
ATOM     29  O   UNL     1      56.865   7.724  77.623  1.00  0.00    -0.332 OA
ATOM     30  C   UNL     1      59.454   7.978  78.906  1.00  0.00     0.180 C 
ATOM     31  C   UNL     1      57.312   9.008  78.030  1.00  0.00     0.179 C 
ATOM     32  C   UNL     1      58.860   9.075  78.003  1.00  0.00     0.177 C 
BRANCH  28  33
ATOM     33  O   UNL     1      59.257   5.639  79.459  1.00  0.00    -0.384 OA
ATOM     34  H   UNL     1      59.259   6.067  80.355  1.00  0.00     0.211 HD
ENDBRANCH  28  33
BRANCH  30  35
ATOM     35  O   UNL     1      59.210   8.292  80.255  1.00  0.00    -0.387 OA
ATOM     36  H   UNL     1      59.922   8.922  80.540  1.00  0.00     0.211 HD
ENDBRANCH  30  35
BRANCH  31  37
ATOM     37  C   UNL     1      56.689  10.041  77.077  1.00  0.00     0.191 C 
BRANCH  37  38
ATOM     38  O   UNL     1      57.642  10.553  76.186  1.00  0.00    -0.394 OA
ATOM     39  H   UNL     1      57.212  10.576  75.291  1.00  0.00     0.210 HD
ENDBRANCH  37  38
ENDBRANCH  31  37
BRANCH  32  40
ATOM     40  O   UNL     1      59.298  10.337  78.440  1.00  0.00    -0.387 OA
ATOM     41  H   UNL     1      59.614  10.825  77.636  1.00  0.00     0.211 HD
ENDBRANCH  32  40
ENDBRANCH   1  27
TORSDOF 12
ENDMDL
MODEL 6
REMARK VINA RESULT:    -6.245      3.070      5.897
REMARK INTER + INTRA:         -10.605
REMARK INTER:                  -8.508
REMARK INTRA:                  -2.097
REMARK UNBOUND:                -1.439
REMARK SMILES O=c1c(O[C@H]2O[C@H](CO)[C@@H](O)[C@@H](O)[C@H]2O)c(-c2ccc(O)c(O)c2)oc2cc(O)cc(O)c12
REMARK SMILES IDX 4 1 3 2 16 3 25 4 2 5 26 6 1 7 33 8 27 9 31 10 28 11 30 12
REMARK SMILES IDX 17 13 18 14 19 15 20 16 24 17 22 18 21 19 23 21 32 23 29 25
REMARK SMILES IDX 5 27 14 28 6 29 12 30 7 31 10 32 15 33 13 35 8 37 9 38 11 40
REMARK H PARENT 21 20 23 22 32 24 29 26 15 34 13 36 9 39 11 41
REMARK Flexibility Score: inf
ROOT
ATOM      1  O   UNL     1      56.107   7.321  79.109  1.00  0.00    -0.454 OA
ENDROOT
BRANCH   1   2
ATOM      2  C   UNL     1      55.066   7.821  78.316  1.00  0.00     0.214 A 
ATOM      3  C   UNL     1      53.756   7.312  78.400  1.00  0.00     0.180 A 
ATOM      4  O   UNL     1      52.779   7.896  77.717  1.00  0.00    -0.452 OA
ATOM      5  C   UNL     1      55.330   8.869  77.428  1.00  0.00     0.239 A 
ATOM      6  C   UNL     1      52.976   8.913  76.887  1.00  0.00     0.146 A 
ATOM      7  O   UNL     1      56.502   9.327  77.375  1.00  0.00    -0.285 OA
ATOM      8  C   UNL     1      54.281   9.425  76.658  1.00  0.00     0.111 A 
ATOM      9  C   UNL     1      51.871   9.471  76.240  1.00  0.00     0.094 A 
ATOM     10  C   UNL     1      54.442  10.481  75.711  1.00  0.00     0.134 A 
ATOM     11  C   UNL     1      52.031  10.541  75.362  1.00  0.00     0.123 A 
ATOM     12  C   UNL     1      53.310  11.041  75.104  1.00  0.00     0.093 A 
BRANCH   3  13
ATOM     13  C   UNL     1      53.422   6.130  79.223  1.00  0.00     0.025 A 
ATOM     14  C   UNL     1      52.713   6.266  80.428  1.00  0.00     0.016 A 
ATOM     15  C   UNL     1      52.413   5.141  81.200  1.00  0.00     0.051 A 
ATOM     16  C   UNL     1      52.832   3.869  80.789  1.00  0.00     0.157 A 
ATOM     17  C   UNL     1      53.861   4.857  78.825  1.00  0.00     0.062 A 
ATOM     18  C   UNL     1      53.564   3.728  79.597  1.00  0.00     0.158 A 
BRANCH  16  19
ATOM     19  O   UNL     1      52.527   2.748  81.560  1.00  0.00    -0.504 OA
ATOM     20  H   UNL     1      51.796   2.100  81.289  1.00  0.00     0.293 HD
ENDBRANCH  16  19
BRANCH  18  21
ATOM     21  O   UNL     1      54.002   2.477  79.164  1.00  0.00    -0.504 OA
ATOM     22  H   UNL     1      54.976   2.202  79.214  1.00  0.00     0.293 HD
ENDBRANCH  18  21
ENDBRANCH   3  13
BRANCH  10  23
ATOM     23  O   UNL     1      55.680  10.993  75.316  1.00  0.00    -0.507 OA
ATOM     24  H   UNL     1      55.807  11.808  74.734  1.00  0.00     0.293 HD
ENDBRANCH  10  23
BRANCH  11  25
ATOM     25  O   UNL     1      50.914  11.095  74.743  1.00  0.00    -0.508 OA
ATOM     26  H   UNL     1      50.984  11.922  74.162  1.00  0.00     0.293 HD
ENDBRANCH  11  25
ENDBRANCH   1   2
BRANCH   1  27
ATOM     27  C   UNL     1      56.482   7.904  80.364  1.00  0.00     0.339 C 
ATOM     28  C   UNL     1      58.014   8.056  80.467  1.00  0.00     0.214 C 
ATOM     29  O   UNL     1      55.973   7.145  81.448  1.00  0.00    -0.332 OA
ATOM     30  C   UNL     1      58.692   6.678  80.554  1.00  0.00     0.180 C 
ATOM     31  C   UNL     1      56.485   5.821  81.454  1.00  0.00     0.179 C 
ATOM     32  C   UNL     1      58.021   5.837  81.655  1.00  0.00     0.177 C 
BRANCH  28  33
ATOM     33  O   UNL     1      58.516   8.771  79.368  1.00  0.00    -0.384 OA
ATOM     34  H   UNL     1      59.015   8.120  78.806  1.00  0.00     0.211 HD
ENDBRANCH  28  33
BRANCH  30  35
ATOM     35  O   UNL     1      58.604   6.002  79.323  1.00  0.00    -0.387 OA
ATOM     36  H   UNL     1      59.046   5.121  79.444  1.00  0.00     0.211 HD
ENDBRANCH  30  35
BRANCH  31  37
ATOM     37  C   UNL     1      55.778   5.054  82.583  1.00  0.00     0.191 C 
BRANCH  37  38
ATOM     38  O   UNL     1      55.889   3.668  82.405  1.00  0.00    -0.394 OA
ATOM     39  H   UNL     1      55.530   3.245  83.228  1.00  0.00     0.210 HD
ENDBRANCH  37  38
ENDBRANCH  31  37
BRANCH  32  40
ATOM     40  O   UNL     1      58.527   4.526  81.625  1.00  0.00    -0.387 OA
ATOM     41  H   UNL     1      59.513   4.601  81.532  1.00  0.00     0.211 HD
ENDBRANCH  32  40
ENDBRANCH   1  27
TORSDOF 12
ENDMDL
MODEL 7
REMARK VINA RESULT:    -6.172      2.574      5.069
REMARK INTER + INTRA:         -10.498
REMARK INTER:                  -8.359
REMARK INTRA:                  -2.140
REMARK UNBOUND:                -1.439
REMARK SMILES O=c1c(O[C@H]2O[C@H](CO)[C@@H](O)[C@@H](O)[C@H]2O)c(-c2ccc(O)c(O)c2)oc2cc(O)cc(O)c12
REMARK SMILES IDX 4 1 3 2 16 3 25 4 2 5 26 6 1 7 33 8 27 9 31 10 28 11 30 12
REMARK SMILES IDX 17 13 18 14 19 15 20 16 24 17 22 18 21 19 23 21 32 23 29 25
REMARK SMILES IDX 5 27 14 28 6 29 12 30 7 31 10 32 15 33 13 35 8 37 9 38 11 40
REMARK H PARENT 21 20 23 22 32 24 29 26 15 34 13 36 9 39 11 41
REMARK Flexibility Score: inf
ROOT
ATOM      1  O   UNL     1      53.793   7.197  78.764  1.00  0.00    -0.454 OA
ENDROOT
BRANCH   1   2
ATOM      2  C   UNL     1      53.776   6.135  79.677  1.00  0.00     0.214 A 
ATOM      3  C   UNL     1      54.959   5.630  80.253  1.00  0.00     0.180 A 
ATOM      4  O   UNL     1      54.884   4.705  81.202  1.00  0.00    -0.452 OA
ATOM      5  C   UNL     1      52.550   5.571  80.043  1.00  0.00     0.239 A 
ATOM      6  C   UNL     1      53.741   4.164  81.605  1.00  0.00     0.146 A 
ATOM      7  O   UNL     1      51.500   6.042  79.533  1.00  0.00    -0.285 OA
ATOM      8  C   UNL     1      52.508   4.534  81.005  1.00  0.00     0.111 A 
ATOM      9  C   UNL     1      53.775   3.218  82.632  1.00  0.00     0.094 A 
ATOM     10  C   UNL     1      51.317   3.877  81.436  1.00  0.00     0.134 A 
ATOM     11  C   UNL     1      52.600   2.625  83.086  1.00  0.00     0.123 A 
ATOM     12  C   UNL     1      51.379   2.957  82.491  1.00  0.00     0.093 A 
BRANCH   3  13
ATOM     13  C   UNL     1      56.299   6.091  79.831  1.00  0.00     0.025 A 
ATOM     14  C   UNL     1      56.850   5.683  78.605  1.00  0.00     0.016 A 
ATOM     15  C   UNL     1      58.121   6.117  78.224  1.00  0.00     0.051 A 
ATOM     16  C   UNL     1      58.866   6.951  79.069  1.00  0.00     0.157 A 
ATOM     17  C   UNL     1      57.057   6.907  80.686  1.00  0.00     0.062 A 
ATOM     18  C   UNL     1      58.332   7.343  80.308  1.00  0.00     0.158 A 
BRANCH  16  19
ATOM     19  O   UNL     1      60.133   7.387  78.683  1.00  0.00    -0.504 OA
ATOM     20  H   UNL     1      60.909   6.743  78.586  1.00  0.00     0.293 HD
ENDBRANCH  16  19
BRANCH  18  21
ATOM     21  O   UNL     1      59.051   8.166  81.175  1.00  0.00    -0.504 OA
ATOM     22  H   UNL     1      59.986   7.931  81.486  1.00  0.00     0.293 HD
ENDBRANCH  18  21
ENDBRANCH   3  13
BRANCH  10  23
ATOM     23  O   UNL     1      50.063   4.070  80.851  1.00  0.00    -0.507 OA
ATOM     24  H   UNL     1      49.326   4.638  81.243  1.00  0.00     0.293 HD
ENDBRANCH  10  23
BRANCH  11  25
ATOM     25  O   UNL     1      52.654   1.698  84.125  1.00  0.00    -0.508 OA
ATOM     26  H   UNL     1      53.115   1.910  85.002  1.00  0.00     0.293 HD
ENDBRANCH  11  25
ENDBRANCH   1   2
BRANCH   1  27
ATOM     27  C   UNL     1      53.665   8.569  79.158  1.00  0.00     0.339 C 
ATOM     28  C   UNL     1      52.627   9.302  78.283  1.00  0.00     0.214 C 
ATOM     29  O   UNL     1      54.920   9.228  79.117  1.00  0.00    -0.332 OA
ATOM     30  C   UNL     1      53.139   9.444  76.839  1.00  0.00     0.180 C 
ATOM     31  C   UNL     1      55.470   9.239  77.809  1.00  0.00     0.179 C 
ATOM     32  C   UNL     1      54.559  10.041  76.846  1.00  0.00     0.177 C 
BRANCH  28  33
ATOM     33  O   UNL     1      51.400   8.620  78.293  1.00  0.00    -0.384 OA
ATOM     34  H   UNL     1      51.309   8.181  77.407  1.00  0.00     0.211 HD
ENDBRANCH  28  33
BRANCH  30  35
ATOM     35  O   UNL     1      53.155   8.195  76.191  1.00  0.00    -0.387 OA
ATOM     36  H   UNL     1      54.066   7.820  76.307  1.00  0.00     0.211 HD
ENDBRANCH  30  35
BRANCH  31  37
ATOM     37  C   UNL     1      56.874   9.858  77.899  1.00  0.00     0.191 C 
BRANCH  37  38
ATOM     38  O   UNL     1      57.694   9.417  76.850  1.00  0.00    -0.394 OA
ATOM     39  H   UNL     1      57.745  10.162  76.196  1.00  0.00     0.210 HD
ENDBRANCH  37  38
ENDBRANCH  31  37
BRANCH  32  40
ATOM     40  O   UNL     1      55.089  10.019  75.546  1.00  0.00    -0.387 OA
ATOM     41  H   UNL     1      54.733  10.818  75.077  1.00  0.00     0.211 HD
ENDBRANCH  32  40
ENDBRANCH   1  27
TORSDOF 12
ENDMDL
MODEL 8
REMARK VINA RESULT:    -6.071      2.836      5.192
REMARK INTER + INTRA:         -10.350
REMARK INTER:                  -8.914
REMARK INTRA:                  -1.436
REMARK UNBOUND:                -1.439
REMARK SMILES O=c1c(O[C@H]2O[C@H](CO)[C@@H](O)[C@@H](O)[C@H]2O)c(-c2ccc(O)c(O)c2)oc2cc(O)cc(O)c12
REMARK SMILES IDX 4 1 3 2 16 3 25 4 2 5 26 6 1 7 33 8 27 9 31 10 28 11 30 12
REMARK SMILES IDX 17 13 18 14 19 15 20 16 24 17 22 18 21 19 23 21 32 23 29 25
REMARK SMILES IDX 5 27 14 28 6 29 12 30 7 31 10 32 15 33 13 35 8 37 9 38 11 40
REMARK H PARENT 21 20 23 22 32 24 29 26 15 34 13 36 9 39 11 41
REMARK Flexibility Score: inf
ROOT
ATOM      1  O   UNL     1      57.032   6.879  79.540  1.00  0.00    -0.454 OA
ENDROOT
BRANCH   1   2
ATOM      2  C   UNL     1      56.088   6.031  80.133  1.00  0.00     0.214 A 
ATOM      3  C   UNL     1      54.763   5.947  79.663  1.00  0.00     0.180 A 
ATOM      4  O   UNL     1      53.939   5.043  80.178  1.00  0.00    -0.452 OA
ATOM      5  C   UNL     1      56.476   5.229  81.212  1.00  0.00     0.239 A 
ATOM      6  C   UNL     1      54.272   4.239  81.181  1.00  0.00     0.146 A 
ATOM      7  O   UNL     1      57.667   5.302  81.612  1.00  0.00    -0.285 OA
ATOM      8  C   UNL     1      55.552   4.326  81.790  1.00  0.00     0.111 A 
ATOM      9  C   UNL     1      53.335   3.304  81.627  1.00  0.00     0.094 A 
ATOM     10  C   UNL     1      55.836   3.477  82.901  1.00  0.00     0.134 A 
ATOM     11  C   UNL     1      53.643   2.440  82.674  1.00  0.00     0.123 A 
ATOM     12  C   UNL     1      54.888   2.527  83.304  1.00  0.00     0.093 A 
BRANCH   3  13
ATOM     13  C   UNL     1      54.244   6.844  78.608  1.00  0.00     0.025 A 
ATOM     14  C   UNL     1      54.458   6.562  77.249  1.00  0.00     0.016 A 
ATOM     15  C   UNL     1      53.970   7.424  76.264  1.00  0.00     0.051 A 
ATOM     16  C   UNL     1      53.278   8.588  76.624  1.00  0.00     0.157 A 
ATOM     17  C   UNL     1      53.571   8.023  78.966  1.00  0.00     0.062 A 
ATOM     18  C   UNL     1      53.082   8.891  77.982  1.00  0.00     0.158 A 
BRANCH  16  19
ATOM     19  O   UNL     1      52.788   9.444  75.638  1.00  0.00    -0.504 OA
ATOM     20  H   UNL     1      51.794   9.591  75.509  1.00  0.00     0.293 HD
ENDBRANCH  16  19
BRANCH  18  21
ATOM     21  O   UNL     1      52.404  10.045  78.373  1.00  0.00    -0.504 OA
ATOM     22  H   UNL     1      51.461  10.015  78.743  1.00  0.00     0.293 HD
ENDBRANCH  18  21
ENDBRANCH   3  13
BRANCH  10  23
ATOM     23  O   UNL     1      57.011   3.543  83.654  1.00  0.00    -0.507 OA
ATOM     24  H   UNL     1      57.459   2.752  84.093  1.00  0.00     0.293 HD
ENDBRANCH  10  23
BRANCH  11  25
ATOM     25  O   UNL     1      52.701   1.502  83.091  1.00  0.00    -0.508 OA
ATOM     26  H   UNL     1      51.710   1.708  83.088  1.00  0.00     0.293 HD
ENDBRANCH  11  25
ENDBRANCH   1   2
BRANCH   1  27
ATOM     27  C   UNL     1      57.071   8.293  79.779  1.00  0.00     0.339 C 
ATOM     28  C   UNL     1      57.772   9.030  78.619  1.00  0.00     0.214 C 
ATOM     29  O   UNL     1      57.700   8.580  81.017  1.00  0.00    -0.332 OA
ATOM     30  C   UNL     1      59.270   8.683  78.581  1.00  0.00     0.180 C 
ATOM     31  C   UNL     1      59.046   8.133  81.043  1.00  0.00     0.179 C 
ATOM     32  C   UNL     1      59.886   8.883  79.979  1.00  0.00     0.177 C 
BRANCH  28  33
ATOM     33  O   UNL     1      57.172   8.706  77.391  1.00  0.00    -0.384 OA
ATOM     34  H   UNL     1      57.898   8.693  76.713  1.00  0.00     0.211 HD
ENDBRANCH  28  33
BRANCH  30  35
ATOM     35  O   UNL     1      59.463   7.353  78.166  1.00  0.00    -0.387 OA
ATOM     36  H   UNL     1      59.252   7.319  77.196  1.00  0.00     0.211 HD
ENDBRANCH  30  35
BRANCH  31  37
ATOM     37  C   UNL     1      59.590   8.377  82.461  1.00  0.00     0.191 C 
BRANCH  37  38
ATOM     38  O   UNL     1      59.285   7.308  83.315  1.00  0.00    -0.394 OA
ATOM     39  H   UNL     1      58.650   7.657  83.993  1.00  0.00     0.210 HD
ENDBRANCH  37  38
ENDBRANCH  31  37
BRANCH  32  40
ATOM     40  O   UNL     1      61.209   8.412  79.985  1.00  0.00    -0.387 OA
ATOM     41  H   UNL     1      61.416   8.124  79.057  1.00  0.00     0.211 HD
ENDBRANCH  32  40
ENDBRANCH   1  27
TORSDOF 12
ENDMDL
