MODEL 1
REMARK VINA RESULT:    -6.056      0.000      0.000
REMARK INTER + INTRA:         -17.076
REMARK INTER:                 -15.260
REMARK INTRA:                  -1.815
REMARK UNBOUND:                -1.815
REMARK SMILES CCCCCCCCCCCCCCCCCCCCCCCCCCCC(=O)[O-]
REMARK SMILES IDX 15 1 16 2 17 3 18 4 19 5 20 6 21 7 22 8 23 9 24 10 25 11
REMARK SMILES IDX 26 12 27 13 28 14 29 15 30 16 14 17 13 18 12 19 11 20 10 21
REMARK SMILES IDX 9 22 8 23 7 24 6 25 5 26 4 27 3 28 2 29 1 30
REMARK H PARENT
REMARK Flexibility Score: inf
ROOT
ATOM      1  C   UNL     1      10.762  10.557 -18.897  1.00  0.00     0.000 C 
ENDROOT
BRANCH   1   2
ATOM      2  C   UNL     1      10.903  10.833 -17.387  1.00  0.00     0.000 C 
BRANCH   2   3
ATOM      3  C   UNL     1      10.437  12.228 -16.935  1.00  0.00     0.000 C 
BRANCH   3   4
ATOM      4  C   UNL     1      10.010  13.125 -18.107  1.00  0.00     0.000 C 
BRANCH   4   5
ATOM      5  C   UNL     1       9.652  14.534 -17.610  1.00  0.00     0.000 C 
BRANCH   5   6
ATOM      6  C   UNL     1       9.049  15.421 -18.711  1.00  0.00     0.000 C 
BRANCH   6   7
ATOM      7  C   UNL     1       8.848  14.664 -20.036  1.00  0.00     0.000 C 
BRANCH   7   8
ATOM      8  C   UNL     1       7.655  15.201 -20.844  1.00  0.00     0.000 C 
BRANCH   8   9
ATOM      9  C   UNL     1       6.806  14.080 -21.461  1.00  0.00     0.000 C 
BRANCH   9  10
ATOM     10  C   UNL     1       5.455  14.620 -21.957  1.00  0.00     0.000 C 
BRANCH  10  11
ATOM     11  C   UNL     1       4.721  13.631 -22.874  1.00  0.00     0.000 C 
BRANCH  11  12
ATOM     12  C   UNL     1       3.268  13.377 -22.434  1.00  0.00     0.006 C 
BRANCH  12  13
ATOM     13  C   UNL     1       2.881  14.212 -21.205  1.00  0.00     0.053 C 
BRANCH  13  14
ATOM     14  C   UNL     1       1.797  13.555 -20.408  1.00  0.00     0.041 C 
ATOM     15  O   UNL     1       0.624  13.494 -20.861  1.00  0.00    -0.550 OA
ATOM     16  O   UNL     1       2.076  13.039 -19.148  1.00  0.00    -0.550 OA
ENDBRANCH  13  14
ENDBRANCH  12  13
ENDBRANCH  11  12
ENDBRANCH  10  11
ENDBRANCH   9  10
ENDBRANCH   8   9
ENDBRANCH   7   8
ENDBRANCH   6   7
ENDBRANCH   5   6
ENDBRANCH   4   5
ENDBRANCH   3   4
ENDBRANCH   2   3
ENDBRANCH   1   2
BRANCH   1  17
ATOM     17  C   UNL     1      11.510   9.310 -19.412  1.00  0.00     0.000 C 
BRANCH  17  18
ATOM     18  C   UNL     1      12.229   8.491 -18.325  1.00  0.00     0.000 C 
BRANCH  18  19
ATOM     19  C   UNL     1      13.020   7.306 -18.896  1.00  0.00     0.000 C 
BRANCH  19  20
ATOM     20  C   UNL     1      13.464   7.587 -20.340  1.00  0.00     0.000 C 
BRANCH  20  21
ATOM     21  C   UNL     1      14.596   6.647 -20.808  1.00  0.00     0.000 C 
BRANCH  21  22
ATOM     22  C   UNL     1      15.593   7.311 -21.778  1.00  0.00    -0.000 C 
BRANCH  22  23
ATOM     23  C   UNL     1      16.341   8.531 -21.206  1.00  0.00    -0.000 C 
BRANCH  23  24
ATOM     24  C   UNL     1      16.599   8.490 -19.685  1.00  0.00    -0.000 C 
BRANCH  24  25
ATOM     25  C   UNL     1      17.975   9.017 -19.238  1.00  0.00    -0.000 C 
BRANCH  25  26
ATOM     26  C   UNL     1      19.005   9.045 -20.380  1.00  0.00    -0.000 C 
BRANCH  26  27
ATOM     27  C   UNL     1      19.563  10.454 -20.637  1.00  0.00    -0.000 C 
BRANCH  27  28
ATOM     28  C   UNL     1      18.836  11.183 -21.778  1.00  0.00    -0.000 C 
BRANCH  28  29
ATOM     29  C   UNL     1      18.402  12.588 -21.342  1.00  0.00    -0.003 C 
ATOM     30  C   UNL     1      17.366  12.521 -20.225  1.00  0.00     0.004 C 
ENDBRANCH  28  29
ENDBRANCH  27  28
ENDBRANCH  26  27
ENDBRANCH  25  26
ENDBRANCH  24  25
ENDBRANCH  23  24
ENDBRANCH  22  23
ENDBRANCH  21  22
ENDBRANCH  20  21
ENDBRANCH  19  20
ENDBRANCH  18  19
ENDBRANCH  17  18
ENDBRANCH   1  17
TORSDOF 26
ENDMDL
MODEL 2
REMARK VINA RESULT:    -6.008      4.169     12.344
REMARK INTER + INTRA:         -16.955
REMARK INTER:                 -15.474
REMARK INTRA:                  -1.481
REMARK UNBOUND:                -1.815
REMARK SMILES CCCCCCCCCCCCCCCCCCCCCCCCCCCC(=O)[O-]
REMARK SMILES IDX 15 1 16 2 17 3 18 4 19 5 20 6 21 7 22 8 23 9 24 10 25 11
REMARK SMILES IDX 26 12 27 13 28 14 29 15 30 16 14 17 13 18 12 19 11 20 10 21
REMARK SMILES IDX 9 22 8 23 7 24 6 25 5 26 4 27 3 28 2 29 1 30
REMARK H PARENT
REMARK Flexibility Score: inf
ROOT
ATOM      1  C   UNL     1      10.412  12.065 -16.959  1.00  0.00     0.000 C 
ENDROOT
BRANCH   1   2
ATOM      2  C   UNL     1      11.149  10.836 -17.529  1.00  0.00     0.000 C 
BRANCH   2   3
ATOM      3  C   UNL     1      10.689  10.393 -18.928  1.00  0.00     0.000 C 
BRANCH   3   4
ATOM      4  C   UNL     1      11.611   9.336 -19.556  1.00  0.00     0.000 C 
BRANCH   4   5
ATOM      5  C   UNL     1      11.962   8.245 -18.533  1.00  0.00     0.000 C 
BRANCH   5   6
ATOM      6  C   UNL     1      13.219   7.448 -18.917  1.00  0.00     0.000 C 
BRANCH   6   7
ATOM      7  C   UNL     1      13.437   7.385 -20.438  1.00  0.00     0.000 C 
BRANCH   7   8
ATOM      8  C   UNL     1      14.721   6.627 -20.816  1.00  0.00     0.000 C 
BRANCH   8   9
ATOM      9  C   UNL     1      15.594   7.403 -21.814  1.00  0.00     0.000 C 
BRANCH   9  10
ATOM     10  C   UNL     1      16.392   8.508 -21.105  1.00  0.00     0.000 C 
BRANCH  10  11
ATOM     11  C   UNL     1      16.460   9.808 -21.920  1.00  0.00     0.000 C 
BRANCH  11  12
ATOM     12  C   UNL     1      17.723  10.634 -21.618  1.00  0.00     0.006 C 
BRANCH  12  13
ATOM     13  C   UNL     1      17.789  11.076 -20.150  1.00  0.00     0.053 C 
BRANCH  13  14
ATOM     14  C   UNL     1      17.823  12.568 -20.021  1.00  0.00     0.041 C 
ATOM     15  O   UNL     1      18.924  13.172 -19.936  1.00  0.00    -0.550 OA
ATOM     16  O   UNL     1      16.636  13.288 -19.960  1.00  0.00    -0.550 OA
ENDBRANCH  13  14
ENDBRANCH  12  13
ENDBRANCH  11  12
ENDBRANCH  10  11
ENDBRANCH   9  10
ENDBRANCH   8   9
ENDBRANCH   7   8
ENDBRANCH   6   7
ENDBRANCH   5   6
ENDBRANCH   4   5
ENDBRANCH   3   4
ENDBRANCH   2   3
ENDBRANCH   1   2
BRANCH   1  17
ATOM     17  C   UNL     1       9.894  13.068 -18.011  1.00  0.00     0.000 C 
BRANCH  17  18
ATOM     18  C   UNL     1       9.682  14.501 -17.492  1.00  0.00     0.000 C 
BRANCH  18  19
ATOM     19  C   UNL     1       9.074  15.434 -18.548  1.00  0.00     0.000 C 
BRANCH  19  20
ATOM     20  C   UNL     1       9.013  14.746 -19.920  1.00  0.00     0.000 C 
BRANCH  20  21
ATOM     21  C   UNL     1       7.879  15.294 -20.812  1.00  0.00     0.000 C 
BRANCH  21  22
ATOM     22  C   UNL     1       6.937  14.204 -21.360  1.00  0.00    -0.000 C 
BRANCH  22  23
ATOM     23  C   UNL     1       5.533  14.699 -21.756  1.00  0.00    -0.000 C 
BRANCH  23  24
ATOM     24  C   UNL     1       4.778  13.801 -22.760  1.00  0.00    -0.000 C 
BRANCH  24  25
ATOM     25  C   UNL     1       3.331  13.449 -22.368  1.00  0.00    -0.000 C 
BRANCH  25  26
ATOM     26  C   UNL     1       2.857  14.187 -21.104  1.00  0.00    -0.000 C 
BRANCH  26  27
ATOM     27  C   UNL     1       1.690  13.470 -20.405  1.00  0.00    -0.000 C 
BRANCH  27  28
ATOM     28  C   UNL     1       1.063  14.310 -19.282  1.00  0.00    -0.000 C 
BRANCH  28  29
ATOM     29  C   UNL     1       1.678  13.956 -17.923  1.00  0.00    -0.003 C 
ATOM     30  C   UNL     1       1.795  12.444 -17.750  1.00  0.00     0.004 C 
ENDBRANCH  28  29
ENDBRANCH  27  28
ENDBRANCH  26  27
ENDBRANCH  25  26
ENDBRANCH  24  25
ENDBRANCH  23  24
ENDBRANCH  22  23
ENDBRANCH  21  22
ENDBRANCH  20  21
ENDBRANCH  19  20
ENDBRANCH  18  19
ENDBRANCH  17  18
ENDBRANCH   1  17
TORSDOF 26
ENDMDL
MODEL 3
REMARK VINA RESULT:    -5.928      4.281     12.612
REMARK INTER + INTRA:         -16.753
REMARK INTER:                 -15.249
REMARK INTRA:                  -1.504
REMARK UNBOUND:                -1.815
REMARK SMILES CCCCCCCCCCCCCCCCCCCCCCCCCCCC(=O)[O-]
REMARK SMILES IDX 15 1 16 2 17 3 18 4 19 5 20 6 21 7 22 8 23 9 24 10 25 11
REMARK SMILES IDX 26 12 27 13 28 14 29 15 30 16 14 17 13 18 12 19 11 20 10 21
REMARK SMILES IDX 9 22 8 23 7 24 6 25 5 26 4 27 3 28 2 29 1 30
REMARK H PARENT
REMARK Flexibility Score: inf
ROOT
ATOM      1  C   UNL     1      10.907  10.157 -18.694  1.00  0.00     0.000 C 
ENDROOT
BRANCH   1   2
ATOM      2  C   UNL     1      11.565   8.871 -19.235  1.00  0.00     0.000 C 
BRANCH   2   3
ATOM      3  C   UNL     1      12.686   8.294 -18.353  1.00  0.00     0.000 C 
BRANCH   3   4
ATOM      4  C   UNL     1      13.295   7.005 -18.925  1.00  0.00     0.000 C 
BRANCH   4   5
ATOM      5  C   UNL     1      13.608   7.169 -20.420  1.00  0.00     0.000 C 
BRANCH   5   6
ATOM      6  C   UNL     1      14.941   6.521 -20.826  1.00  0.00     0.000 C 
BRANCH   6   7
ATOM      7  C   UNL     1      15.722   7.363 -21.850  1.00  0.00     0.000 C 
BRANCH   7   8
ATOM      8  C   UNL     1      16.271   8.664 -21.243  1.00  0.00     0.000 C 
BRANCH   8   9
ATOM      9  C   UNL     1      16.622   8.522 -19.755  1.00  0.00     0.000 C 
BRANCH   9  10
ATOM     10  C   UNL     1      17.921   9.269 -19.420  1.00  0.00     0.000 C 
BRANCH  10  11
ATOM     11  C   UNL     1      18.758   9.592 -20.667  1.00  0.00     0.000 C 
BRANCH  11  12
ATOM     12  C   UNL     1      19.033  11.098 -20.825  1.00  0.00     0.006 C 
BRANCH  12  13
ATOM     13  C   UNL     1      17.745  11.931 -20.775  1.00  0.00     0.053 C 
BRANCH  13  14
ATOM     14  C   UNL     1      17.893  13.129 -19.889  1.00  0.00     0.041 C 
ATOM     15  O   UNL     1      16.874  13.746 -19.480  1.00  0.00    -0.550 OA
ATOM     16  O   UNL     1      19.159  13.585 -19.541  1.00  0.00    -0.550 OA
ENDBRANCH  13  14
ENDBRANCH  12  13
ENDBRANCH  11  12
ENDBRANCH  10  11
ENDBRANCH   9  10
ENDBRANCH   8   9
ENDBRANCH   7   8
ENDBRANCH   6   7
ENDBRANCH   5   6
ENDBRANCH   4   5
ENDBRANCH   3   4
ENDBRANCH   2   3
ENDBRANCH   1   2
BRANCH   1  17
ATOM     17  C   UNL     1      10.734  11.292 -19.725  1.00  0.00     0.000 C 
BRANCH  17  18
ATOM     18  C   UNL     1      10.055  12.562 -19.183  1.00  0.00     0.000 C 
BRANCH  18  19
ATOM     19  C   UNL     1       8.960  13.097 -20.117  1.00  0.00     0.000 C 
BRANCH  19  20
ATOM     20  C   UNL     1       8.792  14.615 -19.953  1.00  0.00     0.000 C 
BRANCH  20  21
ATOM     21  C   UNL     1       7.685  15.193 -20.859  1.00  0.00     0.000 C 
BRANCH  21  22
ATOM     22  C   UNL     1       6.734  14.126 -21.435  1.00  0.00    -0.000 C 
BRANCH  22  23
ATOM     23  C   UNL     1       5.443  14.681 -22.068  1.00  0.00    -0.000 C 
BRANCH  23  24
ATOM     24  C   UNL     1       4.585  13.647 -22.827  1.00  0.00    -0.000 C 
BRANCH  24  25
ATOM     25  C   UNL     1       3.112  13.566 -22.388  1.00  0.00    -0.000 C 
BRANCH  25  26
ATOM     26  C   UNL     1       2.848  14.266 -21.044  1.00  0.00    -0.000 C 
BRANCH  26  27
ATOM     27  C   UNL     1       2.110  13.363 -20.042  1.00  0.00    -0.000 C 
BRANCH  27  28
ATOM     28  C   UNL     1       1.716  14.101 -18.754  1.00  0.00    -0.000 C 
BRANCH  28  29
ATOM     29  C   UNL     1       1.643  13.131 -17.567  1.00  0.00    -0.003 C 
ATOM     30  C   UNL     1       2.328  13.716 -16.336  1.00  0.00     0.004 C 
ENDBRANCH  28  29
ENDBRANCH  27  28
ENDBRANCH  26  27
ENDBRANCH  25  26
ENDBRANCH  24  25
ENDBRANCH  23  24
ENDBRANCH  22  23
ENDBRANCH  21  22
ENDBRANCH  20  21
ENDBRANCH  19  20
ENDBRANCH  18  19
ENDBRANCH  17  18
ENDBRANCH   1  17
TORSDOF 26
ENDMDL
MODEL 4
REMARK VINA RESULT:    -5.832      4.353     12.683
REMARK INTER + INTRA:         -16.511
REMARK INTER:                 -14.916
REMARK INTRA:                  -1.595
REMARK UNBOUND:                -1.815
REMARK SMILES CCCCCCCCCCCCCCCCCCCCCCCCCCCC(=O)[O-]
REMARK SMILES IDX 15 1 16 2 17 3 18 4 19 5 20 6 21 7 22 8 23 9 24 10 25 11
REMARK SMILES IDX 26 12 27 13 28 14 29 15 30 16 14 17 13 18 12 19 11 20 10 21
REMARK SMILES IDX 9 22 8 23 7 24 6 25 5 26 4 27 3 28 2 29 1 30
REMARK H PARENT
REMARK Flexibility Score: inf
ROOT
ATOM      1  C   UNL     1      10.756  11.485 -19.781  1.00  0.00     0.000 C 
ENDROOT
BRANCH   1   2
ATOM      2  C   UNL     1      10.735  10.169 -18.977  1.00  0.00     0.000 C 
BRANCH   2   3
ATOM      3  C   UNL     1      11.708   9.087 -19.477  1.00  0.00     0.000 C 
BRANCH   3   4
ATOM      4  C   UNL     1      12.345   8.281 -18.335  1.00  0.00     0.000 C 
BRANCH   4   5
ATOM      5  C   UNL     1      13.209   7.139 -18.892  1.00  0.00     0.000 C 
BRANCH   5   6
ATOM      6  C   UNL     1      13.601   7.350 -20.363  1.00  0.00     0.000 C 
BRANCH   6   7
ATOM      7  C   UNL     1      14.871   6.575 -20.753  1.00  0.00     0.000 C 
BRANCH   7   8
ATOM      8  C   UNL     1      15.623   7.231 -21.923  1.00  0.00     0.000 C 
BRANCH   8   9
ATOM      9  C   UNL     1      15.197   8.688 -22.158  1.00  0.00     0.000 C 
BRANCH   9  10
ATOM     10  C   UNL     1      16.357   9.655 -21.875  1.00  0.00     0.000 C 
BRANCH  10  11
ATOM     11  C   UNL     1      17.231   9.203 -20.696  1.00  0.00     0.000 C 
BRANCH  11  12
ATOM     12  C   UNL     1      18.460  10.106 -20.487  1.00  0.00     0.006 C 
BRANCH  12  13
ATOM     13  C   UNL     1      18.321  11.451 -21.214  1.00  0.00     0.053 C 
BRANCH  13  14
ATOM     14  C   UNL     1      18.025  12.568 -20.261  1.00  0.00     0.041 C 
ATOM     15  O   UNL     1      16.835  12.918 -20.044  1.00  0.00    -0.550 OA
ATOM     16  O   UNL     1      19.067  13.245 -19.638  1.00  0.00    -0.550 OA
ENDBRANCH  13  14
ENDBRANCH  12  13
ENDBRANCH  11  12
ENDBRANCH  10  11
ENDBRANCH   9  10
ENDBRANCH   8   9
ENDBRANCH   7   8
ENDBRANCH   6   7
ENDBRANCH   5   6
ENDBRANCH   4   5
ENDBRANCH   3   4
ENDBRANCH   2   3
ENDBRANCH   1   2
BRANCH   1  17
ATOM     17  C   UNL     1       9.370  12.050 -20.155  1.00  0.00     0.000 C 
BRANCH  17  18
ATOM     18  C   UNL     1       9.120  13.502 -19.711  1.00  0.00     0.000 C 
BRANCH  18  19
ATOM     19  C   UNL     1       8.477  14.360 -20.810  1.00  0.00     0.000 C 
BRANCH  19  20
ATOM     20  C   UNL     1       7.151  13.745 -21.281  1.00  0.00     0.000 C 
BRANCH  20  21
ATOM     21  C   UNL     1       6.098  14.812 -21.651  1.00  0.00     0.000 C 
BRANCH  21  22
ATOM     22  C   UNL     1       5.172  14.396 -22.810  1.00  0.00    -0.000 C 
BRANCH  22  23
ATOM     23  C   UNL     1       4.245  13.204 -22.504  1.00  0.00    -0.000 C 
BRANCH  23  24
ATOM     24  C   UNL     1       2.835  13.579 -21.999  1.00  0.00    -0.000 C 
BRANCH  24  25
ATOM     25  C   UNL     1       2.790  14.720 -20.966  1.00  0.00    -0.000 C 
BRANCH  25  26
ATOM     26  C   UNL     1       1.915  14.387 -19.746  1.00  0.00    -0.000 C 
BRANCH  26  27
ATOM     27  C   UNL     1       1.821  12.876 -19.480  1.00  0.00    -0.000 C 
BRANCH  27  28
ATOM     28  C   UNL     1       1.740  12.538 -17.984  1.00  0.00    -0.000 C 
BRANCH  28  29
ATOM     29  C   UNL     1       1.491  13.801 -17.150  1.00  0.00    -0.003 C 
ATOM     30  C   UNL     1       2.561  13.970 -16.075  1.00  0.00     0.004 C 
ENDBRANCH  28  29
ENDBRANCH  27  28
ENDBRANCH  26  27
ENDBRANCH  25  26
ENDBRANCH  24  25
ENDBRANCH  23  24
ENDBRANCH  22  23
ENDBRANCH  21  22
ENDBRANCH  20  21
ENDBRANCH  19  20
ENDBRANCH  18  19
ENDBRANCH  17  18
ENDBRANCH   1  17
TORSDOF 26
ENDMDL
MODEL 5
REMARK VINA RESULT:    -5.773      4.248     12.224
REMARK INTER + INTRA:         -16.363
REMARK INTER:                 -14.479
REMARK INTRA:                  -1.884
REMARK UNBOUND:                -1.815
REMARK SMILES CCCCCCCCCCCCCCCCCCCCCCCCCCCC(=O)[O-]
REMARK SMILES IDX 15 1 16 2 17 3 18 4 19 5 20 6 21 7 22 8 23 9 24 10 25 11
REMARK SMILES IDX 26 12 27 13 28 14 29 15 30 16 14 17 13 18 12 19 11 20 10 21
REMARK SMILES IDX 9 22 8 23 7 24 6 25 5 26 4 27 3 28 2 29 1 30
REMARK H PARENT
REMARK Flexibility Score: inf
ROOT
ATOM      1  C   UNL     1      12.049   8.235 -19.018  1.00  0.00     0.000 C 
ENDROOT
BRANCH   1   2
ATOM      2  C   UNL     1      12.980   8.092 -20.240  1.00  0.00     0.000 C 
BRANCH   2   3
ATOM      3  C   UNL     1      13.519   6.672 -20.484  1.00  0.00     0.000 C 
BRANCH   3   4
ATOM      4  C   UNL     1      15.011   6.652 -20.851  1.00  0.00     0.000 C 
BRANCH   4   5
ATOM      5  C   UNL     1      15.384   7.895 -21.673  1.00  0.00     0.000 C 
BRANCH   5   6
ATOM      6  C   UNL     1      16.656   8.590 -21.161  1.00  0.00     0.000 C 
BRANCH   6   7
ATOM      7  C   UNL     1      16.825   8.466 -19.637  1.00  0.00     0.000 C 
BRANCH   7   8
ATOM      8  C   UNL     1      18.067   9.211 -19.121  1.00  0.00     0.000 C 
BRANCH   8   9
ATOM      9  C   UNL     1      19.243   9.154 -20.108  1.00  0.00     0.000 C 
BRANCH   9  10
ATOM     10  C   UNL     1      19.750  10.566 -20.443  1.00  0.00     0.000 C 
BRANCH  10  11
ATOM     11  C   UNL     1      19.330  11.030 -21.846  1.00  0.00     0.000 C 
BRANCH  11  12
ATOM     12  C   UNL     1      18.507  12.331 -21.819  1.00  0.00     0.006 C 
BRANCH  12  13
ATOM     13  C   UNL     1      17.572  12.401 -20.604  1.00  0.00     0.053 C 
BRANCH  13  14
ATOM     14  C   UNL     1      17.958  13.507 -19.671  1.00  0.00     0.041 C 
ATOM     15  O   UNL     1      17.071  14.192 -19.097  1.00  0.00    -0.550 OA
ATOM     16  O   UNL     1      19.300  13.803 -19.460  1.00  0.00    -0.550 OA
ENDBRANCH  13  14
ENDBRANCH  12  13
ENDBRANCH  11  12
ENDBRANCH  10  11
ENDBRANCH   9  10
ENDBRANCH   8   9
ENDBRANCH   7   8
ENDBRANCH   6   7
ENDBRANCH   5   6
ENDBRANCH   4   5
ENDBRANCH   3   4
ENDBRANCH   2   3
ENDBRANCH   1   2
BRANCH   1  17
ATOM     17  C   UNL     1      11.154   9.491 -19.016  1.00  0.00     0.000 C 
BRANCH  17  18
ATOM     18  C   UNL     1      11.092  10.242 -17.674  1.00  0.00     0.000 C 
BRANCH  18  19
ATOM     19  C   UNL     1      10.675  11.710 -17.831  1.00  0.00     0.000 C 
BRANCH  19  20
ATOM     20  C   UNL     1      10.294  12.021 -19.286  1.00  0.00     0.000 C 
BRANCH  20  21
ATOM     21  C   UNL     1       9.478  13.324 -19.423  1.00  0.00     0.000 C 
BRANCH  21  22
ATOM     22  C   UNL     1       9.062  13.648 -20.871  1.00  0.00    -0.000 C 
BRANCH  22  23
ATOM     23  C   UNL     1       7.543  13.633 -21.128  1.00  0.00    -0.000 C 
BRANCH  23  24
ATOM     24  C   UNL     1       6.901  15.019 -21.353  1.00  0.00    -0.000 C 
BRANCH  24  25
ATOM     25  C   UNL     1       5.395  15.002 -21.669  1.00  0.00    -0.000 C 
BRANCH  25  26
ATOM     26  C   UNL     1       4.964  13.756 -22.462  1.00  0.00    -0.000 C 
BRANCH  26  27
ATOM     27  C   UNL     1       3.459  13.465 -22.334  1.00  0.00    -0.000 C 
BRANCH  27  28
ATOM     28  C   UNL     1       2.790  14.277 -21.215  1.00  0.00    -0.000 C 
BRANCH  28  29
ATOM     29  C   UNL     1       1.791  13.414 -20.434  1.00  0.00    -0.003 C 
ATOM     30  C   UNL     1       1.269  14.153 -19.206  1.00  0.00     0.004 C 
ENDBRANCH  28  29
ENDBRANCH  27  28
ENDBRANCH  26  27
ENDBRANCH  25  26
ENDBRANCH  24  25
ENDBRANCH  23  24
ENDBRANCH  22  23
ENDBRANCH  21  22
ENDBRANCH  20  21
ENDBRANCH  19  20
ENDBRANCH  18  19
ENDBRANCH  17  18
ENDBRANCH   1  17
TORSDOF 26
ENDMDL
MODEL 6
REMARK VINA RESULT:    -5.596      1.848      3.894
REMARK INTER + INTRA:         -15.917
REMARK INTER:                 -14.184
REMARK INTRA:                  -1.733
REMARK UNBOUND:                -1.815
REMARK SMILES CCCCCCCCCCCCCCCCCCCCCCCCCCCC(=O)[O-]
REMARK SMILES IDX 15 1 16 2 17 3 18 4 19 5 20 6 21 7 22 8 23 9 24 10 25 11
REMARK SMILES IDX 26 12 27 13 28 14 29 15 30 16 14 17 13 18 12 19 11 20 10 21
REMARK SMILES IDX 9 22 8 23 7 24 6 25 5 26 4 27 3 28 2 29 1 30
REMARK H PARENT
REMARK Flexibility Score: inf
ROOT
ATOM      1  C   UNL     1       9.699  12.421 -19.306  1.00  0.00     0.000 C 
ENDROOT
BRANCH   1   2
ATOM      2  C   UNL     1       8.980  13.207 -20.421  1.00  0.00     0.000 C 
BRANCH   2   3
ATOM      3  C   UNL     1       8.767  14.703 -20.130  1.00  0.00     0.000 C 
BRANCH   3   4
ATOM      4  C   UNL     1       7.581  15.301 -20.902  1.00  0.00     0.000 C 
BRANCH   4   5
ATOM      5  C   UNL     1       6.737  14.191 -21.546  1.00  0.00     0.000 C 
BRANCH   5   6
ATOM      6  C   UNL     1       5.345  14.676 -21.982  1.00  0.00     0.000 C 
BRANCH   6   7
ATOM      7  C   UNL     1       4.514  13.566 -22.648  1.00  0.00     0.000 C 
BRANCH   7   8
ATOM      8  C   UNL     1       3.074  13.509 -22.112  1.00  0.00     0.000 C 
BRANCH   8   9
ATOM      9  C   UNL     1       2.815  14.537 -21.000  1.00  0.00     0.000 C 
BRANCH   9  10
ATOM     10  C   UNL     1       1.550  14.182 -20.204  1.00  0.00     0.000 C 
BRANCH  10  11
ATOM     11  C   UNL     1       1.441  12.680 -19.901  1.00  0.00     0.000 C 
BRANCH  11  12
ATOM     12  C   UNL     1       0.883  12.397 -18.495  1.00  0.00     0.006 C 
BRANCH  12  13
ATOM     13  C   UNL     1       1.968  12.476 -17.413  1.00  0.00     0.053 C 
BRANCH  13  14
ATOM     14  C   UNL     1       1.759  11.450 -16.342  1.00  0.00     0.041 C 
ATOM     15  O   UNL     1       0.606  11.234 -15.887  1.00  0.00    -0.550 OA
ATOM     16  O   UNL     1       2.846  10.756 -15.822  1.00  0.00    -0.550 OA
ENDBRANCH  13  14
ENDBRANCH  12  13
ENDBRANCH  11  12
ENDBRANCH  10  11
ENDBRANCH   9  10
ENDBRANCH   8   9
ENDBRANCH   7   8
ENDBRANCH   6   7
ENDBRANCH   5   6
ENDBRANCH   4   5
ENDBRANCH   3   4
ENDBRANCH   2   3
ENDBRANCH   1   2
BRANCH   1  17
ATOM     17  C   UNL     1      10.553  11.230 -19.785  1.00  0.00     0.000 C 
BRANCH  17  18
ATOM     18  C   UNL     1      10.924  10.215 -18.689  1.00  0.00     0.000 C 
BRANCH  18  19
ATOM     19  C   UNL     1      11.586   8.948 -19.249  1.00  0.00     0.000 C 
BRANCH  19  20
ATOM     20  C   UNL     1      12.575   8.352 -18.236  1.00  0.00     0.000 C 
BRANCH  20  21
ATOM     21  C   UNL     1      13.367   7.157 -18.809  1.00  0.00     0.000 C 
BRANCH  21  22
ATOM     22  C   UNL     1      13.524   7.194 -20.342  1.00  0.00    -0.000 C 
BRANCH  22  23
ATOM     23  C   UNL     1      14.754   6.444 -20.886  1.00  0.00    -0.000 C 
BRANCH  23  24
ATOM     24  C   UNL     1      15.666   7.268 -21.820  1.00  0.00    -0.000 C 
BRANCH  24  25
ATOM     25  C   UNL     1      15.182   8.698 -22.118  1.00  0.00    -0.000 C 
BRANCH  25  26
ATOM     26  C   UNL     1      16.284   9.755 -21.929  1.00  0.00    -0.000 C 
BRANCH  26  27
ATOM     27  C   UNL     1      17.486   9.219 -21.135  1.00  0.00    -0.000 C 
BRANCH  27  28
ATOM     28  C   UNL     1      17.697   9.956 -19.804  1.00  0.00    -0.000 C 
BRANCH  28  29
ATOM     29  C   UNL     1      17.442   9.022 -18.614  1.00  0.00    -0.003 C 
ATOM     30  C   UNL     1      18.754   8.570 -17.980  1.00  0.00     0.004 C 
ENDBRANCH  28  29
ENDBRANCH  27  28
ENDBRANCH  26  27
ENDBRANCH  25  26
ENDBRANCH  24  25
ENDBRANCH  23  24
ENDBRANCH  22  23
ENDBRANCH  21  22
ENDBRANCH  20  21
ENDBRANCH  19  20
ENDBRANCH  18  19
ENDBRANCH  17  18
ENDBRANCH   1  17
TORSDOF 26
ENDMDL
MODEL 7
REMARK VINA RESULT:    -5.548      2.742      5.778
REMARK INTER + INTRA:         -15.797
REMARK INTER:                 -14.403
REMARK INTRA:                  -1.394
REMARK UNBOUND:                -1.815
REMARK SMILES CCCCCCCCCCCCCCCCCCCCCCCCCCCC(=O)[O-]
REMARK SMILES IDX 15 1 16 2 17 3 18 4 19 5 20 6 21 7 22 8 23 9 24 10 25 11
REMARK SMILES IDX 26 12 27 13 28 14 29 15 30 16 14 17 13 18 12 19 11 20 10 21
REMARK SMILES IDX 9 22 8 23 7 24 6 25 5 26 4 27 3 28 2 29 1 30
REMARK H PARENT
REMARK Flexibility Score: inf
ROOT
ATOM      1  C   UNL     1       8.009  14.407 -20.869  1.00  0.00     0.000 C 
ENDROOT
BRANCH   1   2
ATOM      2  C   UNL     1       6.951  13.542 -21.584  1.00  0.00     0.000 C 
BRANCH   2   3
ATOM      3  C   UNL     1       5.629  14.263 -21.900  1.00  0.00     0.000 C 
BRANCH   3   4
ATOM      4  C   UNL     1       4.741  13.481 -22.880  1.00  0.00     0.000 C 
BRANCH   4   5
ATOM      5  C   UNL     1       3.254  13.734 -22.586  1.00  0.00     0.000 C 
BRANCH   5   6
ATOM      6  C   UNL     1       2.867  13.400 -21.137  1.00  0.00     0.000 C 
BRANCH   6   7
ATOM      7  C   UNL     1       2.216  14.589 -20.410  1.00  0.00     0.000 C 
BRANCH   7   8
ATOM      8  C   UNL     1       1.170  14.143 -19.374  1.00  0.00     0.000 C 
BRANCH   8   9
ATOM      9  C   UNL     1       1.712  13.081 -18.406  1.00  0.00     0.000 C 
BRANCH   9  10
ATOM     10  C   UNL     1       0.689  11.953 -18.196  1.00  0.00     0.000 C 
BRANCH  10  11
ATOM     11  C   UNL     1       0.796  11.306 -16.807  1.00  0.00     0.000 C 
BRANCH  11  12
ATOM     12  C   UNL     1       2.253  11.103 -16.356  1.00  0.00     0.006 C 
BRANCH  12  13
ATOM     13  C   UNL     1       2.388   9.975 -15.323  1.00  0.00     0.053 C 
BRANCH  13  14
ATOM     14  C   UNL     1       3.080   8.778 -15.898  1.00  0.00     0.041 C 
ATOM     15  O   UNL     1       2.426   7.913 -16.537  1.00  0.00    -0.550 OA
ATOM     16  O   UNL     1       4.444   8.600 -15.698  1.00  0.00    -0.550 OA
ENDBRANCH  13  14
ENDBRANCH  12  13
ENDBRANCH  11  12
ENDBRANCH  10  11
ENDBRANCH   9  10
ENDBRANCH   8   9
ENDBRANCH   7   8
ENDBRANCH   6   7
ENDBRANCH   5   6
ENDBRANCH   4   5
ENDBRANCH   3   4
ENDBRANCH   2   3
ENDBRANCH   1   2
BRANCH   1  17
ATOM     17  C   UNL     1       8.912  13.652 -19.871  1.00  0.00     0.000 C 
BRANCH  17  18
ATOM     18  C   UNL     1       9.105  12.155 -20.174  1.00  0.00     0.000 C 
BRANCH  18  19
ATOM     19  C   UNL     1      10.568  11.707 -20.059  1.00  0.00     0.000 C 
BRANCH  19  20
ATOM     20  C   UNL     1      10.701  10.503 -19.114  1.00  0.00     0.000 C 
BRANCH  20  21
ATOM     21  C   UNL     1      11.545   9.361 -19.719  1.00  0.00     0.000 C 
BRANCH  21  22
ATOM     22  C   UNL     1      11.923   8.264 -18.705  1.00  0.00    -0.000 C 
BRANCH  22  23
ATOM     23  C   UNL     1      13.257   7.548 -18.992  1.00  0.00    -0.000 C 
BRANCH  23  24
ATOM     24  C   UNL     1      13.444   7.063 -20.445  1.00  0.00    -0.000 C 
BRANCH  24  25
ATOM     25  C   UNL     1      14.900   6.792 -20.865  1.00  0.00    -0.000 C 
BRANCH  25  26
ATOM     26  C   UNL     1      15.509   7.940 -21.688  1.00  0.00    -0.000 C 
BRANCH  26  27
ATOM     27  C   UNL     1      16.820   8.469 -21.082  1.00  0.00    -0.000 C 
BRANCH  27  28
ATOM     28  C   UNL     1      16.755   8.611 -19.554  1.00  0.00    -0.000 C 
BRANCH  28  29
ATOM     29  C   UNL     1      18.122   9.011 -18.983  1.00  0.00    -0.003 C 
ATOM     30  C   UNL     1      19.164   9.140 -20.089  1.00  0.00     0.004 C 
ENDBRANCH  28  29
ENDBRANCH  27  28
ENDBRANCH  26  27
ENDBRANCH  25  26
ENDBRANCH  24  25
ENDBRANCH  23  24
ENDBRANCH  22  23
ENDBRANCH  21  22
ENDBRANCH  20  21
ENDBRANCH  19  20
ENDBRANCH  18  19
ENDBRANCH  17  18
ENDBRANCH   1  17
TORSDOF 26
ENDMDL
MODEL 8
REMARK VINA RESULT:    -5.522      5.102     12.300
REMARK INTER + INTRA:         -15.731
REMARK INTER:                 -13.980
REMARK INTRA:                  -1.751
REMARK UNBOUND:                -1.815
REMARK SMILES CCCCCCCCCCCCCCCCCCCCCCCCCCCC(=O)[O-]
REMARK SMILES IDX 15 1 16 2 17 3 18 4 19 5 20 6 21 7 22 8 23 9 24 10 25 11
REMARK SMILES IDX 26 12 27 13 28 14 29 15 30 16 14 17 13 18 12 19 11 20 10 21
REMARK SMILES IDX 9 22 8 23 7 24 6 25 5 26 4 27 3 28 2 29 1 30
REMARK H PARENT
REMARK Flexibility Score: inf
ROOT
ATOM      1  C   UNL     1      11.814   9.104 -19.416  1.00  0.00     0.000 C 
ENDROOT
BRANCH   1   2
ATOM      2  C   UNL     1      12.493   8.286 -18.298  1.00  0.00     0.000 C 
BRANCH   2   3
ATOM      3  C   UNL     1      13.391   7.138 -18.789  1.00  0.00     0.000 C 
BRANCH   3   4
ATOM      4  C   UNL     1      13.416   7.009 -20.320  1.00  0.00     0.000 C 
BRANCH   4   5
ATOM      5  C   UNL     1      14.823   6.632 -20.810  1.00  0.00     0.000 C 
BRANCH   5   6
ATOM      6  C   UNL     1      15.307   7.517 -21.970  1.00  0.00     0.000 C 
BRANCH   6   7
ATOM      7  C   UNL     1      16.289   8.609 -21.511  1.00  0.00     0.000 C 
BRANCH   7   8
ATOM      8  C   UNL     1      16.870   8.328 -20.115  1.00  0.00     0.000 C 
BRANCH   8   9
ATOM      9  C   UNL     1      17.989   9.308 -19.732  1.00  0.00     0.000 C 
BRANCH   9  10
ATOM     10  C   UNL     1      18.242  10.324 -20.856  1.00  0.00     0.000 C 
BRANCH  10  11
ATOM     11  C   UNL     1      19.696  10.818 -20.895  1.00  0.00     0.000 C 
BRANCH  11  12
ATOM     12  C   UNL     1      19.805  12.352 -20.840  1.00  0.00     0.006 C 
BRANCH  12  13
ATOM     13  C   UNL     1      18.428  13.032 -20.865  1.00  0.00     0.053 C 
BRANCH  13  14
ATOM     14  C   UNL     1      18.197  13.859 -19.638  1.00  0.00     0.041 C 
ATOM     15  O   UNL     1      17.025  14.116 -19.258  1.00  0.00    -0.550 OA
ATOM     16  O   UNL     1      19.278  14.375 -18.933  1.00  0.00    -0.550 OA
ENDBRANCH  13  14
ENDBRANCH  12  13
ENDBRANCH  11  12
ENDBRANCH  10  11
ENDBRANCH   9  10
ENDBRANCH   8   9
ENDBRANCH   7   8
ENDBRANCH   6   7
ENDBRANCH   5   6
ENDBRANCH   4   5
ENDBRANCH   3   4
ENDBRANCH   2   3
ENDBRANCH   1   2
BRANCH   1  17
ATOM     17  C   UNL     1      10.737  10.102 -18.940  1.00  0.00     0.000 C 
BRANCH  17  18
ATOM     18  C   UNL     1      10.654  11.404 -19.756  1.00  0.00     0.000 C 
BRANCH  18  19
ATOM     19  C   UNL     1      10.103  12.584 -18.943  1.00  0.00     0.000 C 
BRANCH  19  20
ATOM     20  C   UNL     1      10.305  12.354 -17.438  1.00  0.00     0.000 C 
BRANCH  20  21
ATOM     21  C   UNL     1       9.872  13.568 -16.587  1.00  0.00     0.000 C 
BRANCH  21  22
ATOM     22  C   UNL     1       9.524  14.818 -17.419  1.00  0.00    -0.000 C 
BRANCH  22  23
ATOM     23  C   UNL     1       8.831  15.948 -16.635  1.00  0.00    -0.000 C 
BRANCH  23  24
ATOM     24  C   UNL     1       8.764  15.742 -15.106  1.00  0.00    -0.000 C 
BRANCH  24  25
ATOM     25  C   UNL     1       7.363  15.884 -14.485  1.00  0.00    -0.000 C 
BRANCH  25  26
ATOM     26  C   UNL     1       6.519  14.605 -14.615  1.00  0.00    -0.000 C 
BRANCH  26  27
ATOM     27  C   UNL     1       5.075  14.798 -14.122  1.00  0.00    -0.000 C 
BRANCH  27  28
ATOM     28  C   UNL     1       4.167  13.605 -14.458  1.00  0.00    -0.000 C 
BRANCH  28  29
ATOM     29  C   UNL     1       3.689  12.903 -13.180  1.00  0.00    -0.003 C 
ATOM     30  C   UNL     1       2.298  12.306 -13.369  1.00  0.00     0.004 C 
ENDBRANCH  28  29
ENDBRANCH  27  28
ENDBRANCH  26  27
ENDBRANCH  25  26
ENDBRANCH  24  25
ENDBRANCH  23  24
ENDBRANCH  22  23
ENDBRANCH  21  22
ENDBRANCH  20  21
ENDBRANCH  19  20
ENDBRANCH  18  19
ENDBRANCH  17  18
ENDBRANCH   1  17
TORSDOF 26
ENDMDL
MODEL 9
REMARK VINA RESULT:    -5.448      2.927      7.127
REMARK INTER + INTRA:         -15.544
REMARK INTER:                 -13.963
REMARK INTRA:                  -1.581
REMARK UNBOUND:                -1.815
REMARK SMILES CCCCCCCCCCCCCCCCCCCCCCCCCCCC(=O)[O-]
REMARK SMILES IDX 15 1 16 2 17 3 18 4 19 5 20 6 21 7 22 8 23 9 24 10 25 11
REMARK SMILES IDX 26 12 27 13 28 14 29 15 30 16 14 17 13 18 12 19 11 20 10 21
REMARK SMILES IDX 9 22 8 23 7 24 6 25 5 26 4 27 3 28 2 29 1 30
REMARK H PARENT
REMARK Flexibility Score: inf
ROOT
ATOM      1  C   UNL     1       8.091  13.472 -20.805  1.00  0.00     0.000 C 
ENDROOT
BRANCH   1   2
ATOM      2  C   UNL     1       6.830  13.175 -21.643  1.00  0.00     0.000 C 
BRANCH   2   3
ATOM      3  C   UNL     1       5.855  14.356 -21.791  1.00  0.00     0.000 C 
BRANCH   3   4
ATOM      4  C   UNL     1       4.817  14.140 -22.904  1.00  0.00     0.000 C 
BRANCH   4   5
ATOM      5  C   UNL     1       3.580  13.412 -22.358  1.00  0.00     0.000 C 
BRANCH   5   6
ATOM      6  C   UNL     1       2.864  14.199 -21.249  1.00  0.00     0.000 C 
BRANCH   6   7
ATOM      7  C   UNL     1       2.103  13.286 -20.272  1.00  0.00     0.000 C 
BRANCH   7   8
ATOM      8  C   UNL     1       1.843  13.963 -18.916  1.00  0.00     0.000 C 
BRANCH   8   9
ATOM      9  C   UNL     1       0.915  13.139 -18.011  1.00  0.00     0.000 C 
BRANCH   9  10
ATOM     10  C   UNL     1       1.657  11.934 -17.411  1.00  0.00     0.000 C 
BRANCH  10  11
ATOM     11  C   UNL     1       2.185  12.208 -15.994  1.00  0.00     0.000 C 
BRANCH  11  12
ATOM     12  C   UNL     1       2.175  10.952 -15.104  1.00  0.00     0.006 C 
BRANCH  12  13
ATOM     13  C   UNL     1       2.215   9.657 -15.928  1.00  0.00     0.053 C 
BRANCH  13  14
ATOM     14  C   UNL     1       3.200   8.676 -15.372  1.00  0.00     0.041 C 
ATOM     15  O   UNL     1       2.864   7.897 -14.442  1.00  0.00    -0.550 OA
ATOM     16  O   UNL     1       4.502   8.646 -15.858  1.00  0.00    -0.550 OA
ENDBRANCH  13  14
ENDBRANCH  12  13
ENDBRANCH  11  12
ENDBRANCH  10  11
ENDBRANCH   9  10
ENDBRANCH   8   9
ENDBRANCH   7   8
ENDBRANCH   6   7
ENDBRANCH   5   6
ENDBRANCH   4   5
ENDBRANCH   3   4
ENDBRANCH   2   3
ENDBRANCH   1   2
BRANCH   1  17
ATOM     17  C   UNL     1       8.227  14.929 -20.315  1.00  0.00     0.000 C 
BRANCH  17  18
ATOM     18  C   UNL     1       9.387  15.177 -19.334  1.00  0.00     0.000 C 
BRANCH  18  19
ATOM     19  C   UNL     1       8.917  15.323 -17.880  1.00  0.00     0.000 C 
BRANCH  19  20
ATOM     20  C   UNL     1       9.674  14.356 -16.958  1.00  0.00     0.000 C 
BRANCH  20  21
ATOM     21  C   UNL     1      10.006  13.014 -17.645  1.00  0.00     0.000 C 
BRANCH  21  22
ATOM     22  C   UNL     1      10.643  11.975 -16.702  1.00  0.00    -0.000 C 
BRANCH  22  23
ATOM     23  C   UNL     1      10.993  10.628 -17.363  1.00  0.00    -0.000 C 
BRANCH  23  24
ATOM     24  C   UNL     1      10.686  10.536 -18.873  1.00  0.00    -0.000 C 
BRANCH  24  25
ATOM     25  C   UNL     1      11.465   9.451 -19.637  1.00  0.00    -0.000 C 
BRANCH  25  26
ATOM     26  C   UNL     1      11.876   8.268 -18.744  1.00  0.00    -0.000 C 
BRANCH  26  27
ATOM     27  C   UNL     1      13.302   7.774 -19.038  1.00  0.00    -0.000 C 
BRANCH  27  28
ATOM     28  C   UNL     1      13.447   7.179 -20.447  1.00  0.00    -0.000 C 
BRANCH  28  29
ATOM     29  C   UNL     1      14.880   6.689 -20.691  1.00  0.00    -0.003 C 
ATOM     30  C   UNL     1      15.637   7.642 -21.612  1.00  0.00     0.004 C 
ENDBRANCH  28  29
ENDBRANCH  27  28
ENDBRANCH  26  27
ENDBRANCH  25  26
ENDBRANCH  24  25
ENDBRANCH  23  24
ENDBRANCH  22  23
ENDBRANCH  21  22
ENDBRANCH  20  21
ENDBRANCH  19  20
ENDBRANCH  18  19
ENDBRANCH  17  18
ENDBRANCH   1  17
TORSDOF 26
ENDMDL
