MODEL 1
REMARK VINA RESULT:    -3.495      0.000      0.000
REMARK INTER + INTRA:          -4.127
REMARK INTER:                  -4.108
REMARK INTRA:                  -0.018
REMARK UNBOUND:                -0.018
REMARK SMILES CCCCC(=O)[O-]
REMARK SMILES IDX 4 1 5 2 6 3 7 4 3 5 2 6 1 7
REMARK H PARENT
REMARK Flexibility Score: inf
ROOT
ATOM      1  C   UNL     1       5.608  -8.476 -11.269  1.00  0.00     0.053 C 
ENDROOT
BRANCH   1   2
ATOM      2  C   UNL     1       5.875  -9.811 -10.645  1.00  0.00     0.041 C 
ATOM      3  O   UNL     1       4.977 -10.692 -10.624  1.00  0.00    -0.550 OA
ATOM      4  O   UNL     1       7.129 -10.094 -10.118  1.00  0.00    -0.550 OA
ENDBRANCH   1   2
BRANCH   1   5
ATOM      5  C   UNL     1       5.625  -8.550 -12.801  1.00  0.00     0.006 C 
BRANCH   5   6
ATOM      6  C   UNL     1       4.875  -7.375 -13.448  1.00  0.00    -0.003 C 
ATOM      7  C   UNL     1       5.538  -6.953 -14.756  1.00  0.00     0.004 C 
ENDBRANCH   5   6
ENDBRANCH   1   5
TORSDOF 3
ENDMDL
MODEL 2
REMARK VINA RESULT:    -3.233      3.179      4.314
REMARK INTER + INTRA:          -3.819
REMARK INTER:                  -3.782
REMARK INTRA:                  -0.037
REMARK UNBOUND:                -0.018
REMARK SMILES CCCCC(=O)[O-]
REMARK SMILES IDX 4 1 5 2 6 3 7 4 3 5 2 6 1 7
REMARK H PARENT
REMARK Flexibility Score: inf
ROOT
ATOM      1  C   UNL     1       5.569  -8.248 -13.177  1.00  0.00     0.053 C 
ENDROOT
BRANCH   1   2
ATOM      2  C   UNL     1       5.224  -7.371 -14.341  1.00  0.00     0.041 C 
ATOM      3  O   UNL     1       5.220  -6.119 -14.212  1.00  0.00    -0.550 OA
ATOM      4  O   UNL     1       4.942  -7.936 -15.579  1.00  0.00    -0.550 OA
ENDBRANCH   1   2
BRANCH   1   5
ATOM      5  C   UNL     1       5.194  -7.593 -11.841  1.00  0.00     0.006 C 
BRANCH   5   6
ATOM      6  C   UNL     1       5.630  -8.441 -10.636  1.00  0.00    -0.003 C 
ATOM      7  C   UNL     1       6.306  -9.732 -11.088  1.00  0.00     0.004 C 
ENDBRANCH   5   6
ENDBRANCH   1   5
TORSDOF 3
ENDMDL
MODEL 3
REMARK VINA RESULT:    -3.176      1.363      1.653
REMARK INTER + INTRA:          -3.751
REMARK INTER:                  -3.731
REMARK INTRA:                  -0.020
REMARK UNBOUND:                -0.018
REMARK SMILES CCCCC(=O)[O-]
REMARK SMILES IDX 4 1 5 2 6 3 7 4 3 5 2 6 1 7
REMARK H PARENT
REMARK Flexibility Score: inf
ROOT
ATOM      1  C   UNL     1       6.123  -9.586 -11.511  1.00  0.00     0.053 C 
ENDROOT
BRANCH   1   2
ATOM      2  C   UNL     1       6.300  -9.192 -10.076  1.00  0.00     0.041 C 
ATOM      3  O   UNL     1       7.209  -9.717  -9.382  1.00  0.00    -0.550 OA
ATOM      4  O   UNL     1       5.482  -8.219  -9.515  1.00  0.00    -0.550 OA
ENDBRANCH   1   2
BRANCH   1   5
ATOM      5  C   UNL     1       4.893  -8.916 -12.137  1.00  0.00     0.006 C 
BRANCH   5   6
ATOM      6  C   UNL     1       5.252  -7.619 -12.878  1.00  0.00    -0.003 C 
ATOM      7  C   UNL     1       5.305  -7.845 -14.387  1.00  0.00     0.004 C 
ENDBRANCH   5   6
ENDBRANCH   1   5
TORSDOF 3
ENDMDL
MODEL 4
REMARK VINA RESULT:    -3.086      2.852      4.082
REMARK INTER + INTRA:          -3.645
REMARK INTER:                  -3.612
REMARK INTRA:                  -0.034
REMARK UNBOUND:                -0.018
REMARK SMILES CCCCC(=O)[O-]
REMARK SMILES IDX 4 1 5 2 6 3 7 4 3 5 2 6 1 7
REMARK H PARENT
REMARK Flexibility Score: inf
ROOT
ATOM      1  C   UNL     1       5.625  -8.583 -12.530  1.00  0.00     0.053 C 
ENDROOT
BRANCH   1   2
ATOM      2  C   UNL     1       5.161  -7.686 -13.637  1.00  0.00     0.041 C 
ATOM      3  O   UNL     1       4.999  -8.144 -14.798  1.00  0.00    -0.550 OA
ATOM      4  O   UNL     1       4.875  -6.351 -13.377  1.00  0.00    -0.550 OA
ENDBRANCH   1   2
BRANCH   1   5
ATOM      5  C   UNL     1       5.071  -8.142 -11.169  1.00  0.00     0.006 C 
BRANCH   5   6
ATOM      6  C   UNL     1       5.947  -8.621 -10.002  1.00  0.00    -0.003 C 
ATOM      7  C   UNL     1       6.627  -9.946 -10.333  1.00  0.00     0.004 C 
ENDBRANCH   5   6
ENDBRANCH   1   5
TORSDOF 3
ENDMDL
MODEL 5
REMARK VINA RESULT:    -2.998     19.455     20.804
REMARK INTER + INTRA:          -3.542
REMARK INTER:                  -3.495
REMARK INTRA:                  -0.047
REMARK UNBOUND:                -0.018
REMARK SMILES CCCCC(=O)[O-]
REMARK SMILES IDX 4 1 5 2 6 3 7 4 3 5 2 6 1 7
REMARK H PARENT
REMARK Flexibility Score: inf
ROOT
ATOM      1  C   UNL     1      24.571 -15.206  -6.751  1.00  0.00     0.053 C 
ENDROOT
BRANCH   1   2
ATOM      2  C   UNL     1      23.855 -14.097  -7.460  1.00  0.00     0.041 C 
ATOM      3  O   UNL     1      23.421 -13.108  -6.814  1.00  0.00    -0.550 OA
ATOM      4  O   UNL     1      23.698 -14.141  -8.840  1.00  0.00    -0.550 OA
ENDBRANCH   1   2
BRANCH   1   5
ATOM      5  C   UNL     1      24.948 -14.814  -5.316  1.00  0.00     0.006 C 
BRANCH   5   6
ATOM      6  C   UNL     1      25.116 -16.039  -4.404  1.00  0.00    -0.003 C 
ATOM      7  C   UNL     1      24.607 -17.305  -5.087  1.00  0.00     0.004 C 
ENDBRANCH   5   6
ENDBRANCH   1   5
TORSDOF 3
ENDMDL
MODEL 6
REMARK VINA RESULT:    -2.981     19.179     19.993
REMARK INTER + INTRA:          -3.522
REMARK INTER:                  -3.487
REMARK INTRA:                  -0.035
REMARK UNBOUND:                -0.018
REMARK SMILES CCCCC(=O)[O-]
REMARK SMILES IDX 4 1 5 2 6 3 7 4 3 5 2 6 1 7
REMARK H PARENT
REMARK Flexibility Score: inf
ROOT
ATOM      1  C   UNL     1      23.710 -13.720  -7.331  1.00  0.00     0.053 C 
ENDROOT
BRANCH   1   2
ATOM      2  C   UNL     1      23.746 -14.521  -8.596  1.00  0.00     0.041 C 
ATOM      3  O   UNL     1      22.845 -15.366  -8.837  1.00  0.00    -0.550 OA
ATOM      4  O   UNL     1      24.757 -14.309  -9.525  1.00  0.00    -0.550 OA
ENDBRANCH   1   2
BRANCH   1   5
ATOM      5  C   UNL     1      24.566 -14.357  -6.228  1.00  0.00     0.006 C 
BRANCH   5   6
ATOM      6  C   UNL     1      24.901 -13.364  -5.105  1.00  0.00    -0.003 C 
ATOM      7  C   UNL     1      24.347 -11.976  -5.417  1.00  0.00     0.004 C 
ENDBRANCH   5   6
ENDBRANCH   1   5
TORSDOF 3
ENDMDL
MODEL 7
REMARK VINA RESULT:    -2.957     19.139     20.398
REMARK INTER + INTRA:          -3.494
REMARK INTER:                  -3.425
REMARK INTRA:                  -0.069
REMARK UNBOUND:                -0.018
REMARK SMILES CCCCC(=O)[O-]
REMARK SMILES IDX 4 1 5 2 6 3 7 4 3 5 2 6 1 7
REMARK H PARENT
REMARK Flexibility Score: inf
ROOT
ATOM      1  C   UNL     1      23.581 -13.553  -7.133  1.00  0.00     0.053 C 
ENDROOT
BRANCH   1   2
ATOM      2  C   UNL     1      23.739 -14.343  -8.396  1.00  0.00     0.041 C 
ATOM      3  O   UNL     1      22.918 -15.253  -8.681  1.00  0.00    -0.550 OA
ATOM      4  O   UNL     1      24.774 -14.050  -9.275  1.00  0.00    -0.550 OA
ENDBRANCH   1   2
BRANCH   1   5
ATOM      5  C   UNL     1      24.767 -13.759  -6.180  1.00  0.00     0.006 C 
BRANCH   5   6
ATOM      6  C   UNL     1      25.096 -15.246  -5.976  1.00  0.00    -0.003 C 
ATOM      7  C   UNL     1      25.125 -15.603  -4.492  1.00  0.00     0.004 C 
ENDBRANCH   5   6
ENDBRANCH   1   5
TORSDOF 3
ENDMDL
MODEL 8
REMARK VINA RESULT:    -2.882      1.872      3.331
REMARK INTER + INTRA:          -3.406
REMARK INTER:                  -3.387
REMARK INTRA:                  -0.020
REMARK UNBOUND:                -0.018
REMARK SMILES CCCCC(=O)[O-]
REMARK SMILES IDX 4 1 5 2 6 3 7 4 3 5 2 6 1 7
REMARK H PARENT
REMARK Flexibility Score: inf
ROOT
ATOM      1  C   UNL     1       5.669  -8.401 -11.249  1.00  0.00     0.053 C 
ENDROOT
BRANCH   1   2
ATOM      2  C   UNL     1       5.865  -9.816 -10.797  1.00  0.00     0.041 C 
ATOM      3  O   UNL     1       4.895 -10.618 -10.789  1.00  0.00    -0.550 OA
ATOM      4  O   UNL     1       7.126 -10.257 -10.417  1.00  0.00    -0.550 OA
ENDBRANCH   1   2
BRANCH   1   5
ATOM      5  C   UNL     1       5.021  -7.539 -10.158  1.00  0.00     0.006 C 
BRANCH   5   6
ATOM      6  C   UNL     1       5.716  -7.703  -8.798  1.00  0.00    -0.003 C 
ATOM      7  C   UNL     1       5.556  -6.449  -7.944  1.00  0.00     0.004 C 
ENDBRANCH   5   6
ENDBRANCH   1   5
TORSDOF 3
ENDMDL
MODEL 9
REMARK VINA RESULT:    -2.817     11.127     12.496
REMARK INTER + INTRA:          -3.329
REMARK INTER:                  -3.313
REMARK INTRA:                  -0.017
REMARK UNBOUND:                -0.018
REMARK SMILES CCCCC(=O)[O-]
REMARK SMILES IDX 4 1 5 2 6 3 7 4 3 5 2 6 1 7
REMARK H PARENT
REMARK Flexibility Score: inf
ROOT
ATOM      1  C   UNL     1       6.481 -20.547 -14.358  1.00  0.00     0.053 C 
ENDROOT
BRANCH   1   2
ATOM      2  C   UNL     1       6.070 -19.379 -15.201  1.00  0.00     0.041 C 
ATOM      3  O   UNL     1       6.754 -18.322 -15.196  1.00  0.00    -0.550 OA
ATOM      4  O   UNL     1       4.949 -19.470 -16.017  1.00  0.00    -0.550 OA
ENDBRANCH   1   2
BRANCH   1   5
ATOM      5  C   UNL     1       5.469 -20.826 -13.238  1.00  0.00     0.006 C 
BRANCH   5   6
ATOM      6  C   UNL     1       5.746 -22.158 -12.524  1.00  0.00    -0.003 C 
ATOM      7  C   UNL     1       5.226 -22.130 -11.089  1.00  0.00     0.004 C 
ENDBRANCH   5   6
ENDBRANCH   1   5
TORSDOF 3
ENDMDL
