MODEL 1
REMARK VINA RESULT:    -5.173      0.000      0.000
REMARK INTER + INTRA:          -5.634
REMARK INTER:                  -5.476
REMARK INTRA:                  -0.158
REMARK UNBOUND:                -0.158
REMARK SMILES Cc1ccc(C(C)C)cc1
REMARK SMILES IDX 1 1 2 2 3 3 4 4 5 5 9 6 10 7 6 8 7 9 8 10
REMARK H PARENT
REMARK Flexibility Score: inf
ROOT
ATOM      1  C   UNL     1      -8.813 -16.996  -4.071  1.00  0.00     0.044 C 
ATOM      2  C   UNL     1      -8.139 -16.432  -2.855  1.00  0.00    -0.051 A 
ATOM      3  C   UNL     1      -7.038 -15.574  -2.991  1.00  0.00     0.004 A 
ATOM      4  C   UNL     1      -6.386 -15.077  -1.859  1.00  0.00     0.004 A 
ATOM      5  C   UNL     1      -6.816 -15.439  -0.570  1.00  0.00    -0.045 A 
ATOM      6  C   UNL     1      -7.909 -16.316  -0.439  1.00  0.00     0.004 A 
ATOM      7  C   UNL     1      -8.560 -16.813  -1.573  1.00  0.00     0.004 A 
ENDROOT
BRANCH   5   8
ATOM      8  C   UNL     1      -6.098 -14.893   0.651  1.00  0.00     0.013 C 
ATOM      9  C   UNL     1      -4.592 -14.770   0.397  1.00  0.00     0.012 C 
ATOM     10  C   UNL     1      -6.696 -13.550   1.087  1.00  0.00     0.012 C 
ENDBRANCH   5   8
TORSDOF 1
ENDMDL
MODEL 2
REMARK VINA RESULT:    -5.161      0.132      1.537
REMARK INTER + INTRA:          -5.620
REMARK INTER:                  -5.464
REMARK INTRA:                  -0.156
REMARK UNBOUND:                -0.158
REMARK SMILES Cc1ccc(C(C)C)cc1
REMARK SMILES IDX 1 1 2 2 3 3 4 4 5 5 9 6 10 7 6 8 7 9 8 10
REMARK H PARENT
REMARK Flexibility Score: inf
ROOT
ATOM      1  C   UNL     1      -8.802 -17.008  -4.081  1.00  0.00     0.044 C 
ATOM      2  C   UNL     1      -8.122 -16.458  -2.861  1.00  0.00    -0.051 A 
ATOM      3  C   UNL     1      -8.615 -16.756  -1.583  1.00  0.00     0.004 A 
ATOM      4  C   UNL     1      -8.004 -16.215  -0.448  1.00  0.00     0.004 A 
ATOM      5  C   UNL     1      -6.898 -15.357  -0.572  1.00  0.00    -0.045 A 
ATOM      6  C   UNL     1      -6.420 -15.046  -1.859  1.00  0.00     0.004 A 
ATOM      7  C   UNL     1      -7.031 -15.587  -2.993  1.00  0.00     0.004 A 
ENDROOT
BRANCH   5   8
ATOM      8  C   UNL     1      -6.245 -14.775   0.669  1.00  0.00     0.013 C 
ATOM      9  C   UNL     1      -4.730 -14.635   0.483  1.00  0.00     0.012 C 
ATOM     10  C   UNL     1      -6.880 -13.431   1.047  1.00  0.00     0.012 C 
ENDBRANCH   5   8
TORSDOF 1
ENDMDL
MODEL 3
REMARK VINA RESULT:    -5.032      1.665      4.243
REMARK INTER + INTRA:          -5.484
REMARK INTER:                  -5.326
REMARK INTRA:                  -0.158
REMARK UNBOUND:                -0.158
REMARK SMILES Cc1ccc(C(C)C)cc1
REMARK SMILES IDX 1 1 2 2 3 3 4 4 5 5 9 6 10 7 6 8 7 9 8 10
REMARK H PARENT
REMARK Flexibility Score: inf
ROOT
ATOM      1  C   UNL     1      -7.769 -14.455   3.233  1.00  0.00     0.044 C 
ATOM      2  C   UNL     1      -7.169 -14.674   1.876  1.00  0.00    -0.051 A 
ATOM      3  C   UNL     1      -7.967 -15.126   0.815  1.00  0.00     0.004 A 
ATOM      4  C   UNL     1      -7.402 -15.365  -0.441  1.00  0.00     0.004 A 
ATOM      5  C   UNL     1      -6.026 -15.169  -0.655  1.00  0.00    -0.045 A 
ATOM      6  C   UNL     1      -5.226 -14.734   0.419  1.00  0.00     0.004 A 
ATOM      7  C   UNL     1      -5.793 -14.496   1.674  1.00  0.00     0.004 A 
ENDROOT
BRANCH   5   8
ATOM      8  C   UNL     1      -5.425 -15.435  -2.023  1.00  0.00     0.013 C 
ATOM      9  C   UNL     1      -5.057 -16.914  -2.187  1.00  0.00     0.012 C 
ATOM     10  C   UNL     1      -6.370 -14.974  -3.139  1.00  0.00     0.012 C 
ENDBRANCH   5   8
TORSDOF 1
ENDMDL
MODEL 4
REMARK VINA RESULT:    -4.961      1.342      4.338
REMARK INTER + INTRA:          -5.409
REMARK INTER:                  -5.251
REMARK INTRA:                  -0.159
REMARK UNBOUND:                -0.158
REMARK SMILES Cc1ccc(C(C)C)cc1
REMARK SMILES IDX 1 1 2 2 3 3 4 4 5 5 9 6 10 7 6 8 7 9 8 10
REMARK H PARENT
REMARK Flexibility Score: inf
ROOT
ATOM      1  C   UNL     1      -5.849 -14.486   3.326  1.00  0.00     0.044 C 
ATOM      2  C   UNL     1      -6.205 -14.860   1.918  1.00  0.00    -0.051 A 
ATOM      3  C   UNL     1      -5.264 -14.717   0.889  1.00  0.00     0.004 A 
ATOM      4  C   UNL     1      -5.605 -15.030  -0.430  1.00  0.00     0.004 A 
ATOM      5  C   UNL     1      -6.899 -15.480  -0.745  1.00  0.00    -0.045 A 
ATOM      6  C   UNL     1      -7.846 -15.604   0.289  1.00  0.00     0.004 A 
ATOM      7  C   UNL     1      -7.503 -15.290   1.607  1.00  0.00     0.004 A 
ENDROOT
BRANCH   5   8
ATOM      8  C   UNL     1      -7.257 -15.815  -2.181  1.00  0.00     0.013 C 
ATOM      9  C   UNL     1      -6.422 -14.990  -3.166  1.00  0.00     0.012 C 
ATOM     10  C   UNL     1      -7.105 -17.317  -2.452  1.00  0.00     0.012 C 
ENDBRANCH   5   8
TORSDOF 1
ENDMDL
MODEL 5
REMARK VINA RESULT:    -4.607      2.880      3.574
REMARK INTER + INTRA:          -5.034
REMARK INTER:                  -4.877
REMARK INTRA:                  -0.157
REMARK UNBOUND:                -0.158
REMARK SMILES Cc1ccc(C(C)C)cc1
REMARK SMILES IDX 1 1 2 2 3 3 4 4 5 5 9 6 10 7 6 8 7 9 8 10
REMARK H PARENT
REMARK Flexibility Score: inf
ROOT
ATOM      1  C   UNL     1      -6.850 -21.384  -2.697  1.00  0.00     0.044 C 
ATOM      2  C   UNL     1      -6.585 -19.925  -2.470  1.00  0.00    -0.051 A 
ATOM      3  C   UNL     1      -7.647 -19.010  -2.443  1.00  0.00     0.004 A 
ATOM      4  C   UNL     1      -7.399 -17.645  -2.269  1.00  0.00     0.004 A 
ATOM      5  C   UNL     1      -6.083 -17.171  -2.131  1.00  0.00    -0.045 A 
ATOM      6  C   UNL     1      -5.019 -18.091  -2.179  1.00  0.00     0.004 A 
ATOM      7  C   UNL     1      -5.269 -19.455  -2.353  1.00  0.00     0.004 A 
ENDROOT
BRANCH   5   8
ATOM      8  C   UNL     1      -5.827 -15.686  -1.944  1.00  0.00     0.013 C 
ATOM      9  C   UNL     1      -6.312 -14.885  -3.158  1.00  0.00     0.012 C 
ATOM     10  C   UNL     1      -6.473 -15.174  -0.652  1.00  0.00     0.012 C 
ENDBRANCH   5   8
TORSDOF 1
ENDMDL
MODEL 6
REMARK VINA RESULT:    -4.551      1.131      4.404
REMARK INTER + INTRA:          -4.975
REMARK INTER:                  -4.818
REMARK INTRA:                  -0.157
REMARK UNBOUND:                -0.158
REMARK SMILES Cc1ccc(C(C)C)cc1
REMARK SMILES IDX 1 1 2 2 3 3 4 4 5 5 9 6 10 7 6 8 7 9 8 10
REMARK H PARENT
REMARK Flexibility Score: inf
ROOT
ATOM      1  C   UNL     1      -3.978 -14.751  -0.110  1.00  0.00     0.044 C 
ATOM      2  C   UNL     1      -5.228 -15.294  -0.736  1.00  0.00    -0.051 A 
ATOM      3  C   UNL     1      -6.468 -15.122  -0.104  1.00  0.00     0.004 A 
ATOM      4  C   UNL     1      -7.629 -15.658  -0.668  1.00  0.00     0.004 A 
ATOM      5  C   UNL     1      -7.569 -16.386  -1.869  1.00  0.00    -0.045 A 
ATOM      6  C   UNL     1      -6.320 -16.572  -2.490  1.00  0.00     0.004 A 
ATOM      7  C   UNL     1      -5.159 -16.035  -1.924  1.00  0.00     0.004 A 
ENDROOT
BRANCH   5   8
ATOM      8  C   UNL     1      -8.837 -16.964  -2.470  1.00  0.00     0.013 C 
ATOM      9  C   UNL     1      -8.762 -16.988  -4.001  1.00  0.00     0.012 C 
ATOM     10  C   UNL     1      -9.125 -18.362  -1.910  1.00  0.00     0.012 C 
ENDBRANCH   5   8
TORSDOF 1
ENDMDL
MODEL 7
REMARK VINA RESULT:    -4.493      1.603      3.055
REMARK INTER + INTRA:          -4.913
REMARK INTER:                  -4.756
REMARK INTRA:                  -0.157
REMARK UNBOUND:                -0.158
REMARK SMILES Cc1ccc(C(C)C)cc1
REMARK SMILES IDX 1 1 2 2 3 3 4 4 5 5 9 6 10 7 6 8 7 9 8 10
REMARK H PARENT
REMARK Flexibility Score: inf
ROOT
ATOM      1  C   UNL     1      -6.643 -15.581  -2.846  1.00  0.00     0.044 C 
ATOM      2  C   UNL     1      -6.430 -15.368  -1.377  1.00  0.00    -0.051 A 
ATOM      3  C   UNL     1      -7.527 -15.304  -0.505  1.00  0.00     0.004 A 
ATOM      4  C   UNL     1      -7.332 -15.069   0.859  1.00  0.00     0.004 A 
ATOM      5  C   UNL     1      -6.037 -14.882   1.373  1.00  0.00    -0.045 A 
ATOM      6  C   UNL     1      -4.941 -14.929   0.492  1.00  0.00     0.004 A 
ATOM      7  C   UNL     1      -5.138 -15.163  -0.872  1.00  0.00     0.004 A 
ENDROOT
BRANCH   5   8
ATOM      8  C   UNL     1      -5.840 -14.626   2.857  1.00  0.00     0.013 C 
ATOM      9  C   UNL     1      -6.793 -13.537   3.361  1.00  0.00     0.012 C 
ATOM     10  C   UNL     1      -6.001 -15.919   3.665  1.00  0.00     0.012 C 
ENDBRANCH   5   8
TORSDOF 1
ENDMDL
MODEL 8
REMARK VINA RESULT:    -4.408      1.844      2.690
REMARK INTER + INTRA:          -4.824
REMARK INTER:                  -4.656
REMARK INTRA:                  -0.167
REMARK UNBOUND:                -0.158
REMARK SMILES Cc1ccc(C(C)C)cc1
REMARK SMILES IDX 1 1 2 2 3 3 4 4 5 5 9 6 10 7 6 8 7 9 8 10
REMARK H PARENT
REMARK Flexibility Score: inf
ROOT
ATOM      1  C   UNL     1      -6.892 -15.459  -2.868  1.00  0.00     0.044 C 
ATOM      2  C   UNL     1      -6.916 -15.439  -1.368  1.00  0.00    -0.051 A 
ATOM      3  C   UNL     1      -5.847 -14.883  -0.651  1.00  0.00     0.004 A 
ATOM      4  C   UNL     1      -5.851 -14.896   0.747  1.00  0.00     0.004 A 
ATOM      5  C   UNL     1      -6.919 -15.477   1.452  1.00  0.00    -0.045 A 
ATOM      6  C   UNL     1      -7.981 -16.051   0.728  1.00  0.00     0.004 A 
ATOM      7  C   UNL     1      -7.975 -16.037  -0.670  1.00  0.00     0.004 A 
ENDROOT
BRANCH   5   8
ATOM      8  C   UNL     1      -6.911 -15.486   2.970  1.00  0.00     0.013 C 
ATOM      9  C   UNL     1      -7.436 -16.818   3.518  1.00  0.00     0.012 C 
ATOM     10  C   UNL     1      -5.511 -15.179   3.515  1.00  0.00     0.012 C 
ENDBRANCH   5   8
TORSDOF 1
ENDMDL
MODEL 9
REMARK VINA RESULT:    -4.379      8.967     10.103
REMARK INTER + INTRA:          -4.793
REMARK INTER:                  -4.629
REMARK INTRA:                  -0.164
REMARK UNBOUND:                -0.158
REMARK SMILES Cc1ccc(C(C)C)cc1
REMARK SMILES IDX 1 1 2 2 3 3 4 4 5 5 9 6 10 7 6 8 7 9 8 10
REMARK H PARENT
REMARK Flexibility Score: inf
ROOT
ATOM      1  C   UNL     1      -5.923 -20.196  -8.710  1.00  0.00     0.044 C 
ATOM      2  C   UNL     1      -5.514 -18.946  -9.432  1.00  0.00    -0.051 A 
ATOM      3  C   UNL     1      -6.412 -17.878  -9.562  1.00  0.00     0.004 A 
ATOM      4  C   UNL     1      -6.044 -16.727 -10.265  1.00  0.00     0.004 A 
ATOM      5  C   UNL     1      -4.775 -16.630 -10.862  1.00  0.00    -0.045 A 
ATOM      6  C   UNL     1      -3.884 -17.713 -10.746  1.00  0.00     0.004 A 
ATOM      7  C   UNL     1      -4.254 -18.863 -10.042  1.00  0.00     0.004 A 
ENDROOT
BRANCH   5   8
ATOM      8  C   UNL     1      -4.390 -15.376 -11.625  1.00  0.00     0.013 C 
ATOM      9  C   UNL     1      -4.599 -14.122 -10.768  1.00  0.00     0.012 C 
ATOM     10  C   UNL     1      -2.946 -15.462 -12.133  1.00  0.00     0.012 C 
ENDBRANCH   5   8
TORSDOF 1
ENDMDL
