MODEL 1
REMARK VINA RESULT:     0.000      0.000      0.000
REMARK INTER + INTRA:          -2.041
REMARK INTER:                   0.000
REMARK INTRA:                  -2.041
REMARK UNBOUND:                -2.041
REMARK SMILES C[C@]12C[C@]3(O)O[C@H](O1)[C@@]1(COC(=O)c4ccccc4)[C@@H]3C[C@]12O[C@@H]1O[C@H](CO)[C@@H](O)[C@H](O)[C@@H]1O
REMARK SMILES IDX 1 1 2 2 3 3 4 4 20 5 21 6 22 7 9 8 7 9 8 10 6 11 23 12 24 13
REMARK SMILES IDX 33 14 25 15 31 16 26 17 29 18 34 19 32 21 27 23 28 24 30 26
REMARK SMILES IDX 5 28 10 30 11 31 12 32 13 33 14 34 15 35 19 36 16 37 18 38
REMARK SMILES IDX 17 39
REMARK H PARENT 34 20 32 22 28 25 30 27 5 29
REMARK Flexibility Score: inf
ROOT
ATOM      1  C   UNL     1      11.404  17.830  46.738  1.00  0.00     0.046 C 
ATOM      2  C   UNL     1       9.971  17.386  47.031  1.00  0.00     0.104 C 
ATOM      3  C   UNL     1       9.135  17.238  45.707  1.00  0.00     0.104 C 
ATOM      4  C   UNL     1       7.749  16.701  46.210  1.00  0.00     0.175 C 
ATOM      5  C   UNL     1       7.947  15.491  47.181  1.00  0.00     0.070 C 
ATOM      6  C   UNL     1       9.337  14.849  47.067  1.00  0.00     0.050 C 
ATOM      7  C   UNL     1       9.862  16.065  47.881  1.00  0.00     0.115 C 
ATOM      8  C   UNL     1       8.436  16.267  48.395  1.00  0.00     0.096 C 
ATOM      9  C   UNL     1       8.081  17.723  48.151  1.00  0.00     0.267 C 
ATOM     10  O   UNL     1       9.296  18.362  47.802  1.00  0.00    -0.342 OA
ATOM     11  O   UNL     1       7.216  17.722  47.027  1.00  0.00    -0.320 OA
ENDROOT
BRANCH   7  12
ATOM     12  O   UNL     1      10.812  15.970  48.948  1.00  0.00    -0.339 OA
BRANCH  12  13
ATOM     13  C   UNL     1      11.620  14.805  48.952  1.00  0.00     0.282 C 
ATOM     14  C   UNL     1      13.075  15.130  48.547  1.00  0.00     0.202 C 
ATOM     15  O   UNL     1      11.609  14.287  50.272  1.00  0.00    -0.341 OA
ATOM     16  C   UNL     1      13.912  13.836  48.608  1.00  0.00     0.179 C 
ATOM     17  C   UNL     1      12.259  13.025  50.334  1.00  0.00     0.178 C 
ATOM     18  C   UNL     1      13.763  13.163  49.981  1.00  0.00     0.177 C 
BRANCH  14  19
ATOM     19  O   UNL     1      13.602  16.090  49.428  1.00  0.00    -0.385 OA
ATOM     20  H   UNL     1      13.996  16.809  48.871  1.00  0.00     0.211 HD
ENDBRANCH  14  19
BRANCH  16  21
ATOM     21  O   UNL     1      15.268  14.115  48.367  1.00  0.00    -0.387 OA
ATOM     22  H   UNL     1      15.787  13.615  49.050  1.00  0.00     0.211 HD
ENDBRANCH  16  21
BRANCH  17  23
ATOM     23  C   UNL     1      12.055  12.444  51.739  1.00  0.00     0.191 C 
BRANCH  23  24
ATOM     24  O   UNL     1      13.183  12.684  52.536  1.00  0.00    -0.394 OA
ATOM     25  H   UNL     1      13.457  13.620  52.355  1.00  0.00     0.210 HD
ENDBRANCH  23  24
ENDBRANCH  17  23
BRANCH  18  26
ATOM     26  O   UNL     1      14.369  11.896  49.931  1.00  0.00    -0.387 OA
ATOM     27  H   UNL     1      15.320  12.016  50.190  1.00  0.00     0.211 HD
ENDBRANCH  18  26
ENDBRANCH  12  13
ENDBRANCH   7  12
BRANCH   4  28
ATOM     28  O   UNL     1       6.876  16.407  45.156  1.00  0.00    -0.365 OA
ATOM     29  H   UNL     1       7.042  17.086  44.450  1.00  0.00     0.214 HD
ENDBRANCH   4  28
BRANCH   8  30
ATOM     30  C   UNL     1       8.098  15.687  49.784  1.00  0.00     0.249 C 
BRANCH  30  31
ATOM     31  O   UNL     1       7.562  16.699  50.636  1.00  0.00    -0.461 OA
BRANCH  31  32
ATOM     32  C   UNL     1       8.156  17.113  51.834  1.00  0.00     0.338 C 
ATOM     33  O   UNL     1       7.476  17.154  52.897  1.00  0.00    -0.246 OA
BRANCH  32  34
ATOM     34  C   UNL     1       9.586  17.487  51.852  1.00  0.00     0.060 A 
ATOM     35  C   UNL     1      10.530  16.693  52.534  1.00  0.00     0.015 A 
ATOM     36  C   UNL     1      10.025  18.645  51.186  1.00  0.00     0.015 A 
ATOM     37  C   UNL     1      11.882  17.054  52.544  1.00  0.00     0.001 A 
ATOM     38  C   UNL     1      11.378  18.997  51.193  1.00  0.00     0.001 A 
ATOM     39  C   UNL     1      12.306  18.202  51.869  1.00  0.00     0.000 A 
ENDBRANCH  32  34
ENDBRANCH  31  32
ENDBRANCH  30  31
ENDBRANCH   8  30
TORSDOF 12
ENDMDL
MODEL 2
REMARK VINA RESULT:     0.000      4.528      6.901
REMARK INTER + INTRA:          -2.041
REMARK INTER:                   0.000
REMARK INTRA:                  -2.041
REMARK UNBOUND:                -2.041
REMARK SMILES C[C@]12C[C@]3(O)O[C@H](O1)[C@@]1(COC(=O)c4ccccc4)[C@@H]3C[C@]12O[C@@H]1O[C@H](CO)[C@@H](O)[C@H](O)[C@@H]1O
REMARK SMILES IDX 1 1 2 2 3 3 4 4 20 5 21 6 22 7 9 8 7 9 8 10 6 11 23 12 24 13
REMARK SMILES IDX 33 14 25 15 31 16 26 17 29 18 34 19 32 21 27 23 28 24 30 26
REMARK SMILES IDX 5 28 10 30 11 31 12 32 13 33 14 34 15 35 19 36 16 37 18 38
REMARK SMILES IDX 17 39
REMARK H PARENT 34 20 32 22 28 25 30 27 5 29
REMARK Flexibility Score: inf
ROOT
ATOM      1  C   UNL     1      12.006  16.049  51.567  1.00  0.00     0.046 C 
ATOM      2  C   UNL     1      11.262  15.759  52.870  1.00  0.00     0.104 C 
ATOM      3  C   UNL     1      11.067  14.214  53.087  1.00  0.00     0.104 C 
ATOM      4  C   UNL     1      10.374  14.129  54.492  1.00  0.00     0.175 C 
ATOM      5  C   UNL     1      11.142  15.001  55.538  1.00  0.00     0.070 C 
ATOM      6  C   UNL     1      12.570  15.352  55.098  1.00  0.00     0.050 C 
ATOM      7  C   UNL     1      11.919  16.399  54.150  1.00  0.00     0.115 C 
ATOM      8  C   UNL     1      10.686  16.370  55.052  1.00  0.00     0.096 C 
ATOM      9  C   UNL     1       9.485  16.133  54.154  1.00  0.00     0.267 C 
ATOM     10  O   UNL     1       9.958  16.307  52.829  1.00  0.00    -0.342 OA
ATOM     11  O   UNL     1       9.127  14.774  54.345  1.00  0.00    -0.320 OA
ENDROOT
BRANCH   7  12
ATOM     12  O   UNL     1      12.415  17.728  53.956  1.00  0.00    -0.339 OA
BRANCH  12  13
ATOM     13  C   UNL     1      13.779  17.932  54.290  1.00  0.00     0.282 C 
ATOM     14  C   UNL     1      14.645  18.115  53.025  1.00  0.00     0.202 C 
ATOM     15  O   UNL     1      13.849  19.109  55.077  1.00  0.00    -0.341 OA
ATOM     16  C   UNL     1      16.104  18.372  53.451  1.00  0.00     0.179 C 
ATOM     17  C   UNL     1      15.157  19.301  55.598  1.00  0.00     0.178 C 
ATOM     18  C   UNL     1      16.176  19.536  54.452  1.00  0.00     0.177 C 
BRANCH  14  19
ATOM     19  O   UNL     1      14.159  19.204  52.279  1.00  0.00    -0.385 OA
ATOM     20  H   UNL     1      13.209  19.328  52.532  1.00  0.00     0.211 HD
ENDBRANCH  14  19
BRANCH  16  21
ATOM     21  O   UNL     1      16.900  18.668  52.331  1.00  0.00    -0.387 OA
ATOM     22  H   UNL     1      17.265  19.580  52.474  1.00  0.00     0.211 HD
ENDBRANCH  16  21
BRANCH  17  23
ATOM     23  C   UNL     1      15.120  20.483  56.577  1.00  0.00     0.191 C 
BRANCH  23  24
ATOM     24  O   UNL     1      15.563  21.654  55.948  1.00  0.00    -0.394 OA
ATOM     25  H   UNL     1      16.197  22.085  56.577  1.00  0.00     0.210 HD
ENDBRANCH  23  24
ENDBRANCH  17  23
BRANCH  18  26
ATOM     26  O   UNL     1      17.481  19.608  54.969  1.00  0.00    -0.387 OA
ATOM     27  H   UNL     1      17.405  19.576  55.958  1.00  0.00     0.211 HD
ENDBRANCH  18  26
ENDBRANCH  12  13
ENDBRANCH   7  12
BRANCH   4  28
ATOM     28  O   UNL     1      10.197  12.807  54.921  1.00  0.00    -0.365 OA
ATOM     29  H   UNL     1      10.834  12.251  54.401  1.00  0.00     0.214 HD
ENDBRANCH   4  28
BRANCH   8  30
ATOM     30  C   UNL     1      10.559  17.485  56.111  1.00  0.00     0.249 C 
BRANCH  30  31
ATOM     31  O   UNL     1       9.309  18.162  55.982  1.00  0.00    -0.461 OA
BRANCH  31  32
ATOM     32  C   UNL     1       9.179  19.524  55.686  1.00  0.00     0.338 C 
ATOM     33  O   UNL     1       8.455  20.263  56.410  1.00  0.00    -0.246 OA
BRANCH  32  34
ATOM     34  C   UNL     1       9.905  20.096  54.533  1.00  0.00     0.060 A 
ATOM     35  C   UNL     1      10.962  21.008  54.725  1.00  0.00     0.015 A 
ATOM     36  C   UNL     1       9.549  19.734  53.221  1.00  0.00     0.015 A 
ATOM     37  C   UNL     1      11.643  21.543  53.627  1.00  0.00     0.001 A 
ATOM     38  C   UNL     1      10.239  20.266  52.127  1.00  0.00     0.001 A 
ATOM     39  C   UNL     1      11.286  21.167  52.329  1.00  0.00     0.000 A 
ENDBRANCH  32  34
ENDBRANCH  31  32
ENDBRANCH  30  31
ENDBRANCH   8  30
TORSDOF 12
ENDMDL
MODEL 3
REMARK VINA RESULT:     0.000      3.779      6.588
REMARK INTER + INTRA:          -2.041
REMARK INTER:                   0.000
REMARK INTRA:                  -2.041
REMARK UNBOUND:                -2.041
REMARK SMILES C[C@]12C[C@]3(O)O[C@H](O1)[C@@]1(COC(=O)c4ccccc4)[C@@H]3C[C@]12O[C@@H]1O[C@H](CO)[C@@H](O)[C@H](O)[C@@H]1O
REMARK SMILES IDX 1 1 2 2 3 3 4 4 20 5 21 6 22 7 9 8 7 9 8 10 6 11 23 12 24 13
REMARK SMILES IDX 33 14 25 15 31 16 26 17 29 18 34 19 32 21 27 23 28 24 30 26
REMARK SMILES IDX 5 28 10 30 11 31 12 32 13 33 14 34 15 35 19 36 16 37 18 38
REMARK SMILES IDX 17 39
REMARK H PARENT 34 20 32 22 28 25 30 27 5 29
REMARK Flexibility Score: inf
ROOT
ATOM      1  C   UNL     1      11.467  16.697  50.249  1.00  0.00     0.046 C 
ATOM      2  C   UNL     1      10.823  16.656  51.634  1.00  0.00     0.104 C 
ATOM      3  C   UNL     1      10.942  15.227  52.280  1.00  0.00     0.104 C 
ATOM      4  C   UNL     1      10.310  15.417  53.703  1.00  0.00     0.175 C 
ATOM      5  C   UNL     1      10.911  16.676  54.409  1.00  0.00     0.070 C 
ATOM      6  C   UNL     1      12.232  17.145  53.782  1.00  0.00     0.050 C 
ATOM      7  C   UNL     1      11.366  17.742  52.636  1.00  0.00     0.115 C 
ATOM      8  C   UNL     1      10.183  17.742  53.604  1.00  0.00     0.096 C 
ATOM      9  C   UNL     1       9.035  17.044  52.898  1.00  0.00     0.267 C 
ATOM     10  O   UNL     1       9.435  16.919  51.544  1.00  0.00    -0.342 OA
ATOM     11  O   UNL     1       8.956  15.753  53.480  1.00  0.00    -0.320 OA
ENDROOT
BRANCH   7  12
ATOM     12  O   UNL     1      11.585  19.029  52.050  1.00  0.00    -0.339 OA
BRANCH  12  13
ATOM     13  C   UNL     1      12.888  19.567  52.211  1.00  0.00     0.282 C 
ATOM     14  C   UNL     1      13.674  19.541  50.882  1.00  0.00     0.202 C 
ATOM     15  O   UNL     1      12.740  20.911  52.638  1.00  0.00    -0.341 OA
ATOM     16  C   UNL     1      15.062  20.173  51.109  1.00  0.00     0.179 C 
ATOM     17  C   UNL     1      13.995  21.480  52.986  1.00  0.00     0.178 C 
ATOM     18  C   UNL     1      14.923  21.564  51.745  1.00  0.00     0.177 C 
BRANCH  14  19
ATOM     19  O   UNL     1      12.967  20.264  49.905  1.00  0.00    -0.385 OA
ATOM     20  H   UNL     1      12.016  20.278  50.187  1.00  0.00     0.211 HD
ENDBRANCH  14  19
BRANCH  16  21
ATOM     21  O   UNL     1      15.760  20.280  49.894  1.00  0.00    -0.387 OA
ATOM     22  H   UNL     1      15.940  21.247  49.753  1.00  0.00     0.211 HD
ENDBRANCH  16  21
BRANCH  17  23
ATOM     23  C   UNL     1      13.745  22.862  53.604  1.00  0.00     0.191 C 
BRANCH  23  24
ATOM     24  O   UNL     1      13.934  23.868  52.646  1.00  0.00    -0.394 OA
ATOM     25  H   UNL     1      14.483  24.569  53.084  1.00  0.00     0.210 HD
ENDBRANCH  23  24
ENDBRANCH  17  23
BRANCH  18  26
ATOM     26  O   UNL     1      16.198  22.019  52.122  1.00  0.00    -0.387 OA
ATOM     27  H   UNL     1      16.151  22.255  53.085  1.00  0.00     0.211 HD
ENDBRANCH  18  26
ENDBRANCH  12  13
ENDBRANCH   7  12
BRANCH   4  28
ATOM     28  O   UNL     1      10.407  14.262  54.489  1.00  0.00    -0.365 OA
ATOM     29  H   UNL     1       9.535  14.160  54.954  1.00  0.00     0.214 HD
ENDBRANCH   4  28
BRANCH   8  30
ATOM     30  C   UNL     1       9.860  19.069  54.322  1.00  0.00     0.249 C 
BRANCH  30  31
ATOM     31  O   UNL     1       8.498  19.438  54.109  1.00  0.00    -0.461 OA
BRANCH  31  32
ATOM     32  C   UNL     1       8.095  20.613  53.463  1.00  0.00     0.338 C 
ATOM     33  O   UNL     1       7.254  21.380  54.009  1.00  0.00    -0.246 OA
BRANCH  32  34
ATOM     34  C   UNL     1       8.669  20.958  52.145  1.00  0.00     0.060 A 
ATOM     35  C   UNL     1       9.527  22.066  52.000  1.00  0.00     0.015 A 
ATOM     36  C   UNL     1       8.363  20.181  51.013  1.00  0.00     0.015 A 
ATOM     37  C   UNL     1      10.066  22.384  50.749  1.00  0.00     0.001 A 
ATOM     38  C   UNL     1       8.911  20.499  49.766  1.00  0.00     0.001 A 
ATOM     39  C   UNL     1       9.763  21.597  49.634  1.00  0.00     0.000 A 
ENDBRANCH  32  34
ENDBRANCH  31  32
ENDBRANCH  30  31
ENDBRANCH   8  30
TORSDOF 12
ENDMDL
MODEL 4
REMARK VINA RESULT:     0.000      3.512      6.392
REMARK INTER + INTRA:          -2.040
REMARK INTER:                   0.000
REMARK INTRA:                  -2.040
REMARK UNBOUND:                -2.041
REMARK SMILES C[C@]12C[C@]3(O)O[C@H](O1)[C@@]1(COC(=O)c4ccccc4)[C@@H]3C[C@]12O[C@@H]1O[C@H](CO)[C@@H](O)[C@H](O)[C@@H]1O
REMARK SMILES IDX 1 1 2 2 3 3 4 4 20 5 21 6 22 7 9 8 7 9 8 10 6 11 23 12 24 13
REMARK SMILES IDX 33 14 25 15 31 16 26 17 29 18 34 19 32 21 27 23 28 24 30 26
REMARK SMILES IDX 5 28 10 30 11 31 12 32 13 33 14 34 15 35 19 36 16 37 18 38
REMARK SMILES IDX 17 39
REMARK H PARENT 34 20 32 22 28 25 30 27 5 29
REMARK Flexibility Score: inf
ROOT
ATOM      1  C   UNL     1      15.259  19.629  52.904  1.00  0.00     0.046 C 
ATOM      2  C   UNL     1      15.220  19.070  51.483  1.00  0.00     0.104 C 
ATOM      3  C   UNL     1      16.633  18.543  51.034  1.00  0.00     0.104 C 
ATOM      4  C   UNL     1      16.362  17.944  49.610  1.00  0.00     0.175 C 
ATOM      5  C   UNL     1      15.118  16.998  49.638  1.00  0.00     0.070 C 
ATOM      6  C   UNL     1      14.745  16.534  51.054  1.00  0.00     0.050 C 
ATOM      7  C   UNL     1      14.136  17.951  51.254  1.00  0.00     0.115 C 
ATOM      8  C   UNL     1      14.038  18.065  49.733  1.00  0.00     0.096 C 
ATOM      9  C   UNL     1      14.692  19.379  49.345  1.00  0.00     0.267 C 
ATOM     10  O   UNL     1      14.881  20.087  50.558  1.00  0.00    -0.342 OA
ATOM     11  O   UNL     1      15.957  19.032  48.806  1.00  0.00    -0.320 OA
ENDROOT
BRANCH   7  12
ATOM     12  O   UNL     1      12.882  18.204  51.897  1.00  0.00    -0.339 OA
BRANCH  12  13
ATOM     13  C   UNL     1      12.416  17.182  52.762  1.00  0.00     0.282 C 
ATOM     14  C   UNL     1      12.527  17.605  54.243  1.00  0.00     0.202 C 
ATOM     15  O   UNL     1      11.053  16.950  52.446  1.00  0.00    -0.341 OA
ATOM     16  C   UNL     1      11.969  16.474  55.130  1.00  0.00     0.179 C 
ATOM     17  C   UNL     1      10.546  15.825  53.150  1.00  0.00     0.178 C 
ATOM     18  C   UNL     1      10.553  16.085  54.679  1.00  0.00     0.177 C 
BRANCH  14  19
ATOM     19  O   UNL     1      11.795  18.788  54.448  1.00  0.00    -0.385 OA
ATOM     20  H   UNL     1      12.305  19.336  55.097  1.00  0.00     0.211 HD
ENDBRANCH  14  19
BRANCH  16  21
ATOM     21  O   UNL     1      11.939  16.874  56.477  1.00  0.00    -0.387 OA
ATOM     22  H   UNL     1      11.472  16.154  56.977  1.00  0.00     0.211 HD
ENDBRANCH  16  21
BRANCH  17  23
ATOM     23  C   UNL     1       9.133  15.525  52.631  1.00  0.00     0.191 C 
BRANCH  23  24
ATOM     24  O   UNL     1       8.170  16.071  53.489  1.00  0.00    -0.394 OA
ATOM     25  H   UNL     1       8.028  15.403  54.209  1.00  0.00     0.210 HD
ENDBRANCH  23  24
ENDBRANCH  17  23
BRANCH  18  26
ATOM     26  O   UNL     1      10.161  14.925  55.371  1.00  0.00    -0.387 OA
ATOM     27  H   UNL     1      10.962  14.584  55.847  1.00  0.00     0.211 HD
ENDBRANCH  18  26
ENDBRANCH  12  13
ENDBRANCH   7  12
BRANCH   4  28
ATOM     28  O   UNL     1      17.496  17.327  49.067  1.00  0.00    -0.365 OA
ATOM     29  H   UNL     1      17.863  17.952  48.388  1.00  0.00     0.214 HD
ENDBRANCH   4  28
BRANCH   8  30
ATOM     30  C   UNL     1      12.673  17.744  49.089  1.00  0.00     0.249 C 
BRANCH  30  31
ATOM     31  O   UNL     1      12.233  18.831  48.274  1.00  0.00    -0.461 OA
BRANCH  31  32
ATOM     32  C   UNL     1      11.059  19.558  48.501  1.00  0.00     0.338 C 
ATOM     33  O   UNL     1      10.228  19.727  47.567  1.00  0.00    -0.246 OA
BRANCH  32  34
ATOM     34  C   UNL     1      10.789  20.113  49.845  1.00  0.00     0.060 A 
ATOM     35  C   UNL     1       9.738  19.608  50.636  1.00  0.00     0.015 A 
ATOM     36  C   UNL     1      11.583  21.157  50.353  1.00  0.00     0.015 A 
ATOM     37  C   UNL     1       9.491  20.139  51.906  1.00  0.00     0.001 A 
ATOM     38  C   UNL     1      11.336  21.679  51.627  1.00  0.00     0.001 A 
ATOM     39  C   UNL     1      10.294  21.169  52.404  1.00  0.00     0.000 A 
ENDBRANCH  32  34
ENDBRANCH  31  32
ENDBRANCH  30  31
ENDBRANCH   8  30
TORSDOF 12
ENDMDL
MODEL 5
REMARK VINA RESULT:     0.001      5.028      7.182
REMARK INTER + INTRA:          -2.040
REMARK INTER:                   0.000
REMARK INTRA:                  -2.040
REMARK UNBOUND:                -2.041
REMARK SMILES C[C@]12C[C@]3(O)O[C@H](O1)[C@@]1(COC(=O)c4ccccc4)[C@@H]3C[C@]12O[C@@H]1O[C@H](CO)[C@@H](O)[C@H](O)[C@@H]1O
REMARK SMILES IDX 1 1 2 2 3 3 4 4 20 5 21 6 22 7 9 8 7 9 8 10 6 11 23 12 24 13
REMARK SMILES IDX 33 14 25 15 31 16 26 17 29 18 34 19 32 21 27 23 28 24 30 26
REMARK SMILES IDX 5 28 10 30 11 31 12 32 13 33 14 34 15 35 19 36 16 37 18 38
REMARK SMILES IDX 17 39
REMARK H PARENT 34 20 32 22 28 25 30 27 5 29
REMARK Flexibility Score: inf
ROOT
ATOM      1  C   UNL     1      13.480  18.751  50.165  1.00  0.00     0.046 C 
ATOM      2  C   UNL     1      13.029  18.003  51.419  1.00  0.00     0.104 C 
ATOM      3  C   UNL     1      12.167  16.739  51.055  1.00  0.00     0.104 C 
ATOM      4  C   UNL     1      11.885  16.077  52.448  1.00  0.00     0.175 C 
ATOM      5  C   UNL     1      13.207  15.943  53.272  1.00  0.00     0.070 C 
ATOM      6  C   UNL     1      14.471  16.056  52.406  1.00  0.00     0.050 C 
ATOM      7  C   UNL     1      14.202  17.588  52.384  1.00  0.00     0.115 C 
ATOM      8  C   UNL     1      13.372  17.406  53.654  1.00  0.00     0.096 C 
ATOM      9  C   UNL     1      12.031  18.073  53.405  1.00  0.00     0.267 C 
ATOM     10  O   UNL     1      12.190  18.822  52.212  1.00  0.00    -0.342 OA
ATOM     11  O   UNL     1      11.115  17.015  53.171  1.00  0.00    -0.320 OA
ENDROOT
BRANCH   7  12
ATOM     12  O   UNL     1      15.218  18.585  52.541  1.00  0.00    -0.339 OA
BRANCH  12  13
ATOM     13  C   UNL     1      16.543  18.166  52.255  1.00  0.00     0.282 C 
ATOM     14  C   UNL     1      17.051  18.777  50.931  1.00  0.00     0.202 C 
ATOM     15  O   UNL     1      17.366  18.612  53.320  1.00  0.00    -0.341 OA
ATOM     16  C   UNL     1      18.505  18.320  50.695  1.00  0.00     0.179 C 
ATOM     17  C   UNL     1      18.684  18.094  53.202  1.00  0.00     0.178 C 
ATOM     18  C   UNL     1      19.374  18.634  51.922  1.00  0.00     0.177 C 
BRANCH  14  19
ATOM     19  O   UNL     1      16.991  20.180  51.009  1.00  0.00    -0.385 OA
ATOM     20  H   UNL     1      17.917  20.502  51.155  1.00  0.00     0.211 HD
ENDBRANCH  14  19
BRANCH  16  21
ATOM     21  O   UNL     1      19.044  18.956  49.563  1.00  0.00    -0.387 OA
ATOM     22  H   UNL     1      19.878  18.469  49.334  1.00  0.00     0.211 HD
ENDBRANCH  16  21
BRANCH  17  23
ATOM     23  C   UNL     1      19.466  18.465  54.469  1.00  0.00     0.191 C 
BRANCH  23  24
ATOM     24  O   UNL     1      20.252  19.602  54.243  1.00  0.00    -0.394 OA
ATOM     25  H   UNL     1      20.397  20.021  55.131  1.00  0.00     0.210 HD
ENDBRANCH  23  24
ENDBRANCH  17  23
BRANCH  18  26
ATOM     26  O   UNL     1      20.630  18.026  51.754  1.00  0.00    -0.387 OA
ATOM     27  H   UNL     1      21.204  18.329  52.504  1.00  0.00     0.211 HD
ENDBRANCH  18  26
ENDBRANCH  12  13
ENDBRANCH   7  12
BRANCH   4  28
ATOM     28  O   UNL     1      11.198  14.862  52.333  1.00  0.00    -0.365 OA
ATOM     29  H   UNL     1      11.620  14.234  52.976  1.00  0.00     0.214 HD
ENDBRANCH   4  28
BRANCH   8  30
ATOM     30  C   UNL     1      14.064  17.709  54.999  1.00  0.00     0.249 C 
BRANCH  30  31
ATOM     31  O   UNL     1      13.313  18.662  55.750  1.00  0.00    -0.461 OA
BRANCH  31  32
ATOM     32  C   UNL     1      13.795  19.921  56.129  1.00  0.00     0.338 C 
ATOM     33  O   UNL     1      13.724  20.290  57.333  1.00  0.00    -0.246 OA
BRANCH  32  34
ATOM     34  C   UNL     1      14.401  20.808  55.114  1.00  0.00     0.060 A 
ATOM     35  C   UNL     1      15.779  21.105  55.146  1.00  0.00     0.015 A 
ATOM     36  C   UNL     1      13.607  21.371  54.099  1.00  0.00     0.015 A 
ATOM     37  C   UNL     1      16.344  21.945  54.181  1.00  0.00     0.001 A 
ATOM     38  C   UNL     1      14.179  22.205  53.132  1.00  0.00     0.001 A 
ATOM     39  C   UNL     1      15.545  22.490  53.171  1.00  0.00     0.000 A 
ENDBRANCH  32  34
ENDBRANCH  31  32
ENDBRANCH  30  31
ENDBRANCH   8  30
TORSDOF 12
ENDMDL
MODEL 6
REMARK VINA RESULT:     0.001      5.618      9.137
REMARK INTER + INTRA:          -2.039
REMARK INTER:                   0.000
REMARK INTRA:                  -2.039
REMARK UNBOUND:                -2.041
REMARK SMILES C[C@]12C[C@]3(O)O[C@H](O1)[C@@]1(COC(=O)c4ccccc4)[C@@H]3C[C@]12O[C@@H]1O[C@H](CO)[C@@H](O)[C@H](O)[C@@H]1O
REMARK SMILES IDX 1 1 2 2 3 3 4 4 20 5 21 6 22 7 9 8 7 9 8 10 6 11 23 12 24 13
REMARK SMILES IDX 33 14 25 15 31 16 26 17 29 18 34 19 32 21 27 23 28 24 30 26
REMARK SMILES IDX 5 28 10 30 11 31 12 32 13 33 14 34 15 35 19 36 16 37 18 38
REMARK SMILES IDX 17 39
REMARK H PARENT 34 20 32 22 28 25 30 27 5 29
REMARK Flexibility Score: inf
ROOT
ATOM      1  C   UNL     1      18.978  13.897  55.036  1.00  0.00     0.046 C 
ATOM      2  C   UNL     1      17.638  14.428  55.543  1.00  0.00     0.104 C 
ATOM      3  C   UNL     1      17.837  15.473  56.702  1.00  0.00     0.104 C 
ATOM      4  C   UNL     1      16.376  15.952  57.015  1.00  0.00     0.175 C 
ATOM      5  C   UNL     1      15.630  16.339  55.696  1.00  0.00     0.070 C 
ATOM      6  C   UNL     1      16.580  16.589  54.517  1.00  0.00     0.050 C 
ATOM      7  C   UNL     1      16.717  15.042  54.423  1.00  0.00     0.115 C 
ATOM      8  C   UNL     1      15.386  14.934  55.166  1.00  0.00     0.096 C 
ATOM      9  C   UNL     1      15.607  13.986  56.332  1.00  0.00     0.267 C 
ATOM     10  O   UNL     1      16.867  13.381  56.102  1.00  0.00    -0.342 OA
ATOM     11  O   UNL     1      15.690  14.810  57.484  1.00  0.00    -0.320 OA
ENDROOT
BRANCH   7  12
ATOM     12  O   UNL     1      16.712  14.307  53.195  1.00  0.00    -0.339 OA
BRANCH  12  13
ATOM     13  C   UNL     1      17.043  15.048  52.031  1.00  0.00     0.282 C 
ATOM     14  C   UNL     1      18.444  14.669  51.505  1.00  0.00     0.202 C 
ATOM     15  O   UNL     1      16.075  14.737  51.043  1.00  0.00    -0.341 OA
ATOM     16  C   UNL     1      18.731  15.474  50.221  1.00  0.00     0.179 C 
ATOM     17  C   UNL     1      16.230  15.561  49.895  1.00  0.00     0.178 C 
ATOM     18  C   UNL     1      17.593  15.291  49.206  1.00  0.00     0.177 C 
BRANCH  14  19
ATOM     19  O   UNL     1      18.485  13.290  51.231  1.00  0.00    -0.385 OA
ATOM     20  H   UNL     1      18.871  12.848  52.030  1.00  0.00     0.211 HD
ENDBRANCH  14  19
BRANCH  16  21
ATOM     21  O   UNL     1      19.945  15.064  49.643  1.00  0.00    -0.387 OA
ATOM     22  H   UNL     1      20.501  14.696  50.379  1.00  0.00     0.211 HD
ENDBRANCH  16  21
BRANCH  17  23
ATOM     23  C   UNL     1      15.051  15.298  48.948  1.00  0.00     0.191 C 
BRANCH  23  24
ATOM     24  O   UNL     1      15.424  14.400  47.940  1.00  0.00    -0.394 OA
ATOM     25  H   UNL     1      15.722  14.953  47.171  1.00  0.00     0.210 HD
ENDBRANCH  23  24
ENDBRANCH  17  23
BRANCH  18  26
ATOM     26  O   UNL     1      17.786  16.190  48.143  1.00  0.00    -0.387 OA
ATOM     27  H   UNL     1      17.300  17.024  48.374  1.00  0.00     0.211 HD
ENDBRANCH  18  26
ENDBRANCH  12  13
ENDBRANCH   7  12
BRANCH   4  28
ATOM     28  O   UNL     1      16.342  16.974  57.972  1.00  0.00    -0.365 OA
ATOM     29  H   UNL     1      15.545  16.806  58.539  1.00  0.00     0.214 HD
ENDBRANCH   4  28
BRANCH   8  30
ATOM     30  C   UNL     1      14.119  14.713  54.315  1.00  0.00     0.249 C 
BRANCH  30  31
ATOM     31  O   UNL     1      13.407  13.559  54.761  1.00  0.00    -0.461 OA
BRANCH  31  32
ATOM     32  C   UNL     1      13.169  12.428  53.973  1.00  0.00     0.338 C 
ATOM     33  O   UNL     1      11.999  11.969  53.858  1.00  0.00    -0.246 OA
BRANCH  32  34
ATOM     34  C   UNL     1      14.293  11.781  53.262  1.00  0.00     0.060 A 
ATOM     35  C   UNL     1      14.374  11.819  51.856  1.00  0.00     0.015 A 
ATOM     36  C   UNL     1      15.301  11.117  53.985  1.00  0.00     0.015 A 
ATOM     37  C   UNL     1      15.442  11.205  51.192  1.00  0.00     0.001 A 
ATOM     38  C   UNL     1      16.370  10.512  53.317  1.00  0.00     0.001 A 
ATOM     39  C   UNL     1      16.442  10.557  51.923  1.00  0.00     0.000 A 
ENDBRANCH  32  34
ENDBRANCH  31  32
ENDBRANCH  30  31
ENDBRANCH   8  30
TORSDOF 12
ENDMDL
MODEL 7
REMARK VINA RESULT:     0.001      6.297      8.007
REMARK INTER + INTRA:          -2.039
REMARK INTER:                   0.000
REMARK INTRA:                  -2.039
REMARK UNBOUND:                -2.041
REMARK SMILES C[C@]12C[C@]3(O)O[C@H](O1)[C@@]1(COC(=O)c4ccccc4)[C@@H]3C[C@]12O[C@@H]1O[C@H](CO)[C@@H](O)[C@H](O)[C@@H]1O
REMARK SMILES IDX 1 1 2 2 3 3 4 4 20 5 21 6 22 7 9 8 7 9 8 10 6 11 23 12 24 13
REMARK SMILES IDX 33 14 25 15 31 16 26 17 29 18 34 19 32 21 27 23 28 24 30 26
REMARK SMILES IDX 5 28 10 30 11 31 12 32 13 33 14 34 15 35 19 36 16 37 18 38
REMARK SMILES IDX 17 39
REMARK H PARENT 34 20 32 22 28 25 30 27 5 29
REMARK Flexibility Score: inf
ROOT
ATOM      1  C   UNL     1      16.956  16.603  42.329  1.00  0.00     0.046 C 
ATOM      2  C   UNL     1      15.721  16.659  43.227  1.00  0.00     0.104 C 
ATOM      3  C   UNL     1      14.614  15.653  42.742  1.00  0.00     0.104 C 
ATOM      4  C   UNL     1      13.489  15.800  43.826  1.00  0.00     0.175 C 
ATOM      5  C   UNL     1      14.095  15.704  45.265  1.00  0.00     0.070 C 
ATOM      6  C   UNL     1      15.492  15.067  45.289  1.00  0.00     0.050 C 
ATOM      7  C   UNL     1      16.019  16.430  44.756  1.00  0.00     0.115 C 
ATOM      8  C   UNL     1      14.751  17.076  45.313  1.00  0.00     0.096 C 
ATOM      9  C   UNL     1      14.138  17.890  44.188  1.00  0.00     0.267 C 
ATOM     10  O   UNL     1      15.123  17.941  43.170  1.00  0.00    -0.342 OA
ATOM     11  O   UNL     1      13.032  17.132  43.727  1.00  0.00    -0.320 OA
ENDROOT
BRANCH   7  12
ATOM     12  O   UNL     1      17.207  17.073  45.229  1.00  0.00    -0.339 OA
BRANCH  12  13
ATOM     13  C   UNL     1      18.151  16.231  45.870  1.00  0.00     0.282 C 
ATOM     14  C   UNL     1      19.397  16.010  44.985  1.00  0.00     0.202 C 
ATOM     15  O   UNL     1      18.542  16.874  47.072  1.00  0.00    -0.341 OA
ATOM     16  C   UNL     1      20.401  15.123  45.749  1.00  0.00     0.179 C 
ATOM     17  C   UNL     1      19.363  16.026  47.864  1.00  0.00     0.178 C 
ATOM     18  C   UNL     1      20.696  15.715  47.135  1.00  0.00     0.177 C 
BRANCH  14  19
ATOM     19  O   UNL     1      19.981  17.251  44.680  1.00  0.00    -0.385 OA
ATOM     20  H   UNL     1      19.636  17.904  45.340  1.00  0.00     0.211 HD
ENDBRANCH  14  19
BRANCH  16  21
ATOM     21  O   UNL     1      21.601  15.002  45.026  1.00  0.00    -0.387 OA
ATOM     22  H   UNL     1      22.083  15.864  45.128  1.00  0.00     0.211 HD
ENDBRANCH  16  21
BRANCH  17  23
ATOM     23  C   UNL     1      19.600  16.708  49.218  1.00  0.00     0.191 C 
BRANCH  23  24
ATOM     24  O   UNL     1      20.843  17.355  49.229  1.00  0.00    -0.394 OA
ATOM     25  H   UNL     1      21.104  17.472  48.279  1.00  0.00     0.210 HD
ENDBRANCH  23  24
ENDBRANCH  17  23
BRANCH  18  26
ATOM     26  O   UNL     1      21.448  14.784  47.874  1.00  0.00    -0.387 OA
ATOM     27  H   UNL     1      22.389  15.100  47.870  1.00  0.00     0.211 HD
ENDBRANCH  18  26
ENDBRANCH  12  13
ENDBRANCH   7  12
BRANCH   4  28
ATOM     28  O   UNL     1      12.434  14.901  43.627  1.00  0.00    -0.365 OA
ATOM     29  H   UNL     1      12.838  13.996  43.572  1.00  0.00     0.214 HD
ENDBRANCH   4  28
BRANCH   8  30
ATOM     30  C   UNL     1      14.855  17.758  46.694  1.00  0.00     0.249 C 
BRANCH  30  31
ATOM     31  O   UNL     1      14.405  19.110  46.623  1.00  0.00    -0.461 OA
BRANCH  31  32
ATOM     32  C   UNL     1      15.210  20.222  46.900  1.00  0.00     0.338 C 
ATOM     33  O   UNL     1      14.815  21.103  47.713  1.00  0.00    -0.246 OA
BRANCH  32  34
ATOM     34  C   UNL     1      16.530  20.351  46.248  1.00  0.00     0.060 A 
ATOM     35  C   UNL     1      17.719  20.247  46.998  1.00  0.00     0.015 A 
ATOM     36  C   UNL     1      16.618  20.580  44.863  1.00  0.00     0.015 A 
ATOM     37  C   UNL     1      18.964  20.370  46.372  1.00  0.00     0.001 A 
ATOM     38  C   UNL     1      17.865  20.695  44.241  1.00  0.00     0.001 A 
ATOM     39  C   UNL     1      19.037  20.587  44.993  1.00  0.00     0.000 A 
ENDBRANCH  32  34
ENDBRANCH  31  32
ENDBRANCH  30  31
ENDBRANCH   8  30
TORSDOF 12
ENDMDL
MODEL 8
REMARK VINA RESULT:     0.001      5.994      9.875
REMARK INTER + INTRA:          -2.039
REMARK INTER:                   0.000
REMARK INTRA:                  -2.039
REMARK UNBOUND:                -2.041
REMARK SMILES C[C@]12C[C@]3(O)O[C@H](O1)[C@@]1(COC(=O)c4ccccc4)[C@@H]3C[C@]12O[C@@H]1O[C@H](CO)[C@@H](O)[C@H](O)[C@@H]1O
REMARK SMILES IDX 1 1 2 2 3 3 4 4 20 5 21 6 22 7 9 8 7 9 8 10 6 11 23 12 24 13
REMARK SMILES IDX 33 14 25 15 31 16 26 17 29 18 34 19 32 21 27 23 28 24 30 26
REMARK SMILES IDX 5 28 10 30 11 31 12 32 13 33 14 34 15 35 19 36 16 37 18 38
REMARK SMILES IDX 17 39
REMARK H PARENT 34 20 32 22 28 25 30 27 5 29
REMARK Flexibility Score: inf
ROOT
ATOM      1  C   UNL     1       8.843  15.670  57.810  1.00  0.00     0.046 C 
ATOM      2  C   UNL     1      10.304  16.116  57.808  1.00  0.00     0.104 C 
ATOM      3  C   UNL     1      11.280  14.885  57.732  1.00  0.00     0.104 C 
ATOM      4  C   UNL     1      12.699  15.550  57.655  1.00  0.00     0.175 C 
ATOM      5  C   UNL     1      12.723  16.669  56.564  1.00  0.00     0.070 C 
ATOM      6  C   UNL     1      11.566  16.559  55.561  1.00  0.00     0.050 C 
ATOM      7  C   UNL     1      10.665  17.154  56.680  1.00  0.00     0.115 C 
ATOM      8  C   UNL     1      11.930  17.725  57.320  1.00  0.00     0.096 C 
ATOM      9  C   UNL     1      11.919  17.297  58.777  1.00  0.00     0.267 C 
ATOM     10  O   UNL     1      10.622  16.781  59.016  1.00  0.00    -0.342 OA
ATOM     11  O   UNL     1      12.864  16.244  58.873  1.00  0.00    -0.320 OA
ENDROOT
BRANCH   7  12
ATOM     12  O   UNL     1       9.669  18.158  56.462  1.00  0.00    -0.339 OA
BRANCH  12  13
ATOM     13  C   UNL     1       9.194  18.277  55.131  1.00  0.00     0.282 C 
ATOM     14  C   UNL     1       7.754  17.736  54.998  1.00  0.00     0.202 C 
ATOM     15  O   UNL     1       9.205  19.657  54.800  1.00  0.00    -0.341 OA
ATOM     16  C   UNL     1       7.279  17.929  53.544  1.00  0.00     0.179 C 
ATOM     17  C   UNL     1       8.902  19.858  53.426  1.00  0.00     0.178 C 
ATOM     18  C   UNL     1       7.457  19.391  53.109  1.00  0.00     0.177 C 
BRANCH  14  19
ATOM     19  O   UNL     1       6.909  18.433  55.880  1.00  0.00    -0.385 OA
ATOM     20  H   UNL     1       6.324  19.010  55.326  1.00  0.00     0.211 HD
ENDBRANCH  14  19
BRANCH  16  21
ATOM     21  O   UNL     1       5.928  17.562  53.414  1.00  0.00    -0.387 OA
ATOM     22  H   UNL     1       5.752  16.873  54.107  1.00  0.00     0.211 HD
ENDBRANCH  16  21
BRANCH  17  23
ATOM     23  C   UNL     1       9.105  21.343  53.098  1.00  0.00     0.191 C 
BRANCH  23  24
ATOM     24  O   UNL     1       7.880  22.021  53.119  1.00  0.00    -0.394 OA
ATOM     25  H   UNL     1       7.694  22.289  52.182  1.00  0.00     0.210 HD
ENDBRANCH  23  24
ENDBRANCH  17  23
BRANCH  18  26
ATOM     26  O   UNL     1       7.209  19.486  51.728  1.00  0.00    -0.387 OA
ATOM     27  H   UNL     1       7.110  20.450  51.515  1.00  0.00     0.211 HD
ENDBRANCH  18  26
ENDBRANCH  12  13
ENDBRANCH   7  12
BRANCH   4  28
ATOM     28  O   UNL     1      13.721  14.608  57.482  1.00  0.00    -0.365 OA
ATOM     29  H   UNL     1      13.623  14.247  56.562  1.00  0.00     0.214 HD
ENDBRANCH   4  28
BRANCH   8  30
ATOM     30  C   UNL     1      12.264  19.202  57.026  1.00  0.00     0.249 C 
BRANCH  30  31
ATOM     31  O   UNL     1      12.431  19.932  58.241  1.00  0.00    -0.461 OA
BRANCH  31  32
ATOM     32  C   UNL     1      11.633  21.017  58.622  1.00  0.00     0.338 C 
ATOM     33  O   UNL     1      12.167  22.104  58.975  1.00  0.00    -0.246 OA
BRANCH  32  34
ATOM     34  C   UNL     1      10.160  20.888  58.594  1.00  0.00     0.060 A 
ATOM     35  C   UNL     1       9.390  21.613  57.664  1.00  0.00     0.015 A 
ATOM     36  C   UNL     1       9.506  20.035  59.501  1.00  0.00     0.015 A 
ATOM     37  C   UNL     1       7.997  21.484  57.645  1.00  0.00     0.001 A 
ATOM     38  C   UNL     1       8.114  19.903  59.473  1.00  0.00     0.001 A 
ATOM     39  C   UNL     1       7.360  20.625  58.545  1.00  0.00     0.000 A 
ENDBRANCH  32  34
ENDBRANCH  31  32
ENDBRANCH  30  31
ENDBRANCH   8  30
TORSDOF 12
ENDMDL
MODEL 9
REMARK VINA RESULT:     0.002      3.991      8.121
REMARK INTER + INTRA:          -2.038
REMARK INTER:                   0.000
REMARK INTRA:                  -2.038
REMARK UNBOUND:                -2.041
REMARK SMILES C[C@]12C[C@]3(O)O[C@H](O1)[C@@]1(COC(=O)c4ccccc4)[C@@H]3C[C@]12O[C@@H]1O[C@H](CO)[C@@H](O)[C@H](O)[C@@H]1O
REMARK SMILES IDX 1 1 2 2 3 3 4 4 20 5 21 6 22 7 9 8 7 9 8 10 6 11 23 12 24 13
REMARK SMILES IDX 33 14 25 15 31 16 26 17 29 18 34 19 32 21 27 23 28 24 30 26
REMARK SMILES IDX 5 28 10 30 11 31 12 32 13 33 14 34 15 35 19 36 16 37 18 38
REMARK SMILES IDX 17 39
REMARK H PARENT 34 20 32 22 28 25 30 27 5 29
REMARK Flexibility Score: inf
ROOT
ATOM      1  C   UNL     1      11.475  17.032  57.383  1.00  0.00     0.046 C 
ATOM      2  C   UNL     1      11.154  15.570  57.079  1.00  0.00     0.104 C 
ATOM      3  C   UNL     1       9.943  15.057  57.942  1.00  0.00     0.104 C 
ATOM      4  C   UNL     1       9.723  13.592  57.426  1.00  0.00     0.175 C 
ATOM      5  C   UNL     1       9.672  13.561  55.864  1.00  0.00     0.070 C 
ATOM      6  C   UNL     1       9.402  14.939  55.242  1.00  0.00     0.050 C 
ATOM      7  C   UNL     1      10.890  15.266  55.557  1.00  0.00     0.115 C 
ATOM      8  C   UNL     1      11.156  13.762  55.596  1.00  0.00     0.096 C 
ATOM      9  C   UNL     1      11.875  13.474  56.902  1.00  0.00     0.267 C 
ATOM     10  O   UNL     1      12.246  14.739  57.422  1.00  0.00    -0.342 OA
ATOM     11  O   UNL     1      10.903  12.889  57.753  1.00  0.00    -0.320 OA
ENDROOT
BRANCH   7  12
ATOM     12  O   UNL     1      11.771  15.948  54.657  1.00  0.00    -0.339 OA
BRANCH  12  13
ATOM     13  C   UNL     1      11.144  16.731  53.655  1.00  0.00     0.282 C 
ATOM     14  C   UNL     1      11.309  18.240  53.937  1.00  0.00     0.202 C 
ATOM     15  O   UNL     1      11.769  16.417  52.421  1.00  0.00    -0.341 OA
ATOM     16  C   UNL     1      10.645  19.038  52.797  1.00  0.00     0.179 C 
ATOM     17  C   UNL     1      11.094  17.033  51.332  1.00  0.00     0.178 C 
ATOM     18  C   UNL     1      11.183  18.578  51.434  1.00  0.00     0.177 C 
BRANCH  14  19
ATOM     19  O   UNL     1      12.677  18.555  54.016  1.00  0.00    -0.385 OA
ATOM     20  H   UNL     1      12.791  19.453  53.613  1.00  0.00     0.211 HD
ENDBRANCH  14  19
BRANCH  16  21
ATOM     21  O   UNL     1      10.883  20.414  52.955  1.00  0.00    -0.387 OA
ATOM     22  H   UNL     1       9.999  20.840  53.109  1.00  0.00     0.211 HD
ENDBRANCH  16  21
BRANCH  17  23
ATOM     23  C   UNL     1      11.708  16.512  50.026  1.00  0.00     0.191 C 
BRANCH  23  24
ATOM     24  O   UNL     1      12.642  17.429  49.524  1.00  0.00    -0.394 OA
ATOM     25  H   UNL     1      13.252  17.644  50.277  1.00  0.00     0.210 HD
ENDBRANCH  23  24
ENDBRANCH  17  23
BRANCH  18  26
ATOM     26  O   UNL     1      10.415  19.176  50.419  1.00  0.00    -0.387 OA
ATOM     27  H   UNL     1       9.494  19.279  50.772  1.00  0.00     0.211 HD
ENDBRANCH  18  26
ENDBRANCH  12  13
ENDBRANCH   7  12
BRANCH   4  28
ATOM     28  O   UNL     1       8.608  12.981  58.013  1.00  0.00    -0.365 OA
ATOM     29  H   UNL     1       8.157  13.677  58.560  1.00  0.00     0.214 HD
ENDBRANCH   4  28
BRANCH   8  30
ATOM     30  C   UNL     1      11.735  13.114  54.321  1.00  0.00     0.249 C 
BRANCH  30  31
ATOM     31  O   UNL     1      12.934  12.400  54.619  1.00  0.00    -0.461 OA
BRANCH  31  32
ATOM     32  C   UNL     1      14.187  12.705  54.074  1.00  0.00     0.338 C 
ATOM     33  O   UNL     1      14.878  11.801  53.527  1.00  0.00    -0.246 OA
BRANCH  32  34
ATOM     34  C   UNL     1      14.690  14.095  54.127  1.00  0.00     0.060 A 
ATOM     35  C   UNL     1      14.827  14.858  52.950  1.00  0.00     0.015 A 
ATOM     36  C   UNL     1      15.040  14.675  55.359  1.00  0.00     0.015 A 
ATOM     37  C   UNL     1      15.303  16.172  53.011  1.00  0.00     0.001 A 
ATOM     38  C   UNL     1      15.508  15.992  55.415  1.00  0.00     0.001 A 
ATOM     39  C   UNL     1      15.637  16.740  54.243  1.00  0.00     0.000 A 
ENDBRANCH  32  34
ENDBRANCH  31  32
ENDBRANCH  30  31
ENDBRANCH   8  30
TORSDOF 12
ENDMDL
