MODEL 1
REMARK VINA RESULT:    -2.909      0.000      0.000
REMARK INTER + INTRA:         -10.503
REMARK INTER:                  -6.650
REMARK INTRA:                  -3.853
REMARK UNBOUND:                -3.853
REMARK SMILES CCCCCCCCCCCCCCCCCCCCCCCC(=O)[O-]
REMARK SMILES IDX 13 1 14 2 15 3 16 4 17 5 18 6 19 7 20 8 21 9 22 10 23 11
REMARK SMILES IDX 24 12 25 13 26 14 12 15 11 16 10 17 9 18 8 19 7 20 6 21 5 22
REMARK SMILES IDX 4 23 3 24 2 25 1 26
REMARK H PARENT
REMARK Flexibility Score: inf
ROOT
ATOM      1  C   UNL     1     111.353  55.733 229.002  1.00  0.00     0.000 C 
ENDROOT
BRANCH   1   2
ATOM      2  C   UNL     1     110.358  56.895 229.205  1.00  0.00     0.000 C 
BRANCH   2   3
ATOM      3  C   UNL     1     110.533  57.618 230.552  1.00  0.00     0.000 C 
BRANCH   3   4
ATOM      4  C   UNL     1     110.520  56.654 231.750  1.00  0.00     0.000 C 
BRANCH   4   5
ATOM      5  C   UNL     1     111.643  56.943 232.758  1.00  0.00     0.000 C 
BRANCH   5   6
ATOM      6  C   UNL     1     113.022  56.469 232.262  1.00  0.00     0.000 C 
BRANCH   6   7
ATOM      7  C   UNL     1     113.401  55.078 232.814  1.00  0.00     0.000 C 
BRANCH   7   8
ATOM      8  C   UNL     1     113.530  53.992 231.733  1.00  0.00     0.000 C 
BRANCH   8   9
ATOM      9  C   UNL     1     112.216  53.234 231.485  1.00  0.00     0.000 C 
BRANCH   9  10
ATOM     10  C   UNL     1     111.521  52.809 232.791  1.00  0.00     0.006 C 
BRANCH  10  11
ATOM     11  C   UNL     1     110.039  53.210 232.827  1.00  0.00     0.053 C 
BRANCH  11  12
ATOM     12  C   UNL     1     109.150  52.003 232.856  1.00  0.00     0.041 C 
ATOM     13  O   UNL     1     109.596  50.876 232.509  1.00  0.00    -0.550 OA
ATOM     14  O   UNL     1     107.815  52.132 233.224  1.00  0.00    -0.550 OA
ENDBRANCH  11  12
ENDBRANCH  10  11
ENDBRANCH   9  10
ENDBRANCH   8   9
ENDBRANCH   7   8
ENDBRANCH   6   7
ENDBRANCH   5   6
ENDBRANCH   4   5
ENDBRANCH   3   4
ENDBRANCH   2   3
ENDBRANCH   1   2
BRANCH   1  15
ATOM     15  C   UNL     1     112.745  56.230 228.569  1.00  0.00     0.000 C 
BRANCH  15  16
ATOM     16  C   UNL     1     113.747  55.087 228.348  1.00  0.00     0.000 C 
BRANCH  16  17
ATOM     17  C   UNL     1     113.061  53.762 227.974  1.00  0.00     0.000 C 
BRANCH  17  18
ATOM     18  C   UNL     1     113.534  53.204 226.619  1.00  0.00    -0.000 C 
BRANCH  18  19
ATOM     19  C   UNL     1     112.543  53.376 225.453  1.00  0.00    -0.000 C 
BRANCH  19  20
ATOM     20  C   UNL     1     111.078  53.444 225.918  1.00  0.00    -0.000 C 
BRANCH  20  21
ATOM     21  C   UNL     1     110.454  54.834 225.716  1.00  0.00    -0.000 C 
BRANCH  21  22
ATOM     22  C   UNL     1     111.431  55.826 225.057  1.00  0.00    -0.000 C 
BRANCH  22  23
ATOM     23  C   UNL     1     110.859  57.252 224.983  1.00  0.00    -0.000 C 
BRANCH  23  24
ATOM     24  C   UNL     1     109.432  57.286 224.407  1.00  0.00    -0.000 C 
BRANCH  24  25
ATOM     25  C   UNL     1     109.406  57.060 222.888  1.00  0.00    -0.003 C 
ATOM     26  C   UNL     1     108.136  57.603 222.233  1.00  0.00     0.004 C 
ENDBRANCH  24  25
ENDBRANCH  23  24
ENDBRANCH  22  23
ENDBRANCH  21  22
ENDBRANCH  20  21
ENDBRANCH  19  20
ENDBRANCH  18  19
ENDBRANCH  17  18
ENDBRANCH  16  17
ENDBRANCH  15  16
ENDBRANCH   1  15
TORSDOF 22
ENDMDL
MODEL 2
REMARK VINA RESULT:    -2.904     13.081     16.789
REMARK INTER + INTRA:         -10.492
REMARK INTER:                  -5.861
REMARK INTRA:                  -4.631
REMARK UNBOUND:                -3.853
REMARK SMILES CCCCCCCCCCCCCCCCCCCCCCCC(=O)[O-]
REMARK SMILES IDX 13 1 14 2 15 3 16 4 17 5 18 6 19 7 20 8 21 9 22 10 23 11
REMARK SMILES IDX 24 12 25 13 26 14 12 15 11 16 10 17 9 18 8 19 7 20 6 21 5 22
REMARK SMILES IDX 4 23 3 24 2 25 1 26
REMARK H PARENT
REMARK Flexibility Score: inf
ROOT
ATOM      1  C   UNL     1      98.184  64.721 224.949  1.00  0.00     0.000 C 
ENDROOT
BRANCH   1   2
ATOM      2  C   UNL     1      98.596  66.010 224.207  1.00  0.00     0.000 C 
BRANCH   2   3
ATOM      3  C   UNL     1      98.844  67.202 225.147  1.00  0.00     0.000 C 
BRANCH   3   4
ATOM      4  C   UNL     1      99.321  66.769 226.544  1.00  0.00     0.000 C 
BRANCH   4   5
ATOM      5  C   UNL     1     100.790  67.132 226.809  1.00  0.00     0.000 C 
BRANCH   5   6
ATOM      6  C   UNL     1     101.696  65.892 226.929  1.00  0.00     0.000 C 
BRANCH   6   7
ATOM      7  C   UNL     1     101.024  64.746 227.716  1.00  0.00     0.000 C 
BRANCH   7   8
ATOM      8  C   UNL     1     101.923  63.514 227.916  1.00  0.00     0.000 C 
BRANCH   8   9
ATOM      9  C   UNL     1     101.246  62.203 227.488  1.00  0.00     0.000 C 
BRANCH   9  10
ATOM     10  C   UNL     1     100.518  62.323 226.138  1.00  0.00     0.006 C 
BRANCH  10  11
ATOM     11  C   UNL     1     101.405  61.914 224.952  1.00  0.00     0.053 C 
BRANCH  11  12
ATOM     12  C   UNL     1     102.173  63.086 224.419  1.00  0.00     0.041 C 
ATOM     13  O   UNL     1     101.571  64.034 223.846  1.00  0.00    -0.550 OA
ATOM     14  O   UNL     1     103.560  63.110 224.516  1.00  0.00    -0.550 OA
ENDBRANCH  11  12
ENDBRANCH  10  11
ENDBRANCH   9  10
ENDBRANCH   8   9
ENDBRANCH   7   8
ENDBRANCH   6   7
ENDBRANCH   5   6
ENDBRANCH   4   5
ENDBRANCH   3   4
ENDBRANCH   2   3
ENDBRANCH   1   2
BRANCH   1  15
ATOM     15  C   UNL     1      96.978  64.030 224.285  1.00  0.00     0.000 C 
BRANCH  15  16
ATOM     16  C   UNL     1      95.780  64.973 224.090  1.00  0.00     0.000 C 
BRANCH  16  17
ATOM     17  C   UNL     1      94.955  65.154 225.376  1.00  0.00     0.000 C 
BRANCH  17  18
ATOM     18  C   UNL     1      95.184  66.521 226.047  1.00  0.00    -0.000 C 
BRANCH  18  19
ATOM     19  C   UNL     1      95.782  66.467 227.465  1.00  0.00    -0.000 C 
BRANCH  19  20
ATOM     20  C   UNL     1      95.837  65.040 228.037  1.00  0.00    -0.000 C 
BRANCH  20  21
ATOM     21  C   UNL     1      97.122  64.772 228.838  1.00  0.00    -0.000 C 
BRANCH  21  22
ATOM     22  C   UNL     1      97.832  63.480 228.394  1.00  0.00    -0.000 C 
BRANCH  22  23
ATOM     23  C   UNL     1      96.897  62.529 227.627  1.00  0.00    -0.000 C 
BRANCH  23  24
ATOM     24  C   UNL     1      96.865  61.116 228.237  1.00  0.00    -0.000 C 
BRANCH  24  25
ATOM     25  C   UNL     1      98.006  60.226 227.720  1.00  0.00    -0.003 C 
ATOM     26  C   UNL     1      97.530  59.188 226.704  1.00  0.00     0.004 C 
ENDBRANCH  24  25
ENDBRANCH  23  24
ENDBRANCH  22  23
ENDBRANCH  21  22
ENDBRANCH  20  21
ENDBRANCH  19  20
ENDBRANCH  18  19
ENDBRANCH  17  18
ENDBRANCH  16  17
ENDBRANCH  15  16
ENDBRANCH   1  15
TORSDOF 22
ENDMDL
MODEL 3
REMARK VINA RESULT:    -2.809     13.214     16.761
REMARK INTER + INTRA:         -10.274
REMARK INTER:                  -5.927
REMARK INTRA:                  -4.348
REMARK UNBOUND:                -3.853
REMARK SMILES CCCCCCCCCCCCCCCCCCCCCCCC(=O)[O-]
REMARK SMILES IDX 13 1 14 2 15 3 16 4 17 5 18 6 19 7 20 8 21 9 22 10 23 11
REMARK SMILES IDX 24 12 25 13 26 14 12 15 11 16 10 17 9 18 8 19 7 20 6 21 5 22
REMARK SMILES IDX 4 23 3 24 2 25 1 26
REMARK H PARENT
REMARK Flexibility Score: inf
ROOT
ATOM      1  C   UNL     1      95.687  65.947 227.196  1.00  0.00     0.000 C 
ENDROOT
BRANCH   1   2
ATOM      2  C   UNL     1      95.437  65.757 228.708  1.00  0.00     0.000 C 
BRANCH   2   3
ATOM      3  C   UNL     1      96.676  65.259 229.473  1.00  0.00     0.000 C 
BRANCH   3   4
ATOM      4  C   UNL     1      96.536  63.802 229.945  1.00  0.00     0.000 C 
BRANCH   4   5
ATOM      5  C   UNL     1      97.683  62.905 229.453  1.00  0.00     0.000 C 
BRANCH   5   6
ATOM      6  C   UNL     1      97.911  63.013 227.933  1.00  0.00     0.000 C 
BRANCH   6   7
ATOM      7  C   UNL     1      97.703  61.665 227.210  1.00  0.00     0.000 C 
BRANCH   7   8
ATOM      8  C   UNL     1      98.979  61.099 226.565  1.00  0.00     0.000 C 
BRANCH   8   9
ATOM      9  C   UNL     1     100.125  62.121 226.509  1.00  0.00     0.000 C 
BRANCH   9  10
ATOM     10  C   UNL     1     100.836  62.142 225.144  1.00  0.00     0.006 C 
BRANCH  10  11
ATOM     11  C   UNL     1     102.336  61.824 225.256  1.00  0.00     0.053 C 
BRANCH  11  12
ATOM     12  C   UNL     1     103.169  63.048 225.024  1.00  0.00     0.041 C 
ATOM     13  O   UNL     1     104.377  62.940 224.681  1.00  0.00    -0.550 OA
ATOM     14  O   UNL     1     102.622  64.311 225.230  1.00  0.00    -0.550 OA
ENDBRANCH  11  12
ENDBRANCH  10  11
ENDBRANCH   9  10
ENDBRANCH   8   9
ENDBRANCH   7   8
ENDBRANCH   6   7
ENDBRANCH   5   6
ENDBRANCH   4   5
ENDBRANCH   3   4
ENDBRANCH   2   3
ENDBRANCH   1   2
BRANCH   1  15
ATOM     15  C   UNL     1      95.224  64.729 226.375  1.00  0.00     0.000 C 
BRANCH  15  16
ATOM     16  C   UNL     1      94.682  65.113 224.989  1.00  0.00     0.000 C 
BRANCH  16  17
ATOM     17  C   UNL     1      95.715  64.902 223.870  1.00  0.00     0.000 C 
BRANCH  17  18
ATOM     18  C   UNL     1      96.886  63.997 224.298  1.00  0.00    -0.000 C 
BRANCH  18  19
ATOM     19  C   UNL     1      98.274  64.663 224.276  1.00  0.00    -0.000 C 
BRANCH  19  20
ATOM     20  C   UNL     1      98.204  66.198 224.349  1.00  0.00    -0.000 C 
BRANCH  20  21
ATOM     21  C   UNL     1      98.906  66.766 225.594  1.00  0.00    -0.000 C 
BRANCH  21  22
ATOM     22  C   UNL     1      99.489  65.662 226.494  1.00  0.00    -0.000 C 
BRANCH  22  23
ATOM     23  C   UNL     1     100.600  66.185 227.421  1.00  0.00    -0.000 C 
BRANCH  23  24
ATOM     24  C   UNL     1     100.068  66.597 228.805  1.00  0.00    -0.000 C 
BRANCH  24  25
ATOM     25  C   UNL     1     100.290  65.510 229.867  1.00  0.00    -0.003 C 
ATOM     26  C   UNL     1     101.256  64.420 229.403  1.00  0.00     0.004 C 
ENDBRANCH  24  25
ENDBRANCH  23  24
ENDBRANCH  22  23
ENDBRANCH  21  22
ENDBRANCH  20  21
ENDBRANCH  19  20
ENDBRANCH  18  19
ENDBRANCH  17  18
ENDBRANCH  16  17
ENDBRANCH  15  16
ENDBRANCH   1  15
TORSDOF 22
ENDMDL
MODEL 4
REMARK VINA RESULT:    -2.807     12.960     16.344
REMARK INTER + INTRA:         -10.270
REMARK INTER:                  -5.597
REMARK INTRA:                  -4.672
REMARK UNBOUND:                -3.853
REMARK SMILES CCCCCCCCCCCCCCCCCCCCCCCC(=O)[O-]
REMARK SMILES IDX 13 1 14 2 15 3 16 4 17 5 18 6 19 7 20 8 21 9 22 10 23 11
REMARK SMILES IDX 24 12 25 13 26 14 12 15 11 16 10 17 9 18 8 19 7 20 6 21 5 22
REMARK SMILES IDX 4 23 3 24 2 25 1 26
REMARK H PARENT
REMARK Flexibility Score: inf
ROOT
ATOM      1  C   UNL     1      98.959  63.749 229.713  1.00  0.00     0.000 C 
ENDROOT
BRANCH   1   2
ATOM      2  C   UNL     1      97.985  63.282 230.815  1.00  0.00     0.000 C 
BRANCH   2   3
ATOM      3  C   UNL     1      96.901  62.318 230.303  1.00  0.00     0.000 C 
BRANCH   3   4
ATOM      4  C   UNL     1      97.476  61.174 229.452  1.00  0.00     0.000 C 
BRANCH   4   5
ATOM      5  C   UNL     1      96.799  61.055 228.078  1.00  0.00     0.000 C 
BRANCH   5   6
ATOM      6  C   UNL     1      97.770  60.597 226.975  1.00  0.00     0.000 C 
BRANCH   6   7
ATOM      7  C   UNL     1      99.247  60.854 227.346  1.00  0.00     0.000 C 
BRANCH   7   8
ATOM      8  C   UNL     1     100.169  61.061 226.132  1.00  0.00     0.000 C 
BRANCH   8   9
ATOM      9  C   UNL     1     100.295  62.537 225.722  1.00  0.00     0.000 C 
BRANCH   9  10
ATOM     10  C   UNL     1     101.219  63.336 226.656  1.00  0.00     0.006 C 
BRANCH  10  11
ATOM     11  C   UNL     1     102.651  62.780 226.686  1.00  0.00     0.053 C 
BRANCH  11  12
ATOM     12  C   UNL     1     103.519  63.460 225.671  1.00  0.00     0.041 C 
ATOM     13  O   UNL     1     103.465  64.711 225.522  1.00  0.00    -0.550 OA
ATOM     14  O   UNL     1     104.359  62.706 224.857  1.00  0.00    -0.550 OA
ENDBRANCH  11  12
ENDBRANCH  10  11
ENDBRANCH   9  10
ENDBRANCH   8   9
ENDBRANCH   7   8
ENDBRANCH   6   7
ENDBRANCH   5   6
ENDBRANCH   4   5
ENDBRANCH   3   4
ENDBRANCH   2   3
ENDBRANCH   1   2
BRANCH   1  15
ATOM     15  C   UNL     1      98.401  64.940 228.913  1.00  0.00     0.000 C 
BRANCH  15  16
ATOM     16  C   UNL     1      97.840  64.531 227.542  1.00  0.00     0.000 C 
BRANCH  16  17
ATOM     17  C   UNL     1      96.308  64.649 227.469  1.00  0.00     0.000 C 
BRANCH  17  18
ATOM     18  C   UNL     1      95.736  64.198 226.112  1.00  0.00    -0.000 C 
BRANCH  18  19
ATOM     19  C   UNL     1      96.781  63.929 225.014  1.00  0.00    -0.000 C 
BRANCH  19  20
ATOM     20  C   UNL     1      96.545  64.768 223.745  1.00  0.00    -0.000 C 
BRANCH  20  21
ATOM     21  C   UNL     1      95.599  65.955 223.986  1.00  0.00    -0.000 C 
BRANCH  21  22
ATOM     22  C   UNL     1      96.329  67.181 224.563  1.00  0.00    -0.000 C 
BRANCH  22  23
ATOM     23  C   UNL     1      97.815  67.221 224.168  1.00  0.00    -0.000 C 
BRANCH  23  24
ATOM     24  C   UNL     1      98.739  67.475 225.374  1.00  0.00    -0.000 C 
BRANCH  24  25
ATOM     25  C   UNL     1      99.986  66.579 225.358  1.00  0.00    -0.003 C 
ATOM     26  C   UNL     1     100.137  65.802 224.050  1.00  0.00     0.004 C 
ENDBRANCH  24  25
ENDBRANCH  23  24
ENDBRANCH  22  23
ENDBRANCH  21  22
ENDBRANCH  20  21
ENDBRANCH  19  20
ENDBRANCH  18  19
ENDBRANCH  17  18
ENDBRANCH  16  17
ENDBRANCH  15  16
ENDBRANCH   1  15
TORSDOF 22
ENDMDL
MODEL 5
REMARK VINA RESULT:    -2.800     14.521     17.780
REMARK INTER + INTRA:         -10.253
REMARK INTER:                  -5.983
REMARK INTRA:                  -4.270
REMARK UNBOUND:                -3.853
REMARK SMILES CCCCCCCCCCCCCCCCCCCCCCCC(=O)[O-]
REMARK SMILES IDX 13 1 14 2 15 3 16 4 17 5 18 6 19 7 20 8 21 9 22 10 23 11
REMARK SMILES IDX 24 12 25 13 26 14 12 15 11 16 10 17 9 18 8 19 7 20 6 21 5 22
REMARK SMILES IDX 4 23 3 24 2 25 1 26
REMARK H PARENT
REMARK Flexibility Score: inf
ROOT
ATOM      1  C   UNL     1      98.486  64.186 228.417  1.00  0.00     0.000 C 
ENDROOT
BRANCH   1   2
ATOM      2  C   UNL     1      96.952  64.329 228.324  1.00  0.00     0.000 C 
BRANCH   2   3
ATOM      3  C   UNL     1      96.480  65.792 228.248  1.00  0.00     0.000 C 
BRANCH   3   4
ATOM      4  C   UNL     1      95.395  66.012 227.181  1.00  0.00     0.000 C 
BRANCH   4   5
ATOM      5  C   UNL     1      95.165  64.772 226.302  1.00  0.00     0.000 C 
BRANCH   5   6
ATOM      6  C   UNL     1      94.535  65.117 224.940  1.00  0.00     0.000 C 
BRANCH   6   7
ATOM      7  C   UNL     1      95.512  64.893 223.765  1.00  0.00     0.000 C 
BRANCH   7   8
ATOM      8  C   UNL     1      96.991  64.842 224.184  1.00  0.00     0.000 C 
BRANCH   8   9
ATOM      9  C   UNL     1      97.652  66.229 224.219  1.00  0.00     0.000 C 
BRANCH   9  10
ATOM     10  C   UNL     1      98.709  66.355 225.329  1.00  0.00     0.006 C 
BRANCH  10  11
ATOM     11  C   UNL     1      99.835  65.318 225.191  1.00  0.00     0.053 C 
BRANCH  11  12
ATOM     12  C   UNL     1     100.526  65.439 223.866  1.00  0.00     0.041 C 
ATOM     13  O   UNL     1     100.659  64.429 223.124  1.00  0.00    -0.550 OA
ATOM     14  O   UNL     1     101.062  66.660 223.470  1.00  0.00    -0.550 OA
ENDBRANCH  11  12
ENDBRANCH  10  11
ENDBRANCH   9  10
ENDBRANCH   8   9
ENDBRANCH   7   8
ENDBRANCH   6   7
ENDBRANCH   5   6
ENDBRANCH   4   5
ENDBRANCH   3   4
ENDBRANCH   2   3
ENDBRANCH   1   2
BRANCH   1  15
ATOM     15  C   UNL     1      98.978  62.841 227.849  1.00  0.00     0.000 C 
BRANCH  15  16
ATOM     16  C   UNL     1      98.110  62.329 226.688  1.00  0.00     0.000 C 
BRANCH  16  17
ATOM     17  C   UNL     1      97.569  60.910 226.935  1.00  0.00     0.000 C 
BRANCH  17  18
ATOM     18  C   UNL     1      98.636  59.952 227.498  1.00  0.00    -0.000 C 
BRANCH  18  19
ATOM     19  C   UNL     1      98.194  59.114 228.711  1.00  0.00    -0.000 C 
BRANCH  19  20
ATOM     20  C   UNL     1      96.744  59.399 229.141  1.00  0.00    -0.000 C 
BRANCH  20  21
ATOM     21  C   UNL     1      96.644  59.925 230.582  1.00  0.00    -0.000 C 
BRANCH  21  22
ATOM     22  C   UNL     1      96.657  61.463 230.649  1.00  0.00    -0.000 C 
BRANCH  22  23
ATOM     23  C   UNL     1      97.921  62.011 231.332  1.00  0.00    -0.000 C 
BRANCH  23  24
ATOM     24  C   UNL     1      97.600  63.066 232.406  1.00  0.00    -0.000 C 
BRANCH  24  25
ATOM     25  C   UNL     1      96.506  64.046 231.959  1.00  0.00    -0.003 C 
ATOM     26  C   UNL     1      96.981  65.499 231.957  1.00  0.00     0.004 C 
ENDBRANCH  24  25
ENDBRANCH  23  24
ENDBRANCH  22  23
ENDBRANCH  21  22
ENDBRANCH  20  21
ENDBRANCH  19  20
ENDBRANCH  18  19
ENDBRANCH  17  18
ENDBRANCH  16  17
ENDBRANCH  15  16
ENDBRANCH   1  15
TORSDOF 22
ENDMDL
MODEL 6
REMARK VINA RESULT:    -2.796     13.020     16.675
REMARK INTER + INTRA:         -10.245
REMARK INTER:                  -6.003
REMARK INTRA:                  -4.242
REMARK UNBOUND:                -3.853
REMARK SMILES CCCCCCCCCCCCCCCCCCCCCCCC(=O)[O-]
REMARK SMILES IDX 13 1 14 2 15 3 16 4 17 5 18 6 19 7 20 8 21 9 22 10 23 11
REMARK SMILES IDX 24 12 25 13 26 14 12 15 11 16 10 17 9 18 8 19 7 20 6 21 5 22
REMARK SMILES IDX 4 23 3 24 2 25 1 26
REMARK H PARENT
REMARK Flexibility Score: inf
ROOT
ATOM      1  C   UNL     1     100.209  64.736 228.000  1.00  0.00     0.000 C 
ENDROOT
BRANCH   1   2
ATOM      2  C   UNL     1      99.108  64.896 226.929  1.00  0.00     0.000 C 
BRANCH   2   3
ATOM      3  C   UNL     1      99.565  65.703 225.701  1.00  0.00     0.000 C 
BRANCH   3   4
ATOM      4  C   UNL     1      98.872  65.254 224.404  1.00  0.00     0.000 C 
BRANCH   4   5
ATOM      5  C   UNL     1      97.944  64.047 224.613  1.00  0.00     0.000 C 
BRANCH   5   6
ATOM      6  C   UNL     1      96.486  64.343 224.214  1.00  0.00     0.000 C 
BRANCH   6   7
ATOM      7  C   UNL     1      95.577  64.580 225.440  1.00  0.00     0.000 C 
BRANCH   7   8
ATOM      8  C   UNL     1      94.874  65.948 225.440  1.00  0.00     0.000 C 
BRANCH   8   9
ATOM      9  C   UNL     1      95.858  67.127 225.486  1.00  0.00     0.000 C 
BRANCH   9  10
ATOM     10  C   UNL     1      96.444  67.357 226.891  1.00  0.00     0.006 C 
BRANCH  10  11
ATOM     11  C   UNL     1      95.366  67.362 227.986  1.00  0.00     0.053 C 
BRANCH  11  12
ATOM     12  C   UNL     1      95.614  66.285 228.997  1.00  0.00     0.041 C 
ATOM     13  O   UNL     1      96.684  66.272 229.665  1.00  0.00    -0.550 OA
ATOM     14  O   UNL     1      94.682  65.267 229.172  1.00  0.00    -0.550 OA
ENDBRANCH  11  12
ENDBRANCH  10  11
ENDBRANCH   9  10
ENDBRANCH   8   9
ENDBRANCH   7   8
ENDBRANCH   6   7
ENDBRANCH   5   6
ENDBRANCH   4   5
ENDBRANCH   3   4
ENDBRANCH   2   3
ENDBRANCH   1   2
BRANCH   1  15
ATOM     15  C   UNL     1     101.304  65.811 227.869  1.00  0.00     0.000 C 
BRANCH  15  16
ATOM     16  C   UNL     1     102.716  65.216 227.745  1.00  0.00     0.000 C 
BRANCH  16  17
ATOM     17  C   UNL     1     103.121  64.952 226.285  1.00  0.00     0.000 C 
BRANCH  17  18
ATOM     18  C   UNL     1     104.192  63.853 226.150  1.00  0.00    -0.000 C 
BRANCH  18  19
ATOM     19  C   UNL     1     103.756  62.603 225.364  1.00  0.00    -0.000 C 
BRANCH  19  20
ATOM     20  C   UNL     1     102.454  62.816 224.572  1.00  0.00    -0.000 C 
BRANCH  20  21
ATOM     21  C   UNL     1     101.526  61.592 224.615  1.00  0.00    -0.000 C 
BRANCH  21  22
ATOM     22  C   UNL     1     100.339  61.787 225.577  1.00  0.00    -0.000 C 
BRANCH  22  23
ATOM     23  C   UNL     1     100.607  61.190 226.969  1.00  0.00    -0.000 C 
BRANCH  23  24
ATOM     24  C   UNL     1      99.310  60.795 227.700  1.00  0.00    -0.000 C 
BRANCH  24  25
ATOM     25  C   UNL     1      98.050  61.171 226.906  1.00  0.00    -0.003 C 
ATOM     26  C   UNL     1      97.014  61.904 227.758  1.00  0.00     0.004 C 
ENDBRANCH  24  25
ENDBRANCH  23  24
ENDBRANCH  22  23
ENDBRANCH  21  22
ENDBRANCH  20  21
ENDBRANCH  19  20
ENDBRANCH  18  19
ENDBRANCH  17  18
ENDBRANCH  16  17
ENDBRANCH  15  16
ENDBRANCH   1  15
TORSDOF 22
ENDMDL
MODEL 7
REMARK VINA RESULT:    -2.767     13.139     17.007
REMARK INTER + INTRA:         -10.179
REMARK INTER:                  -6.086
REMARK INTRA:                  -4.093
REMARK UNBOUND:                -3.853
REMARK SMILES CCCCCCCCCCCCCCCCCCCCCCCC(=O)[O-]
REMARK SMILES IDX 13 1 14 2 15 3 16 4 17 5 18 6 19 7 20 8 21 9 22 10 23 11
REMARK SMILES IDX 24 12 25 13 26 14 12 15 11 16 10 17 9 18 8 19 7 20 6 21 5 22
REMARK SMILES IDX 4 23 3 24 2 25 1 26
REMARK H PARENT
REMARK Flexibility Score: inf
ROOT
ATOM      1  C   UNL     1      99.318  54.790 219.531  1.00  0.00     0.000 C 
ENDROOT
BRANCH   1   2
ATOM      2  C   UNL     1      99.032  55.669 220.767  1.00  0.00     0.000 C 
BRANCH   2   3
ATOM      3  C   UNL     1      99.224  57.173 220.502  1.00  0.00     0.000 C 
BRANCH   3   4
ATOM      4  C   UNL     1      98.187  57.740 219.518  1.00  0.00     0.000 C 
BRANCH   4   5
ATOM      5  C   UNL     1      98.833  58.419 218.300  1.00  0.00     0.000 C 
BRANCH   5   6
ATOM      6  C   UNL     1      98.584  57.649 216.990  1.00  0.00     0.000 C 
BRANCH   6   7
ATOM      7  C   UNL     1      99.844  56.909 216.492  1.00  0.00     0.000 C 
BRANCH   7   8
ATOM      8  C   UNL     1     101.084  57.808 216.358  1.00  0.00     0.000 C 
BRANCH   8   9
ATOM      9  C   UNL     1     102.366  57.143 216.884  1.00  0.00     0.000 C 
BRANCH   9  10
ATOM     10  C   UNL     1     102.272  56.768 218.373  1.00  0.00     0.006 C 
BRANCH  10  11
ATOM     11  C   UNL     1     102.556  57.959 219.301  1.00  0.00     0.053 C 
BRANCH  11  12
ATOM     12  C   UNL     1     103.907  58.549 219.030  1.00  0.00     0.041 C 
ATOM     13  O   UNL     1     104.949  57.862 219.209  1.00  0.00    -0.550 OA
ATOM     14  O   UNL     1     104.018  59.874 218.622  1.00  0.00    -0.550 OA
ENDBRANCH  11  12
ENDBRANCH  10  11
ENDBRANCH   9  10
ENDBRANCH   8   9
ENDBRANCH   7   8
ENDBRANCH   6   7
ENDBRANCH   5   6
ENDBRANCH   4   5
ENDBRANCH   3   4
ENDBRANCH   2   3
ENDBRANCH   1   2
BRANCH   1  15
ATOM     15  C   UNL     1      98.124  53.883 219.177  1.00  0.00     0.000 C 
BRANCH  15  16
ATOM     16  C   UNL     1      97.181  54.513 218.139  1.00  0.00     0.000 C 
BRANCH  16  17
ATOM     17  C   UNL     1      95.706  54.460 218.571  1.00  0.00     0.000 C 
BRANCH  17  18
ATOM     18  C   UNL     1      95.374  55.461 219.693  1.00  0.00    -0.000 C 
BRANCH  18  19
ATOM     19  C   UNL     1      94.861  54.835 221.003  1.00  0.00    -0.000 C 
BRANCH  19  20
ATOM     20  C   UNL     1      95.540  55.423 222.253  1.00  0.00    -0.000 C 
BRANCH  20  21
ATOM     21  C   UNL     1      95.839  56.925 222.115  1.00  0.00    -0.000 C 
BRANCH  21  22
ATOM     22  C   UNL     1      95.240  57.752 223.267  1.00  0.00    -0.000 C 
BRANCH  22  23
ATOM     23  C   UNL     1      95.379  57.050 224.629  1.00  0.00    -0.000 C 
BRANCH  23  24
ATOM     24  C   UNL     1      96.687  57.419 225.352  1.00  0.00    -0.000 C 
BRANCH  24  25
ATOM     25  C   UNL     1      97.849  56.487 224.976  1.00  0.00    -0.003 C 
ATOM     26  C   UNL     1      99.089  57.248 224.510  1.00  0.00     0.004 C 
ENDBRANCH  24  25
ENDBRANCH  23  24
ENDBRANCH  22  23
ENDBRANCH  21  22
ENDBRANCH  20  21
ENDBRANCH  19  20
ENDBRANCH  18  19
ENDBRANCH  17  18
ENDBRANCH  16  17
ENDBRANCH  15  16
ENDBRANCH   1  15
TORSDOF 22
ENDMDL
MODEL 8
REMARK VINA RESULT:    -2.764     13.067     17.167
REMARK INTER + INTRA:         -10.171
REMARK INTER:                  -5.903
REMARK INTRA:                  -4.268
REMARK UNBOUND:                -3.853
REMARK SMILES CCCCCCCCCCCCCCCCCCCCCCCC(=O)[O-]
REMARK SMILES IDX 13 1 14 2 15 3 16 4 17 5 18 6 19 7 20 8 21 9 22 10 23 11
REMARK SMILES IDX 24 12 25 13 26 14 12 15 11 16 10 17 9 18 8 19 7 20 6 21 5 22
REMARK SMILES IDX 4 23 3 24 2 25 1 26
REMARK H PARENT
REMARK Flexibility Score: inf
ROOT
ATOM      1  C   UNL     1      96.103  53.630 220.206  1.00  0.00     0.000 C 
ENDROOT
BRANCH   1   2
ATOM      2  C   UNL     1      95.406  54.354 219.035  1.00  0.00     0.000 C 
BRANCH   2   3
ATOM      3  C   UNL     1      96.387  54.881 217.973  1.00  0.00     0.000 C 
BRANCH   3   4
ATOM      4  C   UNL     1      97.858  54.649 218.355  1.00  0.00     0.000 C 
BRANCH   4   5
ATOM      5  C   UNL     1      98.787  55.760 217.843  1.00  0.00     0.000 C 
BRANCH   5   6
ATOM      6  C   UNL     1      98.074  56.742 216.895  1.00  0.00     0.000 C 
BRANCH   6   7
ATOM      7  C   UNL     1      98.773  58.117 216.835  1.00  0.00     0.000 C 
BRANCH   7   8
ATOM      8  C   UNL     1      99.036  58.744 218.214  1.00  0.00     0.000 C 
BRANCH   8   9
ATOM      9  C   UNL     1     100.482  59.239 218.381  1.00  0.00     0.000 C 
BRANCH   9  10
ATOM     10  C   UNL     1     101.289  58.388 219.376  1.00  0.00     0.006 C 
BRANCH  10  11
ATOM     11  C   UNL     1     102.494  57.697 218.719  1.00  0.00     0.053 C 
BRANCH  11  12
ATOM     12  C   UNL     1     103.772  58.413 219.039  1.00  0.00     0.041 C 
ATOM     13  O   UNL     1     104.669  57.843 219.715  1.00  0.00    -0.550 OA
ATOM     14  O   UNL     1     103.953  59.729 218.626  1.00  0.00    -0.550 OA
ENDBRANCH  11  12
ENDBRANCH  10  11
ENDBRANCH   9  10
ENDBRANCH   8   9
ENDBRANCH   7   8
ENDBRANCH   6   7
ENDBRANCH   5   6
ENDBRANCH   4   5
ENDBRANCH   3   4
ENDBRANCH   2   3
ENDBRANCH   1   2
BRANCH   1  15
ATOM     15  C   UNL     1      95.115  53.251 221.324  1.00  0.00     0.000 C 
BRANCH  15  16
ATOM     16  C   UNL     1      95.344  54.046 222.620  1.00  0.00     0.000 C 
BRANCH  16  17
ATOM     17  C   UNL     1      94.623  55.404 222.616  1.00  0.00     0.000 C 
BRANCH  17  18
ATOM     18  C   UNL     1      95.475  56.537 223.217  1.00  0.00    -0.000 C 
BRANCH  18  19
ATOM     19  C   UNL     1      95.841  57.673 222.244  1.00  0.00    -0.000 C 
BRANCH  19  20
ATOM     20  C   UNL     1      96.717  57.199 221.071  1.00  0.00    -0.000 C 
BRANCH  20  21
ATOM     21  C   UNL     1      98.217  57.215 221.406  1.00  0.00    -0.000 C 
BRANCH  21  22
ATOM     22  C   UNL     1      98.796  55.798 221.578  1.00  0.00    -0.000 C 
BRANCH  22  23
ATOM     23  C   UNL     1      99.524  55.620 222.922  1.00  0.00    -0.000 C 
BRANCH  23  24
ATOM     24  C   UNL     1      98.638  54.950 223.988  1.00  0.00    -0.000 C 
BRANCH  24  25
ATOM     25  C   UNL     1      98.588  55.750 225.298  1.00  0.00    -0.003 C 
ATOM     26  C   UNL     1      98.673  57.260 225.070  1.00  0.00     0.004 C 
ENDBRANCH  24  25
ENDBRANCH  23  24
ENDBRANCH  22  23
ENDBRANCH  21  22
ENDBRANCH  20  21
ENDBRANCH  19  20
ENDBRANCH  18  19
ENDBRANCH  17  18
ENDBRANCH  16  17
ENDBRANCH  15  16
ENDBRANCH   1  15
TORSDOF 22
ENDMDL
MODEL 9
REMARK VINA RESULT:    -2.751     12.786     16.210
REMARK INTER + INTRA:         -10.141
REMARK INTER:                  -5.544
REMARK INTRA:                  -4.596
REMARK UNBOUND:                -3.853
REMARK SMILES CCCCCCCCCCCCCCCCCCCCCCCC(=O)[O-]
REMARK SMILES IDX 13 1 14 2 15 3 16 4 17 5 18 6 19 7 20 8 21 9 22 10 23 11
REMARK SMILES IDX 24 12 25 13 26 14 12 15 11 16 10 17 9 18 8 19 7 20 6 21 5 22
REMARK SMILES IDX 4 23 3 24 2 25 1 26
REMARK H PARENT
REMARK Flexibility Score: inf
ROOT
ATOM      1  C   UNL     1     101.713  65.674 225.939  1.00  0.00     0.000 C 
ENDROOT
BRANCH   1   2
ATOM      2  C   UNL     1     101.764  64.328 226.693  1.00  0.00     0.000 C 
BRANCH   2   3
ATOM      3  C   UNL     1     102.696  63.296 226.034  1.00  0.00     0.000 C 
BRANCH   3   4
ATOM      4  C   UNL     1     102.257  62.923 224.609  1.00  0.00     0.000 C 
BRANCH   4   5
ATOM      5  C   UNL     1     101.141  61.866 224.588  1.00  0.00     0.000 C 
BRANCH   5   6
ATOM      6  C   UNL     1     101.434  60.675 225.519  1.00  0.00     0.000 C 
BRANCH   6   7
ATOM      7  C   UNL     1     100.295  60.424 226.531  1.00  0.00     0.000 C 
BRANCH   7   8
ATOM      8  C   UNL     1      99.195  61.498 226.512  1.00  0.00     0.000 C 
BRANCH   8   9
ATOM      9  C   UNL     1      98.974  62.155 227.884  1.00  0.00     0.000 C 
BRANCH   9  10
ATOM     10  C   UNL     1      98.712  61.127 228.998  1.00  0.00     0.006 C 
BRANCH  10  11
ATOM     11  C   UNL     1      97.219  60.992 229.335  1.00  0.00     0.053 C 
BRANCH  11  12
ATOM     12  C   UNL     1      96.711  59.619 229.013  1.00  0.00     0.041 C 
ATOM     13  O   UNL     1      95.968  59.008 229.827  1.00  0.00    -0.550 OA
ATOM     14  O   UNL     1      97.094  58.996 227.830  1.00  0.00    -0.550 OA
ENDBRANCH  11  12
ENDBRANCH  10  11
ENDBRANCH   9  10
ENDBRANCH   8   9
ENDBRANCH   7   8
ENDBRANCH   6   7
ENDBRANCH   5   6
ENDBRANCH   4   5
ENDBRANCH   3   4
ENDBRANCH   2   3
ENDBRANCH   1   2
BRANCH   1  15
ATOM     15  C   UNL     1     100.273  66.200 225.792  1.00  0.00     0.000 C 
BRANCH  15  16
ATOM     16  C   UNL     1      99.226  65.076 225.748  1.00  0.00     0.000 C 
BRANCH  16  17
ATOM     17  C   UNL     1      98.769  64.748 224.317  1.00  0.00     0.000 C 
BRANCH  17  18
ATOM     18  C   UNL     1      97.295  64.307 224.245  1.00  0.00    -0.000 C 
BRANCH  18  19
ATOM     19  C   UNL     1      96.653  63.931 225.594  1.00  0.00    -0.000 C 
BRANCH  19  20
ATOM     20  C   UNL     1      95.308  64.638 225.835  1.00  0.00    -0.000 C 
BRANCH  20  21
ATOM     21  C   UNL     1      95.316  66.104 225.371  1.00  0.00    -0.000 C 
BRANCH  21  22
ATOM     22  C   UNL     1      95.308  67.093 226.551  1.00  0.00    -0.000 C 
BRANCH  22  23
ATOM     23  C   UNL     1      96.715  67.344 227.118  1.00  0.00    -0.000 C 
BRANCH  23  24
ATOM     24  C   UNL     1      96.814  67.014 228.619  1.00  0.00    -0.000 C 
BRANCH  24  25
ATOM     25  C   UNL     1      97.407  65.620 228.875  1.00  0.00    -0.003 C 
ATOM     26  C   UNL     1      96.366  64.621 229.380  1.00  0.00     0.004 C 
ENDBRANCH  24  25
ENDBRANCH  23  24
ENDBRANCH  22  23
ENDBRANCH  21  22
ENDBRANCH  20  21
ENDBRANCH  19  20
ENDBRANCH  18  19
ENDBRANCH  17  18
ENDBRANCH  16  17
ENDBRANCH  15  16
ENDBRANCH   1  15
TORSDOF 22
ENDMDL
