MODEL 1
REMARK VINA RESULT:    -3.366      0.000      0.000
REMARK INTER + INTRA:          -6.780
REMARK INTER:                  -5.334
REMARK INTRA:                  -1.446
REMARK UNBOUND:                -1.446
REMARK SMILES CCCCCCCCCCCC(=O)[O-]
REMARK SMILES IDX 7 1 8 2 9 3 10 4 11 5 12 6 13 7 14 8 6 9 5 10 4 11 3 12 2 13
REMARK SMILES IDX 1 14
REMARK H PARENT
REMARK Flexibility Score: inf
ROOT
ATOM      1  C   UNL     1     153.242 151.072 158.351  1.00  0.00     0.000 C 
ENDROOT
BRANCH   1   2
ATOM      2  C   UNL     1     153.017 151.715 159.730  1.00  0.00     0.000 C 
BRANCH   2   3
ATOM      3  C   UNL     1     151.986 152.856 159.700  1.00  0.00     0.000 C 
BRANCH   3   4
ATOM      4  C   UNL     1     151.102 152.915 158.437  1.00  0.00     0.006 C 
BRANCH   4   5
ATOM      5  C   UNL     1     151.140 154.271 157.707  1.00  0.00     0.053 C 
BRANCH   5   6
ATOM      6  C   UNL     1     150.015 155.176 158.111  1.00  0.00     0.041 C 
ATOM      7  O   UNL     1     148.946 155.200 157.445  1.00  0.00    -0.550 OA
ATOM      8  O   UNL     1     150.163 156.027 159.200  1.00  0.00    -0.550 OA
ENDBRANCH   5   6
ENDBRANCH   4   5
ENDBRANCH   3   4
ENDBRANCH   2   3
ENDBRANCH   1   2
BRANCH   1   9
ATOM      9  C   UNL     1     154.704 151.169 157.886  1.00  0.00     0.000 C 
BRANCH   9  10
ATOM     10  C   UNL     1     155.252 152.603 157.947  1.00  0.00    -0.000 C 
BRANCH  10  11
ATOM     11  C   UNL     1     154.660 153.465 156.825  1.00  0.00    -0.000 C 
BRANCH  11  12
ATOM     12  C   UNL     1     154.754 154.959 157.170  1.00  0.00    -0.000 C 
BRANCH  12  13
ATOM     13  C   UNL     1     154.598 155.229 158.674  1.00  0.00    -0.003 C 
ATOM     14  C   UNL     1     154.455 156.716 158.997  1.00  0.00     0.004 C 
ENDBRANCH  12  13
ENDBRANCH  11  12
ENDBRANCH  10  11
ENDBRANCH   9  10
ENDBRANCH   1   9
TORSDOF 10
ENDMDL
MODEL 2
REMARK VINA RESULT:    -3.224      1.121      3.145
REMARK INTER + INTRA:          -6.556
REMARK INTER:                  -5.144
REMARK INTRA:                  -1.411
REMARK UNBOUND:                -1.446
REMARK SMILES CCCCCCCCCCCC(=O)[O-]
REMARK SMILES IDX 7 1 8 2 9 3 10 4 11 5 12 6 13 7 14 8 6 9 5 10 4 11 3 12 2 13
REMARK SMILES IDX 1 14
REMARK H PARENT
REMARK Flexibility Score: inf
ROOT
ATOM      1  C   UNL     1     155.377 153.819 158.242  1.00  0.00     0.000 C 
ENDROOT
BRANCH   1   2
ATOM      2  C   UNL     1     155.074 155.328 158.276  1.00  0.00     0.000 C 
BRANCH   2   3
ATOM      3  C   UNL     1     153.597 155.637 158.576  1.00  0.00     0.000 C 
BRANCH   3   4
ATOM      4  C   UNL     1     152.841 156.393 157.465  1.00  0.00     0.006 C 
BRANCH   4   5
ATOM      5  C   UNL     1     151.680 155.596 156.840  1.00  0.00     0.053 C 
BRANCH   5   6
ATOM      6  C   UNL     1     150.425 155.666 157.658  1.00  0.00     0.041 C 
ATOM      7  O   UNL     1     149.641 154.682 157.705  1.00  0.00    -0.550 OA
ATOM      8  O   UNL     1     150.099 156.835 158.334  1.00  0.00    -0.550 OA
ENDBRANCH   5   6
ENDBRANCH   4   5
ENDBRANCH   3   4
ENDBRANCH   2   3
ENDBRANCH   1   2
BRANCH   1   9
ATOM      9  C   UNL     1     154.468 153.058 157.264  1.00  0.00     0.000 C 
BRANCH   9  10
ATOM     10  C   UNL     1     154.481 151.540 157.500  1.00  0.00    -0.000 C 
BRANCH  10  11
ATOM     11  C   UNL     1     153.231 151.094 158.269  1.00  0.00    -0.000 C 
BRANCH  11  12
ATOM     12  C   UNL     1     152.166 152.201 158.279  1.00  0.00    -0.000 C 
BRANCH  12  13
ATOM     13  C   UNL     1     151.824 152.679 159.698  1.00  0.00    -0.003 C 
ATOM     14  C   UNL     1     152.766 152.108 160.757  1.00  0.00     0.004 C 
ENDBRANCH  12  13
ENDBRANCH  11  12
ENDBRANCH  10  11
ENDBRANCH   9  10
ENDBRANCH   1   9
TORSDOF 10
ENDMDL
MODEL 3
REMARK VINA RESULT:    -3.168      9.909     11.343
REMARK INTER + INTRA:          -6.465
REMARK INTER:                  -5.046
REMARK INTRA:                  -1.420
REMARK UNBOUND:                -1.446
REMARK SMILES CCCCCCCCCCCC(=O)[O-]
REMARK SMILES IDX 7 1 8 2 9 3 10 4 11 5 12 6 13 7 14 8 6 9 5 10 4 11 3 12 2 13
REMARK SMILES IDX 1 14
REMARK H PARENT
REMARK Flexibility Score: inf
ROOT
ATOM      1  C   UNL     1     163.852 150.911 155.488  1.00  0.00     0.000 C 
ENDROOT
BRANCH   1   2
ATOM      2  C   UNL     1     162.373 151.329 155.573  1.00  0.00     0.000 C 
BRANCH   2   3
ATOM      3  C   UNL     1     161.970 151.828 156.971  1.00  0.00     0.000 C 
BRANCH   3   4
ATOM      4  C   UNL     1     162.913 152.874 157.598  1.00  0.00     0.006 C 
BRANCH   4   5
ATOM      5  C   UNL     1     162.202 154.153 158.080  1.00  0.00     0.053 C 
BRANCH   5   6
ATOM      6  C   UNL     1     163.161 155.201 158.560  1.00  0.00     0.041 C 
ATOM      7  O   UNL     1     162.964 155.790 159.656  1.00  0.00    -0.550 OA
ATOM      8  O   UNL     1     164.251 155.560 157.776  1.00  0.00    -0.550 OA
ENDBRANCH   5   6
ENDBRANCH   4   5
ENDBRANCH   3   4
ENDBRANCH   2   3
ENDBRANCH   1   2
BRANCH   1   9
ATOM      9  C   UNL     1     164.391 150.941 154.048  1.00  0.00     0.000 C 
BRANCH   9  10
ATOM     10  C   UNL     1     165.355 152.111 153.799  1.00  0.00    -0.000 C 
BRANCH  10  11
ATOM     11  C   UNL     1     164.616 153.314 153.202  1.00  0.00    -0.000 C 
BRANCH  11  12
ATOM     12  C   UNL     1     164.518 154.462 154.219  1.00  0.00    -0.000 C 
BRANCH  12  13
ATOM     13  C   UNL     1     163.069 154.902 154.475  1.00  0.00    -0.003 C 
ATOM     14  C   UNL     1     162.099 154.393 153.410  1.00  0.00     0.004 C 
ENDBRANCH  12  13
ENDBRANCH  11  12
ENDBRANCH  10  11
ENDBRANCH   9  10
ENDBRANCH   1   9
TORSDOF 10
ENDMDL
MODEL 4
REMARK VINA RESULT:    -3.160      3.622      5.530
REMARK INTER + INTRA:          -6.454
REMARK INTER:                  -5.368
REMARK INTRA:                  -1.086
REMARK UNBOUND:                -1.446
REMARK SMILES CCCCCCCCCCCC(=O)[O-]
REMARK SMILES IDX 7 1 8 2 9 3 10 4 11 5 12 6 13 7 14 8 6 9 5 10 4 11 3 12 2 13
REMARK SMILES IDX 1 14
REMARK H PARENT
REMARK Flexibility Score: inf
ROOT
ATOM      1  C   UNL     1     154.668 153.275 157.187  1.00  0.00     0.000 C 
ENDROOT
BRANCH   1   2
ATOM      2  C   UNL     1     155.363 154.068 158.308  1.00  0.00     0.000 C 
BRANCH   2   3
ATOM      3  C   UNL     1     154.804 155.491 158.471  1.00  0.00     0.000 C 
BRANCH   3   4
ATOM      4  C   UNL     1     155.821 156.553 158.937  1.00  0.00     0.006 C 
BRANCH   4   5
ATOM      5  C   UNL     1     157.269 156.037 159.031  1.00  0.00     0.053 C 
BRANCH   5   6
ATOM      6  C   UNL     1     158.212 156.798 158.147  1.00  0.00     0.041 C 
ATOM      7  O   UNL     1     157.832 157.215 157.022  1.00  0.00    -0.550 OA
ATOM      8  O   UNL     1     159.526 157.009 158.549  1.00  0.00    -0.550 OA
ENDBRANCH   5   6
ENDBRANCH   4   5
ENDBRANCH   3   4
ENDBRANCH   2   3
ENDBRANCH   1   2
BRANCH   1   9
ATOM      9  C   UNL     1     154.573 151.773 157.500  1.00  0.00     0.000 C 
BRANCH   9  10
ATOM     10  C   UNL     1     153.183 151.357 158.004  1.00  0.00    -0.000 C 
BRANCH  10  11
ATOM     11  C   UNL     1     153.107 151.436 159.533  1.00  0.00    -0.000 C 
BRANCH  11  12
ATOM     12  C   UNL     1     152.125 152.530 159.981  1.00  0.00    -0.000 C 
BRANCH  12  13
ATOM     13  C   UNL     1     151.321 153.117 158.811  1.00  0.00    -0.003 C 
ATOM     14  C   UNL     1     151.340 154.644 158.787  1.00  0.00     0.004 C 
ENDBRANCH  12  13
ENDBRANCH  11  12
ENDBRANCH  10  11
ENDBRANCH   9  10
ENDBRANCH   1   9
TORSDOF 10
ENDMDL
MODEL 5
REMARK VINA RESULT:    -3.160      2.608      4.290
REMARK INTER + INTRA:          -6.454
REMARK INTER:                  -5.089
REMARK INTRA:                  -1.365
REMARK UNBOUND:                -1.446
REMARK SMILES CCCCCCCCCCCC(=O)[O-]
REMARK SMILES IDX 7 1 8 2 9 3 10 4 11 5 12 6 13 7 14 8 6 9 5 10 4 11 3 12 2 13
REMARK SMILES IDX 1 14
REMARK H PARENT
REMARK Flexibility Score: inf
ROOT
ATOM      1  C   UNL     1     154.751 151.556 157.639  1.00  0.00     0.000 C 
ENDROOT
BRANCH   1   2
ATOM      2  C   UNL     1     154.845 153.037 157.232  1.00  0.00     0.000 C 
BRANCH   2   3
ATOM      3  C   UNL     1     155.353 153.940 158.369  1.00  0.00     0.000 C 
BRANCH   3   4
ATOM      4  C   UNL     1     154.731 155.350 158.423  1.00  0.00     0.006 C 
BRANCH   4   5
ATOM      5  C   UNL     1     154.227 155.867 157.062  1.00  0.00     0.053 C 
BRANCH   5   6
ATOM      6  C   UNL     1     155.188 156.820 156.415  1.00  0.00     0.041 C 
ATOM      7  O   UNL     1     154.831 157.508 155.422  1.00  0.00    -0.550 OA
ATOM      8  O   UNL     1     156.493 156.917 156.881  1.00  0.00    -0.550 OA
ENDBRANCH   5   6
ENDBRANCH   4   5
ENDBRANCH   3   4
ENDBRANCH   2   3
ENDBRANCH   1   2
BRANCH   1   9
ATOM      9  C   UNL     1     153.322 151.141 158.024  1.00  0.00     0.000 C 
BRANCH   9  10
ATOM     10  C   UNL     1     152.961 151.522 159.468  1.00  0.00    -0.000 C 
BRANCH  10  11
ATOM     11  C   UNL     1     151.913 152.642 159.495  1.00  0.00    -0.000 C 
BRANCH  11  12
ATOM     12  C   UNL     1     151.261 152.819 158.115  1.00  0.00    -0.000 C 
BRANCH  12  13
ATOM     13  C   UNL     1     150.626 154.206 157.936  1.00  0.00    -0.003 C 
ATOM     14  C   UNL     1     151.079 155.206 158.999  1.00  0.00     0.004 C 
ENDBRANCH  12  13
ENDBRANCH  11  12
ENDBRANCH  10  11
ENDBRANCH   9  10
ENDBRANCH   1   9
TORSDOF 10
ENDMDL
MODEL 6
REMARK VINA RESULT:    -3.132      3.070      5.538
REMARK INTER + INTRA:          -6.408
REMARK INTER:                  -5.069
REMARK INTRA:                  -1.339
REMARK UNBOUND:                -1.446
REMARK SMILES CCCCCCCCCCCC(=O)[O-]
REMARK SMILES IDX 7 1 8 2 9 3 10 4 11 5 12 6 13 7 14 8 6 9 5 10 4 11 3 12 2 13
REMARK SMILES IDX 1 14
REMARK H PARENT
REMARK Flexibility Score: inf
ROOT
ATOM      1  C   UNL     1     151.927 155.203 157.287  1.00  0.00     0.000 C 
ENDROOT
BRANCH   1   2
ATOM      2  C   UNL     1     153.452 155.008 157.237  1.00  0.00     0.000 C 
BRANCH   2   3
ATOM      3  C   UNL     1     154.150 155.387 158.555  1.00  0.00     0.000 C 
BRANCH   3   4
ATOM      4  C   UNL     1     155.600 154.886 158.704  1.00  0.00     0.006 C 
BRANCH   4   5
ATOM      5  C   UNL     1     156.668 155.937 158.346  1.00  0.00     0.053 C 
BRANCH   5   6
ATOM      6  C   UNL     1     157.192 156.660 159.551  1.00  0.00     0.041 C 
ATOM      7  O   UNL     1     156.559 157.637 160.031  1.00  0.00    -0.550 OA
ATOM      8  O   UNL     1     158.404 156.284 160.117  1.00  0.00    -0.550 OA
ENDBRANCH   5   6
ENDBRANCH   4   5
ENDBRANCH   3   4
ENDBRANCH   2   3
ENDBRANCH   1   2
BRANCH   1   9
ATOM      9  C   UNL     1     151.311 154.697 158.602  1.00  0.00     0.000 C 
BRANCH   9  10
ATOM     10  C   UNL     1     151.252 153.164 158.680  1.00  0.00    -0.000 C 
BRANCH  10  11
ATOM     11  C   UNL     1     151.886 152.656 159.980  1.00  0.00    -0.000 C 
BRANCH  11  12
ATOM     12  C   UNL     1     153.056 151.703 159.687  1.00  0.00    -0.000 C 
BRANCH  12  13
ATOM     13  C   UNL     1     153.161 151.338 158.199  1.00  0.00    -0.003 C 
ATOM     14  C   UNL     1     154.590 151.432 157.667  1.00  0.00     0.004 C 
ENDBRANCH  12  13
ENDBRANCH  11  12
ENDBRANCH  10  11
ENDBRANCH   9  10
ENDBRANCH   1   9
TORSDOF 10
ENDMDL
MODEL 7
REMARK VINA RESULT:    -3.128      2.766      4.852
REMARK INTER + INTRA:          -6.402
REMARK INTER:                  -5.378
REMARK INTRA:                  -1.024
REMARK UNBOUND:                -1.446
REMARK SMILES CCCCCCCCCCCC(=O)[O-]
REMARK SMILES IDX 7 1 8 2 9 3 10 4 11 5 12 6 13 7 14 8 6 9 5 10 4 11 3 12 2 13
REMARK SMILES IDX 1 14
REMARK H PARENT
REMARK Flexibility Score: inf
ROOT
ATOM      1  C   UNL     1     154.820 152.911 157.171  1.00  0.00     0.000 C 
ENDROOT
BRANCH   1   2
ATOM      2  C   UNL     1     155.280 153.873 158.281  1.00  0.00     0.000 C 
BRANCH   2   3
ATOM      3  C   UNL     1     155.079 155.353 157.913  1.00  0.00     0.000 C 
BRANCH   3   4
ATOM      4  C   UNL     1     155.782 156.367 158.838  1.00  0.00     0.006 C 
BRANCH   4   5
ATOM      5  C   UNL     1     154.885 157.535 159.287  1.00  0.00     0.053 C 
BRANCH   5   6
ATOM      6  C   UNL     1     155.501 158.346 160.389  1.00  0.00     0.041 C 
ATOM      7  O   UNL     1     154.791 159.122 161.081  1.00  0.00    -0.550 OA
ATOM      8  O   UNL     1     156.869 158.278 160.621  1.00  0.00    -0.550 OA
ENDBRANCH   5   6
ENDBRANCH   4   5
ENDBRANCH   3   4
ENDBRANCH   2   3
ENDBRANCH   1   2
BRANCH   1   9
ATOM      9  C   UNL     1     154.603 151.478 157.686  1.00  0.00     0.000 C 
BRANCH   9  10
ATOM     10  C   UNL     1     153.165 151.230 158.165  1.00  0.00    -0.000 C 
BRANCH  10  11
ATOM     11  C   UNL     1     153.061 151.369 159.689  1.00  0.00    -0.000 C 
BRANCH  11  12
ATOM     12  C   UNL     1     152.078 152.484 160.075  1.00  0.00    -0.000 C 
BRANCH  12  13
ATOM     13  C   UNL     1     151.431 153.151 158.853  1.00  0.00    -0.003 C 
ATOM     14  C   UNL     1     151.577 154.672 158.861  1.00  0.00     0.004 C 
ENDBRANCH  12  13
ENDBRANCH  11  12
ENDBRANCH  10  11
ENDBRANCH   9  10
ENDBRANCH   1   9
TORSDOF 10
ENDMDL
MODEL 8
REMARK VINA RESULT:    -3.077      2.078      3.822
REMARK INTER + INTRA:          -6.321
REMARK INTER:                  -5.059
REMARK INTRA:                  -1.262
REMARK UNBOUND:                -1.446
REMARK SMILES CCCCCCCCCCCC(=O)[O-]
REMARK SMILES IDX 7 1 8 2 9 3 10 4 11 5 12 6 13 7 14 8 6 9 5 10 4 11 3 12 2 13
REMARK SMILES IDX 1 14
REMARK H PARENT
REMARK Flexibility Score: inf
ROOT
ATOM      1  C   UNL     1     155.025 152.598 157.177  1.00  0.00     0.000 C 
ENDROOT
BRANCH   1   2
ATOM      2  C   UNL     1     155.377 153.684 158.210  1.00  0.00     0.000 C 
BRANCH   2   3
ATOM      3  C   UNL     1     154.853 155.076 157.820  1.00  0.00     0.000 C 
BRANCH   3   4
ATOM      4  C   UNL     1     154.441 155.238 156.343  1.00  0.00     0.006 C 
BRANCH   4   5
ATOM      5  C   UNL     1     153.454 156.394 156.088  1.00  0.00     0.053 C 
BRANCH   5   6
ATOM      6  C   UNL     1     152.463 156.079 155.008  1.00  0.00     0.041 C 
ATOM      7  O   UNL     1     152.857 155.765 153.854  1.00  0.00    -0.550 OA
ATOM      8  O   UNL     1     151.100 156.176 155.263  1.00  0.00    -0.550 OA
ENDBRANCH   5   6
ENDBRANCH   4   5
ENDBRANCH   3   4
ENDBRANCH   2   3
ENDBRANCH   1   2
BRANCH   1   9
ATOM      9  C   UNL     1     154.855 151.210 157.815  1.00  0.00     0.000 C 
BRANCH   9  10
ATOM     10  C   UNL     1     153.391 150.882 158.142  1.00  0.00    -0.000 C 
BRANCH  10  11
ATOM     11  C   UNL     1     153.117 151.027 159.644  1.00  0.00    -0.000 C 
BRANCH  11  12
ATOM     12  C   UNL     1     152.472 152.386 159.958  1.00  0.00    -0.000 C 
BRANCH  12  13
ATOM     13  C   UNL     1     151.376 152.765 158.952  1.00  0.00    -0.003 C 
ATOM     14  C   UNL     1     151.425 154.239 158.550  1.00  0.00     0.004 C 
ENDBRANCH  12  13
ENDBRANCH  11  12
ENDBRANCH  10  11
ENDBRANCH   9  10
ENDBRANCH   1   9
TORSDOF 10
ENDMDL
MODEL 9
REMARK VINA RESULT:    -3.052      2.448      4.373
REMARK INTER + INTRA:          -6.282
REMARK INTER:                  -4.822
REMARK INTRA:                  -1.461
REMARK UNBOUND:                -1.446
REMARK SMILES CCCCCCCCCCCC(=O)[O-]
REMARK SMILES IDX 7 1 8 2 9 3 10 4 11 5 12 6 13 7 14 8 6 9 5 10 4 11 3 12 2 13
REMARK SMILES IDX 1 14
REMARK H PARENT
REMARK Flexibility Score: inf
ROOT
ATOM      1  C   UNL     1     151.227 157.187 158.256  1.00  0.00     0.000 C 
ENDROOT
BRANCH   1   2
ATOM      2  C   UNL     1     151.017 155.854 158.997  1.00  0.00     0.000 C 
BRANCH   2   3
ATOM      3  C   UNL     1     150.584 154.711 158.064  1.00  0.00     0.000 C 
BRANCH   3   4
ATOM      4  C   UNL     1     151.340 153.380 158.254  1.00  0.00     0.006 C 
BRANCH   4   5
ATOM      5  C   UNL     1     151.625 153.023 159.725  1.00  0.00     0.053 C 
BRANCH   5   6
ATOM      6  C   UNL     1     152.643 151.931 159.867  1.00  0.00     0.041 C 
ATOM      7  O   UNL     1     153.157 151.682 160.989  1.00  0.00    -0.550 OA
ATOM      8  O   UNL     1     153.058 151.216 158.750  1.00  0.00    -0.550 OA
ENDBRANCH   5   6
ENDBRANCH   4   5
ENDBRANCH   3   4
ENDBRANCH   2   3
ENDBRANCH   1   2
BRANCH   1   9
ATOM      9  C   UNL     1     152.692 157.407 157.844  1.00  0.00     0.000 C 
BRANCH   9  10
ATOM     10  C   UNL     1     153.681 157.101 158.980  1.00  0.00    -0.000 C 
BRANCH  10  11
ATOM     11  C   UNL     1     154.883 156.302 158.460  1.00  0.00    -0.000 C 
BRANCH  11  12
ATOM     12  C   UNL     1     154.667 154.793 158.652  1.00  0.00    -0.000 C 
BRANCH  12  13
ATOM     13  C   UNL     1     154.942 153.990 157.373  1.00  0.00    -0.003 C 
ATOM     14  C   UNL     1     154.467 154.707 156.110  1.00  0.00     0.004 C 
ENDBRANCH  12  13
ENDBRANCH  11  12
ENDBRANCH  10  11
ENDBRANCH   9  10
ENDBRANCH   1   9
TORSDOF 10
ENDMDL
