MODEL 1
REMARK VINA RESULT:    -3.057      0.000      0.000
REMARK INTER + INTRA:          -5.239
REMARK INTER:                  -4.844
REMARK INTRA:                  -0.394
REMARK UNBOUND:                -0.394
REMARK SMILES CCCCCCCCCCCC(=O)[O-]
REMARK SMILES IDX 7 1 8 2 9 3 10 4 11 5 12 6 13 7 14 8 6 9 5 10 4 11 3 12 2 13
REMARK SMILES IDX 1 14
REMARK H PARENT
REMARK Flexibility Score: inf
ROOT
ATOM      1  C   UNL     1      13.115  10.869  14.967  1.00  0.00     0.000 C 
ENDROOT
BRANCH   1   2
ATOM      2  C   UNL     1      11.933  11.796  14.646  1.00  0.00     0.000 C 
BRANCH   2   3
ATOM      3  C   UNL     1      12.104  13.159  15.327  1.00  0.00     0.000 C 
BRANCH   3   4
ATOM      4  C   UNL     1      13.405  13.840  14.878  1.00  0.00     0.006 C 
BRANCH   4   5
ATOM      5  C   UNL     1      13.156  15.236  14.291  1.00  0.00     0.053 C 
BRANCH   5   6
ATOM      6  C   UNL     1      13.181  15.221  12.793  1.00  0.00     0.041 C 
ATOM      7  O   UNL     1      13.568  16.235  12.156  1.00  0.00    -0.550 OA
ATOM      8  O   UNL     1      12.806  14.076  12.103  1.00  0.00    -0.550 OA
ENDBRANCH   5   6
ENDBRANCH   4   5
ENDBRANCH   3   4
ENDBRANCH   2   3
ENDBRANCH   1   2
BRANCH   1   9
ATOM      9  C   UNL     1      12.713   9.386  15.000  1.00  0.00     0.000 C 
BRANCH   9  10
ATOM     10  C   UNL     1      13.890   8.459  15.335  1.00  0.00    -0.000 C 
BRANCH  10  11
ATOM     11  C   UNL     1      13.417   7.013  15.518  1.00  0.00    -0.000 C 
BRANCH  11  12
ATOM     12  C   UNL     1      12.460   6.893  16.711  1.00  0.00    -0.000 C 
BRANCH  12  13
ATOM     13  C   UNL     1      12.821   5.688  17.586  1.00  0.00    -0.003 C 
ATOM     14  C   UNL     1      13.225   4.488  16.733  1.00  0.00     0.004 C 
ENDBRANCH  12  13
ENDBRANCH  11  12
ENDBRANCH  10  11
ENDBRANCH   9  10
ENDBRANCH   1   9
TORSDOF 10
ENDMDL
MODEL 2
REMARK VINA RESULT:    -2.887      0.643      1.427
REMARK INTER + INTRA:          -4.970
REMARK INTER:                  -4.594
REMARK INTRA:                  -0.376
REMARK UNBOUND:                -0.394
REMARK SMILES CCCCCCCCCCCC(=O)[O-]
REMARK SMILES IDX 7 1 8 2 9 3 10 4 11 5 12 6 13 7 14 8 6 9 5 10 4 11 3 12 2 13
REMARK SMILES IDX 1 14
REMARK H PARENT
REMARK Flexibility Score: inf
ROOT
ATOM      1  C   UNL     1      12.631   9.456  15.111  1.00  0.00     0.000 C 
ENDROOT
BRANCH   1   2
ATOM      2  C   UNL     1      13.045  10.930  15.243  1.00  0.00     0.000 C 
BRANCH   2   3
ATOM      3  C   UNL     1      12.029  11.849  14.554  1.00  0.00     0.000 C 
BRANCH   3   4
ATOM      4  C   UNL     1      12.101  13.274  15.123  1.00  0.00     0.006 C 
BRANCH   4   5
ATOM      5  C   UNL     1      13.410  13.982  14.750  1.00  0.00     0.053 C 
BRANCH   5   6
ATOM      6  C   UNL     1      13.233  14.892  13.572  1.00  0.00     0.041 C 
ATOM      7  O   UNL     1      13.271  16.141  13.725  1.00  0.00    -0.550 OA
ATOM      8  O   UNL     1      13.058  14.359  12.302  1.00  0.00    -0.550 OA
ENDBRANCH   5   6
ENDBRANCH   4   5
ENDBRANCH   3   4
ENDBRANCH   2   3
ENDBRANCH   1   2
BRANCH   1   9
ATOM      9  C   UNL     1      13.809   8.490  15.313  1.00  0.00     0.000 C 
BRANCH   9  10
ATOM     10  C   UNL     1      13.358   7.032  15.484  1.00  0.00    -0.000 C 
BRANCH  10  11
ATOM     11  C   UNL     1      12.502   6.866  16.744  1.00  0.00    -0.000 C 
BRANCH  11  12
ATOM     12  C   UNL     1      12.866   5.578  17.492  1.00  0.00    -0.000 C 
BRANCH  12  13
ATOM     13  C   UNL     1      13.405   4.515  16.528  1.00  0.00    -0.003 C 
ATOM     14  C   UNL     1      13.410   3.134  17.178  1.00  0.00     0.004 C 
ENDBRANCH  12  13
ENDBRANCH  11  12
ENDBRANCH  10  11
ENDBRANCH   9  10
ENDBRANCH   1   9
TORSDOF 10
ENDMDL
MODEL 3
REMARK VINA RESULT:    -2.708      4.364      8.175
REMARK INTER + INTRA:          -4.685
REMARK INTER:                  -4.306
REMARK INTRA:                  -0.379
REMARK UNBOUND:                -0.394
REMARK SMILES CCCCCCCCCCCC(=O)[O-]
REMARK SMILES IDX 7 1 8 2 9 3 10 4 11 5 12 6 13 7 14 8 6 9 5 10 4 11 3 12 2 13
REMARK SMILES IDX 1 14
REMARK H PARENT
REMARK Flexibility Score: inf
ROOT
ATOM      1  C   UNL     1      13.220  11.144  15.301  1.00  0.00     0.000 C 
ENDROOT
BRANCH   1   2
ATOM      2  C   UNL     1      12.778   9.693  15.056  1.00  0.00     0.000 C 
BRANCH   2   3
ATOM      3  C   UNL     1      13.930   8.716  15.321  1.00  0.00     0.000 C 
BRANCH   3   4
ATOM      4  C   UNL     1      13.425   7.266  15.353  1.00  0.00     0.006 C 
BRANCH   4   5
ATOM      5  C   UNL     1      12.444   7.019  16.506  1.00  0.00     0.053 C 
BRANCH   5   6
ATOM      6  C   UNL     1      12.826   5.815  17.312  1.00  0.00     0.041 C 
ATOM      7  O   UNL     1      13.207   4.762  16.738  1.00  0.00    -0.550 OA
ATOM      8  O   UNL     1      12.791   5.867  18.700  1.00  0.00    -0.550 OA
ENDBRANCH   5   6
ENDBRANCH   4   5
ENDBRANCH   3   4
ENDBRANCH   2   3
ENDBRANCH   1   2
BRANCH   1   9
ATOM      9  C   UNL     1      12.146  12.166  14.897  1.00  0.00     0.000 C 
BRANCH   9  10
ATOM     10  C   UNL     1      11.997  12.298  13.374  1.00  0.00    -0.000 C 
BRANCH  10  11
ATOM     11  C   UNL     1      12.770  13.512  12.849  1.00  0.00    -0.000 C 
BRANCH  11  12
ATOM     12  C   UNL     1      13.296  14.373  14.004  1.00  0.00    -0.000 C 
BRANCH  12  13
ATOM     13  C   UNL     1      13.327  15.855  13.615  1.00  0.00    -0.003 C 
ATOM     14  C   UNL     1      13.330  16.028  12.099  1.00  0.00     0.004 C 
ENDBRANCH  12  13
ENDBRANCH  11  12
ENDBRANCH  10  11
ENDBRANCH   9  10
ENDBRANCH   1   9
TORSDOF 10
ENDMDL
MODEL 4
REMARK VINA RESULT:    -2.683      4.441      8.211
REMARK INTER + INTRA:          -4.646
REMARK INTER:                  -4.206
REMARK INTRA:                  -0.440
REMARK UNBOUND:                -0.394
REMARK SMILES CCCCCCCCCCCC(=O)[O-]
REMARK SMILES IDX 7 1 8 2 9 3 10 4 11 5 12 6 13 7 14 8 6 9 5 10 4 11 3 12 2 13
REMARK SMILES IDX 1 14
REMARK H PARENT
REMARK Flexibility Score: inf
ROOT
ATOM      1  C   UNL     1      13.133  10.648  14.903  1.00  0.00     0.000 C 
ENDROOT
BRANCH   1   2
ATOM      2  C   UNL     1      12.815   9.206  15.327  1.00  0.00     0.000 C 
BRANCH   2   3
ATOM      3  C   UNL     1      13.986   8.269  15.006  1.00  0.00     0.000 C 
BRANCH   3   4
ATOM      4  C   UNL     1      13.640   6.814  15.357  1.00  0.00     0.006 C 
BRANCH   4   5
ATOM      5  C   UNL     1      12.646   6.720  16.522  1.00  0.00     0.053 C 
BRANCH   5   6
ATOM      6  C   UNL     1      12.888   5.502  17.361  1.00  0.00     0.041 C 
ATOM      7  O   UNL     1      12.704   5.543  18.606  1.00  0.00    -0.550 OA
ATOM      8  O   UNL     1      13.284   4.313  16.763  1.00  0.00    -0.550 OA
ENDBRANCH   5   6
ENDBRANCH   4   5
ENDBRANCH   3   4
ENDBRANCH   2   3
ENDBRANCH   1   2
BRANCH   1   9
ATOM      9  C   UNL     1      11.882  11.423  14.458  1.00  0.00     0.000 C 
BRANCH   9  10
ATOM     10  C   UNL     1      11.710  12.751  15.209  1.00  0.00    -0.000 C 
BRANCH  10  11
ATOM     11  C   UNL     1      13.064  13.427  15.448  1.00  0.00    -0.000 C 
BRANCH  11  12
ATOM     12  C   UNL     1      13.078  14.851  14.879  1.00  0.00    -0.000 C 
BRANCH  12  13
ATOM     13  C   UNL     1      13.317  14.836  13.365  1.00  0.00    -0.003 C 
ATOM     14  C   UNL     1      13.674  16.227  12.849  1.00  0.00     0.004 C 
ENDBRANCH  12  13
ENDBRANCH  11  12
ENDBRANCH  10  11
ENDBRANCH   9  10
ENDBRANCH   1   9
TORSDOF 10
ENDMDL
MODEL 5
REMARK VINA RESULT:    -2.600      1.343      2.406
REMARK INTER + INTRA:          -4.514
REMARK INTER:                  -4.234
REMARK INTRA:                  -0.280
REMARK UNBOUND:                -0.394
REMARK SMILES CCCCCCCCCCCC(=O)[O-]
REMARK SMILES IDX 7 1 8 2 9 3 10 4 11 5 12 6 13 7 14 8 6 9 5 10 4 11 3 12 2 13
REMARK SMILES IDX 1 14
REMARK H PARENT
REMARK Flexibility Score: inf
ROOT
ATOM      1  C   UNL     1      13.879   8.754  15.314  1.00  0.00     0.000 C 
ENDROOT
BRANCH   1   2
ATOM      2  C   UNL     1      12.771   9.743  14.919  1.00  0.00     0.000 C 
BRANCH   2   3
ATOM      3  C   UNL     1      13.151  11.177  15.310  1.00  0.00     0.000 C 
BRANCH   3   4
ATOM      4  C   UNL     1      12.152  12.189  14.730  1.00  0.00     0.006 C 
BRANCH   4   5
ATOM      5  C   UNL     1      12.817  13.527  14.383  1.00  0.00     0.053 C 
BRANCH   5   6
ATOM      6  C   UNL     1      12.871  13.753  12.903  1.00  0.00     0.041 C 
ATOM      7  O   UNL     1      12.566  12.825  12.109  1.00  0.00    -0.550 OA
ATOM      8  O   UNL     1      13.227  14.998  12.402  1.00  0.00    -0.550 OA
ENDBRANCH   5   6
ENDBRANCH   4   5
ENDBRANCH   3   4
ENDBRANCH   2   3
ENDBRANCH   1   2
BRANCH   1   9
ATOM      9  C   UNL     1      13.385   7.299  15.358  1.00  0.00     0.000 C 
BRANCH   9  10
ATOM     10  C   UNL     1      12.553   6.994  16.612  1.00  0.00    -0.000 C 
BRANCH  10  11
ATOM     11  C   UNL     1      12.852   5.587  17.140  1.00  0.00    -0.000 C 
BRANCH  11  12
ATOM     12  C   UNL     1      12.593   5.497  18.649  1.00  0.00    -0.000 C 
BRANCH  12  13
ATOM     13  C   UNL     1      12.372   4.044  19.084  1.00  0.00    -0.003 C 
ATOM     14  C   UNL     1      11.459   3.967  20.304  1.00  0.00     0.004 C 
ENDBRANCH  12  13
ENDBRANCH  11  12
ENDBRANCH  10  11
ENDBRANCH   9  10
ENDBRANCH   1   9
TORSDOF 10
ENDMDL
MODEL 6
REMARK VINA RESULT:    -2.264      7.045      8.195
REMARK INTER + INTRA:          -3.982
REMARK INTER:                  -3.488
REMARK INTRA:                  -0.494
REMARK UNBOUND:                -0.394
REMARK SMILES CCCCCCCCCCCC(=O)[O-]
REMARK SMILES IDX 7 1 8 2 9 3 10 4 11 5 12 6 13 7 14 8 6 9 5 10 4 11 3 12 2 13
REMARK SMILES IDX 1 14
REMARK H PARENT
REMARK Flexibility Score: inf
ROOT
ATOM      1  C   UNL     1      13.119   4.566  16.470  1.00  0.00     0.000 C 
ENDROOT
BRANCH   1   2
ATOM      2  C   UNL     1      14.443   4.362  15.719  1.00  0.00     0.000 C 
BRANCH   2   3
ATOM      3  C   UNL     1      14.722   5.535  14.770  1.00  0.00     0.000 C 
BRANCH   3   4
ATOM      4  C   UNL     1      15.414   5.053  13.487  1.00  0.00     0.006 C 
BRANCH   4   5
ATOM      5  C   UNL     1      16.897   4.732  13.713  1.00  0.00     0.053 C 
BRANCH   5   6
ATOM      6  C   UNL     1      17.489   3.996  12.550  1.00  0.00     0.041 C 
ATOM      7  O   UNL     1      18.689   3.616  12.585  1.00  0.00    -0.550 OA
ATOM      8  O   UNL     1      16.707   3.703  11.441  1.00  0.00    -0.550 OA
ENDBRANCH   5   6
ENDBRANCH   4   5
ENDBRANCH   3   4
ENDBRANCH   2   3
ENDBRANCH   1   2
BRANCH   1   9
ATOM      9  C   UNL     1      12.869   6.037  16.840  1.00  0.00     0.000 C 
BRANCH   9  10
ATOM     10  C   UNL     1      12.708   6.248  18.353  1.00  0.00    -0.000 C 
BRANCH  10  11
ATOM     11  C   UNL     1      12.756   4.913  19.103  1.00  0.00    -0.000 C 
BRANCH  11  12
ATOM     12  C   UNL     1      11.448   4.657  19.860  1.00  0.00    -0.000 C 
BRANCH  12  13
ATOM     13  C   UNL     1      11.396   3.224  20.402  1.00  0.00    -0.003 C 
ATOM     14  C   UNL     1      11.987   3.144  21.807  1.00  0.00     0.004 C 
ENDBRANCH  12  13
ENDBRANCH  11  12
ENDBRANCH  10  11
ENDBRANCH   9  10
ENDBRANCH   1   9
TORSDOF 10
ENDMDL
MODEL 7
REMARK VINA RESULT:    -2.256      2.103      3.797
REMARK INTER + INTRA:          -3.970
REMARK INTER:                  -3.690
REMARK INTRA:                  -0.279
REMARK UNBOUND:                -0.394
REMARK SMILES CCCCCCCCCCCC(=O)[O-]
REMARK SMILES IDX 7 1 8 2 9 3 10 4 11 5 12 6 13 7 14 8 6 9 5 10 4 11 3 12 2 13
REMARK SMILES IDX 1 14
REMARK H PARENT
REMARK Flexibility Score: inf
ROOT
ATOM      1  C   UNL     1      13.597   6.817  15.360  1.00  0.00     0.000 C 
ENDROOT
BRANCH   1   2
ATOM      2  C   UNL     1      13.966   8.278  15.057  1.00  0.00     0.000 C 
BRANCH   2   3
ATOM      3  C   UNL     1      12.882   9.235  15.570  1.00  0.00     0.000 C 
BRANCH   3   4
ATOM      4  C   UNL     1      12.703  10.426  14.617  1.00  0.00     0.006 C 
BRANCH   4   5
ATOM      5  C   UNL     1      12.706  11.769  15.359  1.00  0.00     0.053 C 
BRANCH   5   6
ATOM      6  C   UNL     1      12.761  12.927  14.411  1.00  0.00     0.041 C 
ATOM      7  O   UNL     1      12.466  12.767  13.197  1.00  0.00    -0.550 OA
ATOM      8  O   UNL     1      13.106  14.190  14.875  1.00  0.00    -0.550 OA
ENDBRANCH   5   6
ENDBRANCH   4   5
ENDBRANCH   3   4
ENDBRANCH   2   3
ENDBRANCH   1   2
BRANCH   1   9
ATOM      9  C   UNL     1      12.719   6.677  16.613  1.00  0.00     0.000 C 
BRANCH   9  10
ATOM     10  C   UNL     1      12.944   5.348  17.349  1.00  0.00    -0.000 C 
BRANCH  10  11
ATOM     11  C   UNL     1      12.300   5.374  18.740  1.00  0.00    -0.000 C 
BRANCH  11  12
ATOM     12  C   UNL     1      12.191   3.961  19.324  1.00  0.00    -0.000 C 
BRANCH  12  13
ATOM     13  C   UNL     1      11.429   3.973  20.654  1.00  0.00    -0.003 C 
ATOM     14  C   UNL     1      11.837   2.794  21.533  1.00  0.00     0.004 C 
ENDBRANCH  12  13
ENDBRANCH  11  12
ENDBRANCH  10  11
ENDBRANCH   9  10
ENDBRANCH   1   9
TORSDOF 10
ENDMDL
MODEL 8
REMARK VINA RESULT:    -1.788      5.357      8.884
REMARK INTER + INTRA:          -3.228
REMARK INTER:                  -3.074
REMARK INTRA:                  -0.154
REMARK UNBOUND:                -0.394
REMARK SMILES CCCCCCCCCCCC(=O)[O-]
REMARK SMILES IDX 7 1 8 2 9 3 10 4 11 5 12 6 13 7 14 8 6 9 5 10 4 11 3 12 2 13
REMARK SMILES IDX 1 14
REMARK H PARENT
REMARK Flexibility Score: inf
ROOT
ATOM      1  C   UNL     1      13.787   8.295  15.295  1.00  0.00     0.000 C 
ENDROOT
BRANCH   1   2
ATOM      2  C   UNL     1      13.241   6.904  15.653  1.00  0.00     0.000 C 
BRANCH   2   3
ATOM      3  C   UNL     1      12.778   6.856  17.114  1.00  0.00     0.000 C 
BRANCH   3   4
ATOM      4  C   UNL     1      12.737   5.410  17.631  1.00  0.00     0.006 C 
BRANCH   4   5
ATOM      5  C   UNL     1      12.246   5.326  19.083  1.00  0.00     0.053 C 
BRANCH   5   6
ATOM      6  C   UNL     1      11.931   3.917  19.482  1.00  0.00     0.041 C 
ATOM      7  O   UNL     1      12.406   2.952  18.829  1.00  0.00    -0.550 OA
ATOM      8  O   UNL     1      11.138   3.671  20.596  1.00  0.00    -0.550 OA
ENDBRANCH   5   6
ENDBRANCH   4   5
ENDBRANCH   3   4
ENDBRANCH   2   3
ENDBRANCH   1   2
BRANCH   1   9
ATOM      9  C   UNL     1      12.672   9.325  15.061  1.00  0.00     0.000 C 
BRANCH   9  10
ATOM     10  C   UNL     1      13.182  10.773  15.112  1.00  0.00    -0.000 C 
BRANCH  10  11
ATOM     11  C   UNL     1      12.070  11.761  14.741  1.00  0.00    -0.000 C 
BRANCH  11  12
ATOM     12  C   UNL     1      12.521  12.702  13.618  1.00  0.00    -0.000 C 
BRANCH  12  13
ATOM     13  C   UNL     1      13.299  13.897  14.181  1.00  0.00    -0.003 C 
ATOM     14  C   UNL     1      13.003  14.098  15.664  1.00  0.00     0.004 C 
ENDBRANCH  12  13
ENDBRANCH  11  12
ENDBRANCH  10  11
ENDBRANCH   9  10
ENDBRANCH   1   9
TORSDOF 10
ENDMDL
MODEL 9
REMARK VINA RESULT:    -1.698      5.630      7.251
REMARK INTER + INTRA:          -3.085
REMARK INTER:                  -2.471
REMARK INTRA:                  -0.615
REMARK UNBOUND:                -0.394
REMARK SMILES CCCCCCCCCCCC(=O)[O-]
REMARK SMILES IDX 7 1 8 2 9 3 10 4 11 5 12 6 13 7 14 8 6 9 5 10 4 11 3 12 2 13
REMARK SMILES IDX 1 14
REMARK H PARENT
REMARK Flexibility Score: inf
ROOT
ATOM      1  C   UNL     1      12.952   6.217  16.010  1.00  0.00     0.000 C 
ENDROOT
BRANCH   1   2
ATOM      2  C   UNL     1      13.609   7.384  15.258  1.00  0.00     0.000 C 
BRANCH   2   3
ATOM      3  C   UNL     1      14.671   6.874  14.275  1.00  0.00     0.000 C 
BRANCH   3   4
ATOM      4  C   UNL     1      14.434   5.397  13.927  1.00  0.00     0.006 C 
BRANCH   4   5
ATOM      5  C   UNL     1      15.410   4.890  12.856  1.00  0.00     0.053 C 
BRANCH   5   6
ATOM      6  C   UNL     1      14.718   4.635  11.551  1.00  0.00     0.041 C 
ATOM      7  O   UNL     1      14.992   3.607  10.879  1.00  0.00    -0.550 OA
ATOM      8  O   UNL     1      13.747   5.517  11.095  1.00  0.00    -0.550 OA
ENDBRANCH   5   6
ENDBRANCH   4   5
ENDBRANCH   3   4
ENDBRANCH   2   3
ENDBRANCH   1   2
BRANCH   1   9
ATOM      9  C   UNL     1      12.467   6.616  17.413  1.00  0.00     0.000 C 
BRANCH   9  10
ATOM     10  C   UNL     1      12.949   5.648  18.504  1.00  0.00    -0.000 C 
BRANCH  10  11
ATOM     11  C   UNL     1      12.957   4.203  17.992  1.00  0.00    -0.000 C 
BRANCH  11  12
ATOM     12  C   UNL     1      12.196   3.275  18.947  1.00  0.00    -0.000 C 
BRANCH  12  13
ATOM     13  C   UNL     1      11.795   4.013  20.228  1.00  0.00    -0.003 C 
ATOM     14  C   UNL     1      11.726   3.057  21.416  1.00  0.00     0.004 C 
ENDBRANCH  12  13
ENDBRANCH  11  12
ENDBRANCH  10  11
ENDBRANCH   9  10
ENDBRANCH   1   9
TORSDOF 10
ENDMDL
