MODEL 1
REMARK VINA RESULT:    -3.964      0.000      0.000
REMARK INTER + INTRA:         -12.364
REMARK INTER:                  -8.598
REMARK INTRA:                  -3.766
REMARK UNBOUND:                -3.766
REMARK SMILES CCCCCCCCCCCCCCCCCCCCCC(=O)[O-]
REMARK SMILES IDX 12 1 11 2 10 3 9 4 8 5 7 6 6 7 5 8 4 9 3 10 2 11 1 12 13 13
REMARK SMILES IDX 14 14 15 15 16 16 17 17 18 18 19 19 20 20 21 21 22 22 23 23
REMARK SMILES IDX 24 24
REMARK H PARENT
REMARK Flexibility Score: inf
ROOT
ATOM      1  C   UNL     1      43.638  11.502  22.249  1.00  0.00     0.000 C 
ENDROOT
BRANCH   1   2
ATOM      2  C   UNL     1      44.956  12.279  22.098  1.00  0.00     0.000 C 
BRANCH   2   3
ATOM      3  C   UNL     1      45.608  12.616  23.450  1.00  0.00     0.000 C 
BRANCH   3   4
ATOM      4  C   UNL     1      45.288  14.040  23.955  1.00  0.00    -0.000 C 
BRANCH   4   5
ATOM      5  C   UNL     1      44.016  14.076  24.820  1.00  0.00    -0.000 C 
BRANCH   5   6
ATOM      6  C   UNL     1      43.076  15.234  24.444  1.00  0.00    -0.000 C 
BRANCH   6   7
ATOM      7  C   UNL     1      41.781  14.745  23.770  1.00  0.00    -0.000 C 
BRANCH   7   8
ATOM      8  C   UNL     1      41.845  14.830  22.237  1.00  0.00    -0.000 C 
BRANCH   8   9
ATOM      9  C   UNL     1      41.772  16.276  21.715  1.00  0.00    -0.000 C 
BRANCH   9  10
ATOM     10  C   UNL     1      42.869  16.574  20.670  1.00  0.00    -0.000 C 
BRANCH  10  11
ATOM     11  C   UNL     1      44.291  16.572  21.255  1.00  0.00    -0.003 C 
ATOM     12  C   UNL     1      45.216  15.565  20.574  1.00  0.00     0.004 C 
ENDBRANCH  10  11
ENDBRANCH   9  10
ENDBRANCH   8   9
ENDBRANCH   7   8
ENDBRANCH   6   7
ENDBRANCH   5   6
ENDBRANCH   4   5
ENDBRANCH   3   4
ENDBRANCH   2   3
ENDBRANCH   1   2
BRANCH   1  13
ATOM     13  C   UNL     1      43.738  10.060  21.728  1.00  0.00     0.000 C 
BRANCH  13  14
ATOM     14  C   UNL     1      45.166   9.672  21.308  1.00  0.00     0.000 C 
BRANCH  14  15
ATOM     15  C   UNL     1      45.803   8.634  22.250  1.00  0.00     0.000 C 
BRANCH  15  16
ATOM     16  C   UNL     1      44.901   8.247  23.441  1.00  0.00     0.000 C 
BRANCH  16  17
ATOM     17  C   UNL     1      45.534   8.611  24.795  1.00  0.00     0.000 C 
BRANCH  17  18
ATOM     18  C   UNL     1      44.797   9.758  25.509  1.00  0.00     0.000 C 
BRANCH  18  19
ATOM     19  C   UNL     1      43.270   9.780  25.301  1.00  0.00     0.000 C 
BRANCH  19  20
ATOM     20  C   UNL     1      42.513  10.824  26.141  1.00  0.00     0.006 C 
BRANCH  20  21
ATOM     21  C   UNL     1      41.372  11.499  25.368  1.00  0.00     0.053 C 
BRANCH  21  22
ATOM     22  C   UNL     1      40.042  11.098  25.924  1.00  0.00     0.041 C 
ATOM     23  O   UNL     1      39.874   9.941  26.396  1.00  0.00    -0.550 OA
ATOM     24  O   UNL     1      38.984  11.999  25.921  1.00  0.00    -0.550 OA
ENDBRANCH  21  22
ENDBRANCH  20  21
ENDBRANCH  19  20
ENDBRANCH  18  19
ENDBRANCH  17  18
ENDBRANCH  16  17
ENDBRANCH  15  16
ENDBRANCH  14  15
ENDBRANCH  13  14
ENDBRANCH   1  13
TORSDOF 20
ENDMDL
MODEL 2
REMARK VINA RESULT:    -3.842      1.787      3.568
REMARK INTER + INTRA:         -12.100
REMARK INTER:                  -8.812
REMARK INTRA:                  -3.287
REMARK UNBOUND:                -3.766
REMARK SMILES CCCCCCCCCCCCCCCCCCCCCC(=O)[O-]
REMARK SMILES IDX 12 1 11 2 10 3 9 4 8 5 7 6 6 7 5 8 4 9 3 10 2 11 1 12 13 13
REMARK SMILES IDX 14 14 15 15 16 16 17 17 18 18 19 19 20 20 21 21 22 22 23 23
REMARK SMILES IDX 24 24
REMARK H PARENT
REMARK Flexibility Score: inf
ROOT
ATOM      1  C   UNL     1      45.214  13.046  22.301  1.00  0.00     0.000 C 
ENDROOT
BRANCH   1   2
ATOM      2  C   UNL     1      46.105  13.587  21.171  1.00  0.00     0.000 C 
BRANCH   2   3
ATOM      3  C   UNL     1      45.724  15.015  20.743  1.00  0.00     0.000 C 
BRANCH   3   4
ATOM      4  C   UNL     1      44.697  15.690  21.678  1.00  0.00    -0.000 C 
BRANCH   4   5
ATOM      5  C   UNL     1      43.796  16.686  20.925  1.00  0.00    -0.000 C 
BRANCH   5   6
ATOM      6  C   UNL     1      42.305  16.322  21.017  1.00  0.00    -0.000 C 
BRANCH   6   7
ATOM      7  C   UNL     1      41.958  15.588  22.325  1.00  0.00    -0.000 C 
BRANCH   7   8
ATOM      8  C   UNL     1      41.135  14.312  22.085  1.00  0.00    -0.000 C 
BRANCH   8   9
ATOM      9  C   UNL     1      41.552  13.150  23.006  1.00  0.00    -0.000 C 
BRANCH   9  10
ATOM     10  C   UNL     1      41.968  13.640  24.409  1.00  0.00    -0.000 C 
BRANCH  10  11
ATOM     11  C   UNL     1      40.833  13.575  25.445  1.00  0.00    -0.003 C 
ATOM     12  C   UNL     1      40.241  12.175  25.595  1.00  0.00     0.004 C 
ENDBRANCH  10  11
ENDBRANCH   9  10
ENDBRANCH   8   9
ENDBRANCH   7   8
ENDBRANCH   6   7
ENDBRANCH   5   6
ENDBRANCH   4   5
ENDBRANCH   3   4
ENDBRANCH   2   3
ENDBRANCH   1   2
BRANCH   1  13
ATOM     13  C   UNL     1      44.604  11.675  21.970  1.00  0.00     0.000 C 
BRANCH  13  14
ATOM     14  C   UNL     1      45.612  10.713  21.318  1.00  0.00     0.000 C 
BRANCH  14  15
ATOM     15  C   UNL     1      44.947   9.439  20.767  1.00  0.00     0.000 C 
BRANCH  15  16
ATOM     16  C   UNL     1      44.338   8.539  21.863  1.00  0.00     0.000 C 
BRANCH  16  17
ATOM     17  C   UNL     1      45.401   8.015  22.844  1.00  0.00     0.000 C 
BRANCH  17  18
ATOM     18  C   UNL     1      45.235   8.586  24.263  1.00  0.00     0.000 C 
BRANCH  18  19
ATOM     19  C   UNL     1      43.783   8.646  24.776  1.00  0.00     0.000 C 
BRANCH  19  20
ATOM     20  C   UNL     1      43.249  10.063  25.058  1.00  0.00     0.006 C 
BRANCH  20  21
ATOM     21  C   UNL     1      44.346  11.033  25.517  1.00  0.00     0.053 C 
BRANCH  21  22
ATOM     22  C   UNL     1      44.112  11.471  26.929  1.00  0.00     0.041 C 
ATOM     23  O   UNL     1      44.924  12.253  27.493  1.00  0.00    -0.550 OA
ATOM     24  O   UNL     1      43.000  11.013  27.626  1.00  0.00    -0.550 OA
ENDBRANCH  21  22
ENDBRANCH  20  21
ENDBRANCH  19  20
ENDBRANCH  18  19
ENDBRANCH  17  18
ENDBRANCH  16  17
ENDBRANCH  15  16
ENDBRANCH  14  15
ENDBRANCH  13  14
ENDBRANCH   1  13
TORSDOF 20
ENDMDL
MODEL 3
REMARK VINA RESULT:    -3.829      2.198      5.599
REMARK INTER + INTRA:         -12.072
REMARK INTER:                 -10.068
REMARK INTRA:                  -2.005
REMARK UNBOUND:                -3.766
REMARK SMILES CCCCCCCCCCCCCCCCCCCCCC(=O)[O-]
REMARK SMILES IDX 12 1 11 2 10 3 9 4 8 5 7 6 6 7 5 8 4 9 3 10 2 11 1 12 13 13
REMARK SMILES IDX 14 14 15 15 16 16 17 17 18 18 19 19 20 20 21 21 22 22 23 23
REMARK SMILES IDX 24 24
REMARK H PARENT
REMARK Flexibility Score: inf
ROOT
ATOM      1  C   UNL     1      41.631  16.087  21.537  1.00  0.00     0.000 C 
ENDROOT
BRANCH   1   2
ATOM      2  C   UNL     1      42.847  16.584  20.739  1.00  0.00     0.000 C 
BRANCH   2   3
ATOM      3  C   UNL     1      44.184  16.271  21.432  1.00  0.00     0.000 C 
BRANCH   3   4
ATOM      4  C   UNL     1      45.208  15.567  20.515  1.00  0.00    -0.000 C 
BRANCH   4   5
ATOM      5  C   UNL     1      45.970  14.449  21.250  1.00  0.00    -0.000 C 
BRANCH   5   6
ATOM      6  C   UNL     1      45.522  14.289  22.712  1.00  0.00    -0.000 C 
BRANCH   6   7
ATOM      7  C   UNL     1      45.141  12.838  23.056  1.00  0.00    -0.000 C 
BRANCH   7   8
ATOM      8  C   UNL     1      44.809  12.004  21.808  1.00  0.00    -0.000 C 
BRANCH   8   9
ATOM      9  C   UNL     1      45.628  10.704  21.723  1.00  0.00    -0.000 C 
BRANCH   9  10
ATOM     10  C   UNL     1      44.888   9.599  20.939  1.00  0.00    -0.000 C 
BRANCH  10  11
ATOM     11  C   UNL     1      44.996   8.209  21.588  1.00  0.00    -0.003 C 
ATOM     12  C   UNL     1      45.670   8.240  22.959  1.00  0.00     0.004 C 
ENDBRANCH  10  11
ENDBRANCH   9  10
ENDBRANCH   8   9
ENDBRANCH   7   8
ENDBRANCH   6   7
ENDBRANCH   5   6
ENDBRANCH   4   5
ENDBRANCH   3   4
ENDBRANCH   2   3
ENDBRANCH   1   2
BRANCH   1  13
ATOM     13  C   UNL     1      42.020  15.136  22.679  1.00  0.00     0.000 C 
BRANCH  13  14
ATOM     14  C   UNL     1      41.289  13.784  22.608  1.00  0.00     0.000 C 
BRANCH  14  15
ATOM     15  C   UNL     1      41.446  12.953  23.894  1.00  0.00     0.000 C 
BRANCH  15  16
ATOM     16  C   UNL     1      41.222  13.769  25.185  1.00  0.00     0.000 C 
BRANCH  16  17
ATOM     17  C   UNL     1      40.235  13.081  26.145  1.00  0.00     0.000 C 
BRANCH  17  18
ATOM     18  C   UNL     1      39.712  11.740  25.602  1.00  0.00     0.000 C 
BRANCH  18  19
ATOM     19  C   UNL     1      39.007  10.847  26.642  1.00  0.00     0.000 C 
BRANCH  19  20
ATOM     20  C   UNL     1      37.531  10.533  26.337  1.00  0.00     0.006 C 
BRANCH  20  21
ATOM     21  C   UNL     1      36.690  10.327  27.604  1.00  0.00     0.053 C 
BRANCH  21  22
ATOM     22  C   UNL     1      35.826   9.112  27.478  1.00  0.00     0.041 C 
ATOM     23  O   UNL     1      35.097   8.749  28.440  1.00  0.00    -0.550 OA
ATOM     24  O   UNL     1      35.826   8.375  26.300  1.00  0.00    -0.550 OA
ENDBRANCH  21  22
ENDBRANCH  20  21
ENDBRANCH  19  20
ENDBRANCH  18  19
ENDBRANCH  17  18
ENDBRANCH  16  17
ENDBRANCH  15  16
ENDBRANCH  14  15
ENDBRANCH  13  14
ENDBRANCH   1  13
TORSDOF 20
ENDMDL
MODEL 4
REMARK VINA RESULT:    -3.808      2.264      5.061
REMARK INTER + INTRA:         -12.027
REMARK INTER:                  -8.950
REMARK INTRA:                  -3.077
REMARK UNBOUND:                -3.766
REMARK SMILES CCCCCCCCCCCCCCCCCCCCCC(=O)[O-]
REMARK SMILES IDX 12 1 11 2 10 3 9 4 8 5 7 6 6 7 5 8 4 9 3 10 2 11 1 12 13 13
REMARK SMILES IDX 14 14 15 15 16 16 17 17 18 18 19 19 20 20 21 21 22 22 23 23
REMARK SMILES IDX 24 24
REMARK H PARENT
REMARK Flexibility Score: inf
ROOT
ATOM      1  C   UNL     1      42.119  15.098  22.606  1.00  0.00     0.000 C 
ENDROOT
BRANCH   1   2
ATOM      2  C   UNL     1      41.615  15.902  21.397  1.00  0.00     0.000 C 
BRANCH   2   3
ATOM      3  C   UNL     1      42.634  16.946  20.908  1.00  0.00     0.000 C 
BRANCH   3   4
ATOM      4  C   UNL     1      43.788  16.344  20.077  1.00  0.00    -0.000 C 
BRANCH   4   5
ATOM      5  C   UNL     1      45.101  16.272  20.877  1.00  0.00    -0.000 C 
BRANCH   5   6
ATOM      6  C   UNL     1      45.911  15.001  20.571  1.00  0.00    -0.000 C 
BRANCH   6   7
ATOM      7  C   UNL     1      45.810  13.953  21.694  1.00  0.00    -0.000 C 
BRANCH   7   8
ATOM      8  C   UNL     1      45.960  14.572  23.093  1.00  0.00    -0.000 C 
BRANCH   8   9
ATOM      9  C   UNL     1      45.932  13.521  24.218  1.00  0.00    -0.000 C 
BRANCH   9  10
ATOM     10  C   UNL     1      45.467  14.119  25.563  1.00  0.00    -0.000 C 
BRANCH  10  11
ATOM     11  C   UNL     1      44.335  15.150  25.418  1.00  0.00    -0.003 C 
ATOM     12  C   UNL     1      43.097  14.797  26.241  1.00  0.00     0.004 C 
ENDBRANCH  10  11
ENDBRANCH   9  10
ENDBRANCH   8   9
ENDBRANCH   7   8
ENDBRANCH   6   7
ENDBRANCH   5   6
ENDBRANCH   4   5
ENDBRANCH   3   4
ENDBRANCH   2   3
ENDBRANCH   1   2
BRANCH   1  13
ATOM     13  C   UNL     1      41.498  13.694  22.684  1.00  0.00     0.000 C 
BRANCH  13  14
ATOM     14  C   UNL     1      42.528  12.602  23.021  1.00  0.00     0.000 C 
BRANCH  14  15
ATOM     15  C   UNL     1      42.203  11.859  24.329  1.00  0.00     0.000 C 
BRANCH  15  16
ATOM     16  C   UNL     1      43.397  11.067  24.902  1.00  0.00     0.000 C 
BRANCH  16  17
ATOM     17  C   UNL     1      42.962   9.733  25.534  1.00  0.00     0.000 C 
BRANCH  17  18
ATOM     18  C   UNL     1      43.734   8.527  24.972  1.00  0.00     0.000 C 
BRANCH  18  19
ATOM     19  C   UNL     1      45.197   8.815  24.580  1.00  0.00     0.000 C 
BRANCH  19  20
ATOM     20  C   UNL     1      45.734   7.976  23.406  1.00  0.00     0.006 C 
BRANCH  20  21
ATOM     21  C   UNL     1      45.655   8.713  22.062  1.00  0.00     0.053 C 
BRANCH  21  22
ATOM     22  C   UNL     1      44.292   8.578  21.460  1.00  0.00     0.041 C 
ATOM     23  O   UNL     1      43.554   9.591  21.328  1.00  0.00    -0.550 OA
ATOM     24  O   UNL     1      43.832   7.333  21.046  1.00  0.00    -0.550 OA
ENDBRANCH  21  22
ENDBRANCH  20  21
ENDBRANCH  19  20
ENDBRANCH  18  19
ENDBRANCH  17  18
ENDBRANCH  16  17
ENDBRANCH  15  16
ENDBRANCH  14  15
ENDBRANCH  13  14
ENDBRANCH   1  13
TORSDOF 20
ENDMDL
MODEL 5
REMARK VINA RESULT:    -3.808      2.439      6.275
REMARK INTER + INTRA:         -12.026
REMARK INTER:                  -8.167
REMARK INTRA:                  -3.859
REMARK UNBOUND:                -3.766
REMARK SMILES CCCCCCCCCCCCCCCCCCCCCC(=O)[O-]
REMARK SMILES IDX 12 1 11 2 10 3 9 4 8 5 7 6 6 7 5 8 4 9 3 10 2 11 1 12 13 13
REMARK SMILES IDX 14 14 15 15 16 16 17 17 18 18 19 19 20 20 21 21 22 22 23 23
REMARK SMILES IDX 24 24
REMARK H PARENT
REMARK Flexibility Score: inf
ROOT
ATOM      1  C   UNL     1      41.732  15.572  23.149  1.00  0.00     0.000 C 
ENDROOT
BRANCH   1   2
ATOM      2  C   UNL     1      41.559  14.169  23.754  1.00  0.00     0.000 C 
BRANCH   2   3
ATOM      3  C   UNL     1      42.214  13.068  22.902  1.00  0.00     0.000 C 
BRANCH   3   4
ATOM      4  C   UNL     1      42.723  11.866  23.727  1.00  0.00    -0.000 C 
BRANCH   4   5
ATOM      5  C   UNL     1      41.898  11.653  25.010  1.00  0.00    -0.000 C 
BRANCH   5   6
ATOM      6  C   UNL     1      42.379  10.444  25.830  1.00  0.00    -0.000 C 
BRANCH   6   7
ATOM      7  C   UNL     1      43.892  10.198  25.682  1.00  0.00    -0.000 C 
BRANCH   7   8
ATOM      8  C   UNL     1      44.634  10.260  27.027  1.00  0.00    -0.000 C 
BRANCH   8   9
ATOM      9  C   UNL     1      45.742  11.328  27.049  1.00  0.00    -0.000 C 
BRANCH   9  10
ATOM     10  C   UNL     1      45.825  12.109  25.720  1.00  0.00    -0.000 C 
BRANCH  10  11
ATOM     11  C   UNL     1      45.732  13.634  25.897  1.00  0.00    -0.003 C 
ATOM     12  C   UNL     1      44.330  14.107  26.276  1.00  0.00     0.004 C 
ENDBRANCH  10  11
ENDBRANCH   9  10
ENDBRANCH   8   9
ENDBRANCH   7   8
ENDBRANCH   6   7
ENDBRANCH   5   6
ENDBRANCH   4   5
ENDBRANCH   3   4
ENDBRANCH   2   3
ENDBRANCH   1   2
BRANCH   1  13
ATOM     13  C   UNL     1      41.631  15.573  21.616  1.00  0.00     0.000 C 
BRANCH  13  14
ATOM     14  C   UNL     1      42.356  16.766  20.969  1.00  0.00     0.000 C 
BRANCH  14  15
ATOM     15  C   UNL     1      43.782  16.416  20.506  1.00  0.00     0.000 C 
BRANCH  15  16
ATOM     16  C   UNL     1      44.874  16.804  21.525  1.00  0.00     0.000 C 
BRANCH  16  17
ATOM     17  C   UNL     1      45.381  15.592  22.326  1.00  0.00     0.000 C 
BRANCH  17  18
ATOM     18  C   UNL     1      45.462  14.310  21.480  1.00  0.00     0.000 C 
BRANCH  18  19
ATOM     19  C   UNL     1      45.868  13.042  22.257  1.00  0.00     0.000 C 
BRANCH  19  20
ATOM     20  C   UNL     1      45.763  11.728  21.461  1.00  0.00     0.006 C 
BRANCH  20  21
ATOM     21  C   UNL     1      45.953  10.482  22.337  1.00  0.00     0.053 C 
BRANCH  21  22
ATOM     22  C   UNL     1      45.157   9.332  21.806  1.00  0.00     0.041 C 
ATOM     23  O   UNL     1      45.616   8.160  21.871  1.00  0.00    -0.550 OA
ATOM     24  O   UNL     1      43.908   9.551  21.238  1.00  0.00    -0.550 OA
ENDBRANCH  21  22
ENDBRANCH  20  21
ENDBRANCH  19  20
ENDBRANCH  18  19
ENDBRANCH  17  18
ENDBRANCH  16  17
ENDBRANCH  15  16
ENDBRANCH  14  15
ENDBRANCH  13  14
ENDBRANCH   1  13
TORSDOF 20
ENDMDL
MODEL 6
REMARK VINA RESULT:    -3.799      1.188      5.802
REMARK INTER + INTRA:         -12.006
REMARK INTER:                  -8.895
REMARK INTRA:                  -3.111
REMARK UNBOUND:                -3.766
REMARK SMILES CCCCCCCCCCCCCCCCCCCCCC(=O)[O-]
REMARK SMILES IDX 12 1 11 2 10 3 9 4 8 5 7 6 6 7 5 8 4 9 3 10 2 11 1 12 13 13
REMARK SMILES IDX 14 14 15 15 16 16 17 17 18 18 19 19 20 20 21 21 22 22 23 23
REMARK SMILES IDX 24 24
REMARK H PARENT
REMARK Flexibility Score: inf
ROOT
ATOM      1  C   UNL     1      45.474  15.199  21.819  1.00  0.00     0.000 C 
ENDROOT
BRANCH   1   2
ATOM      2  C   UNL     1      45.478  14.455  23.164  1.00  0.00     0.000 C 
BRANCH   2   3
ATOM      3  C   UNL     1      45.596  12.929  23.001  1.00  0.00     0.000 C 
BRANCH   3   4
ATOM      4  C   UNL     1      45.410  12.445  21.546  1.00  0.00    -0.000 C 
BRANCH   4   5
ATOM      5  C   UNL     1      45.417  10.909  21.443  1.00  0.00    -0.000 C 
BRANCH   5   6
ATOM      6  C   UNL     1      44.066  10.283  21.831  1.00  0.00    -0.000 C 
BRANCH   6   7
ATOM      7  C   UNL     1      44.119   8.745  21.867  1.00  0.00    -0.000 C 
BRANCH   7   8
ATOM      8  C   UNL     1      45.306   8.215  22.687  1.00  0.00    -0.000 C 
BRANCH   8   9
ATOM      9  C   UNL     1      45.241   8.629  24.168  1.00  0.00    -0.000 C 
BRANCH   9  10
ATOM     10  C   UNL     1      43.830   8.442  24.764  1.00  0.00    -0.000 C 
BRANCH  10  11
ATOM     11  C   UNL     1      43.315   9.678  25.521  1.00  0.00    -0.003 C 
ATOM     12  C   UNL     1      44.399  10.727  25.761  1.00  0.00     0.004 C 
ENDBRANCH  10  11
ENDBRANCH   9  10
ENDBRANCH   8   9
ENDBRANCH   7   8
ENDBRANCH   6   7
ENDBRANCH   5   6
ENDBRANCH   4   5
ENDBRANCH   3   4
ENDBRANCH   2   3
ENDBRANCH   1   2
BRANCH   1  13
ATOM     13  C   UNL     1      44.542  16.421  21.821  1.00  0.00     0.000 C 
BRANCH  13  14
ATOM     14  C   UNL     1      43.495  16.377  20.695  1.00  0.00     0.000 C 
BRANCH  14  15
ATOM     15  C   UNL     1      42.049  16.384  21.225  1.00  0.00     0.000 C 
BRANCH  15  16
ATOM     16  C   UNL     1      41.858  15.544  22.505  1.00  0.00     0.000 C 
BRANCH  16  17
ATOM     17  C   UNL     1      41.261  14.157  22.207  1.00  0.00     0.000 C 
BRANCH  17  18
ATOM     18  C   UNL     1      41.983  13.024  22.957  1.00  0.00     0.000 C 
BRANCH  18  19
ATOM     19  C   UNL     1      42.060  13.201  24.486  1.00  0.00     0.000 C 
BRANCH  19  20
ATOM     20  C   UNL     1      40.702  13.188  25.213  1.00  0.00     0.006 C 
BRANCH  20  21
ATOM     21  C   UNL     1      40.237  11.773  25.583  1.00  0.00     0.053 C 
BRANCH  21  22
ATOM     22  C   UNL     1      39.106  11.823  26.562  1.00  0.00     0.041 C 
ATOM     23  O   UNL     1      38.410  10.796  26.780  1.00  0.00    -0.550 OA
ATOM     24  O   UNL     1      38.817  13.005  27.234  1.00  0.00    -0.550 OA
ENDBRANCH  21  22
ENDBRANCH  20  21
ENDBRANCH  19  20
ENDBRANCH  18  19
ENDBRANCH  17  18
ENDBRANCH  16  17
ENDBRANCH  15  16
ENDBRANCH  14  15
ENDBRANCH  13  14
ENDBRANCH   1  13
TORSDOF 20
ENDMDL
MODEL 7
REMARK VINA RESULT:    -3.783      2.816      6.332
REMARK INTER + INTRA:         -11.972
REMARK INTER:                  -9.094
REMARK INTRA:                  -2.878
REMARK UNBOUND:                -3.766
REMARK SMILES CCCCCCCCCCCCCCCCCCCCCC(=O)[O-]
REMARK SMILES IDX 12 1 11 2 10 3 9 4 8 5 7 6 6 7 5 8 4 9 3 10 2 11 1 12 13 13
REMARK SMILES IDX 14 14 15 15 16 16 17 17 18 18 19 19 20 20 21 21 22 22 23 23
REMARK SMILES IDX 24 24
REMARK H PARENT
REMARK Flexibility Score: inf
ROOT
ATOM      1  C   UNL     1      44.023   9.629  21.277  1.00  0.00     0.000 C 
ENDROOT
BRANCH   1   2
ATOM      2  C   UNL     1      44.198   8.180  21.758  1.00  0.00     0.000 C 
BRANCH   2   3
ATOM      3  C   UNL     1      45.621   7.888  22.266  1.00  0.00     0.000 C 
BRANCH   3   4
ATOM      4  C   UNL     1      45.756   7.957  23.803  1.00  0.00    -0.000 C 
BRANCH   4   5
ATOM      5  C   UNL     1      44.455   8.425  24.479  1.00  0.00    -0.000 C 
BRANCH   5   6
ATOM      6  C   UNL     1      44.452   8.173  25.996  1.00  0.00    -0.000 C 
BRANCH   6   7
ATOM      7  C   UNL     1      43.512   9.132  26.750  1.00  0.00    -0.000 C 
BRANCH   7   8
ATOM      8  C   UNL     1      42.725  10.052  25.803  1.00  0.00    -0.000 C 
BRANCH   8   9
ATOM      9  C   UNL     1      42.094  11.255  26.527  1.00  0.00    -0.000 C 
BRANCH   9  10
ATOM     10  C   UNL     1      40.559  11.288  26.372  1.00  0.00    -0.000 C 
BRANCH  10  11
ATOM     11  C   UNL     1      40.046  12.515  25.600  1.00  0.00    -0.003 C 
ATOM     12  C   UNL     1      40.716  13.818  26.035  1.00  0.00     0.004 C 
ENDBRANCH  10  11
ENDBRANCH   9  10
ENDBRANCH   8   9
ENDBRANCH   7   8
ENDBRANCH   6   7
ENDBRANCH   5   6
ENDBRANCH   4   5
ENDBRANCH   3   4
ENDBRANCH   2   3
ENDBRANCH   1   2
BRANCH   1  13
ATOM     13  C   UNL     1      45.361  10.364  21.108  1.00  0.00     0.000 C 
BRANCH  13  14
ATOM     14  C   UNL     1      45.371  11.752  21.771  1.00  0.00     0.000 C 
BRANCH  14  15
ATOM     15  C   UNL     1      44.597  11.782  23.101  1.00  0.00     0.000 C 
BRANCH  15  16
ATOM     16  C   UNL     1      43.663  13.003  23.243  1.00  0.00     0.000 C 
BRANCH  16  17
ATOM     17  C   UNL     1      42.236  12.706  22.750  1.00  0.00     0.000 C 
BRANCH  17  18
ATOM     18  C   UNL     1      41.435  13.982  22.440  1.00  0.00     0.000 C 
BRANCH  18  19
ATOM     19  C   UNL     1      42.222  15.299  22.595  1.00  0.00     0.000 C 
BRANCH  19  20
ATOM     20  C   UNL     1      41.995  16.329  21.474  1.00  0.00     0.006 C 
BRANCH  20  21
ATOM     21  C   UNL     1      43.093  16.298  20.403  1.00  0.00     0.053 C 
BRANCH  21  22
ATOM     22  C   UNL     1      44.449  16.224  21.033  1.00  0.00     0.041 C 
ATOM     23  O   UNL     1      45.163  15.197  20.881  1.00  0.00    -0.550 OA
ATOM     24  O   UNL     1      44.925  17.287  21.791  1.00  0.00    -0.550 OA
ENDBRANCH  21  22
ENDBRANCH  20  21
ENDBRANCH  19  20
ENDBRANCH  18  19
ENDBRANCH  17  18
ENDBRANCH  16  17
ENDBRANCH  15  16
ENDBRANCH  14  15
ENDBRANCH  13  14
ENDBRANCH   1  13
TORSDOF 20
ENDMDL
MODEL 8
REMARK VINA RESULT:    -3.769      1.843      6.260
REMARK INTER + INTRA:         -11.941
REMARK INTER:                  -8.866
REMARK INTRA:                  -3.075
REMARK UNBOUND:                -3.766
REMARK SMILES CCCCCCCCCCCCCCCCCCCCCC(=O)[O-]
REMARK SMILES IDX 12 1 11 2 10 3 9 4 8 5 7 6 6 7 5 8 4 9 3 10 2 11 1 12 13 13
REMARK SMILES IDX 14 14 15 15 16 16 17 17 18 18 19 19 20 20 21 21 22 22 23 23
REMARK SMILES IDX 24 24
REMARK H PARENT
REMARK Flexibility Score: inf
ROOT
ATOM      1  C   UNL     1      44.499  11.556  21.892  1.00  0.00     0.000 C 
ENDROOT
BRANCH   1   2
ATOM      2  C   UNL     1      45.448  10.532  21.250  1.00  0.00     0.000 C 
BRANCH   2   3
ATOM      3  C   UNL     1      44.719   9.270  20.757  1.00  0.00     0.000 C 
BRANCH   3   4
ATOM      4  C   UNL     1      44.522   8.199  21.852  1.00  0.00    -0.000 C 
BRANCH   4   5
ATOM      5  C   UNL     1      45.784   8.014  22.714  1.00  0.00    -0.000 C 
BRANCH   5   6
ATOM      6  C   UNL     1      45.560   8.408  24.184  1.00  0.00    -0.000 C 
BRANCH   6   7
ATOM      7  C   UNL     1      44.103   8.816  24.469  1.00  0.00    -0.000 C 
BRANCH   7   8
ATOM      8  C   UNL     1      43.853   9.111  25.956  1.00  0.00    -0.000 C 
BRANCH   8   9
ATOM      9  C   UNL     1      43.281  10.520  26.198  1.00  0.00    -0.000 C 
BRANCH   9  10
ATOM     10  C   UNL     1      42.341  10.970  25.059  1.00  0.00    -0.000 C 
BRANCH  10  11
ATOM     11  C   UNL     1      41.021  11.581  25.558  1.00  0.00    -0.003 C 
ATOM     12  C   UNL     1      40.103  10.557  26.224  1.00  0.00     0.004 C 
ENDBRANCH  10  11
ENDBRANCH   9  10
ENDBRANCH   8   9
ENDBRANCH   7   8
ENDBRANCH   6   7
ENDBRANCH   5   6
ENDBRANCH   4   5
ENDBRANCH   3   4
ENDBRANCH   2   3
ENDBRANCH   1   2
BRANCH   1  13
ATOM     13  C   UNL     1      45.138  12.292  23.080  1.00  0.00     0.000 C 
BRANCH  13  14
ATOM     14  C   UNL     1      46.059  13.445  22.645  1.00  0.00     0.000 C 
BRANCH  14  15
ATOM     15  C   UNL     1      45.596  14.118  21.341  1.00  0.00     0.000 C 
BRANCH  15  16
ATOM     16  C   UNL     1      45.759  15.652  21.347  1.00  0.00     0.000 C 
BRANCH  16  17
ATOM     17  C   UNL     1      44.549  16.364  21.977  1.00  0.00     0.000 C 
BRANCH  17  18
ATOM     18  C   UNL     1      43.326  16.399  21.044  1.00  0.00     0.000 C 
BRANCH  18  19
ATOM     19  C   UNL     1      42.002  15.943  21.688  1.00  0.00     0.000 C 
BRANCH  19  20
ATOM     20  C   UNL     1      42.115  14.714  22.609  1.00  0.00     0.006 C 
BRANCH  20  21
ATOM     21  C   UNL     1      41.464  14.935  23.981  1.00  0.00     0.053 C 
BRANCH  21  22
ATOM     22  C   UNL     1      42.497  15.260  25.014  1.00  0.00     0.041 C 
ATOM     23  O   UNL     1      42.442  16.349  25.645  1.00  0.00    -0.550 OA
ATOM     24  O   UNL     1      43.524  14.361  25.280  1.00  0.00    -0.550 OA
ENDBRANCH  21  22
ENDBRANCH  20  21
ENDBRANCH  19  20
ENDBRANCH  18  19
ENDBRANCH  17  18
ENDBRANCH  16  17
ENDBRANCH  15  16
ENDBRANCH  14  15
ENDBRANCH  13  14
ENDBRANCH   1  13
TORSDOF 20
ENDMDL
MODEL 9
REMARK VINA RESULT:    -3.750      4.613      8.070
REMARK INTER + INTRA:         -11.900
REMARK INTER:                  -8.397
REMARK INTRA:                  -3.503
REMARK UNBOUND:                -3.766
REMARK SMILES CCCCCCCCCCCCCCCCCCCCCC(=O)[O-]
REMARK SMILES IDX 12 1 11 2 10 3 9 4 8 5 7 6 6 7 5 8 4 9 3 10 2 11 1 12 13 13
REMARK SMILES IDX 14 14 15 15 16 16 17 17 18 18 19 19 20 20 21 21 22 22 23 23
REMARK SMILES IDX 24 24
REMARK H PARENT
REMARK Flexibility Score: inf
ROOT
ATOM      1  C   UNL     1      36.703  10.670  26.161  1.00  0.00     0.000 C 
ENDROOT
BRANCH   1   2
ATOM      2  C   UNL     1      38.099  11.305  26.262  1.00  0.00     0.000 C 
BRANCH   2   3
ATOM      3  C   UNL     1      39.226  10.259  26.322  1.00  0.00     0.000 C 
BRANCH   3   4
ATOM      4  C   UNL     1      40.262  10.527  27.435  1.00  0.00    -0.000 C 
BRANCH   4   5
ATOM      5  C   UNL     1      39.658  11.316  28.611  1.00  0.00    -0.000 C 
BRANCH   5   6
ATOM      6  C   UNL     1      40.321  12.690  28.806  1.00  0.00    -0.000 C 
BRANCH   6   7
ATOM      7  C   UNL     1      39.365  13.855  28.493  1.00  0.00    -0.000 C 
BRANCH   7   8
ATOM      8  C   UNL     1      39.814  14.676  27.274  1.00  0.00    -0.000 C 
BRANCH   8   9
ATOM      9  C   UNL     1      41.136  14.172  26.669  1.00  0.00    -0.000 C 
BRANCH   9  10
ATOM     10  C   UNL     1      41.224  14.446  25.152  1.00  0.00    -0.000 C 
BRANCH  10  11
ATOM     11  C   UNL     1      40.916  13.214  24.286  1.00  0.00    -0.003 C 
ATOM     12  C   UNL     1      41.078  13.480  22.790  1.00  0.00     0.004 C 
ENDBRANCH  10  11
ENDBRANCH   9  10
ENDBRANCH   8   9
ENDBRANCH   7   8
ENDBRANCH   6   7
ENDBRANCH   5   6
ENDBRANCH   4   5
ENDBRANCH   3   4
ENDBRANCH   2   3
ENDBRANCH   1   2
BRANCH   1  13
ATOM     13  C   UNL     1      36.736   9.140  26.295  1.00  0.00     0.000 C 
BRANCH  13  14
ATOM     14  C   UNL     1      35.395   8.551  26.767  1.00  0.00     0.000 C 
BRANCH  14  15
ATOM     15  C   UNL     1      35.177   8.706  28.282  1.00  0.00     0.000 C 
BRANCH  15  16
ATOM     16  C   UNL     1      34.031   9.674  28.644  1.00  0.00     0.000 C 
BRANCH  16  17
ATOM     17  C   UNL     1      34.392  10.587  29.830  1.00  0.00     0.000 C 
BRANCH  17  18
ATOM     18  C   UNL     1      35.899  10.885  29.916  1.00  0.00     0.000 C 
BRANCH  18  19
ATOM     19  C   UNL     1      36.279  12.370  29.756  1.00  0.00     0.000 C 
BRANCH  19  20
ATOM     20  C   UNL     1      35.185  13.260  29.139  1.00  0.00     0.006 C 
BRANCH  20  21
ATOM     21  C   UNL     1      35.680  14.059  27.925  1.00  0.00     0.053 C 
BRANCH  21  22
ATOM     22  C   UNL     1      35.413  15.521  28.105  1.00  0.00     0.041 C 
ATOM     23  O   UNL     1      35.795  16.111  29.150  1.00  0.00    -0.550 OA
ATOM     24  O   UNL     1      34.738  16.232  27.120  1.00  0.00    -0.550 OA
ENDBRANCH  21  22
ENDBRANCH  20  21
ENDBRANCH  19  20
ENDBRANCH  18  19
ENDBRANCH  17  18
ENDBRANCH  16  17
ENDBRANCH  15  16
ENDBRANCH  14  15
ENDBRANCH  13  14
ENDBRANCH   1  13
TORSDOF 20
ENDMDL
