MODEL 1
REMARK VINA RESULT:    -5.339      0.000      0.000
REMARK INTER + INTRA:          -6.057
REMARK INTER:                  -5.807
REMARK INTRA:                  -0.251
REMARK UNBOUND:                -0.251
REMARK SMILES O=C([O-])c1ccccc1O
REMARK SMILES IDX 4 1 9 2 5 3 8 4 6 5 7 6 2 7 1 8 3 9 10 10
REMARK H PARENT 10 11
REMARK Flexibility Score: inf
ROOT
ATOM      1  C   UNL     1      12.491   0.623  25.609  1.00  0.00     0.039 A 
ATOM      2  C   UNL     1      13.263  -0.261  26.400  1.00  0.00     0.124 A 
ATOM      3  C   UNL     1      13.118   1.745  25.036  1.00  0.00     0.014 A 
ATOM      4  C   UNL     1      14.629  -0.008  26.599  1.00  0.00     0.047 A 
ATOM      5  C   UNL     1      14.479   1.984  25.242  1.00  0.00     0.001 A 
ATOM      6  C   UNL     1      15.233   1.109  26.023  1.00  0.00     0.004 A 
ENDROOT
BRANCH   1   7
ATOM      7  C   UNL     1      11.042   0.401  25.369  1.00  0.00     0.075 C 
ATOM      8  O   UNL     1      10.261   0.121  26.317  1.00  0.00    -0.545 OA
ATOM      9  O   UNL     1      10.521   0.500  24.084  1.00  0.00    -0.545 OA
ENDBRANCH   1   7
BRANCH   2  10
ATOM     10  O   UNL     1      12.682  -1.385  26.988  1.00  0.00    -0.507 OA
ATOM     11  H   UNL     1      12.757  -1.564  27.982  1.00  0.00     0.293 HD
ENDBRANCH   2  10
TORSDOF 2
ENDMDL
MODEL 2
REMARK VINA RESULT:    -5.247      2.021      2.842
REMARK INTER + INTRA:          -5.958
REMARK INTER:                  -5.754
REMARK INTRA:                  -0.203
REMARK UNBOUND:                -0.251
REMARK SMILES O=C([O-])c1ccccc1O
REMARK SMILES IDX 4 1 9 2 5 3 8 4 6 5 7 6 2 7 1 8 3 9 10 10
REMARK H PARENT 10 11
REMARK Flexibility Score: inf
ROOT
ATOM      1  C   UNL     1      12.986  -0.117  27.292  1.00  0.00     0.039 A 
ATOM      2  C   UNL     1      13.881  -1.194  27.085  1.00  0.00     0.124 A 
ATOM      3  C   UNL     1      12.946   0.499  28.558  1.00  0.00     0.014 A 
ATOM      4  C   UNL     1      14.707  -1.627  28.133  1.00  0.00     0.047 A 
ATOM      5  C   UNL     1      13.775   0.057  29.592  1.00  0.00     0.001 A 
ATOM      6  C   UNL     1      14.653  -1.004  29.380  1.00  0.00     0.004 A 
ENDROOT
BRANCH   1   7
ATOM      7  C   UNL     1      12.090   0.380  26.216  1.00  0.00     0.075 C 
ATOM      8  O   UNL     1      12.556   0.957  25.198  1.00  0.00    -0.545 OA
ATOM      9  O   UNL     1      10.714   0.217  26.319  1.00  0.00    -0.545 OA
ENDBRANCH   1   7
BRANCH   2  10
ATOM     10  O   UNL     1      13.953  -1.833  25.847  1.00  0.00    -0.507 OA
ATOM     11  H   UNL     1      13.177  -1.823  25.197  1.00  0.00     0.293 HD
ENDBRANCH   2  10
TORSDOF 2
ENDMDL
MODEL 3
REMARK VINA RESULT:    -5.204      2.480      3.499
REMARK INTER + INTRA:          -5.911
REMARK INTER:                  -5.668
REMARK INTRA:                  -0.243
REMARK UNBOUND:                -0.251
REMARK SMILES O=C([O-])c1ccccc1O
REMARK SMILES IDX 4 1 9 2 5 3 8 4 6 5 7 6 2 7 1 8 3 9 10 10
REMARK H PARENT 10 11
REMARK Flexibility Score: inf
ROOT
ATOM      1  C   UNL     1      13.470   1.357  25.540  1.00  0.00     0.039 A 
ATOM      2  C   UNL     1      13.701   0.528  26.664  1.00  0.00     0.124 A 
ATOM      3  C   UNL     1      12.240   1.254  24.862  1.00  0.00     0.014 A 
ATOM      4  C   UNL     1      12.711  -0.375  27.082  1.00  0.00     0.047 A 
ATOM      5  C   UNL     1      11.264   0.350  25.290  1.00  0.00     0.001 A 
ATOM      6  C   UNL     1      11.499  -0.462  26.397  1.00  0.00     0.004 A 
ENDROOT
BRANCH   1   7
ATOM      7  C   UNL     1      14.484   2.328  25.057  1.00  0.00     0.075 C 
ATOM      8  O   UNL     1      14.141   3.445  24.585  1.00  0.00    -0.545 OA
ATOM      9  O   UNL     1      15.837   2.016  25.115  1.00  0.00    -0.545 OA
ENDBRANCH   1   7
BRANCH   2  10
ATOM     10  O   UNL     1      14.905   0.596  27.365  1.00  0.00    -0.507 OA
ATOM     11  H   UNL     1      15.308   1.482  27.644  1.00  0.00     0.293 HD
ENDBRANCH   2  10
TORSDOF 2
ENDMDL
MODEL 4
REMARK VINA RESULT:    -5.181      1.438      3.386
REMARK INTER + INTRA:          -5.886
REMARK INTER:                  -5.658
REMARK INTRA:                  -0.228
REMARK UNBOUND:                -0.251
REMARK SMILES O=C([O-])c1ccccc1O
REMARK SMILES IDX 4 1 9 2 5 3 8 4 6 5 7 6 2 7 1 8 3 9 10 10
REMARK H PARENT 10 11
REMARK Flexibility Score: inf
ROOT
ATOM      1  C   UNL     1      14.347  -0.296  26.429  1.00  0.00     0.039 A 
ATOM      2  C   UNL     1      12.949  -0.179  26.239  1.00  0.00     0.124 A 
ATOM      3  C   UNL     1      15.189   0.706  25.912  1.00  0.00     0.014 A 
ATOM      4  C   UNL     1      12.429   0.923  25.544  1.00  0.00     0.047 A 
ATOM      5  C   UNL     1      14.657   1.798  25.222  1.00  0.00     0.001 A 
ATOM      6  C   UNL     1      13.279   1.906  25.038  1.00  0.00     0.004 A 
ENDROOT
BRANCH   1   7
ATOM      7  C   UNL     1      14.949  -1.443  27.157  1.00  0.00     0.075 C 
ATOM      8  O   UNL     1      14.680  -1.657  28.369  1.00  0.00    -0.545 OA
ATOM      9  O   UNL     1      15.826  -2.304  26.507  1.00  0.00    -0.545 OA
ENDBRANCH   1   7
BRANCH   2  10
ATOM     10  O   UNL     1      12.078  -1.150  26.734  1.00  0.00    -0.507 OA
ATOM     11  H   UNL     1      11.352  -0.921  27.403  1.00  0.00     0.293 HD
ENDBRANCH   2  10
TORSDOF 2
ENDMDL
MODEL 5
REMARK VINA RESULT:    -5.177      1.399      2.214
REMARK INTER + INTRA:          -5.882
REMARK INTER:                  -5.667
REMARK INTRA:                  -0.215
REMARK UNBOUND:                -0.251
REMARK SMILES O=C([O-])c1ccccc1O
REMARK SMILES IDX 4 1 9 2 5 3 8 4 6 5 7 6 2 7 1 8 3 9 10 10
REMARK H PARENT 10 11
REMARK Flexibility Score: inf
ROOT
ATOM      1  C   UNL     1      12.541   0.035  25.799  1.00  0.00     0.039 A 
ATOM      2  C   UNL     1      13.570   1.008  25.789  1.00  0.00     0.124 A 
ATOM      3  C   UNL     1      12.846  -1.271  26.229  1.00  0.00     0.014 A 
ATOM      4  C   UNL     1      14.864   0.660  26.203  1.00  0.00     0.047 A 
ATOM      5  C   UNL     1      14.139  -1.602  26.638  1.00  0.00     0.001 A 
ATOM      6  C   UNL     1      15.147  -0.639  26.626  1.00  0.00     0.004 A 
ENDROOT
BRANCH   1   7
ATOM      7  C   UNL     1      11.155   0.351  25.369  1.00  0.00     0.075 C 
ATOM      8  O   UNL     1      10.191   0.277  26.177  1.00  0.00    -0.545 OA
ATOM      9  O   UNL     1      10.897   0.735  24.058  1.00  0.00    -0.545 OA
ENDBRANCH   1   7
BRANCH   2  10
ATOM     10  O   UNL     1      13.312   2.314  25.370  1.00  0.00    -0.507 OA
ATOM     11  H   UNL     1      14.017   3.039  25.426  1.00  0.00     0.293 HD
ENDBRANCH   2  10
TORSDOF 2
ENDMDL
MODEL 6
REMARK VINA RESULT:    -5.168      2.938      4.456
REMARK INTER + INTRA:          -5.871
REMARK INTER:                  -5.645
REMARK INTRA:                  -0.226
REMARK UNBOUND:                -0.251
REMARK SMILES O=C([O-])c1ccccc1O
REMARK SMILES IDX 4 1 9 2 5 3 8 4 6 5 7 6 2 7 1 8 3 9 10 10
REMARK H PARENT 10 11
REMARK Flexibility Score: inf
ROOT
ATOM      1  C   UNL     1      14.181  -0.414  28.694  1.00  0.00     0.039 A 
ATOM      2  C   UNL     1      14.163   0.255  27.446  1.00  0.00     0.124 A 
ATOM      3  C   UNL     1      14.699  -1.721  28.757  1.00  0.00     0.014 A 
ATOM      4  C   UNL     1      14.657  -0.389  26.302  1.00  0.00     0.047 A 
ATOM      5  C   UNL     1      15.188  -2.350  27.609  1.00  0.00     0.001 A 
ATOM      6  C   UNL     1      15.167  -1.685  26.384  1.00  0.00     0.004 A 
ENDROOT
BRANCH   1   7
ATOM      7  C   UNL     1      13.669   0.223  29.935  1.00  0.00     0.075 C 
ATOM      8  O   UNL     1      12.739   1.072  29.894  1.00  0.00    -0.545 OA
ATOM      9  O   UNL     1      14.212  -0.111  31.170  1.00  0.00    -0.545 OA
ENDBRANCH   1   7
BRANCH   2  10
ATOM     10  O   UNL     1      13.657   1.551  27.338  1.00  0.00    -0.507 OA
ATOM     11  H   UNL     1      12.767   1.739  26.893  1.00  0.00     0.293 HD
ENDBRANCH   2  10
TORSDOF 2
ENDMDL
MODEL 7
REMARK VINA RESULT:    -5.070      2.758      4.187
REMARK INTER + INTRA:          -5.765
REMARK INTER:                  -5.524
REMARK INTRA:                  -0.241
REMARK UNBOUND:                -0.251
REMARK SMILES O=C([O-])c1ccccc1O
REMARK SMILES IDX 4 1 9 2 5 3 8 4 6 5 7 6 2 7 1 8 3 9 10 10
REMARK H PARENT 10 11
REMARK Flexibility Score: inf
ROOT
ATOM      1  C   UNL     1      13.974  -0.762  27.996  1.00  0.00     0.039 A 
ATOM      2  C   UNL     1      13.044   0.286  28.200  1.00  0.00     0.124 A 
ATOM      3  C   UNL     1      14.731  -1.221  29.092  1.00  0.00     0.014 A 
ATOM      4  C   UNL     1      12.892   0.846  29.477  1.00  0.00     0.047 A 
ATOM      5  C   UNL     1      14.569  -0.652  30.358  1.00  0.00     0.001 A 
ATOM      6  C   UNL     1      13.651   0.379  30.550  1.00  0.00     0.004 A 
ENDROOT
BRANCH   1   7
ATOM      7  C   UNL     1      14.173  -1.389  26.665  1.00  0.00     0.075 C 
ATOM      8  O   UNL     1      13.202  -1.587  25.887  1.00  0.00    -0.545 OA
ATOM      9  O   UNL     1      15.444  -1.773  26.254  1.00  0.00    -0.545 OA
ENDBRANCH   1   7
BRANCH   2  10
ATOM     10  O   UNL     1      12.274   0.771  27.143  1.00  0.00    -0.507 OA
ATOM     11  H   UNL     1      11.563   1.479  27.284  1.00  0.00     0.293 HD
ENDBRANCH   2  10
TORSDOF 2
ENDMDL
MODEL 8
REMARK VINA RESULT:    -5.065      2.711      3.871
REMARK INTER + INTRA:          -5.759
REMARK INTER:                  -5.675
REMARK INTRA:                  -0.084
REMARK UNBOUND:                -0.251
REMARK SMILES O=C([O-])c1ccccc1O
REMARK SMILES IDX 4 1 9 2 5 3 8 4 6 5 7 6 2 7 1 8 3 9 10 10
REMARK H PARENT 10 11
REMARK Flexibility Score: inf
ROOT
ATOM      1  C   UNL     1      13.900  -0.625  26.625  1.00  0.00     0.039 A 
ATOM      2  C   UNL     1      14.336   0.667  26.245  1.00  0.00     0.124 A 
ATOM      3  C   UNL     1      12.611  -1.046  26.247  1.00  0.00     0.014 A 
ATOM      4  C   UNL     1      13.485   1.501  25.504  1.00  0.00     0.047 A 
ATOM      5  C   UNL     1      11.775  -0.204  25.509  1.00  0.00     0.001 A 
ATOM      6  C   UNL     1      12.211   1.066  25.138  1.00  0.00     0.004 A 
ENDROOT
BRANCH   1   7
ATOM      7  C   UNL     1      14.761  -1.546  27.411  1.00  0.00     0.075 C 
ATOM      8  O   UNL     1      14.747  -1.533  28.671  1.00  0.00    -0.545 OA
ATOM      9  O   UNL     1      15.603  -2.443  26.763  1.00  0.00    -0.545 OA
ENDBRANCH   1   7
BRANCH   2  10
ATOM     10  O   UNL     1      15.605   1.125  26.599  1.00  0.00    -0.507 OA
ATOM     11  H   UNL     1      16.322   0.495  26.940  1.00  0.00     0.293 HD
ENDBRANCH   2  10
TORSDOF 2
ENDMDL
MODEL 9
REMARK VINA RESULT:    -5.014      7.636      8.851
REMARK INTER + INTRA:          -5.704
REMARK INTER:                  -5.451
REMARK INTRA:                  -0.253
REMARK UNBOUND:                -0.251
REMARK SMILES O=C([O-])c1ccccc1O
REMARK SMILES IDX 4 1 9 2 5 3 8 4 6 5 7 6 2 7 1 8 3 9 10 10
REMARK H PARENT 10 11
REMARK Flexibility Score: inf
ROOT
ATOM      1  C   UNL     1      11.224   6.926  21.295  1.00  0.00     0.039 A 
ATOM      2  C   UNL     1       9.843   6.977  20.989  1.00  0.00     0.124 A 
ATOM      3  C   UNL     1      11.822   5.672  21.527  1.00  0.00     0.014 A 
ATOM      4  C   UNL     1       9.098   5.790  20.922  1.00  0.00     0.047 A 
ATOM      5  C   UNL     1      11.068   4.499  21.457  1.00  0.00     0.001 A 
ATOM      6  C   UNL     1       9.708   4.557  21.155  1.00  0.00     0.004 A 
ENDROOT
BRANCH   1   7
ATOM      7  C   UNL     1      12.057   8.152  21.379  1.00  0.00     0.075 C 
ATOM      8  O   UNL     1      13.208   8.192  20.867  1.00  0.00    -0.545 OA
ATOM      9  O   UNL     1      11.577   9.283  22.029  1.00  0.00    -0.545 OA
ENDBRANCH   1   7
BRANCH   2  10
ATOM     10  O   UNL     1       9.209   8.197  20.752  1.00  0.00    -0.507 OA
ATOM     11  H   UNL     1       8.449   8.282  20.088  1.00  0.00     0.293 HD
ENDBRANCH   2  10
TORSDOF 2
ENDMDL
