MODEL 1
REMARK VINA RESULT:    -4.509      0.000      0.000
REMARK INTER + INTRA:          -6.565
REMARK INTER:                  -6.090
REMARK INTRA:                  -0.475
REMARK UNBOUND:                -0.475
REMARK SMILES O=C[C@H](O)[C@H](O)[C@@H](O)CO
REMARK SMILES IDX 7 1 9 2 10 3 5 5 3 6 2 7 1 8 4 9 6 11 8 13
REMARK H PARENT 10 4 4 10 6 12 8 14
REMARK Flexibility Score: inf
ROOT
ATOM      1  C   UNL     1       0.529 -46.364 -14.285  1.00  0.00     0.171 C 
ENDROOT
BRANCH   1   2
ATOM      2  C   UNL     1       0.035 -47.791 -14.592  1.00  0.00     0.190 C 
BRANCH   2   3
ATOM      3  O   UNL     1      -1.335 -47.931 -14.330  1.00  0.00    -0.394 OA
ATOM      4  H   UNL     1      -1.690 -47.022 -14.148  1.00  0.00     0.210 HD
ENDBRANCH   2   3
ENDBRANCH   1   2
BRANCH   1   5
ATOM      5  C   UNL     1       0.959 -45.547 -15.537  1.00  0.00     0.181 C 
BRANCH   5   6
ATOM      6  C   UNL     1       0.469 -44.073 -15.553  1.00  0.00     0.209 C 
BRANCH   6   7
ATOM      7  C   UNL     1       0.502 -43.450 -16.924  1.00  0.00     0.258 C 
ATOM      8  O   UNL     1       1.533 -43.425 -17.578  1.00  0.00    -0.300 OA
ENDBRANCH   6   7
BRANCH   6   9
ATOM      9  O   UNL     1       1.273 -43.297 -14.702  1.00  0.00    -0.383 OA
ATOM     10  H   UNL     1       2.217 -43.540 -14.894  1.00  0.00     0.211 HD
ENDBRANCH   6   9
ENDBRANCH   5   6
BRANCH   5  11
ATOM     11  O   UNL     1       0.573 -46.207 -16.718  1.00  0.00    -0.387 OA
ATOM     12  H   UNL     1       0.094 -45.542 -17.280  1.00  0.00     0.211 HD
ENDBRANCH   5  11
ENDBRANCH   1   5
BRANCH   1  13
ATOM     13  O   UNL     1      -0.445 -45.669 -13.549  1.00  0.00    -0.388 OA
ATOM     14  H   UNL     1      -0.166 -45.699 -12.597  1.00  0.00     0.211 HD
ENDBRANCH   1  13
TORSDOF 8
ENDMDL
MODEL 2
REMARK VINA RESULT:    -4.179      2.763      4.567
REMARK INTER + INTRA:          -6.119
REMARK INTER:                  -5.617
REMARK INTRA:                  -0.502
REMARK UNBOUND:                -0.475
REMARK SMILES O=C[C@H](O)[C@H](O)[C@@H](O)CO
REMARK SMILES IDX 7 1 9 2 10 3 5 5 3 6 2 7 1 8 4 9 6 11 8 13
REMARK H PARENT 10 4 4 10 6 12 8 14
REMARK Flexibility Score: inf
ROOT
ATOM      1  C   UNL     1      -0.764 -44.612 -19.463  1.00  0.00     0.171 C 
ENDROOT
BRANCH   1   2
ATOM      2  C   UNL     1      -1.908 -43.992 -20.289  1.00  0.00     0.190 C 
BRANCH   2   3
ATOM      3  O   UNL     1      -2.729 -43.174 -19.499  1.00  0.00    -0.394 OA
ATOM      4  H   UNL     1      -3.537 -43.705 -19.274  1.00  0.00     0.210 HD
ENDBRANCH   2   3
ENDBRANCH   1   2
BRANCH   1   5
ATOM      5  C   UNL     1      -0.317 -43.763 -18.240  1.00  0.00     0.181 C 
BRANCH   5   6
ATOM      6  C   UNL     1       1.165 -43.959 -17.814  1.00  0.00     0.209 C 
BRANCH   6   7
ATOM      7  C   UNL     1       1.326 -44.287 -16.353  1.00  0.00     0.258 C 
ATOM      8  O   UNL     1       1.195 -43.424 -15.498  1.00  0.00    -0.300 OA
ENDBRANCH   6   7
BRANCH   6   9
ATOM      9  O   UNL     1       1.894 -42.790 -18.083  1.00  0.00    -0.383 OA
ATOM     10  H   UNL     1       1.234 -42.058 -18.201  1.00  0.00     0.211 HD
ENDBRANCH   6   9
ENDBRANCH   5   6
BRANCH   5  11
ATOM     11  O   UNL     1      -1.175 -43.975 -17.146  1.00  0.00    -0.387 OA
ATOM     12  H   UNL     1      -2.047 -43.556 -17.373  1.00  0.00     0.211 HD
ENDBRANCH   5  11
ENDBRANCH   1   5
BRANCH   1  13
ATOM     13  O   UNL     1      -1.114 -45.913 -19.063  1.00  0.00    -0.388 OA
ATOM     14  H   UNL     1      -1.661 -46.304 -19.793  1.00  0.00     0.211 HD
ENDBRANCH   1  13
TORSDOF 8
ENDMDL
MODEL 3
REMARK VINA RESULT:    -4.155      1.355      2.161
REMARK INTER + INTRA:          -6.088
REMARK INTER:                  -5.648
REMARK INTRA:                  -0.440
REMARK UNBOUND:                -0.475
REMARK SMILES O=C[C@H](O)[C@H](O)[C@@H](O)CO
REMARK SMILES IDX 7 1 9 2 10 3 5 5 3 6 2 7 1 8 4 9 6 11 8 13
REMARK H PARENT 10 4 4 10 6 12 8 14
REMARK Flexibility Score: inf
ROOT
ATOM      1  C   UNL     1       0.014 -48.173 -14.807  1.00  0.00     0.171 C 
ENDROOT
BRANCH   1   2
ATOM      2  C   UNL     1      -0.207 -49.379 -15.740  1.00  0.00     0.190 C 
BRANCH   2   3
ATOM      3  O   UNL     1      -1.440 -49.300 -16.404  1.00  0.00    -0.394 OA
ATOM      4  H   UNL     1      -1.754 -48.361 -16.322  1.00  0.00     0.210 HD
ENDBRANCH   2   3
ENDBRANCH   1   2
BRANCH   1   5
ATOM      5  C   UNL     1       0.772 -46.983 -15.460  1.00  0.00     0.181 C 
BRANCH   5   6
ATOM      6  C   UNL     1       0.510 -45.601 -14.801  1.00  0.00     0.209 C 
BRANCH   6   7
ATOM      7  C   UNL     1       1.572 -44.580 -15.114  1.00  0.00     0.258 C 
ATOM      8  O   UNL     1       1.434 -43.410 -14.792  1.00  0.00    -0.300 OA
ENDBRANCH   6   7
BRANCH   6   9
ATOM      9  O   UNL     1       0.442 -45.746 -13.406  1.00  0.00    -0.383 OA
ATOM     10  H   UNL     1       1.107 -45.119 -13.017  1.00  0.00     0.211 HD
ENDBRANCH   6   9
ENDBRANCH   5   6
BRANCH   5  11
ATOM     11  O   UNL     1       0.514 -46.926 -16.842  1.00  0.00    -0.387 OA
ATOM     12  H   UNL     1       1.372 -47.114 -17.307  1.00  0.00     0.211 HD
ENDBRANCH   5  11
ENDBRANCH   1   5
BRANCH   1  13
ATOM     13  O   UNL     1      -1.216 -47.747 -14.277  1.00  0.00    -0.388 OA
ATOM     14  H   UNL     1      -1.774 -48.558 -14.150  1.00  0.00     0.211 HD
ENDBRANCH   1  13
TORSDOF 8
ENDMDL
MODEL 4
REMARK VINA RESULT:    -4.135      1.346      2.083
REMARK INTER + INTRA:          -6.061
REMARK INTER:                  -5.751
REMARK INTRA:                  -0.310
REMARK UNBOUND:                -0.475
REMARK SMILES O=C[C@H](O)[C@H](O)[C@@H](O)CO
REMARK SMILES IDX 7 1 9 2 10 3 5 5 3 6 2 7 1 8 4 9 6 11 8 13
REMARK H PARENT 10 4 4 10 6 12 8 14
REMARK Flexibility Score: inf
ROOT
ATOM      1  C   UNL     1       1.336 -44.869 -15.395  1.00  0.00     0.171 C 
ENDROOT
BRANCH   1   2
ATOM      2  C   UNL     1       0.617 -45.794 -14.394  1.00  0.00     0.190 C 
BRANCH   2   3
ATOM      3  O   UNL     1      -0.473 -45.152 -13.789  1.00  0.00    -0.394 OA
ATOM      4  H   UNL     1      -1.181 -45.837 -13.665  1.00  0.00     0.210 HD
ENDBRANCH   2   3
ENDBRANCH   1   2
BRANCH   1   5
ATOM      5  C   UNL     1       0.891 -45.051 -16.874  1.00  0.00     0.181 C 
BRANCH   5   6
ATOM      6  C   UNL     1      -0.199 -44.054 -17.355  1.00  0.00     0.209 C 
BRANCH   6   7
ATOM      7  C   UNL     1       0.359 -42.720 -17.778  1.00  0.00     0.258 C 
ATOM      8  O   UNL     1       1.547 -42.587 -18.028  1.00  0.00    -0.300 OA
ENDBRANCH   6   7
BRANCH   6   9
ATOM      9  O   UNL     1      -1.126 -43.832 -16.324  1.00  0.00    -0.383 OA
ATOM     10  H   UNL     1      -2.005 -44.161 -16.649  1.00  0.00     0.211 HD
ENDBRANCH   6   9
ENDBRANCH   5   6
BRANCH   5  11
ATOM     11  O   UNL     1       0.485 -46.376 -17.113  1.00  0.00    -0.387 OA
ATOM     12  H   UNL     1      -0.075 -46.366 -17.934  1.00  0.00     0.211 HD
ENDBRANCH   5  11
ENDBRANCH   1   5
BRANCH   1  13
ATOM     13  O   UNL     1       1.195 -43.529 -14.996  1.00  0.00    -0.388 OA
ATOM     14  H   UNL     1       1.826 -43.382 -14.244  1.00  0.00     0.211 HD
ENDBRANCH   1  13
TORSDOF 8
ENDMDL
MODEL 5
REMARK VINA RESULT:    -4.125     13.722     14.440
REMARK INTER + INTRA:          -6.046
REMARK INTER:                  -5.362
REMARK INTRA:                  -0.685
REMARK UNBOUND:                -0.475
REMARK SMILES O=C[C@H](O)[C@H](O)[C@@H](O)CO
REMARK SMILES IDX 7 1 9 2 10 3 5 5 3 6 2 7 1 8 4 9 6 11 8 13
REMARK H PARENT 10 4 4 10 6 12 8 14
REMARK Flexibility Score: inf
ROOT
ATOM      1  C   UNL     1     -13.421 -38.969 -17.292  1.00  0.00     0.171 C 
ENDROOT
BRANCH   1   2
ATOM      2  C   UNL     1     -14.880 -38.920 -16.798  1.00  0.00     0.190 C 
BRANCH   2   3
ATOM      3  O   UNL     1     -14.950 -38.714 -15.413  1.00  0.00    -0.394 OA
ATOM      4  H   UNL     1     -15.415 -37.848 -15.271  1.00  0.00     0.210 HD
ENDBRANCH   2   3
ENDBRANCH   1   2
BRANCH   1   5
ATOM      5  C   UNL     1     -12.471 -39.826 -16.409  1.00  0.00     0.181 C 
BRANCH   5   6
ATOM      6  C   UNL     1     -11.078 -40.111 -17.036  1.00  0.00     0.209 C 
BRANCH   6   7
ATOM      7  C   UNL     1     -10.081 -40.659 -16.048  1.00  0.00     0.258 C 
ATOM      8  O   UNL     1     -10.363 -41.607 -15.332  1.00  0.00    -0.300 OA
ENDBRANCH   6   7
BRANCH   6   9
ATOM      9  O   UNL     1     -10.551 -38.929 -17.578  1.00  0.00    -0.383 OA
ATOM     10  H   UNL     1     -11.276 -38.504 -18.108  1.00  0.00     0.211 HD
ENDBRANCH   6   9
ENDBRANCH   5   6
BRANCH   5  11
ATOM     11  O   UNL     1     -13.094 -41.028 -16.027  1.00  0.00    -0.387 OA
ATOM     12  H   UNL     1     -12.372 -41.668 -15.789  1.00  0.00     0.211 HD
ENDBRANCH   5  11
ENDBRANCH   1   5
BRANCH   1  13
ATOM     13  O   UNL     1     -13.383 -39.402 -18.628  1.00  0.00    -0.388 OA
ATOM     14  H   UNL     1     -14.311 -39.645 -18.882  1.00  0.00     0.211 HD
ENDBRANCH   1  13
TORSDOF 8
ENDMDL
MODEL 6
REMARK VINA RESULT:    -4.099     14.254     14.998
REMARK INTER + INTRA:          -6.012
REMARK INTER:                  -5.312
REMARK INTRA:                  -0.700
REMARK UNBOUND:                -0.475
REMARK SMILES O=C[C@H](O)[C@H](O)[C@@H](O)CO
REMARK SMILES IDX 7 1 9 2 10 3 5 5 3 6 2 7 1 8 4 9 6 11 8 13
REMARK H PARENT 10 4 4 10 6 12 8 14
REMARK Flexibility Score: inf
ROOT
ATOM      1  C   UNL     1     -14.448 -39.708 -17.017  1.00  0.00     0.171 C 
ENDROOT
BRANCH   1   2
ATOM      2  C   UNL     1     -15.079 -38.378 -16.560  1.00  0.00     0.190 C 
BRANCH   2   3
ATOM      3  O   UNL     1     -15.396 -38.399 -15.194  1.00  0.00    -0.394 OA
ATOM      4  H   UNL     1     -15.836 -39.270 -15.011  1.00  0.00     0.210 HD
ENDBRANCH   2   3
ENDBRANCH   1   2
BRANCH   1   5
ATOM      5  C   UNL     1     -12.925 -39.831 -16.725  1.00  0.00     0.181 C 
BRANCH   5   6
ATOM      6  C   UNL     1     -12.439 -41.269 -16.392  1.00  0.00     0.209 C 
BRANCH   6   7
ATOM      7  C   UNL     1     -10.998 -41.325 -15.958  1.00  0.00     0.258 C 
ATOM      8  O   UNL     1     -10.189 -40.501 -16.358  1.00  0.00    -0.300 OA
ENDBRANCH   6   7
BRANCH   6   9
ATOM      9  O   UNL     1     -12.588 -42.093 -17.519  1.00  0.00    -0.383 OA
ATOM     10  H   UNL     1     -11.678 -42.394 -17.780  1.00  0.00     0.211 HD
ENDBRANCH   6   9
ENDBRANCH   5   6
BRANCH   5  11
ATOM     11  O   UNL     1     -12.537 -38.934 -15.714  1.00  0.00    -0.387 OA
ATOM     12  H   UNL     1     -11.812 -38.367 -16.090  1.00  0.00     0.211 HD
ENDBRANCH   5  11
ENDBRANCH   1   5
BRANCH   1  13
ATOM     13  O   UNL     1     -15.150 -40.788 -16.456  1.00  0.00    -0.388 OA
ATOM     14  H   UNL     1     -14.506 -41.539 -16.369  1.00  0.00     0.211 HD
ENDBRANCH   1  13
TORSDOF 8
ENDMDL
MODEL 7
REMARK VINA RESULT:    -4.086     12.016     12.906
REMARK INTER + INTRA:          -5.994
REMARK INTER:                  -5.487
REMARK INTRA:                  -0.507
REMARK UNBOUND:                -0.475
REMARK SMILES O=C[C@H](O)[C@H](O)[C@@H](O)CO
REMARK SMILES IDX 7 1 9 2 10 3 5 5 3 6 2 7 1 8 4 9 6 11 8 13
REMARK H PARENT 10 4 4 10 6 12 8 14
REMARK Flexibility Score: inf
ROOT
ATOM      1  C   UNL     1     -11.448 -39.604 -17.489  1.00  0.00     0.171 C 
ENDROOT
BRANCH   1   2
ATOM      2  C   UNL     1     -11.508 -40.412 -18.800  1.00  0.00     0.190 C 
BRANCH   2   3
ATOM      3  O   UNL     1     -10.299 -40.343 -19.506  1.00  0.00    -0.394 OA
ATOM      4  H   UNL     1     -10.452 -39.749 -20.287  1.00  0.00     0.210 HD
ENDBRANCH   2   3
ENDBRANCH   1   2
BRANCH   1   5
ATOM      5  C   UNL     1     -11.570 -40.461 -16.197  1.00  0.00     0.181 C 
BRANCH   5   6
ATOM      6  C   UNL     1     -10.449 -41.521 -16.008  1.00  0.00     0.209 C 
BRANCH   6   7
ATOM      7  C   UNL     1     -10.873 -42.692 -15.162  1.00  0.00     0.258 C 
ATOM      8  O   UNL     1     -11.360 -43.691 -15.671  1.00  0.00    -0.300 OA
ENDBRANCH   6   7
BRANCH   6   9
ATOM      9  O   UNL     1      -9.332 -40.926 -15.400  1.00  0.00    -0.383 OA
ATOM     10  H   UNL     1      -8.977 -40.254 -16.041  1.00  0.00     0.211 HD
ENDBRANCH   6   9
ENDBRANCH   5   6
BRANCH   5  11
ATOM     11  O   UNL     1     -12.837 -41.067 -16.119  1.00  0.00    -0.387 OA
ATOM     12  H   UNL     1     -12.690 -42.024 -15.894  1.00  0.00     0.211 HD
ENDBRANCH   5  11
ENDBRANCH   1   5
BRANCH   1  13
ATOM     13  O   UNL     1     -10.278 -38.827 -17.460  1.00  0.00    -0.388 OA
ATOM     14  H   UNL     1     -10.330 -38.194 -18.223  1.00  0.00     0.211 HD
ENDBRANCH   1  13
TORSDOF 8
ENDMDL
MODEL 8
REMARK VINA RESULT:    -4.040      1.217      4.073
REMARK INTER + INTRA:          -5.932
REMARK INTER:                  -5.403
REMARK INTRA:                  -0.529
REMARK UNBOUND:                -0.475
REMARK SMILES O=C[C@H](O)[C@H](O)[C@@H](O)CO
REMARK SMILES IDX 7 1 9 2 10 3 5 5 3 6 2 7 1 8 4 9 6 11 8 13
REMARK H PARENT 10 4 4 10 6 12 8 14
REMARK Flexibility Score: inf
ROOT
ATOM      1  C   UNL     1       0.220 -44.654 -16.632  1.00  0.00     0.171 C 
ENDROOT
BRANCH   1   2
ATOM      2  C   UNL     1       0.883 -44.152 -17.930  1.00  0.00     0.190 C 
BRANCH   2   3
ATOM      3  O   UNL     1       1.196 -42.787 -17.856  1.00  0.00    -0.394 OA
ATOM      4  H   UNL     1       1.747 -42.659 -17.040  1.00  0.00     0.210 HD
ENDBRANCH   2   3
ENDBRANCH   1   2
BRANCH   1   5
ATOM      5  C   UNL     1       1.166 -44.689 -15.398  1.00  0.00     0.181 C 
BRANCH   5   6
ATOM      6  C   UNL     1       0.720 -45.651 -14.262  1.00  0.00     0.209 C 
BRANCH   6   7
ATOM      7  C   UNL     1       0.551 -47.076 -14.721  1.00  0.00     0.258 C 
ATOM      8  O   UNL     1      -0.390 -47.753 -14.335  1.00  0.00    -0.300 OA
ENDBRANCH   6   7
BRANCH   6   9
ATOM      9  O   UNL     1      -0.503 -45.218 -13.726  1.00  0.00    -0.383 OA
ATOM     10  H   UNL     1      -0.628 -45.699 -12.866  1.00  0.00     0.211 HD
ENDBRANCH   6   9
ENDBRANCH   5   6
BRANCH   5  11
ATOM     11  O   UNL     1       1.373 -43.393 -14.892  1.00  0.00    -0.387 OA
ATOM     12  H   UNL     1       0.912 -42.763 -15.506  1.00  0.00     0.211 HD
ENDBRANCH   5  11
ENDBRANCH   1   5
BRANCH   1  13
ATOM     13  O   UNL     1      -0.928 -43.892 -16.356  1.00  0.00    -0.388 OA
ATOM     14  H   UNL     1      -1.553 -44.023 -17.116  1.00  0.00     0.211 HD
ENDBRANCH   1  13
TORSDOF 8
ENDMDL
MODEL 9
REMARK VINA RESULT:    -3.954     12.653     13.496
REMARK INTER + INTRA:          -5.816
REMARK INTER:                  -5.308
REMARK INTRA:                  -0.508
REMARK UNBOUND:                -0.475
REMARK SMILES O=C[C@H](O)[C@H](O)[C@@H](O)CO
REMARK SMILES IDX 7 1 9 2 10 3 5 5 3 6 2 7 1 8 4 9 6 11 8 13
REMARK H PARENT 10 4 4 10 6 12 8 14
REMARK Flexibility Score: inf
ROOT
ATOM      1  C   UNL     1     -12.026 -40.148 -18.643  1.00  0.00     0.171 C 
ENDROOT
BRANCH   1   2
ATOM      2  C   UNL     1     -11.412 -40.403 -20.033  1.00  0.00     0.190 C 
BRANCH   2   3
ATOM      3  O   UNL     1     -10.014 -40.298 -20.009  1.00  0.00    -0.394 OA
ATOM      4  H   UNL     1      -9.711 -40.233 -20.952  1.00  0.00     0.210 HD
ENDBRANCH   2   3
ENDBRANCH   1   2
BRANCH   1   5
ATOM      5  C   UNL     1     -10.995 -40.122 -17.479  1.00  0.00     0.181 C 
BRANCH   5   6
ATOM      6  C   UNL     1     -11.576 -40.484 -16.084  1.00  0.00     0.209 C 
BRANCH   6   7
ATOM      7  C   UNL     1     -11.179 -41.858 -15.611  1.00  0.00     0.258 C 
ATOM      8  O   UNL     1     -10.021 -42.108 -15.311  1.00  0.00    -0.300 OA
ENDBRANCH   6   7
BRANCH   6   9
ATOM      9  O   UNL     1     -12.978 -40.425 -16.125  1.00  0.00    -0.383 OA
ATOM     10  H   UNL     1     -13.275 -39.994 -15.281  1.00  0.00     0.211 HD
ENDBRANCH   6   9
ENDBRANCH   5   6
BRANCH   5  11
ATOM     11  O   UNL     1     -10.330 -38.883 -17.428  1.00  0.00    -0.387 OA
ATOM     12  H   UNL     1      -9.548 -38.996 -16.826  1.00  0.00     0.211 HD
ENDBRANCH   5  11
ENDBRANCH   1   5
BRANCH   1  13
ATOM     13  O   UNL     1     -12.780 -38.962 -18.663  1.00  0.00    -0.388 OA
ATOM     14  H   UNL     1     -12.801 -38.647 -19.604  1.00  0.00     0.211 HD
ENDBRANCH   1  13
TORSDOF 8
ENDMDL
