MODEL 1
REMARK VINA RESULT:    -4.058      0.000      0.000
REMARK INTER + INTRA:          -5.371
REMARK INTER:                  -5.007
REMARK INTRA:                  -0.364
REMARK UNBOUND:                -0.364
REMARK SMILES Oc1cc(O)c2cc(O)c(-c3cc(O)c(O)c(O)c3)[o+]c2c1
REMARK SMILES IDX 10 1 20 2 21 3 22 4 2 5 3 6 4 7 6 8 7 9 8 10 11 11 12 12
REMARK SMILES IDX 13 13 19 14 15 15 17 16 14 17 16 19 18 21 9 23 1 25 5 27
REMARK H PARENT 14 18 16 20 18 22 9 24 1 26 5 28
REMARK Flexibility Score: inf
ROOT
ATOM      1  C   UNL     1     -16.125  46.064  -9.714  1.00  0.00     0.402 A 
ATOM      2  O   UNL     1     -17.437  46.019  -9.932  1.00  0.00    -0.202 OA
ATOM      3  C   UNL     1     -18.076  44.916 -10.307  1.00  0.00     0.368 A 
ATOM      4  C   UNL     1     -19.458  44.969 -10.516  1.00  0.00     0.162 A 
ATOM      5  C   UNL     1     -20.155  43.828 -10.913  1.00  0.00     0.128 A 
ATOM      6  C   UNL     1     -19.469  42.624 -11.105  1.00  0.00     0.093 A 
ATOM      7  C   UNL     1     -18.085  42.545 -10.902  1.00  0.00     0.136 A 
ATOM      8  C   UNL     1     -17.373  43.703 -10.496  1.00  0.00     0.125 A 
ATOM      9  C   UNL     1     -15.989  43.714 -10.258  1.00  0.00     0.078 A 
ATOM     10  C   UNL     1     -15.356  44.894  -9.854  1.00  0.00     0.223 A 
ENDROOT
BRANCH   1  11
ATOM     11  C   UNL     1     -15.526  47.357  -9.309  1.00  0.00     0.091 A 
ATOM     12  C   UNL     1     -15.191  48.337 -10.259  1.00  0.00     0.068 A 
ATOM     13  C   UNL     1     -14.645  49.563  -9.854  1.00  0.00     0.162 A 
ATOM     14  C   UNL     1     -15.340  47.634  -7.947  1.00  0.00     0.068 A 
ATOM     15  C   UNL     1     -14.442  49.822  -8.488  1.00  0.00     0.200 A 
ATOM     16  C   UNL     1     -14.793  48.858  -7.536  1.00  0.00     0.162 A 
BRANCH  13  17
ATOM     17  O   UNL     1     -14.310  50.527 -10.803  1.00  0.00    -0.504 OA
ATOM     18  H   UNL     1     -14.171  50.287 -11.779  1.00  0.00     0.293 HD
ENDBRANCH  13  17
BRANCH  15  19
ATOM     19  O   UNL     1     -13.897  51.034  -8.061  1.00  0.00    -0.502 OA
ATOM     20  H   UNL     1     -14.236  51.926  -8.400  1.00  0.00     0.293 HD
ENDBRANCH  15  19
BRANCH  16  21
ATOM     21  O   UNL     1     -14.597  49.121  -6.182  1.00  0.00    -0.504 OA
ATOM     22  H   UNL     1     -13.836  49.709  -5.859  1.00  0.00     0.293 HD
ENDBRANCH  16  21
ENDBRANCH   1  11
BRANCH  10  23
ATOM     23  O   UNL     1     -13.990  44.893  -9.569  1.00  0.00    -0.500 OA
ATOM     24  H   UNL     1     -13.555  44.139  -9.051  1.00  0.00     0.294 HD
ENDBRANCH  10  23
BRANCH   5  25
ATOM     25  O   UNL     1     -21.531  43.901 -11.115  1.00  0.00    -0.507 OA
ATOM     26  H   UNL     1     -22.165  44.157 -10.366  1.00  0.00     0.293 HD
ENDBRANCH   5  25
BRANCH   7  27
ATOM     27  O   UNL     1     -17.472  41.306 -11.118  1.00  0.00    -0.507 OA
ATOM     28  H   UNL     1     -17.825  40.597 -11.743  1.00  0.00     0.293 HD
ENDBRANCH   7  27
TORSDOF 7
ENDMDL
MODEL 2
REMARK VINA RESULT:    -2.622      2.275      7.251
REMARK INTER + INTRA:          -3.599
REMARK INTER:                  -3.454
REMARK INTRA:                  -0.145
REMARK UNBOUND:                -0.364
REMARK SMILES Oc1cc(O)c2cc(O)c(-c3cc(O)c(O)c(O)c3)[o+]c2c1
REMARK SMILES IDX 10 1 20 2 21 3 22 4 2 5 3 6 4 7 6 8 7 9 8 10 11 11 12 12
REMARK SMILES IDX 13 13 19 14 15 15 17 16 14 17 16 19 18 21 9 23 1 25 5 27
REMARK H PARENT 14 18 16 20 18 22 9 24 1 26 5 28
REMARK Flexibility Score: inf
ROOT
ATOM      1  C   UNL     1     -15.917  47.041  -8.767  1.00  0.00     0.402 A 
ATOM      2  O   UNL     1     -15.597  47.963  -7.862  1.00  0.00    -0.202 OA
ATOM      3  C   UNL     1     -15.051  49.133  -8.175  1.00  0.00     0.368 A 
ATOM      4  C   UNL     1     -14.747  50.036  -7.152  1.00  0.00     0.162 A 
ATOM      5  C   UNL     1     -14.170  51.271  -7.450  1.00  0.00     0.128 A 
ATOM      6  C   UNL     1     -13.893  51.607  -8.780  1.00  0.00     0.093 A 
ATOM      7  C   UNL     1     -14.188  50.720  -9.823  1.00  0.00     0.136 A 
ATOM      8  C   UNL     1     -14.777  49.464  -9.523  1.00  0.00     0.125 A 
ATOM      9  C   UNL     1     -15.118  48.518 -10.504  1.00  0.00     0.078 A 
ATOM     10  C   UNL     1     -15.701  47.302 -10.133  1.00  0.00     0.223 A 
ENDROOT
BRANCH   1  11
ATOM     11  C   UNL     1     -16.512  45.770  -8.292  1.00  0.00     0.091 A 
ATOM     12  C   UNL     1     -15.840  44.946  -7.374  1.00  0.00     0.068 A 
ATOM     13  C   UNL     1     -16.429  43.758  -6.919  1.00  0.00     0.162 A 
ATOM     14  C   UNL     1     -17.796  45.407  -8.723  1.00  0.00     0.068 A 
ATOM     15  C   UNL     1     -17.707  43.392  -7.375  1.00  0.00     0.200 A 
ATOM     16  C   UNL     1     -18.390  44.219  -8.274  1.00  0.00     0.162 A 
BRANCH  13  17
ATOM     17  O   UNL     1     -15.752  42.944  -6.013  1.00  0.00    -0.504 OA
ATOM     18  H   UNL     1     -16.243  42.279  -5.425  1.00  0.00     0.293 HD
ENDBRANCH  13  17
BRANCH  15  19
ATOM     19  O   UNL     1     -18.313  42.212  -6.939  1.00  0.00    -0.502 OA
ATOM     20  H   UNL     1     -17.872  41.597  -6.267  1.00  0.00     0.293 HD
ENDBRANCH  15  19
BRANCH  16  21
ATOM     21  O   UNL     1     -19.661  43.856  -8.717  1.00  0.00    -0.504 OA
ATOM     22  H   UNL     1     -19.844  43.646  -9.692  1.00  0.00     0.293 HD
ENDBRANCH  16  21
ENDBRANCH   1  11
BRANCH  10  23
ATOM     23  O   UNL     1     -16.086  46.384 -11.109  1.00  0.00    -0.500 OA
ATOM     24  H   UNL     1     -16.300  46.672 -12.056  1.00  0.00     0.294 HD
ENDBRANCH  10  23
BRANCH   5  25
ATOM     25  O   UNL     1     -13.875  52.158  -6.417  1.00  0.00    -0.507 OA
ATOM     26  H   UNL     1     -13.609  51.830  -5.496  1.00  0.00     0.293 HD
ENDBRANCH   5  25
BRANCH   7  27
ATOM     27  O   UNL     1     -13.877  51.128 -11.123  1.00  0.00    -0.507 OA
ATOM     28  H   UNL     1     -13.760  52.090 -11.406  1.00  0.00     0.293 HD
ENDBRANCH   7  27
TORSDOF 7
ENDMDL
MODEL 3
REMARK VINA RESULT:    -1.874      1.605      7.364
REMARK INTER + INTRA:          -2.677
REMARK INTER:                  -2.336
REMARK INTRA:                  -0.341
REMARK UNBOUND:                -0.364
REMARK SMILES Oc1cc(O)c2cc(O)c(-c3cc(O)c(O)c(O)c3)[o+]c2c1
REMARK SMILES IDX 10 1 20 2 21 3 22 4 2 5 3 6 4 7 6 8 7 9 8 10 11 11 12 12
REMARK SMILES IDX 13 13 19 14 15 15 17 16 14 17 16 19 18 21 9 23 1 25 5 27
REMARK H PARENT 14 18 16 20 18 22 9 24 1 26 5 28
REMARK Flexibility Score: inf
ROOT
ATOM      1  C   UNL     1     -16.167  46.676  -8.890  1.00  0.00     0.402 A 
ATOM      2  O   UNL     1     -15.808  46.811  -7.616  1.00  0.00    -0.202 OA
ATOM      3  C   UNL     1     -15.194  47.890  -7.142  1.00  0.00     0.368 A 
ATOM      4  C   UNL     1     -14.853  47.938  -5.787  1.00  0.00     0.162 A 
ATOM      5  C   UNL     1     -14.206  49.057  -5.262  1.00  0.00     0.128 A 
ATOM      6  C   UNL     1     -13.895  50.136  -6.095  1.00  0.00     0.093 A 
ATOM      7  C   UNL     1     -14.226  50.113  -7.456  1.00  0.00     0.136 A 
ATOM      8  C   UNL     1     -14.886  48.978  -7.993  1.00  0.00     0.125 A 
ATOM      9  C   UNL     1     -15.267  48.872  -9.341  1.00  0.00     0.078 A 
ATOM     10  C   UNL     1     -15.921  47.723  -9.797  1.00  0.00     0.223 A 
ENDROOT
BRANCH   1  11
ATOM     11  C   UNL     1     -16.836  45.420  -9.300  1.00  0.00     0.091 A 
ATOM     12  C   UNL     1     -18.198  45.198  -9.039  1.00  0.00     0.068 A 
ATOM     13  C   UNL     1     -18.820  44.012  -9.454  1.00  0.00     0.162 A 
ATOM     14  C   UNL     1     -16.111  44.453 -10.013  1.00  0.00     0.068 A 
ATOM     15  C   UNL     1     -18.079  43.040 -10.147  1.00  0.00     0.200 A 
ATOM     16  C   UNL     1     -16.727  43.264 -10.429  1.00  0.00     0.162 A 
BRANCH  13  17
ATOM     17  O   UNL     1     -20.171  43.799  -9.184  1.00  0.00    -0.504 OA
ATOM     18  H   UNL     1     -20.896  44.351  -9.630  1.00  0.00     0.293 HD
ENDBRANCH  13  17
BRANCH  15  19
ATOM     19  O   UNL     1     -18.676  41.850 -10.568  1.00  0.00    -0.502 OA
ATOM     20  H   UNL     1     -19.232  41.795 -11.412  1.00  0.00     0.293 HD
ENDBRANCH  15  19
BRANCH  16  21
ATOM     21  O   UNL     1     -15.998  42.301 -11.124  1.00  0.00    -0.504 OA
ATOM     22  H   UNL     1     -15.007  42.161 -10.959  1.00  0.00     0.293 HD
ENDBRANCH  16  21
ENDBRANCH   1  11
BRANCH  10  23
ATOM     23  O   UNL     1     -16.344  47.639 -11.124  1.00  0.00    -0.500 OA
ATOM     24  H   UNL     1     -17.289  47.880 -11.397  1.00  0.00     0.294 HD
ENDBRANCH  10  23
BRANCH   5  25
ATOM     25  O   UNL     1     -13.875  49.086  -3.909  1.00  0.00    -0.507 OA
ATOM     26  H   UNL     1     -12.925  48.931  -3.591  1.00  0.00     0.293 HD
ENDBRANCH   5  25
BRANCH   7  27
ATOM     27  O   UNL     1     -13.877  51.230  -8.222  1.00  0.00    -0.507 OA
ATOM     28  H   UNL     1     -14.067  51.326  -9.208  1.00  0.00     0.293 HD
ENDBRANCH   7  27
TORSDOF 7
ENDMDL
MODEL 4
REMARK VINA RESULT:    -1.400      2.327      7.059
REMARK INTER + INTRA:          -2.091
REMARK INTER:                  -2.077
REMARK INTRA:                  -0.014
REMARK UNBOUND:                -0.364
REMARK SMILES Oc1cc(O)c2cc(O)c(-c3cc(O)c(O)c(O)c3)[o+]c2c1
REMARK SMILES IDX 10 1 20 2 21 3 22 4 2 5 3 6 4 7 6 8 7 9 8 10 11 11 12 12
REMARK SMILES IDX 13 13 19 14 15 15 17 16 14 17 16 19 18 21 9 23 1 25 5 27
REMARK H PARENT 14 18 16 20 18 22 9 24 1 26 5 28
REMARK Flexibility Score: inf
ROOT
ATOM      1  C   UNL     1     -16.108  46.549  -8.697  1.00  0.00     0.402 A 
ATOM      2  O   UNL     1     -15.759  47.478  -7.810  1.00  0.00    -0.202 OA
ATOM      3  C   UNL     1     -15.161  48.616  -8.143  1.00  0.00     0.368 A 
ATOM      4  C   UNL     1     -14.828  49.529  -7.138  1.00  0.00     0.162 A 
ATOM      5  C   UNL     1     -14.197  50.731  -7.458  1.00  0.00     0.128 A 
ATOM      6  C   UNL     1     -13.893  51.025  -8.792  1.00  0.00     0.093 A 
ATOM      7  C   UNL     1     -14.215  50.127  -9.818  1.00  0.00     0.136 A 
ATOM      8  C   UNL     1     -14.860  48.904  -9.496  1.00  0.00     0.125 A 
ATOM      9  C   UNL     1     -15.231  47.951 -10.458  1.00  0.00     0.078 A 
ATOM     10  C   UNL     1     -15.868  46.770 -10.066  1.00  0.00     0.223 A 
ENDROOT
BRANCH   1  11
ATOM     11  C   UNL     1     -16.761  45.316  -8.200  1.00  0.00     0.091 A 
ATOM     12  C   UNL     1     -17.930  44.816  -8.797  1.00  0.00     0.068 A 
ATOM     13  C   UNL     1     -18.521  43.634  -8.327  1.00  0.00     0.162 A 
ATOM     14  C   UNL     1     -16.171  44.599  -7.148  1.00  0.00     0.068 A 
ATOM     15  C   UNL     1     -17.934  42.937  -7.257  1.00  0.00     0.200 A 
ATOM     16  C   UNL     1     -16.758  43.418  -6.672  1.00  0.00     0.162 A 
BRANCH  13  17
ATOM     17  O   UNL     1     -19.684  43.150  -8.921  1.00  0.00    -0.504 OA
ATOM     18  H   UNL     1     -19.906  42.160  -8.928  1.00  0.00     0.293 HD
ENDBRANCH  13  17
BRANCH  15  19
ATOM     19  O   UNL     1     -18.506  41.760  -6.769  1.00  0.00    -0.502 OA
ATOM     20  H   UNL     1     -18.041  41.180  -6.083  1.00  0.00     0.293 HD
ENDBRANCH  15  19
BRANCH  16  21
ATOM     21  O   UNL     1     -16.175  42.719  -5.617  1.00  0.00    -0.504 OA
ATOM     22  H   UNL     1     -16.331  41.725  -5.487  1.00  0.00     0.293 HD
ENDBRANCH  16  21
ENDBRANCH   1  11
BRANCH  10  23
ATOM     23  O   UNL     1     -16.282  45.846 -11.026  1.00  0.00    -0.500 OA
ATOM     24  H   UNL     1     -16.431  44.870 -10.796  1.00  0.00     0.294 HD
ENDBRANCH  10  23
BRANCH   5  25
ATOM     25  O   UNL     1     -13.875  51.629  -6.443  1.00  0.00    -0.507 OA
ATOM     26  H   UNL     1     -13.707  52.610  -6.635  1.00  0.00     0.293 HD
ENDBRANCH   5  25
BRANCH   7  27
ATOM     27  O   UNL     1     -13.875  50.492 -11.124  1.00  0.00    -0.507 OA
ATOM     28  H   UNL     1     -14.468  50.351 -11.928  1.00  0.00     0.293 HD
ENDBRANCH   7  27
TORSDOF 7
ENDMDL
