MODEL 1
REMARK VINA RESULT:    -7.630      0.000      0.000
REMARK INTER + INTRA:         -11.120
REMARK INTER:                 -10.083
REMARK INTRA:                  -1.036
REMARK UNBOUND:                -1.036
REMARK SMILES CC[C@H](C=C[C@@H](C)[C@H]1CC[C@H]2C3=CC[C@@H]4C[C@@H](O)CC[C@@]4(C)[C@@H]3CC[C@]12C)C(C)C
REMARK SMILES IDX 6 1 7 2 5 3 4 4 3 5 2 6 1 7 28 8 29 9 30 10 8 11 9 12 26 13
REMARK SMILES IDX 10 14 11 15 25 16 27 17 12 18 24 19 23 20 13 21 21 22 14 23
REMARK SMILES IDX 15 24 20 25 22 26 16 27 19 28 17 29 18 30
REMARK H PARENT 18 31
REMARK Flexibility Score: inf
ROOT
ATOM      1  C   UNL     1       7.032  18.083  46.552  1.00  0.00     0.012 C 
ATOM      2  C   UNL     1       7.322  19.503  47.060  1.00  0.00     0.012 C 
ENDROOT
BRANCH   1   3
ATOM      3  C   UNL     1       8.122  17.658  45.587  1.00  0.00    -0.028 C 
ATOM      4  C   UNL     1       8.487  18.406  44.532  1.00  0.00    -0.027 C 
BRANCH   4   5
ATOM      5  C   UNL     1       9.569  17.949  43.577  1.00  0.00     0.014 C 
BRANCH   5   6
ATOM      6  C   UNL     1       9.647  16.402  43.549  1.00  0.00     0.004 C 
ATOM      7  C   UNL     1      10.205  15.878  42.224  1.00  0.00     0.004 C 
ENDBRANCH   5   6
BRANCH   5   8
ATOM      8  C   UNL     1       9.347  18.586  42.172  1.00  0.00    -0.011 C 
ATOM      9  C   UNL     1      10.447  19.583  41.777  1.00  0.00     0.008 C 
ATOM     10  C   UNL     1       7.962  19.240  42.043  1.00  0.00     0.008 C 
ENDBRANCH   5   8
ENDBRANCH   4   5
ENDBRANCH   1   3
BRANCH   1  11
ATOM     11  C   UNL     1       5.618  17.953  45.898  1.00  0.00     0.002 C 
ATOM     12  C   UNL     1       5.484  16.671  45.034  1.00  0.00     0.005 C 
ATOM     13  C   UNL     1       4.384  17.901  46.847  1.00  0.00    -0.023 C 
ATOM     14  C   UNL     1       4.025  16.202  45.147  1.00  0.00     0.009 C 
ATOM     15  C   UNL     1       3.327  17.337  45.884  1.00  0.00     0.021 C 
ATOM     16  C   UNL     1       3.902  19.290  47.382  1.00  0.00     0.008 C 
ATOM     17  C   UNL     1       4.653  16.931  48.043  1.00  0.00     0.012 C 
ATOM     18  C   UNL     1       2.006  17.092  46.587  1.00  0.00    -0.067 C 
ATOM     19  C   UNL     1       2.359  19.487  47.363  1.00  0.00     0.009 C 
ATOM     20  C   UNL     1       1.559  18.167  47.586  1.00  0.00     0.021 C 
ATOM     21  C   UNL     1       1.203  16.059  46.247  1.00  0.00    -0.027 C 
ATOM     22  C   UNL     1      -0.001  18.343  47.596  1.00  0.00    -0.023 C 
ATOM     23  C   UNL     1      -0.230  15.941  46.700  1.00  0.00     0.031 C 
ATOM     24  C   UNL     1      -0.594  16.913  47.837  1.00  0.00     0.002 C 
ATOM     25  C   UNL     1      -0.430  19.264  48.778  1.00  0.00     0.010 C 
ATOM     26  C   UNL     1      -0.491  18.960  46.252  1.00  0.00     0.012 C 
ATOM     27  C   UNL     1      -2.117  16.919  48.090  1.00  0.00     0.036 C 
ATOM     28  C   UNL     1      -1.949  19.262  49.023  1.00  0.00     0.032 C 
ATOM     29  C   UNL     1      -2.492  17.847  49.257  1.00  0.00     0.114 C 
BRANCH  29  30
ATOM     30  O   UNL     1      -1.988  17.343  50.468  1.00  0.00    -0.393 OA
ATOM     31  H   UNL     1      -1.236  17.934  50.735  1.00  0.00     0.210 HD
ENDBRANCH  29  30
ENDBRANCH   1  11
TORSDOF 6
ENDMDL
MODEL 2
REMARK VINA RESULT:    -7.358      0.986      1.485
REMARK INTER + INTRA:         -10.760
REMARK INTER:                  -9.684
REMARK INTRA:                  -1.076
REMARK UNBOUND:                -1.036
REMARK SMILES CC[C@H](C=C[C@@H](C)[C@H]1CC[C@H]2C3=CC[C@@H]4C[C@@H](O)CC[C@@]4(C)[C@@H]3CC[C@]12C)C(C)C
REMARK SMILES IDX 6 1 7 2 5 3 4 4 3 5 2 6 1 7 28 8 29 9 30 10 8 11 9 12 26 13
REMARK SMILES IDX 10 14 11 15 25 16 27 17 12 18 24 19 23 20 13 21 21 22 14 23
REMARK SMILES IDX 15 24 20 25 22 26 16 27 19 28 17 29 18 30
REMARK H PARENT 18 31
REMARK Flexibility Score: inf
ROOT
ATOM      1  C   UNL     1       7.067  18.813  46.842  1.00  0.00     0.012 C 
ATOM      2  C   UNL     1       7.122  20.189  47.522  1.00  0.00     0.012 C 
ENDROOT
BRANCH   1   3
ATOM      3  C   UNL     1       8.226  18.680  45.874  1.00  0.00    -0.028 C 
ATOM      4  C   UNL     1       8.382  19.492  44.814  1.00  0.00    -0.027 C 
BRANCH   4   5
ATOM      5  C   UNL     1       9.542  19.326  43.856  1.00  0.00     0.014 C 
BRANCH   5   6
ATOM      6  C   UNL     1       9.034  18.860  42.469  1.00  0.00     0.004 C 
ATOM      7  C   UNL     1       7.551  19.173  42.264  1.00  0.00     0.004 C 
ENDBRANCH   5   6
BRANCH   5   8
ATOM      8  C   UNL     1      10.383  20.637  43.802  1.00  0.00    -0.011 C 
ATOM      9  C   UNL     1       9.580  21.889  44.187  1.00  0.00     0.008 C 
ATOM     10  C   UNL     1      11.062  20.836  42.438  1.00  0.00     0.008 C 
ENDBRANCH   5   8
ENDBRANCH   4   5
ENDBRANCH   1   3
BRANCH   1  11
ATOM     11  C   UNL     1       5.703  18.546  46.128  1.00  0.00     0.002 C 
ATOM     12  C   UNL     1       5.735  17.265  45.252  1.00  0.00     0.005 C 
ATOM     13  C   UNL     1       4.442  18.360  47.023  1.00  0.00    -0.023 C 
ATOM     14  C   UNL     1       4.329  16.650  45.301  1.00  0.00     0.009 C 
ATOM     15  C   UNL     1       3.488  17.702  46.013  1.00  0.00     0.021 C 
ATOM     16  C   UNL     1       3.798  19.688  47.544  1.00  0.00     0.008 C 
ATOM     17  C   UNL     1       4.757  17.411  48.225  1.00  0.00     0.012 C 
ATOM     18  C   UNL     1       2.171  17.317  46.658  1.00  0.00    -0.067 C 
ATOM     19  C   UNL     1       2.246  19.727  47.460  1.00  0.00     0.009 C 
ATOM     20  C   UNL     1       1.575  18.332  47.642  1.00  0.00     0.021 C 
ATOM     21  C   UNL     1       1.493  16.211  46.278  1.00  0.00    -0.027 C 
ATOM     22  C   UNL     1       0.007  18.348  47.586  1.00  0.00    -0.023 C 
ATOM     23  C   UNL     1       0.060  15.944  46.669  1.00  0.00     0.031 C 
ATOM     24  C   UNL     1      -0.448  16.863  47.795  1.00  0.00     0.002 C 
ATOM     25  C   UNL     1      -0.563  19.209  48.754  1.00  0.00     0.010 C 
ATOM     26  C   UNL     1      -0.487  18.924  46.226  1.00  0.00     0.012 C 
ATOM     27  C   UNL     1      -1.972  16.713  47.982  1.00  0.00     0.036 C 
ATOM     28  C   UNL     1      -2.083  19.051  48.934  1.00  0.00     0.032 C 
ATOM     29  C   UNL     1      -2.488  17.587  49.137  1.00  0.00     0.114 C 
BRANCH  29  30
ATOM     30  O   UNL     1      -1.987  17.124  50.366  1.00  0.00    -0.393 OA
ATOM     31  H   UNL     1      -1.501  16.279  50.178  1.00  0.00     0.210 HD
ENDBRANCH  29  30
ENDBRANCH   1  11
TORSDOF 6
ENDMDL
MODEL 3
REMARK VINA RESULT:    -7.205      5.791     10.577
REMARK INTER + INTRA:         -10.558
REMARK INTER:                  -9.316
REMARK INTRA:                  -1.241
REMARK UNBOUND:                -1.036
REMARK SMILES CC[C@H](C=C[C@@H](C)[C@H]1CC[C@H]2C3=CC[C@@H]4C[C@@H](O)CC[C@@]4(C)[C@@H]3CC[C@]12C)C(C)C
REMARK SMILES IDX 6 1 7 2 5 3 4 4 3 5 2 6 1 7 28 8 29 9 30 10 8 11 9 12 26 13
REMARK SMILES IDX 10 14 11 15 25 16 27 17 12 18 24 19 23 20 13 21 21 22 14 23
REMARK SMILES IDX 15 24 20 25 22 26 16 27 19 28 17 29 18 30
REMARK H PARENT 18 31
REMARK Flexibility Score: inf
ROOT
ATOM      1  C   UNL     1      -0.494  25.081  50.460  1.00  0.00     0.012 C 
ATOM      2  C   UNL     1       0.634  25.510  51.411  1.00  0.00     0.012 C 
ENDROOT
BRANCH   1   3
ATOM      3  C   UNL     1      -1.638  26.070  50.553  1.00  0.00    -0.028 C 
ATOM      4  C   UNL     1      -2.157  26.680  49.473  1.00  0.00    -0.027 C 
BRANCH   4   5
ATOM      5  C   UNL     1      -3.291  27.676  49.598  1.00  0.00     0.014 C 
BRANCH   5   6
ATOM      6  C   UNL     1      -2.928  29.000  48.880  1.00  0.00     0.004 C 
ATOM      7  C   UNL     1      -1.560  28.929  48.199  1.00  0.00     0.004 C 
ENDBRANCH   5   6
BRANCH   5   8
ATOM      8  C   UNL     1      -4.621  27.039  49.093  1.00  0.00    -0.011 C 
ATOM      9  C   UNL     1      -5.528  28.034  48.353  1.00  0.00     0.008 C 
ATOM     10  C   UNL     1      -5.398  26.345  50.222  1.00  0.00     0.008 C 
ENDBRANCH   5   8
ENDBRANCH   4   5
ENDBRANCH   1   3
BRANCH   1  11
ATOM     11  C   UNL     1      -0.986  23.622  50.729  1.00  0.00     0.002 C 
ATOM     12  C   UNL     1      -2.496  23.565  51.081  1.00  0.00     0.005 C 
ATOM     13  C   UNL     1      -0.826  22.581  49.581  1.00  0.00    -0.023 C 
ATOM     14  C   UNL     1      -3.040  22.241  50.522  1.00  0.00     0.009 C 
ATOM     15  C   UNL     1      -1.794  21.491  50.068  1.00  0.00     0.021 C 
ATOM     16  C   UNL     1       0.607  21.967  49.440  1.00  0.00     0.008 C 
ATOM     17  C   UNL     1      -1.282  23.194  48.217  1.00  0.00     0.012 C 
ATOM     18  C   UNL     1      -1.909  20.358  49.066  1.00  0.00    -0.067 C 
ATOM     19  C   UNL     1       0.628  20.430  49.203  1.00  0.00     0.009 C 
ATOM     20  C   UNL     1      -0.602  19.905  48.403  1.00  0.00     0.021 C 
ATOM     21  C   UNL     1      -3.071  19.694  48.878  1.00  0.00    -0.027 C 
ATOM     22  C   UNL     1      -0.592  18.359  48.128  1.00  0.00    -0.023 C 
ATOM     23  C   UNL     1      -3.166  18.390  48.126  1.00  0.00     0.031 C 
ATOM     24  C   UNL     1      -1.898  18.057  47.317  1.00  0.00     0.002 C 
ATOM     25  C   UNL     1       0.637  17.978  47.249  1.00  0.00     0.010 C 
ATOM     26  C   UNL     1      -0.539  17.566  49.468  1.00  0.00     0.012 C 
ATOM     27  C   UNL     1      -1.956  16.614  46.772  1.00  0.00     0.036 C 
ATOM     28  C   UNL     1       0.569  16.540  46.708  1.00  0.00     0.032 C 
ATOM     29  C   UNL     1      -0.721  16.282  45.920  1.00  0.00     0.114 C 
BRANCH  29  30
ATOM     30  O   UNL     1      -0.714  17.049  44.742  1.00  0.00    -0.393 OA
ATOM     31  H   UNL     1      -1.649  17.346  44.588  1.00  0.00     0.210 HD
ENDBRANCH  29  30
ENDBRANCH   1  11
TORSDOF 6
ENDMDL
MODEL 4
REMARK VINA RESULT:    -7.140      5.816      9.382
REMARK INTER + INTRA:         -10.472
REMARK INTER:                  -9.418
REMARK INTRA:                  -1.055
REMARK UNBOUND:                -1.036
REMARK SMILES CC[C@H](C=C[C@@H](C)[C@H]1CC[C@H]2C3=CC[C@@H]4C[C@@H](O)CC[C@@]4(C)[C@@H]3CC[C@]12C)C(C)C
REMARK SMILES IDX 6 1 7 2 5 3 4 4 3 5 2 6 1 7 28 8 29 9 30 10 8 11 9 12 26 13
REMARK SMILES IDX 10 14 11 15 25 16 27 17 12 18 24 19 23 20 13 21 21 22 14 23
REMARK SMILES IDX 15 24 20 25 22 26 16 27 19 28 17 29 18 30
REMARK H PARENT 18 31
REMARK Flexibility Score: inf
ROOT
ATOM      1  C   UNL     1       0.512  20.301  47.430  1.00  0.00     0.012 C 
ATOM      2  C   UNL     1       1.312  21.012  46.328  1.00  0.00     0.012 C 
ENDROOT
BRANCH   1   3
ATOM      3  C   UNL     1       0.011  18.967  46.911  1.00  0.00    -0.028 C 
ATOM      4  C   UNL     1       0.290  17.802  47.519  1.00  0.00    -0.027 C 
BRANCH   4   5
ATOM      5  C   UNL     1      -0.213  16.484  46.968  1.00  0.00     0.014 C 
BRANCH   5   6
ATOM      6  C   UNL     1      -1.356  15.930  47.854  1.00  0.00     0.004 C 
ATOM      7  C   UNL     1      -1.406  16.613  49.223  1.00  0.00     0.004 C 
ENDBRANCH   5   6
BRANCH   5   8
ATOM      8  C   UNL     1      -0.610  16.647  45.470  1.00  0.00    -0.011 C 
ATOM      9  C   UNL     1      -2.065  16.245  45.181  1.00  0.00     0.008 C 
ATOM     10  C   UNL     1       0.348  15.899  44.530  1.00  0.00     0.008 C 
ENDBRANCH   5   8
ENDBRANCH   4   5
ENDBRANCH   1   3
BRANCH   1  11
ATOM     11  C   UNL     1      -0.664  21.170  47.980  1.00  0.00     0.002 C 
ATOM     12  C   UNL     1      -1.709  20.326  48.757  1.00  0.00     0.005 C 
ATOM     13  C   UNL     1      -0.311  22.330  48.958  1.00  0.00    -0.023 C 
ATOM     14  C   UNL     1      -2.268  21.219  49.875  1.00  0.00     0.009 C 
ATOM     15  C   UNL     1      -1.695  22.597  49.571  1.00  0.00     0.021 C 
ATOM     16  C   UNL     1       0.208  23.638  48.274  1.00  0.00     0.008 C 
ATOM     17  C   UNL     1       0.714  21.846  50.034  1.00  0.00     0.012 C 
ATOM     18  C   UNL     1      -1.631  23.654  50.657  1.00  0.00    -0.067 C 
ATOM     19  C   UNL     1      -0.394  24.950  48.854  1.00  0.00     0.009 C 
ATOM     20  C   UNL     1      -0.732  24.864  50.373  1.00  0.00     0.021 C 
ATOM     21  C   UNL     1      -2.429  23.600  51.746  1.00  0.00    -0.027 C 
ATOM     22  C   UNL     1      -1.318  26.183  50.989  1.00  0.00    -0.023 C 
ATOM     23  C   UNL     1      -2.615  24.757  52.694  1.00  0.00     0.031 C 
ATOM     24  C   UNL     1      -1.574  25.876  52.503  1.00  0.00     0.002 C 
ATOM     25  C   UNL     1      -0.272  27.334  50.886  1.00  0.00     0.010 C 
ATOM     26  C   UNL     1      -2.623  26.600  50.248  1.00  0.00     0.012 C 
ATOM     27  C   UNL     1      -1.954  27.127  53.323  1.00  0.00     0.036 C 
ATOM     28  C   UNL     1      -0.659  28.576  51.708  1.00  0.00     0.032 C 
ATOM     29  C   UNL     1      -0.899  28.236  53.184  1.00  0.00     0.114 C 
BRANCH  29  30
ATOM     30  O   UNL     1       0.311  27.842  53.781  1.00  0.00    -0.393 OA
ATOM     31  H   UNL     1       0.947  27.654  53.042  1.00  0.00     0.210 HD
ENDBRANCH  29  30
ENDBRANCH   1  11
TORSDOF 6
ENDMDL
MODEL 5
REMARK VINA RESULT:    -6.952      3.313      8.545
REMARK INTER + INTRA:         -10.223
REMARK INTER:                 -10.039
REMARK INTRA:                  -0.185
REMARK UNBOUND:                -1.036
REMARK SMILES CC[C@H](C=C[C@@H](C)[C@H]1CC[C@H]2C3=CC[C@@H]4C[C@@H](O)CC[C@@]4(C)[C@@H]3CC[C@]12C)C(C)C
REMARK SMILES IDX 6 1 7 2 5 3 4 4 3 5 2 6 1 7 28 8 29 9 30 10 8 11 9 12 26 13
REMARK SMILES IDX 10 14 11 15 25 16 27 17 12 18 24 19 23 20 13 21 21 22 14 23
REMARK SMILES IDX 15 24 20 25 22 26 16 27 19 28 17 29 18 30
REMARK H PARENT 18 31
REMARK Flexibility Score: inf
ROOT
ATOM      1  C   UNL     1       4.502  17.273  48.094  1.00  0.00     0.012 C 
ATOM      2  C   UNL     1       5.147  15.900  48.340  1.00  0.00     0.012 C 
ENDROOT
BRANCH   1   3
ATOM      3  C   UNL     1       3.233  17.097  47.284  1.00  0.00    -0.028 C 
ATOM      4  C   UNL     1       2.019  17.423  47.760  1.00  0.00    -0.027 C 
BRANCH   4   5
ATOM      5  C   UNL     1       0.767  17.223  46.933  1.00  0.00     0.014 C 
BRANCH   5   6
ATOM      6  C   UNL     1       0.866  15.913  46.112  1.00  0.00     0.004 C 
ATOM      7  C   UNL     1       0.282  16.071  44.706  1.00  0.00     0.004 C 
ENDBRANCH   5   6
BRANCH   5   8
ATOM      8  C   UNL     1      -0.494  17.289  47.847  1.00  0.00    -0.011 C 
ATOM      9  C   UNL     1      -1.182  15.928  48.031  1.00  0.00     0.008 C 
ATOM     10  C   UNL     1      -1.507  18.339  47.365  1.00  0.00     0.008 C 
ENDBRANCH   5   8
ENDBRANCH   4   5
ENDBRANCH   1   3
BRANCH   1  11
ATOM     11  C   UNL     1       5.476  18.282  47.405  1.00  0.00     0.002 C 
ATOM     12  C   UNL     1       6.964  17.876  47.576  1.00  0.00     0.005 C 
ATOM     13  C   UNL     1       5.319  18.508  45.872  1.00  0.00    -0.023 C 
ATOM     14  C   UNL     1       7.703  18.327  46.307  1.00  0.00     0.009 C 
ATOM     15  C   UNL     1       6.674  19.161  45.555  1.00  0.00     0.021 C 
ATOM     16  C   UNL     1       4.170  19.487  45.461  1.00  0.00     0.008 C 
ATOM     17  C   UNL     1       5.148  17.142  45.131  1.00  0.00     0.012 C 
ATOM     18  C   UNL     1       6.837  19.417  44.069  1.00  0.00    -0.067 C 
ATOM     19  C   UNL     1       4.556  20.502  44.348  1.00  0.00     0.009 C 
ATOM     20  C   UNL     1       5.601  19.947  43.332  1.00  0.00     0.021 C 
ATOM     21  C   UNL     1       8.040  19.318  43.461  1.00  0.00    -0.027 C 
ATOM     22  C   UNL     1       5.989  20.944  42.184  1.00  0.00    -0.023 C 
ATOM     23  C   UNL     1       8.310  19.839  42.072  1.00  0.00     0.031 C 
ATOM     24  C   UNL     1       7.030  20.188  41.290  1.00  0.00     0.002 C 
ATOM     25  C   UNL     1       4.738  21.275  41.315  1.00  0.00     0.010 C 
ATOM     26  C   UNL     1       6.573  22.261  42.776  1.00  0.00     0.012 C 
ATOM     27  C   UNL     1       7.370  20.937  39.984  1.00  0.00     0.036 C 
ATOM     28  C   UNL     1       5.087  22.019  40.014  1.00  0.00     0.032 C 
ATOM     29  C   UNL     1       6.106  21.248  39.167  1.00  0.00     0.114 C 
BRANCH  29  30
ATOM     30  O   UNL     1       5.522  20.062  38.690  1.00  0.00    -0.393 OA
ATOM     31  H   UNL     1       6.040  19.790  37.888  1.00  0.00     0.210 HD
ENDBRANCH  29  30
ENDBRANCH   1  11
TORSDOF 6
ENDMDL
MODEL 6
REMARK VINA RESULT:    -6.889      3.531      9.510
REMARK INTER + INTRA:         -10.140
REMARK INTER:                 -10.098
REMARK INTRA:                  -0.042
REMARK UNBOUND:                -1.036
REMARK SMILES CC[C@H](C=C[C@@H](C)[C@H]1CC[C@H]2C3=CC[C@@H]4C[C@@H](O)CC[C@@]4(C)[C@@H]3CC[C@]12C)C(C)C
REMARK SMILES IDX 6 1 7 2 5 3 4 4 3 5 2 6 1 7 28 8 29 9 30 10 8 11 9 12 26 13
REMARK SMILES IDX 10 14 11 15 25 16 27 17 12 18 24 19 23 20 13 21 21 22 14 23
REMARK SMILES IDX 15 24 20 25 22 26 16 27 19 28 17 29 18 30
REMARK H PARENT 18 31
REMARK Flexibility Score: inf
ROOT
ATOM      1  C   UNL     1      -2.001  21.127  48.838  1.00  0.00     0.012 C 
ATOM      2  C   UNL     1      -1.380  22.199  47.929  1.00  0.00     0.012 C 
ENDROOT
BRANCH   1   3
ATOM      3  C   UNL     1      -2.277  21.722  50.205  1.00  0.00    -0.028 C 
ATOM      4  C   UNL     1      -1.398  22.514  50.841  1.00  0.00    -0.027 C 
BRANCH   4   5
ATOM      5  C   UNL     1      -1.696  23.081  52.213  1.00  0.00     0.014 C 
BRANCH   5   6
ATOM      6  C   UNL     1      -0.396  23.183  53.049  1.00  0.00     0.004 C 
ATOM      7  C   UNL     1       0.702  22.258  52.520  1.00  0.00     0.004 C 
ENDBRANCH   5   6
BRANCH   5   8
ATOM      8  C   UNL     1      -2.455  24.436  52.078  1.00  0.00    -0.011 C 
ATOM      9  C   UNL     1      -1.963  25.293  50.901  1.00  0.00     0.008 C 
ATOM     10  C   UNL     1      -2.427  25.250  53.381  1.00  0.00     0.008 C 
ENDBRANCH   5   8
ENDBRANCH   4   5
ENDBRANCH   1   3
BRANCH   1  11
ATOM     11  C   UNL     1      -1.116  19.844  48.949  1.00  0.00     0.002 C 
ATOM     12  C   UNL     1      -1.929  18.545  48.708  1.00  0.00     0.005 C 
ATOM     13  C   UNL     1       0.098  19.715  47.982  1.00  0.00    -0.023 C 
ATOM     14  C   UNL     1      -0.984  17.540  48.030  1.00  0.00     0.009 C 
ATOM     15  C   UNL     1       0.382  18.210  48.103  1.00  0.00     0.021 C 
ATOM     16  C   UNL     1       1.374  20.514  48.411  1.00  0.00     0.008 C 
ATOM     17  C   UNL     1      -0.316  20.110  46.527  1.00  0.00     0.012 C 
ATOM     18  C   UNL     1       1.496  17.774  47.171  1.00  0.00    -0.067 C 
ATOM     19  C   UNL     1       2.707  19.730  48.250  1.00  0.00     0.009 C 
ATOM     20  C   UNL     1       2.699  18.720  47.063  1.00  0.00     0.021 C 
ATOM     21  C   UNL     1       1.491  16.558  46.581  1.00  0.00    -0.027 C 
ATOM     22  C   UNL     1       4.043  17.933  46.864  1.00  0.00    -0.023 C 
ATOM     23  C   UNL     1       2.696  15.968  45.892  1.00  0.00     0.031 C 
ATOM     24  C   UNL     1       3.814  16.994  45.632  1.00  0.00     0.002 C 
ATOM     25  C   UNL     1       5.199  18.923  46.526  1.00  0.00     0.010 C 
ATOM     26  C   UNL     1       4.404  17.133  48.151  1.00  0.00     0.012 C 
ATOM     27  C   UNL     1       5.103  16.293  45.153  1.00  0.00     0.036 C 
ATOM     28  C   UNL     1       6.478  18.215  46.047  1.00  0.00     0.032 C 
ATOM     29  C   UNL     1       6.215  17.307  44.840  1.00  0.00     0.114 C 
BRANCH  29  30
ATOM     30  O   UNL     1       5.867  18.091  43.727  1.00  0.00    -0.393 OA
ATOM     31  H   UNL     1       5.434  17.483  43.072  1.00  0.00     0.210 HD
ENDBRANCH  29  30
ENDBRANCH   1  11
TORSDOF 6
ENDMDL
MODEL 7
REMARK VINA RESULT:    -6.887     10.077     11.840
REMARK INTER + INTRA:         -10.137
REMARK INTER:                  -9.003
REMARK INTRA:                  -1.134
REMARK UNBOUND:                -1.036
REMARK SMILES CC[C@H](C=C[C@@H](C)[C@H]1CC[C@H]2C3=CC[C@@H]4C[C@@H](O)CC[C@@]4(C)[C@@H]3CC[C@]12C)C(C)C
REMARK SMILES IDX 6 1 7 2 5 3 4 4 3 5 2 6 1 7 28 8 29 9 30 10 8 11 9 12 26 13
REMARK SMILES IDX 10 14 11 15 25 16 27 17 12 18 24 19 23 20 13 21 21 22 14 23
REMARK SMILES IDX 15 24 20 25 22 26 16 27 19 28 17 29 18 30
REMARK H PARENT 18 31
REMARK Flexibility Score: inf
ROOT
ATOM      1  C   UNL     1       3.305  23.770  39.277  1.00  0.00     0.012 C 
ATOM      2  C   UNL     1       3.371  23.108  37.893  1.00  0.00     0.012 C 
ENDROOT
BRANCH   1   3
ATOM      3  C   UNL     1       3.931  22.851  40.308  1.00  0.00    -0.028 C 
ATOM      4  C   UNL     1       4.697  21.799  39.971  1.00  0.00    -0.027 C 
BRANCH   4   5
ATOM      5  C   UNL     1       5.297  20.890  41.022  1.00  0.00     0.014 C 
BRANCH   5   6
ATOM      6  C   UNL     1       6.696  20.397  40.575  1.00  0.00     0.004 C 
ATOM      7  C   UNL     1       7.018  20.811  39.137  1.00  0.00     0.004 C 
ENDBRANCH   5   6
BRANCH   5   8
ATOM      8  C   UNL     1       5.304  21.606  42.407  1.00  0.00    -0.011 C 
ATOM      9  C   UNL     1       6.663  22.230  42.760  1.00  0.00     0.008 C 
ATOM     10  C   UNL     1       4.829  20.683  43.540  1.00  0.00     0.008 C 
ENDBRANCH   5   8
ENDBRANCH   4   5
ENDBRANCH   1   3
BRANCH   1  11
ATOM     11  C   UNL     1       1.850  24.168  39.687  1.00  0.00     0.002 C 
ATOM     12  C   UNL     1       1.651  24.174  41.225  1.00  0.00     0.005 C 
ATOM     13  C   UNL     1       1.326  25.562  39.232  1.00  0.00    -0.023 C 
ATOM     14  C   UNL     1       0.636  25.282  41.544  1.00  0.00     0.009 C 
ATOM     15  C   UNL     1       0.125  25.722  40.178  1.00  0.00     0.021 C 
ATOM     16  C   UNL     1       0.824  25.630  37.751  1.00  0.00     0.008 C 
ATOM     17  C   UNL     1       2.408  26.662  39.480  1.00  0.00     0.012 C 
ATOM     18  C   UNL     1      -0.542  27.073  40.011  1.00  0.00    -0.067 C 
ATOM     19  C   UNL     1      -0.507  26.411  37.558  1.00  0.00     0.009 C 
ATOM     20  C   UNL     1      -0.697  27.580  38.572  1.00  0.00     0.021 C 
ATOM     21  C   UNL     1      -1.093  27.725  41.059  1.00  0.00    -0.027 C 
ATOM     22  C   UNL     1      -2.022  28.401  38.382  1.00  0.00    -0.023 C 
ATOM     23  C   UNL     1      -2.013  28.911  40.905  1.00  0.00     0.031 C 
ATOM     24  C   UNL     1      -2.003  29.511  39.487  1.00  0.00     0.002 C 
ATOM     25  C   UNL     1      -2.029  29.092  36.985  1.00  0.00     0.010 C 
ATOM     26  C   UNL     1      -3.265  27.471  38.509  1.00  0.00     0.012 C 
ATOM     27  C   UNL     1      -3.129  30.554  39.323  1.00  0.00     0.036 C 
ATOM     28  C   UNL     1      -3.154  30.130  36.832  1.00  0.00     0.032 C 
ATOM     29  C   UNL     1      -3.101  31.201  37.929  1.00  0.00     0.114 C 
BRANCH  29  30
ATOM     30  O   UNL     1      -1.944  31.982  37.771  1.00  0.00    -0.393 OA
ATOM     31  H   UNL     1      -2.221  32.929  37.874  1.00  0.00     0.210 HD
ENDBRANCH  29  30
ENDBRANCH   1  11
TORSDOF 6
ENDMDL
MODEL 8
REMARK VINA RESULT:    -6.822      2.262      3.509
REMARK INTER + INTRA:         -10.051
REMARK INTER:                  -9.706
REMARK INTRA:                  -0.345
REMARK UNBOUND:                -1.036
REMARK SMILES CC[C@H](C=C[C@@H](C)[C@H]1CC[C@H]2C3=CC[C@@H]4C[C@@H](O)CC[C@@]4(C)[C@@H]3CC[C@]12C)C(C)C
REMARK SMILES IDX 6 1 7 2 5 3 4 4 3 5 2 6 1 7 28 8 29 9 30 10 8 11 9 12 26 13
REMARK SMILES IDX 10 14 11 15 25 16 27 17 12 18 24 19 23 20 13 21 21 22 14 23
REMARK SMILES IDX 15 24 20 25 22 26 16 27 19 28 17 29 18 30
REMARK H PARENT 18 31
REMARK Flexibility Score: inf
ROOT
ATOM      1  C   UNL     1       7.118  17.863  46.650  1.00  0.00     0.012 C 
ATOM      2  C   UNL     1       7.412  16.683  47.589  1.00  0.00     0.012 C 
ENDROOT
BRANCH   1   3
ATOM      3  C   UNL     1       7.269  19.165  47.411  1.00  0.00    -0.028 C 
ATOM      4  C   UNL     1       7.466  20.344  46.798  1.00  0.00    -0.027 C 
BRANCH   4   5
ATOM      5  C   UNL     1       7.628  21.627  47.586  1.00  0.00     0.014 C 
BRANCH   5   6
ATOM      6  C   UNL     1       6.781  21.574  48.882  1.00  0.00     0.004 C 
ATOM      7  C   UNL     1       5.414  22.237  48.704  1.00  0.00     0.004 C 
ENDBRANCH   5   6
BRANCH   5   8
ATOM      8  C   UNL     1       9.139  21.911  47.841  1.00  0.00    -0.011 C 
ATOM      9  C   UNL     1       9.388  22.830  49.048  1.00  0.00     0.008 C 
ATOM     10  C   UNL     1       9.845  22.465  46.594  1.00  0.00     0.008 C 
ENDBRANCH   5   8
ENDBRANCH   4   5
ENDBRANCH   1   3
BRANCH   1  11
ATOM     11  C   UNL     1       5.712  17.763  45.975  1.00  0.00     0.002 C 
ATOM     12  C   UNL     1       5.560  16.479  45.117  1.00  0.00     0.005 C 
ATOM     13  C   UNL     1       4.463  17.746  46.906  1.00  0.00    -0.023 C 
ATOM     14  C   UNL     1       4.089  16.046  45.211  1.00  0.00     0.009 C 
ATOM     15  C   UNL     1       3.407  17.202  45.931  1.00  0.00     0.021 C 
ATOM     16  C   UNL     1       4.006  19.150  47.426  1.00  0.00     0.008 C 
ATOM     17  C   UNL     1       4.690  16.777  48.112  1.00  0.00     0.012 C 
ATOM     18  C   UNL     1       2.070  16.993  46.615  1.00  0.00    -0.067 C 
ATOM     19  C   UNL     1       2.469  19.383  47.382  1.00  0.00     0.009 C 
ATOM     20  C   UNL     1       1.634  18.085  47.600  1.00  0.00     0.021 C 
ATOM     21  C   UNL     1       1.248  15.978  46.268  1.00  0.00    -0.027 C 
ATOM     22  C   UNL     1       0.079  18.298  47.585  1.00  0.00    -0.023 C 
ATOM     23  C   UNL     1      -0.195  15.897  46.700  1.00  0.00     0.031 C 
ATOM     24  C   UNL     1      -0.552  16.884  47.826  1.00  0.00     0.002 C 
ATOM     25  C   UNL     1      -0.346  19.236  48.756  1.00  0.00     0.010 C 
ATOM     26  C   UNL     1      -0.376  18.918  46.231  1.00  0.00     0.012 C 
ATOM     27  C   UNL     1      -2.078  16.929  48.056  1.00  0.00     0.036 C 
ATOM     28  C   UNL     1      -1.867  19.272  48.978  1.00  0.00     0.032 C 
ATOM     29  C   UNL     1      -2.448  17.872  49.212  1.00  0.00     0.114 C 
BRANCH  29  30
ATOM     30  O   UNL     1      -1.975  17.363  50.433  1.00  0.00    -0.393 OA
ATOM     31  H   UNL     1      -2.767  17.243  51.020  1.00  0.00     0.210 HD
ENDBRANCH  29  30
ENDBRANCH   1  11
TORSDOF 6
ENDMDL
MODEL 9
REMARK VINA RESULT:    -6.773      3.093      9.495
REMARK INTER + INTRA:          -9.987
REMARK INTER:                  -8.748
REMARK INTRA:                  -1.238
REMARK UNBOUND:                -1.036
REMARK SMILES CC[C@H](C=C[C@@H](C)[C@H]1CC[C@H]2C3=CC[C@@H]4C[C@@H](O)CC[C@@]4(C)[C@@H]3CC[C@]12C)C(C)C
REMARK SMILES IDX 6 1 7 2 5 3 4 4 3 5 2 6 1 7 28 8 29 9 30 10 8 11 9 12 26 13
REMARK SMILES IDX 10 14 11 15 25 16 27 17 12 18 24 19 23 20 13 21 21 22 14 23
REMARK SMILES IDX 15 24 20 25 22 26 16 27 19 28 17 29 18 30
REMARK H PARENT 18 31
REMARK Flexibility Score: inf
ROOT
ATOM      1  C   UNL     1       2.130  21.150  48.469  1.00  0.00     0.012 C 
ATOM      2  C   UNL     1       2.573  21.875  49.749  1.00  0.00     0.012 C 
ENDROOT
BRANCH   1   3
ATOM      3  C   UNL     1       0.678  20.735  48.599  1.00  0.00    -0.028 C 
ATOM      4  C   UNL     1       0.010  20.790  49.763  1.00  0.00    -0.027 C 
BRANCH   4   5
ATOM      5  C   UNL     1      -1.436  20.355  49.866  1.00  0.00     0.014 C 
BRANCH   5   6
ATOM      6  C   UNL     1      -2.380  21.559  49.626  1.00  0.00     0.004 C 
ATOM      7  C   UNL     1      -2.297  22.590  50.754  1.00  0.00     0.004 C 
ENDBRANCH   5   6
BRANCH   5   8
ATOM      8  C   UNL     1      -1.703  19.155  48.907  1.00  0.00    -0.011 C 
ATOM      9  C   UNL     1      -3.078  19.219  48.223  1.00  0.00     0.008 C 
ATOM     10  C   UNL     1      -1.517  17.800  49.607  1.00  0.00     0.008 C 
ENDBRANCH   5   8
ENDBRANCH   4   5
ENDBRANCH   1   3
BRANCH   1  11
ATOM     11  C   UNL     1       3.038  19.925  48.124  1.00  0.00     0.002 C 
ATOM     12  C   UNL     1       2.213  18.666  47.751  1.00  0.00     0.005 C 
ATOM     13  C   UNL     1       4.045  20.080  46.945  1.00  0.00    -0.023 C 
ATOM     14  C   UNL     1       3.023  17.889  46.703  1.00  0.00     0.009 C 
ATOM     15  C   UNL     1       4.368  18.603  46.671  1.00  0.00     0.021 C 
ATOM     16  C   UNL     1       5.368  20.837  47.299  1.00  0.00     0.008 C 
ATOM     17  C   UNL     1       3.352  20.758  45.718  1.00  0.00     0.012 C 
ATOM     18  C   UNL     1       5.288  18.445  45.475  1.00  0.00    -0.067 C 
ATOM     19  C   UNL     1       6.657  20.185  46.723  1.00  0.00     0.009 C 
ATOM     20  C   UNL     1       6.434  19.458  45.362  1.00  0.00     0.021 C 
ATOM     21  C   UNL     1       5.186  17.388  44.638  1.00  0.00    -0.027 C 
ATOM     22  C   UNL     1       7.725  18.812  44.747  1.00  0.00    -0.023 C 
ATOM     23  C   UNL     1       6.244  17.032  43.624  1.00  0.00     0.031 C 
ATOM     24  C   UNL     1       7.277  18.151  43.399  1.00  0.00     0.002 C 
ATOM     25  C   UNL     1       8.780  19.916  44.432  1.00  0.00     0.010 C 
ATOM     26  C   UNL     1       8.339  17.772  45.731  1.00  0.00     0.012 C 
ATOM     27  C   UNL     1       8.459  17.646  42.545  1.00  0.00     0.036 C 
ATOM     28  C   UNL     1       9.953  19.403  43.579  1.00  0.00     0.032 C 
ATOM     29  C   UNL     1       9.475  18.766  42.268  1.00  0.00     0.114 C 
BRANCH  29  30
ATOM     30  O   UNL     1       8.909  19.752  41.443  1.00  0.00    -0.393 OA
ATOM     31  H   UNL     1       8.294  19.285  40.819  1.00  0.00     0.210 HD
ENDBRANCH  29  30
ENDBRANCH   1  11
TORSDOF 6
ENDMDL
