MODEL 1
REMARK VINA RESULT:    -4.211      0.000      0.000
REMARK INTER + INTRA:          -8.304
REMARK INTER:                  -6.427
REMARK INTRA:                  -1.878
REMARK UNBOUND:                -1.878
REMARK SMILES OC[C@@H]1O[C@@H](O[C@]2(CO)O[C@H](CO)[C@H](O)[C@H]2O)[C@H](O)[C@H](O)[C@@H]1O
REMARK SMILES IDX 6 1 5 2 3 3 22 4 4 5 20 6 18 7 2 8 1 9 23 11 21 13 19 15
REMARK SMILES IDX 7 17 16 18 10 19 14 20 11 21 8 22 9 23 17 25 15 27 12 29
REMARK SMILES IDX 13 30
REMARK H PARENT 1 10 23 12 21 14 19 16 9 24 17 26 15 28 13 31
REMARK Flexibility Score: inf
ROOT
ATOM      1  O   UNL     1      29.120  41.207  40.708  1.00  0.00    -0.313 OA
ENDROOT
BRANCH   1   2
ATOM      2  C   UNL     1      28.312  40.993  39.555  1.00  0.00     0.285 C 
ATOM      3  C   UNL     1      27.018  39.370  38.396  1.00  0.00     0.178 C 
ATOM      4  C   UNL     1      27.671  39.737  37.034  1.00  0.00     0.177 C 
ATOM      5  O   UNL     1      27.850  39.652  39.516  1.00  0.00    -0.341 OA
ATOM      6  C   UNL     1      28.347  41.124  37.039  1.00  0.00     0.179 C 
ATOM      7  C   UNL     1      29.175  41.296  38.317  1.00  0.00     0.202 C 
BRANCH   3   8
ATOM      8  C   UNL     1      25.557  39.831  38.606  1.00  0.00     0.191 C 
BRANCH   8   9
ATOM      9  O   UNL     1      24.935  39.161  39.664  1.00  0.00    -0.394 OA
ATOM     10  H   UNL     1      24.525  38.346  39.273  1.00  0.00     0.210 HD
ENDBRANCH   8   9
ENDBRANCH   3   8
BRANCH   4  11
ATOM     11  O   UNL     1      26.730  39.640  35.997  1.00  0.00    -0.387 OA
ATOM     12  H   UNL     1      25.976  40.240  36.234  1.00  0.00     0.211 HD
ENDBRANCH   4  11
BRANCH   6  13
ATOM     13  O   UNL     1      27.398  42.156  36.938  1.00  0.00    -0.387 OA
ATOM     14  H   UNL     1      27.897  42.989  36.727  1.00  0.00     0.211 HD
ENDBRANCH   6  13
BRANCH   7  15
ATOM     15  O   UNL     1      29.670  42.610  38.375  1.00  0.00    -0.385 OA
ATOM     16  H   UNL     1      29.202  43.128  37.669  1.00  0.00     0.211 HD
ENDBRANCH   7  15
ENDBRANCH   1   2
BRANCH   1  17
ATOM     17  C   UNL     1      28.526  41.969  41.764  1.00  0.00     0.224 C 
ATOM     18  C   UNL     1      26.993  42.106  41.511  1.00  0.00     0.208 C 
ATOM     19  O   UNL     1      28.694  41.204  42.944  1.00  0.00    -0.337 OA
ATOM     20  C   UNL     1      26.364  41.234  42.571  1.00  0.00     0.180 C 
ATOM     21  C   UNL     1      27.462  41.181  43.621  1.00  0.00     0.179 C 
BRANCH  17  22
ATOM     22  C   UNL     1      29.235  43.329  42.032  1.00  0.00     0.225 C 
BRANCH  22  23
ATOM     23  O   UNL     1      29.470  43.996  40.822  1.00  0.00    -0.391 OA
ATOM     24  H   UNL     1      30.181  43.484  40.357  1.00  0.00     0.210 HD
ENDBRANCH  22  23
ENDBRANCH  17  22
BRANCH  18  25
ATOM     25  O   UNL     1      26.537  43.429  41.666  1.00  0.00    -0.385 OA
ATOM     26  H   UNL     1      25.818  43.406  42.349  1.00  0.00     0.211 HD
ENDBRANCH  18  25
BRANCH  20  27
ATOM     27  O   UNL     1      26.107  39.958  42.035  1.00  0.00    -0.387 OA
ATOM     28  H   UNL     1      25.278  39.626  42.466  1.00  0.00     0.211 HD
ENDBRANCH  20  27
BRANCH  21  29
ATOM     29  C   UNL     1      27.382  39.952  44.537  1.00  0.00     0.191 C 
BRANCH  29  30
ATOM     30  O   UNL     1      26.046  39.667  44.854  1.00  0.00    -0.394 OA
ATOM     31  H   UNL     1      25.670  40.487  45.269  1.00  0.00     0.210 HD
ENDBRANCH  29  30
ENDBRANCH  21  29
ENDBRANCH   1  17
TORSDOF 13
ENDMDL
MODEL 2
REMARK VINA RESULT:    -4.186      1.746      6.198
REMARK INTER + INTRA:          -8.266
REMARK INTER:                  -6.412
REMARK INTRA:                  -1.854
REMARK UNBOUND:                -1.878
REMARK SMILES OC[C@@H]1O[C@@H](O[C@]2(CO)O[C@H](CO)[C@H](O)[C@H]2O)[C@H](O)[C@H](O)[C@@H]1O
REMARK SMILES IDX 6 1 5 2 3 3 22 4 4 5 20 6 18 7 2 8 1 9 23 11 21 13 19 15
REMARK SMILES IDX 7 17 16 18 10 19 14 20 11 21 8 22 9 23 17 25 15 27 12 29
REMARK SMILES IDX 13 30
REMARK H PARENT 1 10 23 12 21 14 19 16 9 24 17 26 15 28 13 31
REMARK Flexibility Score: inf
ROOT
ATOM      1  O   UNL     1      26.460  38.369  40.025  1.00  0.00    -0.313 OA
ENDROOT
BRANCH   1   2
ATOM      2  C   UNL     1      26.657  39.207  41.158  1.00  0.00     0.285 C 
ATOM      3  C   UNL     1      28.248  40.574  42.278  1.00  0.00     0.178 C 
ATOM      4  C   UNL     1      27.910  39.940  43.655  1.00  0.00     0.177 C 
ATOM      5  O   UNL     1      27.984  39.711  41.178  1.00  0.00    -0.341 OA
ATOM      6  C   UNL     1      26.545  39.223  43.675  1.00  0.00     0.179 C 
ATOM      7  C   UNL     1      26.389  38.363  42.416  1.00  0.00     0.202 C 
BRANCH   3   8
ATOM      8  C   UNL     1      27.742  42.016  42.041  1.00  0.00     0.191 C 
BRANCH   8   9
ATOM      9  O   UNL     1      28.339  42.612  40.926  1.00  0.00    -0.394 OA
ATOM     10  H   UNL     1      27.613  43.086  40.443  1.00  0.00     0.210 HD
ENDBRANCH   8   9
ENDBRANCH   3   8
BRANCH   4  11
ATOM     11  O   UNL     1      27.985  40.906  44.672  1.00  0.00    -0.387 OA
ATOM     12  H   UNL     1      27.823  41.787  44.246  1.00  0.00     0.211 HD
ENDBRANCH   4  11
BRANCH   6  13
ATOM     13  O   UNL     1      25.485  40.142  43.764  1.00  0.00    -0.387 OA
ATOM     14  H   UNL     1      25.043  39.992  44.641  1.00  0.00     0.211 HD
ENDBRANCH   6  13
BRANCH   7  15
ATOM     15  O   UNL     1      25.089  37.828  42.379  1.00  0.00    -0.385 OA
ATOM     16  H   UNL     1      24.459  38.593  42.408  1.00  0.00     0.211 HD
ENDBRANCH   7  15
ENDBRANCH   1   2
BRANCH   1  17
ATOM     17  C   UNL     1      25.643  38.903  38.977  1.00  0.00     0.224 C 
ATOM     18  C   UNL     1      25.474  40.441  39.179  1.00  0.00     0.208 C 
ATOM     19  O   UNL     1      26.368  38.710  37.775  1.00  0.00    -0.337 OA
ATOM     20  C   UNL     1      26.289  41.051  38.063  1.00  0.00     0.180 C 
ATOM     21  C   UNL     1      26.332  39.916  37.053  1.00  0.00     0.179 C 
BRANCH  17  22
ATOM     22  C   UNL     1      24.294  38.150  38.788  1.00  0.00     0.225 C 
BRANCH  22  23
ATOM     23  O   UNL     1      23.700  37.905  40.034  1.00  0.00    -0.391 OA
ATOM     24  H   UNL     1      23.767  38.755  40.543  1.00  0.00     0.210 HD
ENDBRANCH  22  23
ENDBRANCH  17  22
BRANCH  18  25
ATOM     25  O   UNL     1      24.135  40.856  39.058  1.00  0.00    -0.385 OA
ATOM     26  H   UNL     1      23.589  40.221  39.590  1.00  0.00     0.211 HD
ENDBRANCH  18  25
BRANCH  20  27
ATOM     27  O   UNL     1      27.576  41.361  38.540  1.00  0.00    -0.387 OA
ATOM     28  H   UNL     1      27.472  42.101  39.192  1.00  0.00     0.211 HD
ENDBRANCH  20  27
BRANCH  21  29
ATOM     29  C   UNL     1      27.523  39.993  36.088  1.00  0.00     0.191 C 
BRANCH  29  30
ATOM     30  O   UNL     1      27.668  41.297  35.596  1.00  0.00    -0.394 OA
ATOM     31  H   UNL     1      28.283  41.770  36.217  1.00  0.00     0.210 HD
ENDBRANCH  29  30
ENDBRANCH  21  29
ENDBRANCH   1  17
TORSDOF 13
ENDMDL
MODEL 3
REMARK VINA RESULT:    -4.128      2.566      5.297
REMARK INTER + INTRA:          -8.177
REMARK INTER:                  -5.846
REMARK INTRA:                  -2.331
REMARK UNBOUND:                -1.878
REMARK SMILES OC[C@@H]1O[C@@H](O[C@]2(CO)O[C@H](CO)[C@H](O)[C@H]2O)[C@H](O)[C@H](O)[C@@H]1O
REMARK SMILES IDX 6 1 5 2 3 3 22 4 4 5 20 6 18 7 2 8 1 9 23 11 21 13 19 15
REMARK SMILES IDX 7 17 16 18 10 19 14 20 11 21 8 22 9 23 17 25 15 27 12 29
REMARK SMILES IDX 13 30
REMARK H PARENT 1 10 23 12 21 14 19 16 9 24 17 26 15 28 13 31
REMARK Flexibility Score: inf
ROOT
ATOM      1  O   UNL     1      28.018  38.260  41.909  1.00  0.00    -0.313 OA
ENDROOT
BRANCH   1   2
ATOM      2  C   UNL     1      28.176  39.583  41.409  1.00  0.00     0.285 C 
ATOM      3  C   UNL     1      29.784  41.257  40.893  1.00  0.00     0.178 C 
ATOM      4  C   UNL     1      28.955  42.357  41.613  1.00  0.00     0.177 C 
ATOM      5  O   UNL     1      29.548  39.949  41.400  1.00  0.00    -0.341 OA
ATOM      6  C   UNL     1      27.476  41.969  41.813  1.00  0.00     0.179 C 
ATOM      7  C   UNL     1      27.379  40.528  42.325  1.00  0.00     0.202 C 
BRANCH   3   8
ATOM      8  C   UNL     1      29.798  41.306  39.348  1.00  0.00     0.191 C 
BRANCH   8   9
ATOM      9  O   UNL     1      28.665  41.939  38.827  1.00  0.00    -0.394 OA
ATOM     10  H   UNL     1      28.118  41.225  38.407  1.00  0.00     0.210 HD
ENDBRANCH   8   9
ENDBRANCH   3   8
BRANCH   4  11
ATOM     11  O   UNL     1      29.067  43.580  40.933  1.00  0.00    -0.387 OA
ATOM     12  H   UNL     1      29.800  43.477  40.272  1.00  0.00     0.211 HD
ENDBRANCH   4  11
BRANCH   6  13
ATOM     13  O   UNL     1      26.745  42.106  40.620  1.00  0.00    -0.387 OA
ATOM     14  H   UNL     1      26.883  41.273  40.098  1.00  0.00     0.211 HD
ENDBRANCH   6  13
BRANCH   7  15
ATOM     15  O   UNL     1      26.028  40.142  42.369  1.00  0.00    -0.385 OA
ATOM     16  H   UNL     1      25.487  40.970  42.295  1.00  0.00     0.211 HD
ENDBRANCH   7  15
ENDBRANCH   1   2
BRANCH   1  17
ATOM     17  C   UNL     1      27.457  37.304  41.003  1.00  0.00     0.224 C 
ATOM     18  C   UNL     1      26.409  36.425  41.754  1.00  0.00     0.208 C 
ATOM     19  O   UNL     1      26.759  38.052  40.023  1.00  0.00    -0.337 OA
ATOM     20  C   UNL     1      25.081  36.872  41.190  1.00  0.00     0.180 C 
ATOM     21  C   UNL     1      25.494  37.461  39.851  1.00  0.00     0.179 C 
BRANCH  17  22
ATOM     22  C   UNL     1      28.522  36.473  40.228  1.00  0.00     0.225 C 
BRANCH  22  23
ATOM     23  O   UNL     1      29.401  35.858  41.130  1.00  0.00    -0.391 OA
ATOM     24  H   UNL     1      30.208  36.436  41.167  1.00  0.00     0.210 HD
ENDBRANCH  22  23
ENDBRANCH  17  22
BRANCH  18  25
ATOM     25  O   UNL     1      26.581  35.051  41.506  1.00  0.00    -0.385 OA
ATOM     26  H   UNL     1      27.328  34.747  42.085  1.00  0.00     0.211 HD
ENDBRANCH  18  25
BRANCH  20  27
ATOM     27  O   UNL     1      24.522  37.852  42.031  1.00  0.00    -0.387 OA
ATOM     28  H   UNL     1      24.325  37.412  42.897  1.00  0.00     0.211 HD
ENDBRANCH  20  27
BRANCH  21  29
ATOM     29  C   UNL     1      24.499  38.489  39.295  1.00  0.00     0.191 C 
BRANCH  29  30
ATOM     30  O   UNL     1      24.882  39.787  39.664  1.00  0.00    -0.394 OA
ATOM     31  H   UNL     1      24.719  40.368  38.874  1.00  0.00     0.210 HD
ENDBRANCH  29  30
ENDBRANCH  21  29
ENDBRANCH   1  17
TORSDOF 13
ENDMDL
MODEL 4
REMARK VINA RESULT:    -4.023      1.686      5.646
REMARK INTER + INTRA:          -8.018
REMARK INTER:                  -5.884
REMARK INTRA:                  -2.134
REMARK UNBOUND:                -1.878
REMARK SMILES OC[C@@H]1O[C@@H](O[C@]2(CO)O[C@H](CO)[C@H](O)[C@H]2O)[C@H](O)[C@H](O)[C@@H]1O
REMARK SMILES IDX 6 1 5 2 3 3 22 4 4 5 20 6 18 7 2 8 1 9 23 11 21 13 19 15
REMARK SMILES IDX 7 17 16 18 10 19 14 20 11 21 8 22 9 23 17 25 15 27 12 29
REMARK SMILES IDX 13 30
REMARK H PARENT 1 10 23 12 21 14 19 16 9 24 17 26 15 28 13 31
REMARK Flexibility Score: inf
ROOT
ATOM      1  O   UNL     1      29.668  40.218  39.213  1.00  0.00    -0.313 OA
ENDROOT
BRANCH   1   2
ATOM      2  C   UNL     1      28.811  40.907  40.117  1.00  0.00     0.285 C 
ATOM      3  C   UNL     1      28.711  41.921  42.265  1.00  0.00     0.178 C 
ATOM      4  C   UNL     1      27.369  41.212  42.601  1.00  0.00     0.177 C 
ATOM      5  O   UNL     1      29.502  41.213  41.319  1.00  0.00    -0.341 OA
ATOM      6  C   UNL     1      26.625  40.697  41.352  1.00  0.00     0.179 C 
ATOM      7  C   UNL     1      27.609  39.993  40.412  1.00  0.00     0.202 C 
BRANCH   3   8
ATOM      8  C   UNL     1      28.633  43.436  41.966  1.00  0.00     0.191 C 
BRANCH   8   9
ATOM      9  O   UNL     1      29.881  43.979  41.644  1.00  0.00    -0.394 OA
ATOM     10  H   UNL     1      30.338  43.304  41.079  1.00  0.00     0.210 HD
ENDBRANCH   8   9
ENDBRANCH   3   8
BRANCH   4  11
ATOM     11  O   UNL     1      26.546  42.055  43.365  1.00  0.00    -0.387 OA
ATOM     12  H   UNL     1      25.688  42.145  42.873  1.00  0.00     0.211 HD
ENDBRANCH   4  11
BRANCH   6  13
ATOM     13  O   UNL     1      25.978  41.745  40.673  1.00  0.00    -0.387 OA
ATOM     14  H   UNL     1      26.564  42.003  39.913  1.00  0.00     0.211 HD
ENDBRANCH   6  13
BRANCH   7  15
ATOM     15  O   UNL     1      26.948  39.654  39.219  1.00  0.00    -0.385 OA
ATOM     16  H   UNL     1      27.648  39.512  38.530  1.00  0.00     0.211 HD
ENDBRANCH   7  15
ENDBRANCH   1   2
BRANCH   1  17
ATOM     17  C   UNL     1      29.868  40.835  37.937  1.00  0.00     0.224 C 
ATOM     18  C   UNL     1      29.879  39.741  36.824  1.00  0.00     0.208 C 
ATOM     19  O   UNL     1      28.735  41.655  37.713  1.00  0.00    -0.337 OA
ATOM     20  C   UNL     1      28.585  39.960  36.078  1.00  0.00     0.180 C 
ATOM     21  C   UNL     1      28.280  41.413  36.404  1.00  0.00     0.179 C 
BRANCH  17  22
ATOM     22  C   UNL     1      31.100  41.785  37.885  1.00  0.00     0.225 C 
BRANCH  22  23
ATOM     23  O   UNL     1      32.223  41.147  38.429  1.00  0.00    -0.391 OA
ATOM     24  H   UNL     1      31.948  40.819  39.325  1.00  0.00     0.210 HD
ENDBRANCH  22  23
ENDBRANCH  17  22
BRANCH  18  25
ATOM     25  O   UNL     1      30.960  39.887  35.935  1.00  0.00    -0.385 OA
ATOM     26  H   UNL     1      31.764  39.537  36.401  1.00  0.00     0.211 HD
ENDBRANCH  18  25
BRANCH  20  27
ATOM     27  O   UNL     1      27.597  39.101  36.593  1.00  0.00    -0.387 OA
ATOM     28  H   UNL     1      27.758  39.027  37.570  1.00  0.00     0.211 HD
ENDBRANCH  20  27
BRANCH  21  29
ATOM     29  C   UNL     1      26.793  41.774  36.284  1.00  0.00     0.191 C 
BRANCH  29  30
ATOM     30  O   UNL     1      26.172  41.705  37.539  1.00  0.00    -0.394 OA
ATOM     31  H   UNL     1      26.461  42.509  38.045  1.00  0.00     0.210 HD
ENDBRANCH  29  30
ENDBRANCH  21  29
ENDBRANCH   1  17
TORSDOF 13
ENDMDL
MODEL 5
REMARK VINA RESULT:    -3.933      2.491      4.274
REMARK INTER + INTRA:          -7.880
REMARK INTER:                  -5.563
REMARK INTRA:                  -2.317
REMARK UNBOUND:                -1.878
REMARK SMILES OC[C@@H]1O[C@@H](O[C@]2(CO)O[C@H](CO)[C@H](O)[C@H]2O)[C@H](O)[C@H](O)[C@@H]1O
REMARK SMILES IDX 6 1 5 2 3 3 22 4 4 5 20 6 18 7 2 8 1 9 23 11 21 13 19 15
REMARK SMILES IDX 7 17 16 18 10 19 14 20 11 21 8 22 9 23 17 25 15 27 12 29
REMARK SMILES IDX 13 30
REMARK H PARENT 1 10 23 12 21 14 19 16 9 24 17 26 15 28 13 31
REMARK Flexibility Score: inf
ROOT
ATOM      1  O   UNL     1      27.351  37.556  40.971  1.00  0.00    -0.313 OA
ENDROOT
BRANCH   1   2
ATOM      2  C   UNL     1      26.816  38.650  40.234  1.00  0.00     0.285 C 
ATOM      3  C   UNL     1      25.814  39.260  38.166  1.00  0.00     0.178 C 
ATOM      4  C   UNL     1      26.748  40.492  38.011  1.00  0.00     0.177 C 
ATOM      5  O   UNL     1      26.379  38.219  38.954  1.00  0.00    -0.341 OA
ATOM      6  C   UNL     1      27.400  40.931  39.338  1.00  0.00     0.179 C 
ATOM      7  C   UNL     1      27.928  39.704  40.090  1.00  0.00     0.202 C 
BRANCH   3   8
ATOM      8  C   UNL     1      24.340  39.554  38.532  1.00  0.00     0.191 C 
BRANCH   8   9
ATOM      9  O   UNL     1      24.191  40.777  39.194  1.00  0.00    -0.394 OA
ATOM     10  H   UNL     1      24.301  41.480  38.502  1.00  0.00     0.210 HD
ENDBRANCH   8   9
ENDBRANCH   3   8
BRANCH   4  11
ATOM     11  O   UNL     1      26.057  41.559  37.413  1.00  0.00    -0.387 OA
ATOM     12  H   UNL     1      25.998  42.281  38.092  1.00  0.00     0.211 HD
ENDBRANCH   4  11
BRANCH   6  13
ATOM     13  O   UNL     1      26.493  41.637  40.146  1.00  0.00    -0.387 OA
ATOM     14  H   UNL     1      26.913  41.730  41.041  1.00  0.00     0.211 HD
ENDBRANCH   6  13
BRANCH   7  15
ATOM     15  O   UNL     1      28.392  40.102  41.356  1.00  0.00    -0.385 OA
ATOM     16  H   UNL     1      27.606  40.427  41.865  1.00  0.00     0.211 HD
ENDBRANCH   7  15
ENDBRANCH   1   2
BRANCH   1  17
ATOM     17  C   UNL     1      26.676  37.223  42.189  1.00  0.00     0.224 C 
ATOM     18  C   UNL     1      27.724  36.988  43.320  1.00  0.00     0.208 C 
ATOM     19  O   UNL     1      25.918  38.366  42.544  1.00  0.00    -0.337 OA
ATOM     20  C   UNL     1      27.556  38.179  44.233  1.00  0.00     0.180 C 
ATOM     21  C   UNL     1      26.138  38.620  43.910  1.00  0.00     0.179 C 
BRANCH  17  22
ATOM     22  C   UNL     1      25.651  36.060  42.041  1.00  0.00     0.225 C 
BRANCH  22  23
ATOM     23  O   UNL     1      26.292  34.914  41.550  1.00  0.00    -0.391 OA
ATOM     24  H   UNL     1      25.690  34.152  41.755  1.00  0.00     0.210 HD
ENDBRANCH  22  23
ENDBRANCH  17  22
BRANCH  18  25
ATOM     25  O   UNL     1      27.479  35.807  44.046  1.00  0.00    -0.385 OA
ATOM     26  H   UNL     1      27.119  36.083  44.928  1.00  0.00     0.211 HD
ENDBRANCH  18  25
BRANCH  20  27
ATOM     27  O   UNL     1      28.492  39.170  43.885  1.00  0.00    -0.387 OA
ATOM     28  H   UNL     1      27.988  40.017  43.769  1.00  0.00     0.211 HD
ENDBRANCH  20  27
BRANCH  21  29
ATOM     29  C   UNL     1      25.863  40.097  44.226  1.00  0.00     0.191 C 
BRANCH  29  30
ATOM     30  O   UNL     1      26.070  40.886  43.086  1.00  0.00    -0.394 OA
ATOM     31  H   UNL     1      25.203  40.921  42.602  1.00  0.00     0.210 HD
ENDBRANCH  29  30
ENDBRANCH  21  29
ENDBRANCH   1  17
TORSDOF 13
ENDMDL
MODEL 6
REMARK VINA RESULT:    -3.903      2.266      4.520
REMARK INTER + INTRA:          -7.834
REMARK INTER:                  -5.701
REMARK INTRA:                  -2.134
REMARK UNBOUND:                -1.878
REMARK SMILES OC[C@@H]1O[C@@H](O[C@]2(CO)O[C@H](CO)[C@H](O)[C@H]2O)[C@H](O)[C@H](O)[C@@H]1O
REMARK SMILES IDX 6 1 5 2 3 3 22 4 4 5 20 6 18 7 2 8 1 9 23 11 21 13 19 15
REMARK SMILES IDX 7 17 16 18 10 19 14 20 11 21 8 22 9 23 17 25 15 27 12 29
REMARK SMILES IDX 13 30
REMARK H PARENT 1 10 23 12 21 14 19 16 9 24 17 26 15 28 13 31
REMARK Flexibility Score: inf
ROOT
ATOM      1  O   UNL     1      29.117  39.729  37.252  1.00  0.00    -0.313 OA
ENDROOT
BRANCH   1   2
ATOM      2  C   UNL     1      27.901  39.798  37.989  1.00  0.00     0.285 C 
ATOM      3  C   UNL     1      26.177  38.486  38.969  1.00  0.00     0.178 C 
ATOM      4  C   UNL     1      25.066  39.386  38.359  1.00  0.00     0.177 C 
ATOM      5  O   UNL     1      27.386  38.496  38.219  1.00  0.00    -0.341 OA
ATOM      6  C   UNL     1      25.579  40.774  37.925  1.00  0.00     0.179 C 
ATOM      7  C   UNL     1      26.901  40.628  37.164  1.00  0.00     0.202 C 
BRANCH   3   8
ATOM      8  C   UNL     1      26.415  38.623  40.491  1.00  0.00     0.191 C 
BRANCH   8   9
ATOM      9  O   UNL     1      26.075  39.892  40.970  1.00  0.00    -0.394 OA
ATOM     10  H   UNL     1      26.873  40.465  40.826  1.00  0.00     0.210 HD
ENDBRANCH   8   9
ENDBRANCH   3   8
BRANCH   4  11
ATOM     11  O   UNL     1      23.986  39.504  39.249  1.00  0.00    -0.387 OA
ATOM     12  H   UNL     1      23.763  40.470  39.306  1.00  0.00     0.211 HD
ENDBRANCH   4  11
BRANCH   6  13
ATOM     13  O   UNL     1      25.752  41.624  39.031  1.00  0.00    -0.387 OA
ATOM     14  H   UNL     1      26.727  41.799  39.113  1.00  0.00     0.211 HD
ENDBRANCH   6  13
BRANCH   7  15
ATOM     15  O   UNL     1      27.426  41.904  36.898  1.00  0.00    -0.385 OA
ATOM     16  H   UNL     1      28.363  41.906  37.224  1.00  0.00     0.211 HD
ENDBRANCH   7  15
ENDBRANCH   1   2
BRANCH   1  17
ATOM     17  C   UNL     1      30.309  40.072  37.966  1.00  0.00     0.224 C 
ATOM     18  C   UNL     1      30.958  41.336  37.323  1.00  0.00     0.208 C 
ATOM     19  O   UNL     1      29.897  40.426  39.274  1.00  0.00    -0.337 OA
ATOM     20  C   UNL     1      30.730  42.427  38.341  1.00  0.00     0.180 C 
ATOM     21  C   UNL     1      30.545  41.626  39.619  1.00  0.00     0.179 C 
BRANCH  17  22
ATOM     22  C   UNL     1      31.301  38.884  38.137  1.00  0.00     0.225 C 
BRANCH  22  23
ATOM     23  O   UNL     1      31.613  38.333  36.887  1.00  0.00    -0.391 OA
ATOM     24  H   UNL     1      30.889  38.620  36.271  1.00  0.00     0.210 HD
ENDBRANCH  22  23
ENDBRANCH  17  22
BRANCH  18  25
ATOM     25  O   UNL     1      32.340  41.183  37.107  1.00  0.00    -0.385 OA
ATOM     26  H   UNL     1      32.793  41.442  37.952  1.00  0.00     0.211 HD
ENDBRANCH  18  25
BRANCH  20  27
ATOM     27  O   UNL     1      29.562  43.139  38.010  1.00  0.00    -0.387 OA
ATOM     28  H   UNL     1      29.751  43.629  37.168  1.00  0.00     0.211 HD
ENDBRANCH  20  27
BRANCH  21  29
ATOM     29  C   UNL     1      29.749  42.366  40.703  1.00  0.00     0.191 C 
BRANCH  29  30
ATOM     30  O   UNL     1      28.377  42.125  40.550  1.00  0.00    -0.394 OA
ATOM     31  H   UNL     1      28.096  42.590  39.719  1.00  0.00     0.210 HD
ENDBRANCH  29  30
ENDBRANCH  21  29
ENDBRANCH   1  17
TORSDOF 13
ENDMDL
MODEL 7
REMARK VINA RESULT:    -3.891      1.727      5.487
REMARK INTER + INTRA:          -7.815
REMARK INTER:                  -6.106
REMARK INTRA:                  -1.709
REMARK UNBOUND:                -1.878
REMARK SMILES OC[C@@H]1O[C@@H](O[C@]2(CO)O[C@H](CO)[C@H](O)[C@H]2O)[C@H](O)[C@H](O)[C@@H]1O
REMARK SMILES IDX 6 1 5 2 3 3 22 4 4 5 20 6 18 7 2 8 1 9 23 11 21 13 19 15
REMARK SMILES IDX 7 17 16 18 10 19 14 20 11 21 8 22 9 23 17 25 15 27 12 29
REMARK SMILES IDX 13 30
REMARK H PARENT 1 10 23 12 21 14 19 16 9 24 17 26 15 28 13 31
REMARK Flexibility Score: inf
ROOT
ATOM      1  O   UNL     1      27.586  38.852  39.892  1.00  0.00    -0.313 OA
ENDROOT
BRANCH   1   2
ATOM      2  C   UNL     1      27.463  39.537  41.133  1.00  0.00     0.285 C 
ATOM      3  C   UNL     1      28.698  40.597  42.866  1.00  0.00     0.178 C 
ATOM      4  C   UNL     1      27.891  39.859  43.971  1.00  0.00     0.177 C 
ATOM      5  O   UNL     1      28.744  39.890  41.633  1.00  0.00    -0.341 OA
ATOM      6  C   UNL     1      26.547  39.295  43.467  1.00  0.00     0.179 C 
ATOM      7  C   UNL     1      26.748  38.596  42.118  1.00  0.00     0.202 C 
BRANCH   3   8
ATOM      8  C   UNL     1      28.394  42.102  42.682  1.00  0.00     0.191 C 
BRANCH   8   9
ATOM      9  O   UNL     1      27.053  42.409  42.937  1.00  0.00    -0.394 OA
ATOM     10  H   UNL     1      26.787  43.075  42.252  1.00  0.00     0.210 HD
ENDBRANCH   8   9
ENDBRANCH   3   8
BRANCH   4  11
ATOM     11  O   UNL     1      27.701  40.696  45.082  1.00  0.00    -0.387 OA
ATOM     12  H   UNL     1      28.070  41.585  44.840  1.00  0.00     0.211 HD
ENDBRANCH   4  11
BRANCH   6  13
ATOM     13  O   UNL     1      25.580  40.307  43.346  1.00  0.00    -0.387 OA
ATOM     14  H   UNL     1      25.334  40.360  42.385  1.00  0.00     0.211 HD
ENDBRANCH   6  13
BRANCH   7  15
ATOM     15  O   UNL     1      25.497  38.211  41.606  1.00  0.00    -0.385 OA
ATOM     16  H   UNL     1      25.668  37.724  40.758  1.00  0.00     0.211 HD
ENDBRANCH   7  15
ENDBRANCH   1   2
BRANCH   1  17
ATOM     17  C   UNL     1      27.198  39.582  38.724  1.00  0.00     0.224 C 
ATOM     18  C   UNL     1      26.059  38.816  37.983  1.00  0.00     0.208 C 
ATOM     19  O   UNL     1      26.653  40.805  39.187  1.00  0.00    -0.337 OA
ATOM     20  C   UNL     1      24.832  39.665  38.213  1.00  0.00     0.180 C 
ATOM     21  C   UNL     1      25.445  41.025  38.503  1.00  0.00     0.179 C 
BRANCH  17  22
ATOM     22  C   UNL     1      28.390  39.968  37.799  1.00  0.00     0.225 C 
BRANCH  22  23
ATOM     23  O   UNL     1      29.570  40.058  38.549  1.00  0.00    -0.391 OA
ATOM     24  H   UNL     1      29.302  39.959  39.499  1.00  0.00     0.210 HD
ENDBRANCH  22  23
ENDBRANCH  17  22
BRANCH  18  25
ATOM     25  O   UNL     1      26.295  38.705  36.600  1.00  0.00    -0.385 OA
ATOM     26  H   UNL     1      26.721  37.821  36.452  1.00  0.00     0.211 HD
ENDBRANCH  18  25
BRANCH  20  27
ATOM     27  O   UNL     1      24.125  39.174  39.327  1.00  0.00    -0.387 OA
ATOM     28  H   UNL     1      23.983  39.941  39.940  1.00  0.00     0.211 HD
ENDBRANCH  20  27
BRANCH  21  29
ATOM     29  C   UNL     1      24.533  41.953  39.319  1.00  0.00     0.191 C 
BRANCH  29  30
ATOM     30  O   UNL     1      25.168  42.335  40.509  1.00  0.00    -0.394 OA
ATOM     31  H   UNL     1      26.142  42.191  40.373  1.00  0.00     0.210 HD
ENDBRANCH  29  30
ENDBRANCH  21  29
ENDBRANCH   1  17
TORSDOF 13
ENDMDL
MODEL 8
REMARK VINA RESULT:    -3.875      2.406      5.583
REMARK INTER + INTRA:          -7.792
REMARK INTER:                  -5.930
REMARK INTRA:                  -1.862
REMARK UNBOUND:                -1.878
REMARK SMILES OC[C@@H]1O[C@@H](O[C@]2(CO)O[C@H](CO)[C@H](O)[C@H]2O)[C@H](O)[C@H](O)[C@@H]1O
REMARK SMILES IDX 6 1 5 2 3 3 22 4 4 5 20 6 18 7 2 8 1 9 23 11 21 13 19 15
REMARK SMILES IDX 7 17 16 18 10 19 14 20 11 21 8 22 9 23 17 25 15 27 12 29
REMARK SMILES IDX 13 30
REMARK H PARENT 1 10 23 12 21 14 19 16 9 24 17 26 15 28 13 31
REMARK Flexibility Score: inf
ROOT
ATOM      1  O   UNL     1      26.491  38.655  39.583  1.00  0.00    -0.313 OA
ENDROOT
BRANCH   1   2
ATOM      2  C   UNL     1      26.241  38.218  40.914  1.00  0.00     0.285 C 
ATOM      3  C   UNL     1      27.229  37.169  42.805  1.00  0.00     0.178 C 
ATOM      4  C   UNL     1      26.011  36.222  42.989  1.00  0.00     0.177 C 
ATOM      5  O   UNL     1      27.401  37.614  41.465  1.00  0.00    -0.341 OA
ATOM      6  C   UNL     1      24.738  36.725  42.278  1.00  0.00     0.179 C 
ATOM      7  C   UNL     1      25.085  37.203  40.864  1.00  0.00     0.202 C 
BRANCH   3   8
ATOM      8  C   UNL     1      27.376  38.310  43.838  1.00  0.00     0.191 C 
BRANCH   8   9
ATOM      9  O   UNL     1      26.153  38.665  44.414  1.00  0.00    -0.394 OA
ATOM     10  H   UNL     1      25.699  37.814  44.646  1.00  0.00     0.210 HD
ENDBRANCH   8   9
ENDBRANCH   3   8
BRANCH   4  11
ATOM     11  O   UNL     1      25.768  35.993  44.353  1.00  0.00    -0.387 OA
ATOM     12  H   UNL     1      25.301  36.797  44.701  1.00  0.00     0.211 HD
ENDBRANCH   4  11
BRANCH   6  13
ATOM     13  O   UNL     1      24.124  37.762  43.000  1.00  0.00    -0.387 OA
ATOM     14  H   UNL     1      23.152  37.560  43.029  1.00  0.00     0.211 HD
ENDBRANCH   6  13
BRANCH   7  15
ATOM     15  O   UNL     1      23.947  37.787  40.280  1.00  0.00    -0.385 OA
ATOM     16  H   UNL     1      23.196  37.151  40.409  1.00  0.00     0.211 HD
ENDBRANCH   7  15
ENDBRANCH   1   2
BRANCH   1  17
ATOM     17  C   UNL     1      26.607  40.069  39.392  1.00  0.00     0.224 C 
ATOM     18  C   UNL     1      26.719  40.776  40.778  1.00  0.00     0.208 C 
ATOM     19  O   UNL     1      27.831  40.276  38.711  1.00  0.00    -0.337 OA
ATOM     20  C   UNL     1      28.151  41.252  40.835  1.00  0.00     0.180 C 
ATOM     21  C   UNL     1      28.515  41.319  39.360  1.00  0.00     0.179 C 
BRANCH  17  22
ATOM     22  C   UNL     1      25.501  40.671  38.476  1.00  0.00     0.225 C 
BRANCH  22  23
ATOM     23  O   UNL     1      24.235  40.418  39.021  1.00  0.00    -0.391 OA
ATOM     24  H   UNL     1      24.074  39.445  38.906  1.00  0.00     0.210 HD
ENDBRANCH  22  23
ENDBRANCH  17  22
BRANCH  18  25
ATOM     25  O   UNL     1      25.856  41.881  40.891  1.00  0.00    -0.385 OA
ATOM     26  H   UNL     1      24.972  41.591  40.547  1.00  0.00     0.211 HD
ENDBRANCH  18  25
BRANCH  20  27
ATOM     27  O   UNL     1      28.934  40.300  41.513  1.00  0.00    -0.387 OA
ATOM     28  H   UNL     1      29.199  39.615  40.846  1.00  0.00     0.211 HD
ENDBRANCH  20  27
BRANCH  21  29
ATOM     29  C   UNL     1      30.023  41.214  39.091  1.00  0.00     0.191 C 
BRANCH  29  30
ATOM     30  O   UNL     1      30.741  41.931  40.058  1.00  0.00    -0.394 OA
ATOM     31  H   UNL     1      30.138  42.649  40.388  1.00  0.00     0.210 HD
ENDBRANCH  29  30
ENDBRANCH  21  29
ENDBRANCH   1  17
TORSDOF 13
ENDMDL
MODEL 9
REMARK VINA RESULT:    -3.853      2.224      5.093
REMARK INTER + INTRA:          -7.757
REMARK INTER:                  -5.462
REMARK INTRA:                  -2.295
REMARK UNBOUND:                -1.878
REMARK SMILES OC[C@@H]1O[C@@H](O[C@]2(CO)O[C@H](CO)[C@H](O)[C@H]2O)[C@H](O)[C@H](O)[C@@H]1O
REMARK SMILES IDX 6 1 5 2 3 3 22 4 4 5 20 6 18 7 2 8 1 9 23 11 21 13 19 15
REMARK SMILES IDX 7 17 16 18 10 19 14 20 11 21 8 22 9 23 17 25 15 27 12 29
REMARK SMILES IDX 13 30
REMARK H PARENT 1 10 23 12 21 14 19 16 9 24 17 26 15 28 13 31
REMARK Flexibility Score: inf
ROOT
ATOM      1  O   UNL     1      28.104  39.291  40.062  1.00  0.00    -0.313 OA
ENDROOT
BRANCH   1   2
ATOM      2  C   UNL     1      27.221  38.653  40.978  1.00  0.00     0.285 C 
ATOM      3  C   UNL     1      27.091  37.641  43.125  1.00  0.00     0.178 C 
ATOM      4  C   UNL     1      26.301  36.424  42.568  1.00  0.00     0.177 C 
ATOM      5  O   UNL     1      27.918  38.270  42.154  1.00  0.00    -0.341 OA
ATOM      6  C   UNL     1      25.643  36.702  41.202  1.00  0.00     0.179 C 
ATOM      7  C   UNL     1      26.638  37.412  40.278  1.00  0.00     0.202 C 
BRANCH   3   8
ATOM      8  C   UNL     1      26.287  38.654  43.973  1.00  0.00     0.191 C 
BRANCH   8   9
ATOM      9  O   UNL     1      24.927  38.657  43.648  1.00  0.00    -0.394 OA
ATOM     10  H   UNL     1      24.441  38.461  44.490  1.00  0.00     0.210 HD
ENDBRANCH   8   9
ENDBRANCH   3   8
BRANCH   4  11
ATOM     11  O   UNL     1      25.351  35.985  43.505  1.00  0.00    -0.387 OA
ATOM     12  H   UNL     1      25.439  34.998  43.564  1.00  0.00     0.211 HD
ENDBRANCH   4  11
BRANCH   6  13
ATOM     13  O   UNL     1      24.479  37.477  41.342  1.00  0.00    -0.387 OA
ATOM     14  H   UNL     1      24.070  37.552  40.440  1.00  0.00     0.211 HD
ENDBRANCH   6  13
BRANCH   7  15
ATOM     15  O   UNL     1      25.983  37.784  39.090  1.00  0.00    -0.385 OA
ATOM     16  H   UNL     1      25.258  37.124  38.940  1.00  0.00     0.211 HD
ENDBRANCH   7  15
ENDBRANCH   1   2
BRANCH   1  17
ATOM     17  C   UNL     1      27.756  40.623  39.671  1.00  0.00     0.224 C 
ATOM     18  C   UNL     1      28.056  40.817  38.152  1.00  0.00     0.208 C 
ATOM     19  O   UNL     1      26.354  40.731  39.843  1.00  0.00    -0.337 OA
ATOM     20  C   UNL     1      26.690  40.894  37.513  1.00  0.00     0.180 C 
ATOM     21  C   UNL     1      25.823  41.325  38.685  1.00  0.00     0.179 C 
BRANCH  17  22
ATOM     22  C   UNL     1      28.384  41.726  40.573  1.00  0.00     0.225 C 
BRANCH  22  23
ATOM     23  O   UNL     1      29.768  41.534  40.675  1.00  0.00    -0.391 OA
ATOM     24  H   UNL     1      30.171  42.004  39.900  1.00  0.00     0.210 HD
ENDBRANCH  22  23
ENDBRANCH  17  22
BRANCH  18  25
ATOM     25  O   UNL     1      28.761  42.006  37.889  1.00  0.00    -0.385 OA
ATOM     26  H   UNL     1      28.745  42.137  36.905  1.00  0.00     0.211 HD
ENDBRANCH  18  25
BRANCH  20  27
ATOM     27  O   UNL     1      26.320  39.620  37.044  1.00  0.00    -0.387 OA
ATOM     28  H   UNL     1      25.432  39.414  37.435  1.00  0.00     0.211 HD
ENDBRANCH  20  27
BRANCH  21  29
ATOM     29  C   UNL     1      24.342  40.951  38.528  1.00  0.00     0.191 C 
BRANCH  29  30
ATOM     30  O   UNL     1      24.087  39.709  39.127  1.00  0.00    -0.394 OA
ATOM     31  H   UNL     1      23.981  39.878  40.100  1.00  0.00     0.210 HD
ENDBRANCH  29  30
ENDBRANCH  21  29
ENDBRANCH   1  17
TORSDOF 13
ENDMDL
