MODEL 1
REMARK VINA RESULT:    -2.281      0.000      0.000
REMARK INTER + INTRA:          -2.281
REMARK INTER:                  -2.281
REMARK INTRA:                   0.000
REMARK UNBOUND:                 0.000
REMARK SMILES CC(=O)[O-]
REMARK SMILES IDX 1 1 2 2 3 3 4 4
REMARK H PARENT
REMARK Flexibility Score: inf
ROOT
ATOM      1  C   UNL     1      31.856  44.894  21.856  1.00  0.00     0.063 C 
ATOM      2  C   UNL     1      31.814  43.609  22.612  1.00  0.00     0.038 C 
ATOM      3  O   UNL     1      31.417  42.556  22.047  1.00  0.00    -0.550 OA
ATOM      4  O   UNL     1      32.163  43.581  23.955  1.00  0.00    -0.550 OA
ENDROOT
TORSDOF 0
ENDMDL
MODEL 2
REMARK VINA RESULT:    -2.219      1.559      1.831
REMARK INTER + INTRA:          -2.219
REMARK INTER:                  -2.219
REMARK INTRA:                   0.000
REMARK UNBOUND:                 0.000
REMARK SMILES CC(=O)[O-]
REMARK SMILES IDX 1 1 2 2 3 3 4 4
REMARK H PARENT
REMARK Flexibility Score: inf
ROOT
ATOM      1  C   UNL     1      33.280  44.573  21.902  1.00  0.00     0.063 C 
ATOM      2  C   UNL     1      31.845  44.259  22.157  1.00  0.00     0.038 C 
ATOM      3  O   UNL     1      31.001  45.189  22.247  1.00  0.00    -0.550 OA
ATOM      4  O   UNL     1      31.444  42.944  22.350  1.00  0.00    -0.550 OA
ENDROOT
TORSDOF 0
ENDMDL
MODEL 3
REMARK VINA RESULT:    -2.211      2.141      2.365
REMARK INTER + INTRA:          -2.211
REMARK INTER:                  -2.211
REMARK INTRA:                   0.000
REMARK UNBOUND:                 0.000
REMARK SMILES CC(=O)[O-]
REMARK SMILES IDX 1 1 2 2 3 3 4 4
REMARK H PARENT
REMARK Flexibility Score: inf
ROOT
ATOM      1  C   UNL     1      31.501  43.322  22.426  1.00  0.00     0.063 C 
ATOM      2  C   UNL     1      32.213  44.500  21.852  1.00  0.00     0.038 C 
ATOM      3  O   UNL     1      33.440  44.426  21.581  1.00  0.00    -0.550 OA
ATOM      4  O   UNL     1      31.537  45.698  21.666  1.00  0.00    -0.550 OA
ENDROOT
TORSDOF 0
ENDMDL
MODEL 4
REMARK VINA RESULT:    -2.110     17.537     18.105
REMARK INTER + INTRA:          -2.110
REMARK INTER:                  -2.110
REMARK INTRA:                   0.000
REMARK UNBOUND:                 0.000
REMARK SMILES CC(=O)[O-]
REMARK SMILES IDX 1 1 2 2 3 3 4 4
REMARK H PARENT
REMARK Flexibility Score: inf
ROOT
ATOM      1  C   UNL     1      33.751  28.000  11.621  1.00  0.00     0.063 C 
ATOM      2  C   UNL     1      33.416  28.551  12.966  1.00  0.00     0.038 C 
ATOM      3  O   UNL     1      33.810  27.961  14.006  1.00  0.00    -0.550 OA
ATOM      4  O   UNL     1      32.624  29.685  13.076  1.00  0.00    -0.550 OA
ENDROOT
TORSDOF 0
ENDMDL
MODEL 5
REMARK VINA RESULT:    -2.052     18.110     18.606
REMARK INTER + INTRA:          -2.052
REMARK INTER:                  -2.052
REMARK INTRA:                   0.000
REMARK UNBOUND:                 0.000
REMARK SMILES CC(=O)[O-]
REMARK SMILES IDX 1 1 2 2 3 3 4 4
REMARK H PARENT
REMARK Flexibility Score: inf
ROOT
ATOM      1  C   UNL     1      32.913  29.130  13.083  1.00  0.00     0.063 C 
ATOM      2  C   UNL     1      33.901  28.223  12.432  1.00  0.00     0.038 C 
ATOM      3  O   UNL     1      33.681  27.774  11.276  1.00  0.00    -0.550 OA
ATOM      4  O   UNL     1      35.040  27.827  13.119  1.00  0.00    -0.550 OA
ENDROOT
TORSDOF 0
ENDMDL
MODEL 6
REMARK VINA RESULT:    -1.924      3.035      3.135
REMARK INTER + INTRA:          -1.924
REMARK INTER:                  -1.924
REMARK INTRA:                   0.000
REMARK UNBOUND:                 0.000
REMARK SMILES CC(=O)[O-]
REMARK SMILES IDX 1 1 2 2 3 3 4 4
REMARK H PARENT
REMARK Flexibility Score: inf
ROOT
ATOM      1  C   UNL     1      32.875  44.627  21.681  1.00  0.00     0.063 C 
ATOM      2  C   UNL     1      34.348  44.775  21.857  1.00  0.00     0.038 C 
ATOM      3  O   UNL     1      35.104  44.821  20.851  1.00  0.00    -0.550 OA
ATOM      4  O   UNL     1      34.896  44.809  23.132  1.00  0.00    -0.550 OA
ENDROOT
TORSDOF 0
ENDMDL
MODEL 7
REMARK VINA RESULT:    -1.904     17.549     18.102
REMARK INTER + INTRA:          -1.904
REMARK INTER:                  -1.904
REMARK INTRA:                   0.000
REMARK UNBOUND:                 0.000
REMARK SMILES CC(=O)[O-]
REMARK SMILES IDX 1 1 2 2 3 3 4 4
REMARK H PARENT
REMARK Flexibility Score: inf
ROOT
ATOM      1  C   UNL     1      23.639  27.345  22.870  1.00  0.00     0.063 C 
ATOM      2  C   UNL     1      23.540  27.677  24.320  1.00  0.00     0.038 C 
ATOM      3  O   UNL     1      22.955  26.891  25.110  1.00  0.00    -0.550 OA
ATOM      4  O   UNL     1      24.045  28.881  24.794  1.00  0.00    -0.550 OA
ENDROOT
TORSDOF 0
ENDMDL
MODEL 8
REMARK VINA RESULT:    -1.899     23.052     23.437
REMARK INTER + INTRA:          -1.899
REMARK INTER:                  -1.899
REMARK INTRA:                   0.000
REMARK UNBOUND:                 0.000
REMARK SMILES CC(=O)[O-]
REMARK SMILES IDX 1 1 2 2 3 3 4 4
REMARK H PARENT
REMARK Flexibility Score: inf
ROOT
ATOM      1  C   UNL     1      17.622  29.859  12.848  1.00  0.00     0.063 C 
ATOM      2  C   UNL     1      17.205  28.906  11.780  1.00  0.00     0.038 C 
ATOM      3  O   UNL     1      17.101  27.677  12.034  1.00  0.00    -0.550 OA
ATOM      4  O   UNL     1      16.983  29.364  10.489  1.00  0.00    -0.550 OA
ENDROOT
TORSDOF 0
ENDMDL
MODEL 9
REMARK VINA RESULT:    -1.850     17.433     18.094
REMARK INTER + INTRA:          -1.850
REMARK INTER:                  -1.850
REMARK INTRA:                   0.000
REMARK UNBOUND:                 0.000
REMARK SMILES CC(=O)[O-]
REMARK SMILES IDX 1 1 2 2 3 3 4 4
REMARK H PARENT
REMARK Flexibility Score: inf
ROOT
ATOM      1  C   UNL     1      22.862  26.877  25.039  1.00  0.00     0.063 C 
ATOM      2  C   UNL     1      23.627  27.826  24.181  1.00  0.00     0.038 C 
ATOM      3  O   UNL     1      24.032  28.920  24.654  1.00  0.00    -0.550 OA
ATOM      4  O   UNL     1      23.848  27.530  22.843  1.00  0.00    -0.550 OA
ENDROOT
TORSDOF 0
ENDMDL
