MODEL 1
REMARK VINA RESULT:    -2.930      0.000      0.000
REMARK INTER + INTRA:          -3.822
REMARK INTER:                  -3.530
REMARK INTRA:                  -0.292
REMARK UNBOUND:                -0.292
REMARK SMILES Oc1cc(O)c2c(c1)O[C@@H](c1ccc(O)c(O)c1)[C@H](O)C2
REMARK SMILES IDX 21 1 19 2 10 3 9 4 7 5 8 6 2 7 3 8 4 9 6 10 20 11 11 13
REMARK SMILES IDX 18 14 12 15 16 16 13 17 14 18 17 19 15 21 5 23 1 25
REMARK H PARENT 20 12 17 20 15 22 5 24 1 26
REMARK Flexibility Score: inf
ROOT
ATOM      1  C   UNL     1      20.271 -14.955   1.019  1.00  0.00     0.079 C 
ATOM      2  C   UNL     1      20.830 -14.356   2.324  1.00  0.00     0.164 C 
ATOM      3  C   UNL     1      20.095 -14.958   3.532  1.00  0.00     0.232 C 
ATOM      4  O   UNL     1      20.212 -16.381   3.509  1.00  0.00    -0.482 OA
ATOM      5  C   UNL     1      20.148 -17.118   2.322  1.00  0.00     0.131 A 
ATOM      6  C   UNL     1      20.080 -18.511   2.390  1.00  0.00     0.093 A 
ATOM      7  C   UNL     1      19.999 -19.272   1.219  1.00  0.00     0.122 A 
ATOM      8  C   UNL     1      19.978 -18.634  -0.023  1.00  0.00     0.092 A 
ATOM      9  C   UNL     1      20.045 -17.238  -0.111  1.00  0.00     0.126 A 
ATOM     10  C   UNL     1      20.171 -16.465   1.069  1.00  0.00     0.039 A 
ENDROOT
BRANCH   2  11
ATOM     11  O   UNL     1      20.665 -12.962   2.315  1.00  0.00    -0.389 OA
ATOM     12  H   UNL     1      19.739 -12.781   2.624  1.00  0.00     0.211 HD
ENDBRANCH   2  11
BRANCH   3  13
ATOM     13  C   UNL     1      20.652 -14.426   4.831  1.00  0.00    -0.001 A 
ATOM     14  C   UNL     1      21.859 -14.925   5.351  1.00  0.00     0.057 A 
ATOM     15  C   UNL     1      19.992 -13.388   5.511  1.00  0.00     0.012 A 
ATOM     16  C   UNL     1      22.390 -14.410   6.542  1.00  0.00     0.157 A 
ATOM     17  C   UNL     1      20.519 -12.875   6.700  1.00  0.00     0.050 A 
ATOM     18  C   UNL     1      21.717 -13.384   7.218  1.00  0.00     0.157 A 
BRANCH  16  19
ATOM     19  O   UNL     1      23.584 -14.910   7.058  1.00  0.00    -0.504 OA
ATOM     20  H   UNL     1      23.622 -15.804   7.535  1.00  0.00     0.293 HD
ENDBRANCH  16  19
BRANCH  18  21
ATOM     21  O   UNL     1      22.245 -12.875   8.403  1.00  0.00    -0.504 OA
ATOM     22  H   UNL     1      21.863 -13.129   9.306  1.00  0.00     0.293 HD
ENDBRANCH  18  21
ENDBRANCH   3  13
BRANCH   9  23
ATOM     23  O   UNL     1      19.973 -16.655  -1.378  1.00  0.00    -0.507 OA
ATOM     24  H   UNL     1      20.776 -16.539  -1.982  1.00  0.00     0.293 HD
ENDBRANCH   9  23
BRANCH   7  25
ATOM     25  O   UNL     1      19.933 -20.662   1.279  1.00  0.00    -0.508 OA
ATOM     26  H   UNL     1      19.358 -21.136   1.967  1.00  0.00     0.293 HD
ENDBRANCH   7  25
TORSDOF 6
ENDMDL
MODEL 2
REMARK VINA RESULT:    -2.923      1.014      1.122
REMARK INTER + INTRA:          -3.813
REMARK INTER:                  -3.993
REMARK INTRA:                   0.180
REMARK UNBOUND:                -0.292
REMARK SMILES Oc1cc(O)c2c(c1)O[C@@H](c1ccc(O)c(O)c1)[C@H](O)C2
REMARK SMILES IDX 21 1 19 2 10 3 9 4 7 5 8 6 2 7 3 8 4 9 6 10 20 11 11 13
REMARK SMILES IDX 18 14 12 15 16 16 13 17 14 18 17 19 15 21 5 23 1 25
REMARK H PARENT 20 12 17 20 15 22 5 24 1 26
REMARK Flexibility Score: inf
ROOT
ATOM      1  C   UNL     1      20.513 -14.525   1.549  1.00  0.00     0.079 C 
ATOM      2  C   UNL     1      21.245 -14.238   2.875  1.00  0.00     0.164 C 
ATOM      3  C   UNL     1      20.644 -15.097   4.000  1.00  0.00     0.232 C 
ATOM      4  O   UNL     1      20.714 -16.477   3.643  1.00  0.00    -0.482 OA
ATOM      5  C   UNL     1      20.484 -16.926   2.338  1.00  0.00     0.131 A 
ATOM      6  C   UNL     1      20.383 -18.299   2.100  1.00  0.00     0.093 A 
ATOM      7  C   UNL     1      20.137 -18.774   0.808  1.00  0.00     0.122 A 
ATOM      8  C   UNL     1      19.984 -17.871  -0.246  1.00  0.00     0.092 A 
ATOM      9  C   UNL     1      20.082 -16.491  -0.027  1.00  0.00     0.126 A 
ATOM     10  C   UNL     1      20.374 -16.007   1.272  1.00  0.00     0.039 A 
ENDROOT
BRANCH   2  11
ATOM     11  O   UNL     1      21.122 -12.878   3.200  1.00  0.00    -0.389 OA
ATOM     12  H   UNL     1      21.936 -12.426   2.854  1.00  0.00     0.211 HD
ENDBRANCH   2  11
BRANCH   3  13
ATOM     13  C   UNL     1      21.371 -14.874   5.305  1.00  0.00    -0.001 A 
ATOM     14  C   UNL     1      22.070 -15.924   5.924  1.00  0.00     0.057 A 
ATOM     15  C   UNL     1      21.396 -13.597   5.891  1.00  0.00     0.012 A 
ATOM     16  C   UNL     1      22.768 -15.708   7.120  1.00  0.00     0.157 A 
ATOM     17  C   UNL     1      22.090 -13.381   7.084  1.00  0.00     0.050 A 
ATOM     18  C   UNL     1      22.776 -14.434   7.702  1.00  0.00     0.157 A 
BRANCH  16  19
ATOM     19  O   UNL     1      23.456 -16.753   7.736  1.00  0.00    -0.504 OA
ATOM     20  H   UNL     1      23.061 -17.258   8.520  1.00  0.00     0.293 HD
ENDBRANCH  16  19
BRANCH  18  21
ATOM     21  O   UNL     1      23.469 -14.222   8.893  1.00  0.00    -0.504 OA
ATOM     22  H   UNL     1      24.214 -13.539   8.959  1.00  0.00     0.293 HD
ENDBRANCH  18  21
ENDBRANCH   3  13
BRANCH   9  23
ATOM     23  O   UNL     1      19.875 -15.637  -1.111  1.00  0.00    -0.507 OA
ATOM     24  H   UNL     1      19.236 -14.853  -1.087  1.00  0.00     0.293 HD
ENDBRANCH   9  23
BRANCH   7  25
ATOM     25  O   UNL     1      20.036 -20.141   0.561  1.00  0.00    -0.508 OA
ATOM     26  H   UNL     1      20.854 -20.741   0.562  1.00  0.00     0.293 HD
ENDBRANCH   7  25
TORSDOF 6
ENDMDL
MODEL 3
REMARK VINA RESULT:    -1.720     22.002     23.093
REMARK INTER + INTRA:          -2.364
REMARK INTER:                  -2.431
REMARK INTRA:                   0.067
REMARK UNBOUND:                -0.292
REMARK SMILES Oc1cc(O)c2c(c1)O[C@@H](c1ccc(O)c(O)c1)[C@H](O)C2
REMARK SMILES IDX 21 1 19 2 10 3 9 4 7 5 8 6 2 7 3 8 4 9 6 10 20 11 11 13
REMARK SMILES IDX 18 14 12 15 16 16 13 17 14 18 17 19 15 21 5 23 1 25
REMARK H PARENT 20 12 17 20 15 22 5 24 1 26
REMARK Flexibility Score: inf
ROOT
ATOM      1  C   UNL     1      34.510 -32.000   9.019  1.00  0.00     0.079 C 
ATOM      2  C   UNL     1      35.368 -31.050   9.877  1.00  0.00     0.164 C 
ATOM      3  C   UNL     1      36.833 -31.517   9.868  1.00  0.00     0.232 C 
ATOM      4  O   UNL     1      37.308 -31.593   8.524  1.00  0.00    -0.482 OA
ATOM      5  C   UNL     1      36.509 -32.056   7.473  1.00  0.00     0.131 A 
ATOM      6  C   UNL     1      37.093 -32.282   6.224  1.00  0.00     0.093 A 
ATOM      7  C   UNL     1      36.322 -32.760   5.160  1.00  0.00     0.122 A 
ATOM      8  C   UNL     1      34.963 -33.022   5.352  1.00  0.00     0.092 A 
ATOM      9  C   UNL     1      34.360 -32.802   6.596  1.00  0.00     0.126 A 
ATOM     10  C   UNL     1      35.127 -32.276   7.664  1.00  0.00     0.039 A 
ENDROOT
BRANCH   2  11
ATOM     11  O   UNL     1      34.884 -31.032  11.194  1.00  0.00    -0.389 OA
ATOM     12  H   UNL     1      34.193 -30.320  11.236  1.00  0.00     0.211 HD
ENDBRANCH   2  11
BRANCH   3  13
ATOM     13  C   UNL     1      37.710 -30.578  10.662  1.00  0.00    -0.001 A 
ATOM     14  C   UNL     1      37.238 -29.311  11.047  1.00  0.00     0.057 A 
ATOM     15  C   UNL     1      38.993 -30.982  11.067  1.00  0.00     0.012 A 
ATOM     16  C   UNL     1      38.044 -28.452  11.808  1.00  0.00     0.157 A 
ATOM     17  C   UNL     1      39.797 -30.126  11.825  1.00  0.00     0.050 A 
ATOM     18  C   UNL     1      39.326 -28.860  12.197  1.00  0.00     0.157 A 
BRANCH  16  19
ATOM     19  O   UNL     1      37.576 -27.194  12.184  1.00  0.00    -0.504 OA
ATOM     20  H   UNL     1      38.009 -26.670  12.935  1.00  0.00     0.293 HD
ENDBRANCH  16  19
BRANCH  18  21
ATOM     21  O   UNL     1      40.125 -28.003  12.952  1.00  0.00    -0.504 OA
ATOM     22  H   UNL     1      41.104 -28.203  13.121  1.00  0.00     0.293 HD
ENDBRANCH  18  21
ENDBRANCH   3  13
BRANCH   9  23
ATOM     23  O   UNL     1      33.009 -33.125   6.738  1.00  0.00    -0.507 OA
ATOM     24  H   UNL     1      32.305 -32.881   6.054  1.00  0.00     0.293 HD
ENDBRANCH   9  23
BRANCH   7  25
ATOM     25  O   UNL     1      36.896 -32.987   3.912  1.00  0.00    -0.508 OA
ATOM     26  H   UNL     1      36.368 -33.403   3.154  1.00  0.00     0.293 HD
ENDBRANCH   7  25
TORSDOF 6
ENDMDL
MODEL 4
REMARK VINA RESULT:    -0.430     21.541     23.048
REMARK INTER + INTRA:          -0.810
REMARK INTER:                  -0.587
REMARK INTRA:                  -0.223
REMARK UNBOUND:                -0.292
REMARK SMILES Oc1cc(O)c2c(c1)O[C@@H](c1ccc(O)c(O)c1)[C@H](O)C2
REMARK SMILES IDX 21 1 19 2 10 3 9 4 7 5 8 6 2 7 3 8 4 9 6 10 20 11 11 13
REMARK SMILES IDX 18 14 12 15 16 16 13 17 14 18 17 19 15 21 5 23 1 25
REMARK H PARENT 20 12 17 20 15 22 5 24 1 26
REMARK Flexibility Score: inf
ROOT
ATOM      1  C   UNL     1      34.498 -29.521  12.365  1.00  0.00     0.079 C 
ATOM      2  C   UNL     1      34.872 -29.951  10.934  1.00  0.00     0.164 C 
ATOM      3  C   UNL     1      35.230 -31.446  10.914  1.00  0.00     0.232 C 
ATOM      4  O   UNL     1      34.141 -32.211  11.430  1.00  0.00    -0.482 OA
ATOM      5  C   UNL     1      33.370 -31.777  12.514  1.00  0.00     0.131 A 
ATOM      6  C   UNL     1      32.446 -32.657  13.085  1.00  0.00     0.093 A 
ATOM      7  C   UNL     1      31.674 -32.255  14.180  1.00  0.00     0.122 A 
ATOM      8  C   UNL     1      31.835 -30.973  14.709  1.00  0.00     0.092 A 
ATOM      9  C   UNL     1      32.756 -30.079  14.151  1.00  0.00     0.126 A 
ATOM     10  C   UNL     1      33.509 -30.465  13.015  1.00  0.00     0.039 A 
ENDROOT
BRANCH   2  11
ATOM     11  O   UNL     1      35.965 -29.196  10.481  1.00  0.00    -0.389 OA
ATOM     12  H   UNL     1      36.113 -29.446   9.531  1.00  0.00     0.211 HD
ENDBRANCH   2  11
BRANCH   3  13
ATOM     13  C   UNL     1      35.557 -31.911   9.515  1.00  0.00    -0.001 A 
ATOM     14  C   UNL     1      34.535 -32.315   8.638  1.00  0.00     0.057 A 
ATOM     15  C   UNL     1      36.885 -31.899   9.057  1.00  0.00     0.012 A 
ATOM     16  C   UNL     1      34.837 -32.719   7.330  1.00  0.00     0.157 A 
ATOM     17  C   UNL     1      37.188 -32.304   7.754  1.00  0.00     0.050 A 
ATOM     18  C   UNL     1      36.166 -32.715   6.888  1.00  0.00     0.157 A 
BRANCH  16  19
ATOM     19  O   UNL     1      33.823 -33.125   6.464  1.00  0.00    -0.504 OA
ATOM     20  H   UNL     1      33.301 -33.979   6.622  1.00  0.00     0.293 HD
ENDBRANCH  16  19
BRANCH  18  21
ATOM     21  O   UNL     1      36.464 -33.120   5.588  1.00  0.00    -0.504 OA
ATOM     22  H   UNL     1      36.422 -32.473   4.809  1.00  0.00     0.293 HD
ENDBRANCH  18  21
ENDBRANCH   3  13
BRANCH   9  23
ATOM     23  O   UNL     1      32.904 -28.827  14.753  1.00  0.00    -0.507 OA
ATOM     24  H   UNL     1      33.772 -28.309  14.751  1.00  0.00     0.293 HD
ENDBRANCH   9  23
BRANCH   7  25
ATOM     25  O   UNL     1      30.749 -33.125  14.753  1.00  0.00    -0.508 OA
ATOM     26  H   UNL     1      30.204 -33.767  14.188  1.00  0.00     0.293 HD
ENDBRANCH   7  25
TORSDOF 6
ENDMDL
MODEL 5
REMARK VINA RESULT:    -0.412      1.916      2.892
REMARK INTER + INTRA:          -0.788
REMARK INTER:                  -0.672
REMARK INTRA:                  -0.116
REMARK UNBOUND:                -0.292
REMARK SMILES Oc1cc(O)c2c(c1)O[C@@H](c1ccc(O)c(O)c1)[C@H](O)C2
REMARK SMILES IDX 21 1 19 2 10 3 9 4 7 5 8 6 2 7 3 8 4 9 6 10 20 11 11 13
REMARK SMILES IDX 18 14 12 15 16 16 13 17 14 18 17 19 15 21 5 23 1 25
REMARK H PARENT 20 12 17 20 15 22 5 24 1 26
REMARK Flexibility Score: inf
ROOT
ATOM      1  C   UNL     1      20.980 -13.455   3.038  1.00  0.00     0.079 C 
ATOM      2  C   UNL     1      21.778 -13.909   4.276  1.00  0.00     0.164 C 
ATOM      3  C   UNL     1      21.123 -15.157   4.891  1.00  0.00     0.232 C 
ATOM      4  O   UNL     1      21.036 -16.190   3.909  1.00  0.00    -0.482 OA
ATOM      5  C   UNL     1      20.720 -15.926   2.571  1.00  0.00     0.131 A 
ATOM      6  C   UNL     1      20.466 -16.996   1.710  1.00  0.00     0.093 A 
ATOM      7  C   UNL     1      20.133 -16.760   0.372  1.00  0.00     0.122 A 
ATOM      8  C   UNL     1      20.045 -15.449  -0.100  1.00  0.00     0.092 A 
ATOM      9  C   UNL     1      20.296 -14.364   0.749  1.00  0.00     0.126 A 
ATOM     10  C   UNL     1      20.677 -14.598   2.092  1.00  0.00     0.039 A 
ENDROOT
BRANCH   2  11
ATOM     11  O   UNL     1      21.810 -12.875   5.225  1.00  0.00    -0.389 OA
ATOM     12  H   UNL     1      21.232 -12.147   4.876  1.00  0.00     0.211 HD
ENDBRANCH   2  11
BRANCH   3  13
ATOM     13  C   UNL     1      21.909 -15.656   6.081  1.00  0.00    -0.001 A 
ATOM     14  C   UNL     1      22.869 -16.671   5.930  1.00  0.00     0.057 A 
ATOM     15  C   UNL     1      21.721 -15.075   7.346  1.00  0.00     0.012 A 
ATOM     16  C   UNL     1      23.618 -17.113   7.030  1.00  0.00     0.157 A 
ATOM     17  C   UNL     1      22.465 -15.516   8.444  1.00  0.00     0.050 A 
ATOM     18  C   UNL     1      23.414 -16.535   8.289  1.00  0.00     0.157 A 
BRANCH  16  19
ATOM     19  O   UNL     1      24.566 -18.124   6.880  1.00  0.00    -0.504 OA
ATOM     20  H   UNL     1      25.051 -18.519   7.677  1.00  0.00     0.293 HD
ENDBRANCH  16  19
BRANCH  18  21
ATOM     21  O   UNL     1      24.157 -16.978   9.382  1.00  0.00    -0.504 OA
ATOM     22  H   UNL     1      25.048 -16.559   9.622  1.00  0.00     0.293 HD
ENDBRANCH  18  21
ENDBRANCH   3  13
BRANCH   9  23
ATOM     23  O   UNL     1      20.148 -13.076   0.230  1.00  0.00    -0.507 OA
ATOM     24  H   UNL     1      20.661 -12.739  -0.574  1.00  0.00     0.293 HD
ENDBRANCH   9  23
BRANCH   7  25
ATOM     25  O   UNL     1      19.880 -17.821  -0.494  1.00  0.00    -0.508 OA
ATOM     26  H   UNL     1      20.582 -18.528  -0.685  1.00  0.00     0.293 HD
ENDBRANCH   7  25
TORSDOF 6
ENDMDL
