MODEL 1
REMARK VINA RESULT:    -5.001      0.000      0.000
REMARK INTER + INTRA:          -7.977
REMARK INTER:                  -7.632
REMARK INTRA:                  -0.345
REMARK UNBOUND:                -0.345
REMARK SMILES CC1=CCC[C@@H](C)C(=O)C[C@@H](C(C)C)C(=O)C1
REMARK SMILES IDX 8 1 9 2 6 3 7 4 5 5 4 6 3 7 2 8 1 9 10 11 11 12 15 13 16 14
REMARK SMILES IDX 17 15 12 17 13 18 14 19
REMARK H PARENT
REMARK Flexibility Score: 70.00
ROOT
ATOM      1  C   UNL     1      -8.241  33.377  21.791  1.00  0.00     0.136 C 
ATOM      2  O   UNL     1      -7.517  34.272  21.378  1.00  0.00    -0.299 OA
ENDROOT
BRANCH   1   3
ATOM      3  C   UNL     1      -8.328  32.073  21.024  1.00  0.00     0.053 C 
ATOM      4  C   UNL     1      -9.800  31.707  20.810  1.00  0.00     0.016 C 
BRANCH   3   5
ATOM      5  C   UNL     1      -7.592  30.918  21.747  1.00  0.00     0.015 C 
BRANCH   5   6
ATOM      6  C   UNL     1      -8.526  29.834  22.306  1.00  0.00     0.028 C 
BRANCH   6   7
ATOM      7  C   UNL     1      -8.084  29.374  23.676  1.00  0.00    -0.028 C 
ATOM      8  C   UNL     1      -8.471  29.933  24.844  1.00  0.00    -0.070 CG0
ATOM      9  C   UNL     1      -7.947  29.334  26.125  1.00  0.00     0.039 C 
ATOM     10  G   UNL     1      -9.410  31.126  24.918  1.00  0.00     0.000 G0
ENDBRANCH   6   7
ENDBRANCH   5   6
ENDBRANCH   3   5
ENDBRANCH   1   3
BRANCH   1  11
ATOM     11  C   UNL     1      -8.992  33.580  23.087  1.00  0.00     0.087 C 
BRANCH  11  12
ATOM     12  C   UNL     1      -8.110  33.387  24.346  1.00  0.00     0.066 C 
BRANCH  12  13
ATOM     13  C   UNL     1      -8.758  32.431  25.344  1.00  0.00     0.140 C 
ATOM     14  O   UNL     1      -8.708  32.697  26.537  1.00  0.00    -0.299 OA
BRANCH  13  15
ATOM     15  C   UNL     1      -9.424  31.134  24.934  1.00  0.00     0.106 CG0
ATOM     16  G   UNL     1      -8.482  29.945  24.858  1.00  0.00     0.000 G0
ENDBRANCH  13  15
ENDBRANCH  12  13
BRANCH  12  17
ATOM     17  C   UNL     1      -7.725  34.756  24.990  1.00  0.00    -0.006 C 
ATOM     18  C   UNL     1      -6.382  35.328  24.502  1.00  0.00     0.008 C 
ATOM     19  C   UNL     1      -8.835  35.799  24.793  1.00  0.00     0.008 C 
ENDBRANCH  12  17
ENDBRANCH  11  12
ENDBRANCH   1  11
TORSDOF 1
ENDMDL
MODEL 2
REMARK VINA RESULT:    -4.804      1.900      4.756
REMARK INTER + INTRA:          -7.676
REMARK INTER:                  -7.518
REMARK INTRA:                  -0.158
REMARK UNBOUND:                -0.345
REMARK SMILES CC1=CCC[C@@H](C)C(=O)C[C@@H](C(C)C)C(=O)C1
REMARK SMILES IDX 8 1 9 2 6 3 7 4 5 5 4 6 3 7 2 8 1 9 10 11 11 12 15 13 16 14
REMARK SMILES IDX 17 15 12 17 13 18 14 19
REMARK H PARENT
REMARK Flexibility Score: 70.00
ROOT
ATOM      1  C   UNL     1      -8.616  32.995  25.358  1.00  0.00     0.136 C 
ATOM      2  O   UNL     1      -8.877  33.062  26.551  1.00  0.00    -0.299 OA
ENDROOT
BRANCH   1   3
ATOM      3  C   UNL     1      -7.767  34.073  24.716  1.00  0.00     0.053 C 
ATOM      4  C   UNL     1      -7.479  35.171  25.744  1.00  0.00     0.016 C 
BRANCH   3   5
ATOM      5  C   UNL     1      -8.440  34.680  23.461  1.00  0.00     0.015 C 
BRANCH   5   6
ATOM      6  C   UNL     1      -7.806  34.235  22.134  1.00  0.00     0.028 C 
BRANCH   6   7
ATOM      7  C   UNL     1      -8.759  33.393  21.319  1.00  0.00    -0.028 C 
ATOM      8  C   UNL     1      -8.658  32.056  21.145  1.00  0.00    -0.070 CG0
ATOM      9  C   UNL     1      -9.711  31.368  20.313  1.00  0.00     0.039 C 
ATOM     10  G   UNL     1      -7.541  31.226  21.754  1.00  0.00     0.000 G0
ENDBRANCH   6   7
ENDBRANCH   5   6
ENDBRANCH   3   5
ENDBRANCH   1   3
BRANCH   1  11
ATOM     11  C   UNL     1      -9.109  31.806  24.565  1.00  0.00     0.087 C 
BRANCH  11  12
ATOM     12  C   UNL     1      -8.024  30.724  24.338  1.00  0.00     0.066 C 
BRANCH  12  13
ATOM     13  C   UNL     1      -7.959  30.291  22.876  1.00  0.00     0.140 C 
ATOM     14  O   UNL     1      -8.232  29.135  22.588  1.00  0.00    -0.299 OA
BRANCH  13  15
ATOM     15  C   UNL     1      -7.526  31.217  21.758  1.00  0.00     0.106 CG0
ATOM     16  G   UNL     1      -8.653  32.037  21.154  1.00  0.00     0.000 G0
ENDBRANCH  13  15
ENDBRANCH  12  13
BRANCH  12  17
ATOM     17  C   UNL     1      -8.204  29.519  25.313  1.00  0.00    -0.006 C 
ATOM     18  C   UNL     1      -7.483  29.685  26.663  1.00  0.00     0.008 C 
ATOM     19  C   UNL     1      -9.689  29.210  25.552  1.00  0.00     0.008 C 
ENDBRANCH  12  17
ENDBRANCH  11  12
ENDBRANCH   1  11
TORSDOF 1
ENDMDL
MODEL 3
REMARK VINA RESULT:    -4.655      1.828      4.209
REMARK INTER + INTRA:          -7.449
REMARK INTER:                  -7.342
REMARK INTRA:                  -0.107
REMARK UNBOUND:                -0.345
REMARK SMILES CC1=CCC[C@@H](C)C(=O)C[C@@H](C(C)C)C(=O)C1
REMARK SMILES IDX 8 1 9 2 6 3 7 4 5 5 4 6 3 7 2 8 1 9 10 11 11 12 15 13 16 14
REMARK SMILES IDX 17 15 12 17 13 18 14 19
REMARK H PARENT
REMARK Flexibility Score: 70.00
ROOT
ATOM      1  C   UNL     1      -7.627  31.413  22.190  1.00  0.00     0.136 C 
ATOM      2  O   UNL     1      -7.371  31.090  21.039  1.00  0.00    -0.299 OA
ENDROOT
BRANCH   1   3
ATOM      3  C   UNL     1      -8.434  32.668  22.452  1.00  0.00     0.053 C 
ATOM      4  C   UNL     1      -8.613  33.440  21.141  1.00  0.00     0.016 C 
BRANCH   3   5
ATOM      5  C   UNL     1      -7.775  33.577  23.519  1.00  0.00     0.015 C 
BRANCH   5   6
ATOM      6  C   UNL     1      -8.722  33.998  24.653  1.00  0.00     0.028 C 
BRANCH   6   7
ATOM      7  C   UNL     1      -8.082  33.814  26.008  1.00  0.00    -0.028 C 
ATOM      8  C   UNL     1      -8.182  32.702  26.770  1.00  0.00    -0.070 CG0
ATOM      9  C   UNL     1      -7.460  32.681  28.093  1.00  0.00     0.039 C 
ATOM     10  G   UNL     1      -8.980  31.481  26.346  1.00  0.00     0.000 G0
ENDBRANCH   6   7
ENDBRANCH   5   6
ENDBRANCH   3   5
ENDBRANCH   1   3
BRANCH   1  11
ATOM     11  C   UNL     1      -7.172  30.520  23.322  1.00  0.00     0.087 C 
BRANCH  11  12
ATOM     12  C   UNL     1      -8.336  29.997  24.200  1.00  0.00     0.066 C 
BRANCH  12  13
ATOM     13  C   UNL     1      -8.152  30.383  25.665  1.00  0.00     0.140 C 
ATOM     14  O   UNL     1      -7.336  29.773  26.340  1.00  0.00    -0.299 OA
BRANCH  13  15
ATOM     15  C   UNL     1      -8.970  31.463  26.344  1.00  0.00     0.106 CG0
ATOM     16  G   UNL     1      -8.164  32.676  26.777  1.00  0.00     0.000 G0
ENDBRANCH  13  15
ENDBRANCH  12  13
BRANCH  12  17
ATOM     17  C   UNL     1      -8.554  28.463  24.006  1.00  0.00    -0.006 C 
ATOM     18  C   UNL     1     -10.026  28.020  24.082  1.00  0.00     0.008 C 
ATOM     19  C   UNL     1      -7.931  27.971  22.692  1.00  0.00     0.008 C 
ENDBRANCH  12  17
ENDBRANCH  11  12
ENDBRANCH   1  11
TORSDOF 1
ENDMDL
MODEL 4
REMARK VINA RESULT:    -4.543      1.741      3.928
REMARK INTER + INTRA:          -7.279
REMARK INTER:                  -6.979
REMARK INTRA:                  -0.300
REMARK UNBOUND:                -0.345
REMARK SMILES CC1=CCC[C@@H](C)C(=O)C[C@@H](C(C)C)C(=O)C1
REMARK SMILES IDX 8 1 9 2 6 3 7 4 5 5 4 6 3 7 2 8 1 9 10 11 11 12 15 13 16 14
REMARK SMILES IDX 17 15 12 17 13 18 14 19
REMARK H PARENT
REMARK Flexibility Score: 70.00
ROOT
ATOM      1  C   UNL     1      -7.813  33.812  24.287  1.00  0.00     0.136 C 
ATOM      2  O   UNL     1      -7.598  34.660  23.432  1.00  0.00    -0.299 OA
ENDROOT
BRANCH   1   3
ATOM      3  C   UNL     1      -8.317  34.237  25.651  1.00  0.00     0.053 C 
ATOM      4  C   UNL     1      -7.929  35.698  25.903  1.00  0.00     0.016 C 
BRANCH   3   5
ATOM      5  C   UNL     1      -7.767  33.337  26.785  1.00  0.00     0.015 C 
BRANCH   5   6
ATOM      6  C   UNL     1      -8.826  32.429  27.432  1.00  0.00     0.028 C 
BRANCH   6   7
ATOM      7  C   UNL     1      -8.357  30.995  27.502  1.00  0.00    -0.028 C 
ATOM      8  C   UNL     1      -8.753  30.007  26.668  1.00  0.00    -0.070 CG0
ATOM      9  C   UNL     1      -8.168  28.632  26.870  1.00  0.00     0.039 C 
ATOM     10  G   UNL     1      -9.748  30.228  25.541  1.00  0.00     0.000 G0
ENDBRANCH   6   7
ENDBRANCH   5   6
ENDBRANCH   3   5
ENDBRANCH   1   3
BRANCH   1  11
ATOM     11  C   UNL     1      -7.619  32.354  23.940  1.00  0.00     0.087 C 
BRANCH  11  12
ATOM     12  C   UNL     1      -8.915  31.658  23.455  1.00  0.00     0.066 C 
BRANCH  12  13
ATOM     13  C   UNL     1      -9.132  30.321  24.158  1.00  0.00     0.140 C 
ATOM     14  O   UNL     1      -8.835  29.289  23.573  1.00  0.00    -0.299 OA
BRANCH  13  15
ATOM     15  C   UNL     1      -9.746  30.202  25.538  1.00  0.00     0.106 CG0
ATOM     16  G   UNL     1      -8.736  30.010  26.656  1.00  0.00     0.000 G0
ENDBRANCH  13  15
ENDBRANCH  12  13
BRANCH  12  17
ATOM     17  C   UNL     1      -8.949  31.530  21.900  1.00  0.00    -0.006 C 
ATOM     18  C   UNL     1      -9.802  32.601  21.196  1.00  0.00     0.008 C 
ATOM     19  C   UNL     1      -7.532  31.524  21.308  1.00  0.00     0.008 C 
ENDBRANCH  12  17
ENDBRANCH  11  12
ENDBRANCH   1  11
TORSDOF 1
ENDMDL
MODEL 5
REMARK VINA RESULT:    -4.495      1.917      4.063
REMARK INTER + INTRA:          -7.204
REMARK INTER:                  -7.039
REMARK INTRA:                  -0.165
REMARK UNBOUND:                -0.345
REMARK SMILES CC1=CCC[C@@H](C)C(=O)C[C@@H](C(C)C)C(=O)C1
REMARK SMILES IDX 8 1 9 2 6 3 7 4 5 5 4 6 3 7 2 8 1 9 10 11 11 12 15 13 16 14
REMARK SMILES IDX 17 15 12 17 13 18 14 19
REMARK H PARENT
REMARK Flexibility Score: 70.00
ROOT
ATOM      1  C   UNL     1      -7.373  29.941  23.290  1.00  0.00     0.136 C 
ATOM      2  O   UNL     1      -6.299  29.574  22.832  1.00  0.00    -0.299 OA
ENDROOT
BRANCH   1   3
ATOM      3  C   UNL     1      -8.639  29.735  22.484  1.00  0.00     0.053 C 
ATOM      4  C   UNL     1      -8.718  28.276  22.027  1.00  0.00     0.016 C 
BRANCH   3   5
ATOM      5  C   UNL     1      -8.716  30.682  21.261  1.00  0.00     0.015 C 
BRANCH   5   6
ATOM      6  C   UNL     1      -9.350  32.048  21.567  1.00  0.00     0.028 C 
BRANCH   6   7
ATOM      7  C   UNL     1      -8.302  33.085  21.894  1.00  0.00    -0.028 C 
ATOM      8  C   UNL     1      -8.229  33.776  23.054  1.00  0.00    -0.070 CG0
ATOM      9  C   UNL     1      -7.102  34.763  23.222  1.00  0.00     0.039 C 
ATOM     10  G   UNL     1      -9.223  33.593  24.188  1.00  0.00     0.000 G0
ENDBRANCH   6   7
ENDBRANCH   5   6
ENDBRANCH   3   5
ENDBRANCH   1   3
BRANCH   1  11
ATOM     11  C   UNL     1      -7.411  30.545  24.675  1.00  0.00     0.087 C 
BRANCH  11  12
ATOM     12  C   UNL     1      -8.805  31.094  25.069  1.00  0.00     0.066 C 
BRANCH  12  13
ATOM     13  C   UNL     1      -8.778  32.607  25.265  1.00  0.00     0.140 C 
ATOM     14  O   UNL     1      -8.416  33.060  26.341  1.00  0.00    -0.299 OA
BRANCH  13  15
ATOM     15  C   UNL     1      -9.227  33.586  24.198  1.00  0.00     0.106 CG0
ATOM     16  G   UNL     1      -8.227  33.782  23.072  1.00  0.00     0.000 G0
ENDBRANCH  13  15
ENDBRANCH  12  13
BRANCH  12  17
ATOM     17  C   UNL     1      -9.388  30.340  26.306  1.00  0.00    -0.006 C 
ATOM     18  C   UNL     1      -9.938  28.938  25.989  1.00  0.00     0.008 C 
ATOM     19  C   UNL     1      -8.360  30.250  27.442  1.00  0.00     0.008 C 
ENDBRANCH  12  17
ENDBRANCH  11  12
ENDBRANCH   1  11
TORSDOF 1
ENDMDL
MODEL 6
REMARK VINA RESULT:    -4.322      1.967      4.499
REMARK INTER + INTRA:          -6.940
REMARK INTER:                  -7.132
REMARK INTRA:                   0.191
REMARK UNBOUND:                -0.345
REMARK SMILES CC1=CCC[C@@H](C)C(=O)C[C@@H](C(C)C)C(=O)C1
REMARK SMILES IDX 8 1 9 2 6 3 7 4 5 5 4 6 3 7 2 8 1 9 10 11 11 12 15 13 16 14
REMARK SMILES IDX 17 15 12 17 13 18 14 19
REMARK H PARENT
REMARK Flexibility Score: 70.00
ROOT
ATOM      1  C   UNL     1      -7.698  30.603  23.928  1.00  0.00     0.136 C 
ATOM      2  O   UNL     1      -6.909  29.860  23.361  1.00  0.00    -0.299 OA
ENDROOT
BRANCH   1   3
ATOM      3  C   UNL     1      -7.624  30.766  25.432  1.00  0.00     0.053 C 
ATOM      4  C   UNL     1      -6.792  29.625  26.026  1.00  0.00     0.016 C 
BRANCH   3   5
ATOM      5  C   UNL     1      -9.026  30.801  26.088  1.00  0.00     0.015 C 
BRANCH   5   6
ATOM      6  C   UNL     1      -9.407  32.168  26.679  1.00  0.00     0.028 C 
BRANCH   6   7
ATOM      7  C   UNL     1      -8.261  33.148  26.591  1.00  0.00    -0.028 C 
ATOM      8  C   UNL     1      -8.037  33.988  25.556  1.00  0.00    -0.070 CG0
ATOM      9  C   UNL     1      -6.853  34.918  25.641  1.00  0.00     0.039 C 
ATOM     10  G   UNL     1      -8.926  34.038  24.325  1.00  0.00     0.000 G0
ENDBRANCH   6   7
ENDBRANCH   5   6
ENDBRANCH   3   5
ENDBRANCH   1   3
BRANCH   1  11
ATOM     11  C   UNL     1      -8.697  31.381  23.100  1.00  0.00     0.087 C 
BRANCH  11  12
ATOM     12  C   UNL     1      -8.056  32.528  22.280  1.00  0.00     0.066 C 
BRANCH  12  13
ATOM     13  C   UNL     1      -8.189  33.871  22.993  1.00  0.00     0.140 C 
ATOM     14  O   UNL     1      -7.648  34.855  22.509  1.00  0.00    -0.299 OA
BRANCH  13  15
ATOM     15  C   UNL     1      -8.926  34.040  24.306  1.00  0.00     0.106 CG0
ATOM     16  G   UNL     1      -8.036  33.961  25.535  1.00  0.00     0.000 G0
ENDBRANCH  13  15
ENDBRANCH  12  13
BRANCH  12  17
ATOM     17  C   UNL     1      -8.608  32.566  20.821  1.00  0.00    -0.006 C 
ATOM     18  C   UNL     1      -7.544  32.861  19.749  1.00  0.00     0.008 C 
ATOM     19  C   UNL     1      -9.352  31.269  20.470  1.00  0.00     0.008 C 
ENDBRANCH  12  17
ENDBRANCH  11  12
ENDBRANCH   1  11
TORSDOF 1
ENDMDL
MODEL 7
REMARK VINA RESULT:    -4.191      1.998      4.285
REMARK INTER + INTRA:          -6.740
REMARK INTER:                  -6.869
REMARK INTRA:                   0.129
REMARK UNBOUND:                -0.345
REMARK SMILES CC1=CCC[C@@H](C)C(=O)C[C@@H](C(C)C)C(=O)C1
REMARK SMILES IDX 8 1 9 2 6 3 7 4 5 5 4 6 3 7 2 8 1 9 10 11 11 12 15 13 16 14
REMARK SMILES IDX 17 15 12 17 13 18 14 19
REMARK H PARENT
REMARK Flexibility Score: 70.00
ROOT
ATOM      1  C   UNL     1      -8.849  33.098  23.777  1.00  0.00     0.136 C 
ATOM      2  O   UNL     1      -9.996  32.873  23.418  1.00  0.00    -0.299 OA
ENDROOT
BRANCH   1   3
ATOM      3  C   UNL     1      -8.449  34.507  24.163  1.00  0.00     0.053 C 
ATOM      4  C   UNL     1      -7.044  34.801  23.627  1.00  0.00     0.016 C 
BRANCH   3   5
ATOM      5  C   UNL     1      -8.491  34.729  25.695  1.00  0.00     0.015 C 
BRANCH   5   6
ATOM      6  C   UNL     1      -7.588  33.774  26.491  1.00  0.00     0.028 C 
BRANCH   6   7
ATOM      7  C   UNL     1      -8.388  32.920  27.446  1.00  0.00    -0.028 C 
ATOM      8  C   UNL     1      -8.376  31.568  27.474  1.00  0.00    -0.070 CG0
ATOM      9  C   UNL     1      -9.224  30.874  28.509  1.00  0.00     0.039 C 
ATOM     10  G   UNL     1      -7.544  30.730  26.520  1.00  0.00     0.000 G0
ENDBRANCH   6   7
ENDBRANCH   5   6
ENDBRANCH   3   5
ENDBRANCH   1   3
BRANCH   1  11
ATOM     11  C   UNL     1      -7.872  31.948  23.874  1.00  0.00     0.087 C 
BRANCH  11  12
ATOM     12  C   UNL     1      -8.559  30.569  24.038  1.00  0.00     0.066 C 
BRANCH  12  13
ATOM     13  C   UNL     1      -8.368  30.010  25.445  1.00  0.00     0.140 C 
ATOM     14  O   UNL     1      -8.925  28.965  25.749  1.00  0.00    -0.299 OA
BRANCH  13  15
ATOM     15  C   UNL     1      -7.553  30.715  26.511  1.00  0.00     0.106 CG0
ATOM     16  G   UNL     1      -8.376  31.564  27.465  1.00  0.00     0.000 G0
ENDBRANCH  13  15
ENDBRANCH  12  13
BRANCH  12  17
ATOM     17  C   UNL     1      -8.105  29.568  22.929  1.00  0.00    -0.006 C 
ATOM     18  C   UNL     1      -8.973  29.597  21.658  1.00  0.00     0.008 C 
ATOM     19  C   UNL     1      -6.630  29.777  22.556  1.00  0.00     0.008 C 
ENDBRANCH  12  17
ENDBRANCH  11  12
ENDBRANCH   1  11
TORSDOF 1
ENDMDL
MODEL 8
REMARK VINA RESULT:    -4.187      1.789      4.189
REMARK INTER + INTRA:          -6.734
REMARK INTER:                  -7.187
REMARK INTRA:                   0.452
REMARK UNBOUND:                -0.345
REMARK SMILES CC1=CCC[C@@H](C)C(=O)C[C@@H](C(C)C)C(=O)C1
REMARK SMILES IDX 8 1 9 2 6 3 7 4 5 5 4 6 3 7 2 8 1 9 10 11 11 12 15 13 16 14
REMARK SMILES IDX 17 15 12 17 13 18 14 19
REMARK H PARENT
REMARK Flexibility Score: 70.00
ROOT
ATOM      1  C   UNL     1      -8.066  31.091  21.903  1.00  0.00     0.136 C 
ATOM      2  O   UNL     1      -8.164  29.950  21.471  1.00  0.00    -0.299 OA
ENDROOT
BRANCH   1   3
ATOM      3  C   UNL     1      -8.560  32.252  21.065  1.00  0.00     0.053 C 
ATOM      4  C   UNL     1      -7.496  32.617  20.025  1.00  0.00     0.016 C 
BRANCH   3   5
ATOM      5  C   UNL     1      -8.909  33.490  21.927  1.00  0.00     0.015 C 
BRANCH   5   6
ATOM      6  C   UNL     1      -7.682  34.256  22.448  1.00  0.00     0.028 C 
BRANCH   6   7
ATOM      7  C   UNL     1      -8.036  35.140  23.620  1.00  0.00    -0.028 C 
ATOM      8  C   UNL     1      -7.969  34.771  24.919  1.00  0.00    -0.070 CG0
ATOM      9  C   UNL     1      -8.343  35.790  25.965  1.00  0.00     0.039 C 
ATOM     10  G   UNL     1      -7.529  33.387  25.362  1.00  0.00     0.000 G0
ENDBRANCH   6   7
ENDBRANCH   5   6
ENDBRANCH   3   5
ENDBRANCH   1   3
BRANCH   1  11
ATOM     11  C   UNL     1      -7.499  31.305  23.288  1.00  0.00     0.087 C 
BRANCH  11  12
ATOM     12  C   UNL     1      -8.541  31.103  24.417  1.00  0.00     0.066 C 
BRANCH  12  13
ATOM     13  C   UNL     1      -8.609  32.316  25.342  1.00  0.00     0.140 C 
ATOM     14  O   UNL     1      -9.592  32.464  26.053  1.00  0.00    -0.299 OA
BRANCH  13  15
ATOM     15  C   UNL     1      -7.531  33.381  25.389  1.00  0.00     0.106 CG0
ATOM     16  G   UNL     1      -7.983  34.747  24.903  1.00  0.00     0.000 G0
ENDBRANCH  13  15
ENDBRANCH  12  13
BRANCH  12  17
ATOM     17  C   UNL     1      -8.294  29.771  25.193  1.00  0.00    -0.006 C 
ATOM     18  C   UNL     1      -8.708  28.505  24.422  1.00  0.00     0.008 C 
ATOM     19  C   UNL     1      -6.831  29.649  25.643  1.00  0.00     0.008 C 
ENDBRANCH  12  17
ENDBRANCH  11  12
ENDBRANCH   1  11
TORSDOF 1
ENDMDL
MODEL 9
REMARK VINA RESULT:    -4.110      1.779      2.951
REMARK INTER + INTRA:          -6.617
REMARK INTER:                  -7.360
REMARK INTRA:                   0.743
REMARK UNBOUND:                -0.345
REMARK SMILES CC1=CCC[C@@H](C)C(=O)C[C@@H](C(C)C)C(=O)C1
REMARK SMILES IDX 8 1 9 2 6 3 7 4 5 5 4 6 3 7 2 8 1 9 10 11 11 12 15 13 16 14
REMARK SMILES IDX 17 15 12 17 13 18 14 19
REMARK H PARENT
REMARK Flexibility Score: 70.00
ROOT
ATOM      1  C   UNL     1      -7.840  30.114  23.151  1.00  0.00     0.136 C 
ATOM      2  O   UNL     1      -6.625  30.200  23.037  1.00  0.00    -0.299 OA
ENDROOT
BRANCH   1   3
ATOM      3  C   UNL     1      -8.456  28.816  23.629  1.00  0.00     0.053 C 
ATOM      4  C   UNL     1      -8.785  27.934  22.420  1.00  0.00     0.016 C 
BRANCH   3   5
ATOM      5  C   UNL     1      -9.728  29.049  24.480  1.00  0.00     0.015 C 
BRANCH   5   6
ATOM      6  C   UNL     1      -9.552  28.721  25.972  1.00  0.00     0.028 C 
BRANCH   6   7
ATOM      7  C   UNL     1      -8.506  29.601  26.613  1.00  0.00    -0.028 C 
ATOM      8  C   UNL     1      -8.453  30.948  26.506  1.00  0.00    -0.070 CG0
ATOM      9  C   UNL     1      -7.347  31.673  27.231  1.00  0.00     0.039 C 
ATOM     10  G   UNL     1      -9.457  31.752  25.699  1.00  0.00     0.000 G0
ENDBRANCH   6   7
ENDBRANCH   5   6
ENDBRANCH   3   5
ENDBRANCH   1   3
BRANCH   1  11
ATOM     11  C   UNL     1      -8.691  31.328  22.858  1.00  0.00     0.087 C 
BRANCH  11  12
ATOM     12  C   UNL     1      -8.162  32.625  23.520  1.00  0.00     0.066 C 
BRANCH  12  13
ATOM     13  C   UNL     1      -8.821  32.874  24.874  1.00  0.00     0.140 C 
ATOM     14  O   UNL     1      -8.808  34.004  25.341  1.00  0.00    -0.299 OA
BRANCH  13  15
ATOM     15  C   UNL     1      -9.454  31.773  25.700  1.00  0.00     0.106 CG0
ATOM     16  G   UNL     1      -8.464  30.951  26.507  1.00  0.00     0.000 G0
ENDBRANCH  13  15
ENDBRANCH  12  13
BRANCH  12  17
ATOM     17  C   UNL     1      -8.286  33.850  22.559  1.00  0.00    -0.006 C 
ATOM     18  C   UNL     1      -7.149  34.878  22.697  1.00  0.00     0.008 C 
ATOM     19  C   UNL     1      -8.406  33.402  21.095  1.00  0.00     0.008 C 
ENDBRANCH  12  17
ENDBRANCH  11  12
ENDBRANCH   1  11
TORSDOF 1
ENDMDL
