MODEL 1
REMARK VINA RESULT:    -3.358      0.000      0.000
REMARK INTER + INTRA:          -5.423
REMARK INTER:                  -4.928
REMARK INTRA:                  -0.495
REMARK UNBOUND:                -0.495
REMARK SMILES CCCCCC(=O)CCCCC
REMARK SMILES IDX 6 1 7 2 5 3 4 4 3 5 2 6 1 7 8 8 9 9 10 10 11 11 12 12
REMARK H PARENT
REMARK Flexibility Score: inf
ROOT
ATOM      1  C   UNL     1       2.531  -2.993  -7.136  1.00  0.00     0.132 C 
ATOM      2  O   UNL     1       1.360  -3.333  -7.050  1.00  0.00    -0.300 OA
ENDROOT
BRANCH   1   3
ATOM      3  C   UNL     1       3.573  -4.012  -7.519  1.00  0.00     0.075 C 
BRANCH   3   4
ATOM      4  C   UNL     1       4.750  -4.025  -6.535  1.00  0.00     0.008 C 
BRANCH   4   5
ATOM      5  C   UNL     1       4.827  -5.343  -5.746  1.00  0.00     0.000 C 
BRANCH   5   6
ATOM      6  C   UNL     1       3.852  -6.406  -6.276  1.00  0.00    -0.003 C 
ATOM      7  C   UNL     1       3.867  -7.690  -5.446  1.00  0.00     0.004 C 
ENDBRANCH   5   6
ENDBRANCH   4   5
ENDBRANCH   3   4
ENDBRANCH   1   3
BRANCH   1   8
ATOM      8  C   UNL     1       2.908  -1.562  -6.860  1.00  0.00     0.075 C 
BRANCH   8   9
ATOM      9  C   UNL     1       1.737  -0.621  -7.174  1.00  0.00     0.008 C 
BRANCH   9  10
ATOM     10  C   UNL     1       1.844  -0.007  -8.585  1.00  0.00     0.000 C 
BRANCH  10  11
ATOM     11  C   UNL     1       0.633  -0.311  -9.482  1.00  0.00    -0.003 C 
ATOM     12  C   UNL     1      -0.475  -1.070  -8.755  1.00  0.00     0.004 C 
ENDBRANCH  10  11
ENDBRANCH   9  10
ENDBRANCH   8   9
ENDBRANCH   1   8
TORSDOF 8
ENDMDL
MODEL 2
REMARK VINA RESULT:    -3.331      1.942      5.439
REMARK INTER + INTRA:          -5.383
REMARK INTER:                  -4.562
REMARK INTRA:                  -0.821
REMARK UNBOUND:                -0.495
REMARK SMILES CCCCCC(=O)CCCCC
REMARK SMILES IDX 6 1 7 2 5 3 4 4 3 5 2 6 1 7 8 8 9 9 10 10 11 11 12 12
REMARK H PARENT
REMARK Flexibility Score: inf
ROOT
ATOM      1  C   UNL     1       1.401  -1.574  -7.822  1.00  0.00     0.132 C 
ATOM      2  O   UNL     1       1.184  -1.136  -6.701  1.00  0.00    -0.300 OA
ENDROOT
BRANCH   1   3
ATOM      3  C   UNL     1       0.614  -1.040  -8.991  1.00  0.00     0.075 C 
BRANCH   3   4
ATOM      4  C   UNL     1      -0.894  -1.259  -8.814  1.00  0.00     0.008 C 
BRANCH   4   5
ATOM      5  C   UNL     1      -1.347  -2.622  -9.364  1.00  0.00     0.000 C 
BRANCH   5   6
ATOM      6  C   UNL     1      -0.467  -3.113 -10.524  1.00  0.00    -0.003 C 
ATOM      7  C   UNL     1      -0.068  -4.582 -10.384  1.00  0.00     0.004 C 
ENDBRANCH   5   6
ENDBRANCH   4   5
ENDBRANCH   3   4
ENDBRANCH   1   3
BRANCH   1   8
ATOM      8  C   UNL     1       2.452  -2.636  -8.011  1.00  0.00     0.075 C 
BRANCH   8   9
ATOM      9  C   UNL     1       2.019  -3.951  -7.347  1.00  0.00     0.008 C 
BRANCH   9  10
ATOM     10  C   UNL     1       3.222  -4.848  -6.993  1.00  0.00     0.000 C 
BRANCH  10  11
ATOM     11  C   UNL     1       2.891  -6.349  -6.992  1.00  0.00    -0.003 C 
ATOM     12  C   UNL     1       1.496  -6.655  -7.533  1.00  0.00     0.004 C 
ENDBRANCH  10  11
ENDBRANCH   9  10
ENDBRANCH   8   9
ENDBRANCH   1   8
TORSDOF 8
ENDMDL
MODEL 3
REMARK VINA RESULT:    -3.299      0.644      5.972
REMARK INTER + INTRA:          -5.337
REMARK INTER:                  -4.872
REMARK INTRA:                  -0.465
REMARK UNBOUND:                -0.495
REMARK SMILES CCCCCC(=O)CCCCC
REMARK SMILES IDX 6 1 7 2 5 3 4 4 3 5 2 6 1 7 8 8 9 9 10 10 11 11 12 12
REMARK H PARENT
REMARK Flexibility Score: inf
ROOT
ATOM      1  C   UNL     1       2.560  -3.019  -7.248  1.00  0.00     0.132 C 
ATOM      2  O   UNL     1       1.420  -3.371  -6.982  1.00  0.00    -0.300 OA
ENDROOT
BRANCH   1   3
ATOM      3  C   UNL     1       2.974  -1.593  -6.989  1.00  0.00     0.075 C 
BRANCH   3   4
ATOM      4  C   UNL     1       1.795  -0.620  -7.127  1.00  0.00     0.008 C 
BRANCH   4   5
ATOM      5  C   UNL     1       1.752   0.040  -8.515  1.00  0.00     0.000 C 
BRANCH   5   6
ATOM      6  C   UNL     1       0.784  -0.667  -9.476  1.00  0.00    -0.003 C 
ATOM      7  C   UNL     1      -0.518  -1.093  -8.797  1.00  0.00     0.004 C 
ENDBRANCH   5   6
ENDBRANCH   4   5
ENDBRANCH   3   4
ENDBRANCH   1   3
BRANCH   1   8
ATOM      8  C   UNL     1       3.528  -4.016  -7.827  1.00  0.00     0.075 C 
BRANCH   8   9
ATOM      9  C   UNL     1       4.052  -4.960  -6.736  1.00  0.00     0.008 C 
BRANCH   9  10
ATOM     10  C   UNL     1       3.283  -6.296  -6.703  1.00  0.00     0.000 C 
BRANCH  10  11
ATOM     11  C   UNL     1       3.861  -7.313  -5.704  1.00  0.00    -0.003 C 
ATOM     12  C   UNL     1       5.027  -6.757  -4.890  1.00  0.00     0.004 C 
ENDBRANCH  10  11
ENDBRANCH   9  10
ENDBRANCH   8   9
ENDBRANCH   1   8
TORSDOF 8
ENDMDL
MODEL 4
REMARK VINA RESULT:    -3.289      2.437      5.359
REMARK INTER + INTRA:          -5.323
REMARK INTER:                  -4.573
REMARK INTRA:                  -0.749
REMARK UNBOUND:                -0.495
REMARK SMILES CCCCCC(=O)CCCCC
REMARK SMILES IDX 6 1 7 2 5 3 4 4 3 5 2 6 1 7 8 8 9 9 10 10 11 11 12 12
REMARK H PARENT
REMARK Flexibility Score: inf
ROOT
ATOM      1  C   UNL     1       2.333  -3.969  -7.369  1.00  0.00     0.132 C 
ATOM      2  O   UNL     1       1.392  -3.262  -7.038  1.00  0.00    -0.300 OA
ENDROOT
BRANCH   1   3
ATOM      3  C   UNL     1       3.627  -3.327  -7.800  1.00  0.00     0.075 C 
BRANCH   3   4
ATOM      4  C   UNL     1       4.181  -2.380  -6.728  1.00  0.00     0.008 C 
BRANCH   4   5
ATOM      5  C   UNL     1       5.290  -3.040  -5.892  1.00  0.00     0.000 C 
BRANCH   5   6
ATOM      6  C   UNL     1       5.551  -2.302  -4.570  1.00  0.00    -0.003 C 
ATOM      7  C   UNL     1       6.103  -3.220  -3.479  1.00  0.00     0.004 C 
ENDBRANCH   5   6
ENDBRANCH   4   5
ENDBRANCH   3   4
ENDBRANCH   1   3
BRANCH   1   8
ATOM      8  C   UNL     1       2.180  -5.467  -7.340  1.00  0.00     0.075 C 
BRANCH   8   9
ATOM      9  C   UNL     1       3.552  -6.150  -7.263  1.00  0.00     0.008 C 
BRANCH   9  10
ATOM     10  C   UNL     1       3.740  -6.931  -5.946  1.00  0.00     0.000 C 
BRANCH  10  11
ATOM     11  C   UNL     1       4.979  -6.498  -5.146  1.00  0.00    -0.003 C 
ATOM     12  C   UNL     1       5.469  -7.569  -4.173  1.00  0.00     0.004 C 
ENDBRANCH  10  11
ENDBRANCH   9  10
ENDBRANCH   8   9
ENDBRANCH   1   8
TORSDOF 8
ENDMDL
MODEL 5
REMARK VINA RESULT:    -3.271      2.165      5.675
REMARK INTER + INTRA:          -5.295
REMARK INTER:                  -4.621
REMARK INTRA:                  -0.674
REMARK UNBOUND:                -0.495
REMARK SMILES CCCCCC(=O)CCCCC
REMARK SMILES IDX 6 1 7 2 5 3 4 4 3 5 2 6 1 7 8 8 9 9 10 10 11 11 12 12
REMARK H PARENT
REMARK Flexibility Score: inf
ROOT
ATOM      1  C   UNL     1       4.062  -6.239  -5.984  1.00  0.00     0.132 C 
ATOM      2  O   UNL     1       3.369  -7.222  -6.200  1.00  0.00    -0.300 OA
ENDROOT
BRANCH   1   3
ATOM      3  C   UNL     1       3.802  -4.966  -6.749  1.00  0.00     0.075 C 
BRANCH   3   4
ATOM      4  C   UNL     1       2.393  -4.940  -7.355  1.00  0.00     0.008 C 
BRANCH   4   5
ATOM      5  C   UNL     1       1.790  -3.525  -7.354  1.00  0.00     0.000 C 
BRANCH   5   6
ATOM      6  C   UNL     1       2.862  -2.427  -7.443  1.00  0.00    -0.003 C 
ATOM      7  C   UNL     1       2.349  -1.060  -6.992  1.00  0.00     0.004 C 
ENDBRANCH   5   6
ENDBRANCH   4   5
ENDBRANCH   3   4
ENDBRANCH   1   3
BRANCH   1   8
ATOM      8  C   UNL     1       5.161  -6.318  -4.959  1.00  0.00     0.075 C 
BRANCH   8   9
ATOM      9  C   UNL     1       5.987  -5.024  -4.947  1.00  0.00     0.008 C 
BRANCH   9  10
ATOM     10  C   UNL     1       6.112  -4.425  -3.532  1.00  0.00     0.000 C 
BRANCH  10  11
ATOM     11  C   UNL     1       6.132  -2.888  -3.514  1.00  0.00    -0.003 C 
ATOM     12  C   UNL     1       5.391  -2.266  -4.695  1.00  0.00     0.004 C 
ENDBRANCH  10  11
ENDBRANCH   9  10
ENDBRANCH   8   9
ENDBRANCH   1   8
TORSDOF 8
ENDMDL
MODEL 6
REMARK VINA RESULT:    -3.224     13.199     15.128
REMARK INTER + INTRA:          -5.226
REMARK INTER:                  -4.118
REMARK INTRA:                  -1.109
REMARK UNBOUND:                -0.495
REMARK SMILES CCCCCC(=O)CCCCC
REMARK SMILES IDX 6 1 7 2 5 3 4 4 3 5 2 6 1 7 8 8 9 9 10 10 11 11 12 12
REMARK H PARENT
REMARK Flexibility Score: inf
ROOT
ATOM      1  C   UNL     1      -2.148   6.525   0.321  1.00  0.00     0.132 C 
ATOM      2  O   UNL     1      -1.293   5.974  -0.357  1.00  0.00    -0.300 OA
ENDROOT
BRANCH   1   3
ATOM      3  C   UNL     1      -1.764   7.138   1.644  1.00  0.00     0.075 C 
BRANCH   3   4
ATOM      4  C   UNL     1      -2.533   8.437   1.917  1.00  0.00     0.008 C 
BRANCH   4   5
ATOM      5  C   UNL     1      -3.091   8.485   3.350  1.00  0.00     0.000 C 
BRANCH   5   6
ATOM      6  C   UNL     1      -2.502   7.388   4.250  1.00  0.00    -0.003 C 
ATOM      7  C   UNL     1      -3.540   6.771   5.188  1.00  0.00     0.004 C 
ENDBRANCH   5   6
ENDBRANCH   4   5
ENDBRANCH   3   4
ENDBRANCH   1   3
BRANCH   1   8
ATOM      8  C   UNL     1      -3.567   6.581  -0.178  1.00  0.00     0.075 C 
BRANCH   8   9
ATOM      9  C   UNL     1      -4.214   5.190  -0.133  1.00  0.00     0.008 C 
BRANCH   9  10
ATOM     10  C   UNL     1      -5.521   5.181   0.685  1.00  0.00     0.000 C 
BRANCH  10  11
ATOM     11  C   UNL     1      -5.384   5.834   2.070  1.00  0.00    -0.003 C 
ATOM     12  C   UNL     1      -6.415   6.932   2.320  1.00  0.00     0.004 C 
ENDBRANCH  10  11
ENDBRANCH   9  10
ENDBRANCH   8   9
ENDBRANCH   1   8
TORSDOF 8
ENDMDL
MODEL 7
REMARK VINA RESULT:    -3.174     14.958     16.344
REMARK INTER + INTRA:          -5.153
REMARK INTER:                  -3.932
REMARK INTRA:                  -1.221
REMARK UNBOUND:                -0.495
REMARK SMILES CCCCCC(=O)CCCCC
REMARK SMILES IDX 6 1 7 2 5 3 4 4 3 5 2 6 1 7 8 8 9 9 10 10 11 11 12 12
REMARK H PARENT
REMARK Flexibility Score: inf
ROOT
ATOM      1  C   UNL     1       5.919   4.410   5.978  1.00  0.00     0.132 C 
ATOM      2  O   UNL     1       5.114   5.311   6.162  1.00  0.00    -0.300 OA
ENDROOT
BRANCH   1   3
ATOM      3  C   UNL     1       7.010   4.588   4.953  1.00  0.00     0.075 C 
BRANCH   3   4
ATOM      4  C   UNL     1       8.068   5.599   5.413  1.00  0.00     0.008 C 
BRANCH   4   5
ATOM      5  C   UNL     1       8.817   5.119   6.668  1.00  0.00     0.000 C 
BRANCH   5   6
ATOM      6  C   UNL     1       9.882   4.057   6.349  1.00  0.00    -0.003 C 
ATOM      7  C   UNL     1      10.354   3.301   7.590  1.00  0.00     0.004 C 
ENDBRANCH   5   6
ENDBRANCH   4   5
ENDBRANCH   3   4
ENDBRANCH   1   3
BRANCH   1   8
ATOM      8  C   UNL     1       5.804   3.140   6.779  1.00  0.00     0.075 C 
BRANCH   8   9
ATOM      9  C   UNL     1       6.575   1.999   6.100  1.00  0.00     0.008 C 
BRANCH   9  10
ATOM     10  C   UNL     1       7.334   1.123   7.118  1.00  0.00     0.000 C 
BRANCH  10  11
ATOM     11  C   UNL     1       8.483   0.313   6.495  1.00  0.00    -0.003 C 
ATOM     12  C   UNL     1       8.810   0.739   5.065  1.00  0.00     0.004 C 
ENDBRANCH  10  11
ENDBRANCH   9  10
ENDBRANCH   8   9
ENDBRANCH   1   8
TORSDOF 8
ENDMDL
MODEL 8
REMARK VINA RESULT:    -3.171     13.001     14.813
REMARK INTER + INTRA:          -5.148
REMARK INTER:                  -3.826
REMARK INTRA:                  -1.322
REMARK UNBOUND:                -0.495
REMARK SMILES CCCCCC(=O)CCCCC
REMARK SMILES IDX 6 1 7 2 5 3 4 4 3 5 2 6 1 7 8 8 9 9 10 10 11 11 12 12
REMARK H PARENT
REMARK Flexibility Score: inf
ROOT
ATOM      1  C   UNL     1      -2.701   6.589  -0.845  1.00  0.00     0.132 C 
ATOM      2  O   UNL     1      -1.612   6.374  -1.356  1.00  0.00    -0.300 OA
ENDROOT
BRANCH   1   3
ATOM      3  C   UNL     1      -3.399   7.898  -1.109  1.00  0.00     0.075 C 
BRANCH   3   4
ATOM      4  C   UNL     1      -3.592   8.713   0.176  1.00  0.00     0.008 C 
BRANCH   4   5
ATOM      5  C   UNL     1      -2.258   8.987   0.891  1.00  0.00     0.000 C 
BRANCH   5   6
ATOM      6  C   UNL     1      -2.271   8.531   2.359  1.00  0.00    -0.003 C 
ATOM      7  C   UNL     1      -1.321   7.363   2.624  1.00  0.00     0.004 C 
ENDBRANCH   5   6
ENDBRANCH   4   5
ENDBRANCH   3   4
ENDBRANCH   1   3
BRANCH   1   8
ATOM      8  C   UNL     1      -3.325   5.540   0.037  1.00  0.00     0.075 C 
BRANCH   8   9
ATOM      9  C   UNL     1      -4.798   5.322  -0.337  1.00  0.00     0.008 C 
BRANCH   9  10
ATOM     10  C   UNL     1      -5.750   5.657   0.828  1.00  0.00     0.000 C 
BRANCH  10  11
ATOM     11  C   UNL     1      -5.024   5.957   2.150  1.00  0.00    -0.003 C 
ATOM     12  C   UNL     1      -5.669   7.092   2.943  1.00  0.00     0.004 C 
ENDBRANCH  10  11
ENDBRANCH   9  10
ENDBRANCH   8   9
ENDBRANCH   1   8
TORSDOF 8
ENDMDL
MODEL 9
REMARK VINA RESULT:    -3.120     12.988     14.810
REMARK INTER + INTRA:          -5.075
REMARK INTER:                  -3.907
REMARK INTRA:                  -1.168
REMARK UNBOUND:                -0.495
REMARK SMILES CCCCCC(=O)CCCCC
REMARK SMILES IDX 6 1 7 2 5 3 4 4 3 5 2 6 1 7 8 8 9 9 10 10 11 11 12 12
REMARK H PARENT
REMARK Flexibility Score: inf
ROOT
ATOM      1  C   UNL     1      -2.441   6.359  -0.491  1.00  0.00     0.132 C 
ATOM      2  O   UNL     1      -1.537   5.580  -0.226  1.00  0.00    -0.300 OA
ENDROOT
BRANCH   1   3
ATOM      3  C   UNL     1      -3.841   6.059  -0.018  1.00  0.00     0.075 C 
BRANCH   3   4
ATOM      4  C   UNL     1      -4.662   7.338   0.189  1.00  0.00     0.008 C 
BRANCH   4   5
ATOM      5  C   UNL     1      -4.916   7.625   1.678  1.00  0.00     0.000 C 
BRANCH   5   6
ATOM      6  C   UNL     1      -4.870   6.354   2.541  1.00  0.00    -0.003 C 
ATOM      7  C   UNL     1      -4.508   6.640   3.998  1.00  0.00     0.004 C 
ENDBRANCH   5   6
ENDBRANCH   4   5
ENDBRANCH   3   4
ENDBRANCH   1   3
BRANCH   1   8
ATOM      8  C   UNL     1      -2.139   7.602  -1.284  1.00  0.00     0.075 C 
BRANCH   8   9
ATOM      9  C   UNL     1      -0.999   8.397  -0.632  1.00  0.00     0.008 C 
BRANCH   9  10
ATOM     10  C   UNL     1      -1.404   8.981   0.736  1.00  0.00     0.000 C 
BRANCH  10  11
ATOM     11  C   UNL     1      -0.487   8.540   1.889  1.00  0.00    -0.003 C 
ATOM     12  C   UNL     1      -1.124   7.484   2.790  1.00  0.00     0.004 C 
ENDBRANCH  10  11
ENDBRANCH   9  10
ENDBRANCH   8   9
ENDBRANCH   1   8
TORSDOF 8
ENDMDL
