MODEL 1
REMARK VINA RESULT:    -3.560      0.000      0.000
REMARK INTER + INTRA:          -5.200
REMARK INTER:                  -5.016
REMARK INTRA:                  -0.184
REMARK UNBOUND:                -0.184
REMARK SMILES CC1=CCC(=C(C)C)C(=O)CC(C)=CCC1
REMARK SMILES IDX 12 1 14 2 13 3 15 4 16 5 2 6 1 7 3 8 11 10 9 11 10 12 5 13
REMARK SMILES IDX 6 14 7 15 8 16 4 17
REMARK H PARENT
REMARK Flexibility Score: 60.00
ROOT
ATOM      1  C   UNL     1     131.057 118.138  99.570  1.00  0.00    -0.070 C 
ATOM      2  C   UNL     1     129.893 118.443 100.189  1.00  0.00    -0.027 C 
ATOM      3  C   UNL     1     131.783 116.889 100.000  1.00  0.00     0.039 C 
ENDROOT
BRANCH   2   4
ATOM      4  C   UNL     1     128.969 119.564  99.787  1.00  0.00     0.032 C 
BRANCH   4   5
ATOM      5  C   UNL     1     129.167 120.763 100.720  1.00  0.00     0.034 C 
BRANCH   5   6
ATOM      6  C   UNL     1     129.153 122.085  99.979  1.00  0.00    -0.077 C 
ATOM      7  C   UNL     1     127.823 122.702  99.626  1.00  0.00     0.039 C 
ATOM      8  C   UNL     1     130.275 122.715  99.548  1.00  0.00    -0.023 CG0
ATOM      9  G   UNL     1     131.716 122.327  99.826  1.00  0.00     0.000 G0
ENDBRANCH   5   6
ENDBRANCH   4   5
ENDBRANCH   2   4
BRANCH   1  10
ATOM     10  C   UNL     1     131.673 118.996  98.483  1.00  0.00     0.111 C 
BRANCH  10  11
ATOM     11  C   UNL     1     132.610 120.036  99.049  1.00  0.00     0.163 C 
ATOM     12  O   UNL     1     133.548 119.625  99.784  1.00  0.00    -0.294 OA
BRANCH  11  13
ATOM     13  C   UNL     1     132.469 121.510  98.799  1.00  0.00    -0.002 C 
ATOM     14  C   UNL     1     133.122 122.104  97.753  1.00  0.00    -0.069 C 
ATOM     15  C   UNL     1     133.195 123.606  97.605  1.00  0.00     0.039 C 
ATOM     16  C   UNL     1     133.765 121.286  96.657  1.00  0.00     0.039 C 
BRANCH  13  17
ATOM     17  C   UNL     1     131.733 122.341  99.845  1.00  0.00     0.066 CG0
ATOM     18  G   UNL     1     130.293 122.703  99.530  1.00  0.00     0.000 G0
ENDBRANCH  13  17
ENDBRANCH  11  13
ENDBRANCH  10  11
ENDBRANCH   1  10
TORSDOF 0
ENDMDL
MODEL 2
REMARK VINA RESULT:    -3.382      1.707      3.909
REMARK INTER + INTRA:          -4.950
REMARK INTER:                  -4.772
REMARK INTRA:                  -0.178
REMARK UNBOUND:                -0.184
REMARK SMILES CC1=CCC(=C(C)C)C(=O)CC(C)=CCC1
REMARK SMILES IDX 12 1 14 2 13 3 15 4 16 5 2 6 1 7 3 8 11 10 9 11 10 12 5 13
REMARK SMILES IDX 6 14 7 15 8 16 4 17
REMARK H PARENT
REMARK Flexibility Score: 60.00
ROOT
ATOM      1  C   UNL     1     128.118 121.780  99.786  1.00  0.00    -0.070 C 
ATOM      2  C   UNL     1     128.263 123.065  99.390  1.00  0.00    -0.027 C 
ATOM      3  C   UNL     1     126.970 121.446 100.704  1.00  0.00     0.039 C 
ENDROOT
BRANCH   2   4
ATOM      4  C   UNL     1     129.258 123.546  98.365  1.00  0.00     0.032 C 
BRANCH   4   5
ATOM      5  C   UNL     1     130.486 124.137  99.068  1.00  0.00     0.034 C 
BRANCH   5   6
ATOM      6  C   UNL     1     131.789 123.693  98.432  1.00  0.00    -0.077 C 
ATOM      7  C   UNL     1     132.248 124.380  97.170  1.00  0.00     0.039 C 
ATOM      8  C   UNL     1     132.536 122.660  98.895  1.00  0.00    -0.023 CG0
ATOM      9  G   UNL     1     132.315 121.858 100.165  1.00  0.00     0.000 G0
ENDBRANCH   5   6
ENDBRANCH   4   5
ENDBRANCH   2   4
BRANCH   1  10
ATOM     10  C   UNL     1     129.060 120.668  99.371  1.00  0.00     0.111 C 
BRANCH  10  11
ATOM     11  C   UNL     1     130.166 120.460 100.377  1.00  0.00     0.163 C 
ATOM     12  O   UNL     1     129.824 120.254 101.573  1.00  0.00    -0.294 OA
BRANCH  11  13
ATOM     13  C   UNL     1     131.627 120.508 100.033  1.00  0.00    -0.002 C 
ATOM     14  C   UNL     1     132.317 119.356  99.767  1.00  0.00    -0.069 C 
ATOM     15  C   UNL     1     133.823 119.334  99.647  1.00  0.00     0.039 C 
ATOM     16  C   UNL     1     131.602 118.045  99.527  1.00  0.00     0.039 C 
BRANCH  13  17
ATOM     17  C   UNL     1     132.347 121.845 100.169  1.00  0.00     0.066 CG0
ATOM     18  G   UNL     1     132.527 122.650  98.895  1.00  0.00     0.000 G0
ENDBRANCH  13  17
ENDBRANCH  11  13
ENDBRANCH  10  11
ENDBRANCH   1  10
TORSDOF 0
ENDMDL
MODEL 3
REMARK VINA RESULT:    -3.367      1.725      3.640
REMARK INTER + INTRA:          -4.929
REMARK INTER:                  -5.069
REMARK INTRA:                   0.140
REMARK UNBOUND:                -0.184
REMARK SMILES CC1=CCC(=C(C)C)C(=O)CC(C)=CCC1
REMARK SMILES IDX 12 1 14 2 13 3 15 4 16 5 2 6 1 7 3 8 11 10 9 11 10 12 5 13
REMARK SMILES IDX 6 14 7 15 8 16 4 17
REMARK H PARENT
REMARK Flexibility Score: 60.00
ROOT
ATOM      1  C   UNL     1     133.123 121.479  98.262  1.00  0.00    -0.070 C 
ATOM      2  C   UNL     1     132.835 120.206  97.908  1.00  0.00    -0.027 C 
ATOM      3  C   UNL     1     133.648 122.409  97.197  1.00  0.00     0.039 C 
ENDROOT
BRANCH   2   4
ATOM      4  C   UNL     1     132.169 119.191  98.801  1.00  0.00     0.032 C 
BRANCH   4   5
ATOM      5  C   UNL     1     130.697 119.031  98.401  1.00  0.00     0.034 C 
BRANCH   5   6
ATOM      6  C   UNL     1     129.748 119.588  99.443  1.00  0.00    -0.077 C 
ATOM      7  C   UNL     1     129.298 118.688 100.566  1.00  0.00     0.039 C 
ATOM      8  C   UNL     1     129.220 120.837  99.385  1.00  0.00    -0.023 CG0
ATOM      9  G   UNL     1     129.558 121.936  98.395  1.00  0.00     0.000 G0
ENDBRANCH   5   6
ENDBRANCH   4   5
ENDBRANCH   2   4
BRANCH   1  10
ATOM     10  C   UNL     1     132.964 122.009  99.672  1.00  0.00     0.111 C 
BRANCH  10  11
ATOM     11  C   UNL     1     131.571 122.532  99.924  1.00  0.00     0.163 C 
ATOM     12  O   UNL     1     131.190 122.594 101.125  1.00  0.00    -0.294 OA
BRANCH  11  13
ATOM     13  C   UNL     1     130.626 122.953  98.835  1.00  0.00    -0.002 C 
ATOM     14  C   UNL     1     130.628 124.242  98.373  1.00  0.00    -0.069 C 
ATOM     15  C   UNL     1     129.549 124.764  97.452  1.00  0.00     0.039 C 
ATOM     16  C   UNL     1     131.744 125.203  98.718  1.00  0.00     0.039 C 
BRANCH  13  17
ATOM     17  C   UNL     1     129.555 121.960  98.399  1.00  0.00     0.066 CG0
ATOM     18  G   UNL     1     129.206 120.863  99.388  1.00  0.00     0.000 G0
ENDBRANCH  13  17
ENDBRANCH  11  13
ENDBRANCH  10  11
ENDBRANCH   1  10
TORSDOF 0
ENDMDL
MODEL 4
REMARK VINA RESULT:    -3.273     13.731     16.370
REMARK INTER + INTRA:          -4.796
REMARK INTER:                  -4.647
REMARK INTRA:                  -0.149
REMARK UNBOUND:                -0.184
REMARK SMILES CC1=CCC(=C(C)C)C(=O)CC(C)=CCC1
REMARK SMILES IDX 12 1 14 2 13 3 15 4 16 5 2 6 1 7 3 8 11 10 9 11 10 12 5 13
REMARK SMILES IDX 6 14 7 15 8 16 4 17
REMARK H PARENT
REMARK Flexibility Score: 60.00
ROOT
ATOM      1  C   UNL     1     115.614 119.402 107.020  1.00  0.00    -0.070 C 
ATOM      2  C   UNL     1     116.597 118.806 106.306  1.00  0.00    -0.027 C 
ATOM      3  C   UNL     1     114.190 118.989 106.749  1.00  0.00     0.039 C 
ENDROOT
BRANCH   2   4
ATOM      4  C   UNL     1     118.073 118.989 106.548  1.00  0.00     0.032 C 
BRANCH   4   5
ATOM      5  C   UNL     1     118.642 120.010 105.556  1.00  0.00     0.034 C 
BRANCH   5   6
ATOM      6  C   UNL     1     119.692 120.906 106.181  1.00  0.00    -0.077 C 
ATOM      7  C   UNL     1     121.089 120.366 106.361  1.00  0.00     0.039 C 
ATOM      8  C   UNL     1     119.430 122.149 106.657  1.00  0.00    -0.023 CG0
ATOM      9  G   UNL     1     118.131 122.926 106.542  1.00  0.00     0.000 G0
ENDBRANCH   5   6
ENDBRANCH   4   5
ENDBRANCH   2   4
BRANCH   1  10
ATOM     10  C   UNL     1     115.872 120.473 108.061  1.00  0.00     0.111 C 
BRANCH  10  11
ATOM     11  C   UNL     1     115.954 121.849 107.446  1.00  0.00     0.163 C 
ATOM     12  O   UNL     1     115.000 122.204 106.703  1.00  0.00    -0.294 OA
BRANCH  11  13
ATOM     13  C   UNL     1     117.107 122.789 107.656  1.00  0.00    -0.002 C 
ATOM     14  C   UNL     1     117.150 123.602 108.756  1.00  0.00    -0.069 C 
ATOM     15  C   UNL     1     118.161 124.718 108.888  1.00  0.00     0.039 C 
ATOM     16  C   UNL     1     116.218 123.395 109.928  1.00  0.00     0.039 C 
BRANCH  13  17
ATOM     17  C   UNL     1     118.118 122.938 106.524  1.00  0.00     0.066 CG0
ATOM     18  G   UNL     1     119.409 122.152 106.664  1.00  0.00     0.000 G0
ENDBRANCH  13  17
ENDBRANCH  11  13
ENDBRANCH  10  11
ENDBRANCH   1  10
TORSDOF 0
ENDMDL
MODEL 5
REMARK VINA RESULT:    -3.242     12.666     15.816
REMARK INTER + INTRA:          -4.753
REMARK INTER:                  -4.936
REMARK INTRA:                   0.183
REMARK UNBOUND:                -0.184
REMARK SMILES CC1=CCC(=C(C)C)C(=O)CC(C)=CCC1
REMARK SMILES IDX 12 1 14 2 13 3 15 4 16 5 2 6 1 7 3 8 11 10 9 11 10 12 5 13
REMARK SMILES IDX 6 14 7 15 8 16 4 17
REMARK H PARENT
REMARK Flexibility Score: 60.00
ROOT
ATOM      1  C   UNL     1     118.503 126.578 108.217  1.00  0.00    -0.070 C 
ATOM      2  C   UNL     1     119.793 126.985 108.203  1.00  0.00    -0.027 C 
ATOM      3  C   UNL     1     117.715 126.763 109.489  1.00  0.00     0.039 C 
ENDROOT
BRANCH   2   4
ATOM      4  C   UNL     1     120.676 127.012 106.982  1.00  0.00     0.032 C 
BRANCH   4   5
ATOM      5  C   UNL     1     121.832 126.019 107.153  1.00  0.00     0.034 C 
BRANCH   5   6
ATOM      6  C   UNL     1     121.623 124.743 106.361  1.00  0.00    -0.077 C 
ATOM      7  C   UNL     1     122.241 124.635 104.990  1.00  0.00     0.039 C 
ATOM      8  C   UNL     1     120.848 123.715 106.787  1.00  0.00    -0.023 CG0
ATOM      9  G   UNL     1     120.173 123.566 108.139  1.00  0.00     0.000 G0
ENDBRANCH   5   6
ENDBRANCH   4   5
ENDBRANCH   2   4
BRANCH   1  10
ATOM     10  C   UNL     1     117.819 125.931 107.030  1.00  0.00     0.111 C 
BRANCH  10  11
ATOM     11  C   UNL     1     117.983 124.431 107.033  1.00  0.00     0.163 C 
ATOM     12  O   UNL     1     117.520 123.801 106.044  1.00  0.00    -0.294 OA
BRANCH  11  13
ATOM     13  C   UNL     1     118.638 123.664 108.145  1.00  0.00    -0.002 C 
ATOM     14  C   UNL     1     117.905 123.226 109.214  1.00  0.00    -0.069 C 
ATOM     15  C   UNL     1     118.556 122.660 110.455  1.00  0.00     0.039 C 
ATOM     16  C   UNL     1     116.393 123.235 109.192  1.00  0.00     0.039 C 
BRANCH  13  17
ATOM     17  C   UNL     1     120.159 123.554 108.134  1.00  0.00     0.066 CG0
ATOM     18  G   UNL     1     120.838 123.710 106.785  1.00  0.00     0.000 G0
ENDBRANCH  13  17
ENDBRANCH  11  13
ENDBRANCH  10  11
ENDBRANCH   1  10
TORSDOF 0
ENDMDL
MODEL 6
REMARK VINA RESULT:    -3.173      1.526      4.085
REMARK INTER + INTRA:          -4.656
REMARK INTER:                  -4.519
REMARK INTRA:                  -0.137
REMARK UNBOUND:                -0.184
REMARK SMILES CC1=CCC(=C(C)C)C(=O)CC(C)=CCC1
REMARK SMILES IDX 12 1 14 2 13 3 15 4 16 5 2 6 1 7 3 8 11 10 9 11 10 12 5 13
REMARK SMILES IDX 6 14 7 15 8 16 4 17
REMARK H PARENT
REMARK Flexibility Score: 60.00
ROOT
ATOM      1  C   UNL     1     132.596 122.320  98.452  1.00  0.00    -0.070 C 
ATOM      2  C   UNL     1     131.641 123.278  98.477  1.00  0.00    -0.027 C 
ATOM      3  C   UNL     1     133.643 122.391  97.370  1.00  0.00     0.039 C 
ENDROOT
BRANCH   2   4
ATOM      4  C   UNL     1     130.612 123.444  99.567  1.00  0.00     0.032 C 
BRANCH   4   5
ATOM      5  C   UNL     1     129.307 122.748  99.162  1.00  0.00     0.034 C 
BRANCH   5   6
ATOM      6  C   UNL     1     128.681 121.977 100.306  1.00  0.00    -0.077 C 
ATOM      7  C   UNL     1     127.969 122.744 101.391  1.00  0.00     0.039 C 
ATOM      8  C   UNL     1     128.785 120.632 100.449  1.00  0.00    -0.023 CG0
ATOM      9  G   UNL     1     129.397 119.644  99.472  1.00  0.00     0.000 G0
ENDBRANCH   5   6
ENDBRANCH   4   5
ENDBRANCH   2   4
BRANCH   1  10
ATOM     10  C   UNL     1     132.653 121.174  99.441  1.00  0.00     0.111 C 
BRANCH  10  11
ATOM     11  C   UNL     1     131.919 119.955  98.936  1.00  0.00     0.163 C 
ATOM     12  O   UNL     1     132.223 119.537  97.787  1.00  0.00    -0.294 OA
BRANCH  11  13
ATOM     13  C   UNL     1     130.849 119.244  99.713  1.00  0.00    -0.002 C 
ATOM     14  C   UNL     1     131.159 118.169 100.502  1.00  0.00    -0.069 C 
ATOM     15  C   UNL     1     130.093 117.288 101.111  1.00  0.00     0.039 C 
ATOM     16  C   UNL     1     132.592 117.833 100.849  1.00  0.00     0.039 C 
BRANCH  13  17
ATOM     17  C   UNL     1     129.399 119.639  99.454  1.00  0.00     0.066 CG0
ATOM     18  G   UNL     1     128.777 120.615 100.436  1.00  0.00     0.000 G0
ENDBRANCH  13  17
ENDBRANCH  11  13
ENDBRANCH  10  11
ENDBRANCH   1  10
TORSDOF 0
ENDMDL
MODEL 7
REMARK VINA RESULT:    -3.159     11.674     14.655
REMARK INTER + INTRA:          -4.636
REMARK INTER:                  -4.507
REMARK INTRA:                  -0.129
REMARK UNBOUND:                -0.184
REMARK SMILES CC1=CCC(=C(C)C)C(=O)CC(C)=CCC1
REMARK SMILES IDX 12 1 14 2 13 3 15 4 16 5 2 6 1 7 3 8 11 10 9 11 10 12 5 13
REMARK SMILES IDX 6 14 7 15 8 16 4 17
REMARK H PARENT
REMARK Flexibility Score: 60.00
ROOT
ATOM      1  C   UNL     1     118.902 126.475 107.973  1.00  0.00    -0.070 C 
ATOM      2  C   UNL     1     120.016 127.229 107.833  1.00  0.00    -0.027 C 
ATOM      3  C   UNL     1     117.898 126.880 109.022  1.00  0.00     0.039 C 
ENDROOT
BRANCH   2   4
ATOM      4  C   UNL     1     121.045 127.057 106.745  1.00  0.00     0.032 C 
BRANCH   4   5
ATOM      5  C   UNL     1     122.145 126.098 107.214  1.00  0.00     0.034 C 
BRANCH   5   6
ATOM      6  C   UNL     1     122.523 125.084 106.153  1.00  0.00    -0.077 C 
ATOM      7  C   UNL     1     123.288 125.557 104.942  1.00  0.00     0.039 C 
ATOM      8  C   UNL     1     122.150 123.781 106.195  1.00  0.00    -0.023 CG0
ATOM      9  G   UNL     1     121.434 123.062 107.324  1.00  0.00     0.000 G0
ENDBRANCH   5   6
ENDBRANCH   4   5
ENDBRANCH   2   4
BRANCH   1  10
ATOM     10  C   UNL     1     118.623 125.238 107.144  1.00  0.00     0.111 C 
BRANCH  10  11
ATOM     11  C   UNL     1     119.066 123.977 107.844  1.00  0.00     0.163 C 
ATOM     12  O   UNL     1     118.709 123.832 109.045  1.00  0.00    -0.294 OA
BRANCH  11  13
ATOM     13  C   UNL     1     119.912 122.917 107.200  1.00  0.00    -0.002 C 
ATOM     14  C   UNL     1     119.336 121.795 106.668  1.00  0.00    -0.069 C 
ATOM     15  C   UNL     1     120.158 120.607 106.223  1.00  0.00     0.039 C 
ATOM     16  C   UNL     1     117.843 121.703 106.447  1.00  0.00     0.039 C 
BRANCH  13  17
ATOM     17  C   UNL     1     121.427 123.044 107.322  1.00  0.00     0.066 CG0
ATOM     18  G   UNL     1     122.137 123.781 106.201  1.00  0.00     0.000 G0
ENDBRANCH  13  17
ENDBRANCH  11  13
ENDBRANCH  10  11
ENDBRANCH   1  10
TORSDOF 0
ENDMDL
MODEL 8
REMARK VINA RESULT:    -3.154     12.691     15.511
REMARK INTER + INTRA:          -4.629
REMARK INTER:                  -4.504
REMARK INTRA:                  -0.125
REMARK UNBOUND:                -0.184
REMARK SMILES CC1=CCC(=C(C)C)C(=O)CC(C)=CCC1
REMARK SMILES IDX 12 1 14 2 13 3 15 4 16 5 2 6 1 7 3 8 11 10 9 11 10 12 5 13
REMARK SMILES IDX 6 14 7 15 8 16 4 17
REMARK H PARENT
REMARK Flexibility Score: 60.00
ROOT
ATOM      1  C   UNL     1     120.498 126.629 106.774  1.00  0.00    -0.070 C 
ATOM      2  C   UNL     1     121.495 125.884 106.243  1.00  0.00    -0.027 C 
ATOM      3  C   UNL     1     120.864 127.930 107.442  1.00  0.00     0.039 C 
ENDROOT
BRANCH   2   4
ATOM      4  C   UNL     1     121.297 124.640 105.415  1.00  0.00     0.032 C 
BRANCH   4   5
ATOM      5  C   UNL     1     121.653 123.401 106.244  1.00  0.00     0.034 C 
BRANCH   5   6
ATOM      6  C   UNL     1     120.656 122.274 106.061  1.00  0.00    -0.077 C 
ATOM      7  C   UNL     1     120.846 121.320 104.909  1.00  0.00     0.039 C 
ATOM      8  C   UNL     1     119.554 122.114 106.837  1.00  0.00    -0.023 CG0
ATOM      9  G   UNL     1     119.178 122.902 108.079  1.00  0.00     0.000 G0
ENDBRANCH   5   6
ENDBRANCH   4   5
ENDBRANCH   2   4
BRANCH   1  10
ATOM     10  C   UNL     1     119.042 126.214 106.746  1.00  0.00     0.111 C 
BRANCH  10  11
ATOM     11  C   UNL     1     118.657 125.424 107.973  1.00  0.00     0.163 C 
ATOM     12  O   UNL     1     118.784 125.998 109.089  1.00  0.00    -0.294 OA
BRANCH  11  13
ATOM     13  C   UNL     1     118.159 124.008 107.933  1.00  0.00    -0.002 C 
ATOM     14  C   UNL     1     116.817 123.742 107.913  1.00  0.00    -0.069 C 
ATOM     15  C   UNL     1     116.274 122.345 108.105  1.00  0.00     0.039 C 
ATOM     16  C   UNL     1     115.801 124.830 107.645  1.00  0.00     0.039 C 
BRANCH  13  17
ATOM     17  C   UNL     1     119.183 122.889 108.099  1.00  0.00     0.066 CG0
ATOM     18  G   UNL     1     119.552 122.119 106.844  1.00  0.00     0.000 G0
ENDBRANCH  13  17
ENDBRANCH  11  13
ENDBRANCH  10  11
ENDBRANCH   1  10
TORSDOF 0
ENDMDL
MODEL 9
REMARK VINA RESULT:    -3.082     12.091     14.799
REMARK INTER + INTRA:          -4.528
REMARK INTER:                  -4.600
REMARK INTRA:                   0.072
REMARK UNBOUND:                -0.184
REMARK SMILES CC1=CCC(=C(C)C)C(=O)CC(C)=CCC1
REMARK SMILES IDX 12 1 14 2 13 3 15 4 16 5 2 6 1 7 3 8 11 10 9 11 10 12 5 13
REMARK SMILES IDX 6 14 7 15 8 16 4 17
REMARK H PARENT
REMARK Flexibility Score: 60.00
ROOT
ATOM      1  C   UNL     1     121.486 125.943 107.068  1.00  0.00    -0.070 C 
ATOM      2  C   UNL     1     122.003 125.684 105.845  1.00  0.00    -0.027 C 
ATOM      3  C   UNL     1     121.043 127.353 107.366  1.00  0.00     0.039 C 
ENDROOT
BRANCH   2   4
ATOM      4  C   UNL     1     122.357 124.311 105.331  1.00  0.00     0.032 C 
BRANCH   4   5
ATOM      5  C   UNL     1     121.294 123.840 104.331  1.00  0.00     0.034 C 
BRANCH   5   6
ATOM      6  C   UNL     1     120.401 122.756 104.901  1.00  0.00    -0.077 C 
ATOM      7  C   UNL     1     120.792 121.314 104.692  1.00  0.00     0.039 C 
ATOM      8  C   UNL     1     119.226 123.006 105.531  1.00  0.00    -0.023 CG0
ATOM      9  G   UNL     1     118.652 124.360 105.908  1.00  0.00     0.000 G0
ENDBRANCH   5   6
ENDBRANCH   4   5
ENDBRANCH   2   4
BRANCH   1  10
ATOM     10  C   UNL     1     121.350 124.897 108.156  1.00  0.00     0.111 C 
BRANCH  10  11
ATOM     11  C   UNL     1     119.993 124.237 108.136  1.00  0.00     0.163 C 
ATOM     12  O   UNL     1     119.869 123.161 108.782  1.00  0.00    -0.294 OA
BRANCH  11  13
ATOM     13  C   UNL     1     118.812 124.776 107.382  1.00  0.00    -0.002 C 
ATOM     14  C   UNL     1     117.837 125.485 108.030  1.00  0.00    -0.069 C 
ATOM     15  C   UNL     1     116.529 125.843 107.363  1.00  0.00     0.039 C 
ATOM     16  C   UNL     1     118.037 125.995 109.440  1.00  0.00     0.039 C 
BRANCH  13  17
ATOM     17  C   UNL     1     118.646 124.357 105.925  1.00  0.00     0.066 CG0
ATOM     18  G   UNL     1     119.227 123.009 105.539  1.00  0.00     0.000 G0
ENDBRANCH  13  17
ENDBRANCH  11  13
ENDBRANCH  10  11
ENDBRANCH   1  10
TORSDOF 0
ENDMDL
