MODEL 1
REMARK VINA RESULT:    -4.564      0.000      0.000
REMARK INTER + INTRA:          -4.997
REMARK INTER:                  -4.964
REMARK INTRA:                  -0.034
REMARK UNBOUND:                -0.034
REMARK SMILES O=C([O-])c1ccc(O)cc1
REMARK SMILES IDX 7 1 6 2 9 3 5 4 10 5 4 6 8 7 2 9 1 10 3 11
REMARK H PARENT 8 8
REMARK Flexibility Score: inf
ROOT
ATOM      1  C   UNL     1    -106.881  31.660  27.093  1.00  0.00     0.115 A 
ATOM      2  C   UNL     1    -106.681  31.383  25.737  1.00  0.00     0.047 A 
ATOM      3  C   UNL     1    -108.183  31.832  27.581  1.00  0.00     0.047 A 
ATOM      4  C   UNL     1    -107.774  31.278  24.871  1.00  0.00     0.014 A 
ATOM      5  C   UNL     1    -109.278  31.726  26.718  1.00  0.00     0.014 A 
ATOM      6  C   UNL     1    -109.085  31.449  25.353  1.00  0.00    -0.003 A 
ENDROOT
BRANCH   1   7
ATOM      7  O   UNL     1    -105.783  31.763  27.944  1.00  0.00    -0.508 OA
ATOM      8  H   UNL     1    -105.394  32.663  28.199  1.00  0.00     0.293 HD
ENDBRANCH   1   7
BRANCH   6   9
ATOM      9  C   UNL     1    -110.244  31.338  24.441  1.00  0.00     0.071 C 
ATOM     10  O   UNL     1    -110.197  30.583  23.433  1.00  0.00    -0.545 OA
ATOM     11  O   UNL     1    -111.403  32.067  24.683  1.00  0.00    -0.545 OA
ENDBRANCH   6   9
TORSDOF 2
ENDMDL
MODEL 2
REMARK VINA RESULT:    -4.561      0.030      1.532
REMARK INTER + INTRA:          -4.995
REMARK INTER:                  -4.961
REMARK INTRA:                  -0.034
REMARK UNBOUND:                -0.034
REMARK SMILES O=C([O-])c1ccc(O)cc1
REMARK SMILES IDX 7 1 6 2 9 3 5 4 10 5 4 6 8 7 2 9 1 10 3 11
REMARK H PARENT 8 8
REMARK Flexibility Score: inf
ROOT
ATOM      1  C   UNL     1    -106.864  31.655  27.103  1.00  0.00     0.115 A 
ATOM      2  C   UNL     1    -108.160  31.831  27.597  1.00  0.00     0.047 A 
ATOM      3  C   UNL     1    -106.672  31.383  25.742  1.00  0.00     0.047 A 
ATOM      4  C   UNL     1    -109.261  31.736  26.740  1.00  0.00     0.014 A 
ATOM      5  C   UNL     1    -107.771  31.288  24.881  1.00  0.00     0.014 A 
ATOM      6  C   UNL     1    -109.077  31.464  25.372  1.00  0.00    -0.003 A 
ENDROOT
BRANCH   1   7
ATOM      7  O   UNL     1    -105.777  31.751  27.968  1.00  0.00    -0.508 OA
ATOM      8  H   UNL     1    -104.848  31.460  27.686  1.00  0.00     0.293 HD
ENDBRANCH   1   7
BRANCH   6   9
ATOM      9  C   UNL     1    -110.238  31.363  24.461  1.00  0.00     0.071 C 
ATOM     10  O   UNL     1    -110.189  30.629  23.438  1.00  0.00    -0.545 OA
ATOM     11  O   UNL     1    -111.401  32.080  24.720  1.00  0.00    -0.545 OA
ENDBRANCH   6   9
TORSDOF 2
ENDMDL
MODEL 3
REMARK VINA RESULT:    -4.475      1.442      2.266
REMARK INTER + INTRA:          -4.901
REMARK INTER:                  -4.865
REMARK INTRA:                  -0.036
REMARK UNBOUND:                -0.034
REMARK SMILES O=C([O-])c1ccc(O)cc1
REMARK SMILES IDX 7 1 6 2 9 3 5 4 10 5 4 6 8 7 2 9 1 10 3 11
REMARK H PARENT 8 8
REMARK Flexibility Score: inf
ROOT
ATOM      1  C   UNL     1    -106.336  30.922  25.573  1.00  0.00     0.115 A 
ATOM      2  C   UNL     1    -106.831  31.159  26.858  1.00  0.00     0.047 A 
ATOM      3  C   UNL     1    -107.198  31.000  24.471  1.00  0.00     0.047 A 
ATOM      4  C   UNL     1    -108.181  31.471  27.047  1.00  0.00     0.014 A 
ATOM      5  C   UNL     1    -108.549  31.312  24.656  1.00  0.00     0.014 A 
ATOM      6  C   UNL     1    -109.054  31.551  25.946  1.00  0.00    -0.003 A 
ENDROOT
BRANCH   1   7
ATOM      7  O   UNL     1    -104.989  30.612  25.400  1.00  0.00    -0.508 OA
ATOM      8  H   UNL     1    -104.552  29.850  25.906  1.00  0.00     0.293 HD
ENDBRANCH   1   7
BRANCH   6   9
ATOM      9  C   UNL     1    -110.484  31.881  26.140  1.00  0.00     0.071 C 
ATOM     10  O   UNL     1    -111.265  31.951  25.154  1.00  0.00    -0.545 OA
ATOM     11  O   UNL     1    -110.984  32.121  27.414  1.00  0.00    -0.545 OA
ENDBRANCH   6   9
TORSDOF 2
ENDMDL
MODEL 4
REMARK VINA RESULT:    -4.413      1.424      2.035
REMARK INTER + INTRA:          -4.834
REMARK INTER:                  -4.798
REMARK INTRA:                  -0.036
REMARK UNBOUND:                -0.034
REMARK SMILES O=C([O-])c1ccc(O)cc1
REMARK SMILES IDX 7 1 6 2 9 3 5 4 10 5 4 6 8 7 2 9 1 10 3 11
REMARK H PARENT 8 8
REMARK Flexibility Score: inf
ROOT
ATOM      1  C   UNL     1    -106.439  30.973  25.641  1.00  0.00     0.115 A 
ATOM      2  C   UNL     1    -107.339  30.967  24.571  1.00  0.00     0.047 A 
ATOM      3  C   UNL     1    -106.899  31.264  26.932  1.00  0.00     0.047 A 
ATOM      4  C   UNL     1    -108.691  31.250  24.785  1.00  0.00     0.014 A 
ATOM      5  C   UNL     1    -108.251  31.546  27.150  1.00  0.00     0.014 A 
ATOM      6  C   UNL     1    -109.161  31.542  26.079  1.00  0.00    -0.003 A 
ENDROOT
BRANCH   1   7
ATOM      7  O   UNL     1    -105.094  30.691  25.412  1.00  0.00    -0.508 OA
ATOM      8  H   UNL     1    -104.548  31.221  24.743  1.00  0.00     0.293 HD
ENDBRANCH   1   7
BRANCH   6   9
ATOM      9  C   UNL     1    -110.592  31.841  26.311  1.00  0.00     0.071 C 
ATOM     10  O   UNL     1    -111.008  32.123  27.466  1.00  0.00    -0.545 OA
ATOM     11  O   UNL     1    -111.497  31.814  25.256  1.00  0.00    -0.545 OA
ENDBRANCH   6   9
TORSDOF 2
ENDMDL
MODEL 5
REMARK VINA RESULT:    -4.141      8.149      8.485
REMARK INTER + INTRA:          -4.537
REMARK INTER:                  -4.503
REMARK INTRA:                  -0.034
REMARK UNBOUND:                -0.034
REMARK SMILES O=C([O-])c1ccc(O)cc1
REMARK SMILES IDX 7 1 6 2 9 3 5 4 10 5 4 6 8 7 2 9 1 10 3 11
REMARK H PARENT 8 8
REMARK Flexibility Score: inf
ROOT
ATOM      1  C   UNL     1    -107.516  23.131  25.736  1.00  0.00     0.115 A 
ATOM      2  C   UNL     1    -107.220  23.636  24.467  1.00  0.00     0.047 A 
ATOM      3  C   UNL     1    -108.813  22.684  26.020  1.00  0.00     0.047 A 
ATOM      4  C   UNL     1    -108.212  23.697  23.483  1.00  0.00     0.014 A 
ATOM      5  C   UNL     1    -109.808  22.742  25.039  1.00  0.00     0.014 A 
ATOM      6  C   UNL     1    -109.517  23.250  23.760  1.00  0.00    -0.003 A 
ENDROOT
BRANCH   1   7
ATOM      7  O   UNL     1    -106.518  23.077  26.706  1.00  0.00    -0.508 OA
ATOM      8  H   UNL     1    -106.131  23.919  27.116  1.00  0.00     0.293 HD
ENDBRANCH   1   7
BRANCH   6   9
ATOM      9  C   UNL     1    -110.571  23.311  22.723  1.00  0.00     0.071 C 
ATOM     10  O   UNL     1    -111.545  22.514  22.751  1.00  0.00    -0.545 OA
ATOM     11  O   UNL     1    -110.499  24.251  21.701  1.00  0.00    -0.545 OA
ENDBRANCH   6   9
TORSDOF 2
ENDMDL
MODEL 6
REMARK VINA RESULT:    -4.108      8.218      8.648
REMARK INTER + INTRA:          -4.502
REMARK INTER:                  -4.470
REMARK INTRA:                  -0.031
REMARK UNBOUND:                -0.034
REMARK SMILES O=C([O-])c1ccc(O)cc1
REMARK SMILES IDX 7 1 6 2 9 3 5 4 10 5 4 6 8 7 2 9 1 10 3 11
REMARK H PARENT 8 8
REMARK Flexibility Score: inf
ROOT
ATOM      1  C   UNL     1    -107.647  23.369  25.200  1.00  0.00     0.115 A 
ATOM      2  C   UNL     1    -108.815  22.839  25.758  1.00  0.00     0.047 A 
ATOM      3  C   UNL     1    -107.647  23.795  23.866  1.00  0.00     0.047 A 
ATOM      4  C   UNL     1    -109.978  22.733  24.989  1.00  0.00     0.014 A 
ATOM      5  C   UNL     1    -108.809  23.692  23.094  1.00  0.00     0.014 A 
ATOM      6  C   UNL     1    -109.987  23.160  23.648  1.00  0.00    -0.003 A 
ENDROOT
BRANCH   1   7
ATOM      7  O   UNL     1    -106.495  23.467  25.978  1.00  0.00    -0.508 OA
ATOM      8  H   UNL     1    -106.264  24.319  26.476  1.00  0.00     0.293 HD
ENDBRANCH   1   7
BRANCH   6   9
ATOM      9  C   UNL     1    -111.215  23.051  22.830  1.00  0.00     0.071 C 
ATOM     10  O   UNL     1    -111.162  22.618  21.649  1.00  0.00    -0.545 OA
ATOM     11  O   UNL     1    -112.446  23.426  23.356  1.00  0.00    -0.545 OA
ENDBRANCH   6   9
TORSDOF 2
ENDMDL
MODEL 7
REMARK VINA RESULT:    -4.093      8.114      9.283
REMARK INTER + INTRA:          -4.486
REMARK INTER:                  -4.450
REMARK INTRA:                  -0.035
REMARK UNBOUND:                -0.034
REMARK SMILES O=C([O-])c1ccc(O)cc1
REMARK SMILES IDX 7 1 6 2 9 3 5 4 10 5 4 6 8 7 2 9 1 10 3 11
REMARK H PARENT 8 8
REMARK Flexibility Score: inf
ROOT
ATOM      1  C   UNL     1    -109.870  23.911  22.159  1.00  0.00     0.115 A 
ATOM      2  C   UNL     1    -108.529  24.256  22.353  1.00  0.00     0.047 A 
ATOM      3  C   UNL     1    -110.558  23.213  23.160  1.00  0.00     0.047 A 
ATOM      4  C   UNL     1    -107.875  23.906  23.538  1.00  0.00     0.014 A 
ATOM      5  C   UNL     1    -109.908  22.863  24.347  1.00  0.00     0.014 A 
ATOM      6  C   UNL     1    -108.559  23.206  24.549  1.00  0.00    -0.003 A 
ENDROOT
BRANCH   1   7
ATOM      7  O   UNL     1    -110.508  24.265  20.973  1.00  0.00    -0.508 OA
ATOM      8  H   UNL     1    -111.419  24.710  20.974  1.00  0.00     0.293 HD
ENDBRANCH   1   7
BRANCH   6   9
ATOM      9  C   UNL     1    -107.872  22.834  25.806  1.00  0.00     0.071 C 
ATOM     10  O   UNL     1    -108.384  21.992  26.591  1.00  0.00    -0.545 OA
ATOM     11  O   UNL     1    -106.651  23.410  26.138  1.00  0.00    -0.545 OA
ENDBRANCH   6   9
TORSDOF 2
ENDMDL
MODEL 8
REMARK VINA RESULT:    -4.020      1.406      4.034
REMARK INTER + INTRA:          -4.406
REMARK INTER:                  -4.370
REMARK INTRA:                  -0.036
REMARK UNBOUND:                -0.034
REMARK SMILES O=C([O-])c1ccc(O)cc1
REMARK SMILES IDX 7 1 6 2 9 3 5 4 10 5 4 6 8 7 2 9 1 10 3 11
REMARK H PARENT 8 8
REMARK Flexibility Score: inf
ROOT
ATOM      1  C   UNL     1    -110.772  31.833  25.442  1.00  0.00     0.115 A 
ATOM      2  C   UNL     1    -110.015  31.650  24.281  1.00  0.00     0.047 A 
ATOM      3  C   UNL     1    -110.151  31.746  26.695  1.00  0.00     0.047 A 
ATOM      4  C   UNL     1    -108.646  31.380  24.366  1.00  0.00     0.014 A 
ATOM      5  C   UNL     1    -108.782  31.477  26.785  1.00  0.00     0.014 A 
ATOM      6  C   UNL     1    -108.015  31.291  25.621  1.00  0.00    -0.003 A 
ENDROOT
BRANCH   1   7
ATOM      7  O   UNL     1    -112.135  32.101  25.341  1.00  0.00    -0.508 OA
ATOM      8  H   UNL     1    -112.528  32.548  24.521  1.00  0.00     0.293 HD
ENDBRANCH   1   7
BRANCH   6   9
ATOM      9  C   UNL     1    -106.566  31.007  25.718  1.00  0.00     0.071 C 
ATOM     10  O   UNL     1    -106.032  30.770  26.834  1.00  0.00    -0.545 OA
ATOM     11  O   UNL     1    -105.773  30.998  24.576  1.00  0.00    -0.545 OA
ENDBRANCH   6   9
TORSDOF 2
ENDMDL
MODEL 9
REMARK VINA RESULT:    -3.788     15.825     16.862
REMARK INTER + INTRA:          -4.154
REMARK INTER:                  -4.126
REMARK INTRA:                  -0.027
REMARK UNBOUND:                -0.034
REMARK SMILES O=C([O-])c1ccc(O)cc1
REMARK SMILES IDX 7 1 6 2 9 3 5 4 10 5 4 6 8 7 2 9 1 10 3 11
REMARK H PARENT 8 8
REMARK Flexibility Score: inf
ROOT
ATOM      1  C   UNL     1    -104.320  16.599  16.979  1.00  0.00     0.115 A 
ATOM      2  C   UNL     1    -105.021  17.799  17.133  1.00  0.00     0.047 A 
ATOM      3  C   UNL     1    -104.481  15.575  17.921  1.00  0.00     0.047 A 
ATOM      4  C   UNL     1    -105.879  17.978  18.223  1.00  0.00     0.014 A 
ATOM      5  C   UNL     1    -105.339  15.750  19.011  1.00  0.00     0.014 A 
ATOM      6  C   UNL     1    -106.047  16.954  19.173  1.00  0.00    -0.003 A 
ENDROOT
BRANCH   1   7
ATOM      7  O   UNL     1    -103.467  16.435  15.889  1.00  0.00    -0.508 OA
ATOM      8  H   UNL     1    -103.537  15.628  15.279  1.00  0.00     0.293 HD
ENDBRANCH   1   7
BRANCH   6   9
ATOM      9  C   UNL     1    -106.955  17.138  20.327  1.00  0.00     0.071 C 
ATOM     10  O   UNL     1    -106.495  17.417  21.467  1.00  0.00    -0.545 OA
ATOM     11  O   UNL     1    -108.330  17.005  20.170  1.00  0.00    -0.545 OA
ENDBRANCH   6   9
TORSDOF 2
ENDMDL
