MODEL 1
REMARK VINA RESULT:    -3.288      0.000      0.000
REMARK INTER + INTRA:          -3.288
REMARK INTER:                  -3.288
REMARK INTRA:                   0.000
REMARK UNBOUND:                 0.000
REMARK SMILES c1cc[nH]c1
REMARK SMILES IDX 1 1 5 2 4 3 3 4 2 5
REMARK H PARENT 4 6
REMARK Flexibility Score: inf
ROOT
ATOM      1  C   UNL     1      -0.537   9.716  14.727  1.00  0.00     0.019 A 
ATOM      2  C   UNL     1      -0.872  11.055  14.752  1.00  0.00     0.082 A 
ATOM      3  N   UNL     1      -0.224  11.709  13.772  1.00  0.00    -0.368 N 
ATOM      4  C   UNL     1       0.524  10.803  13.119  1.00  0.00     0.082 A 
ATOM      5  C   UNL     1       0.353   9.555  13.684  1.00  0.00     0.019 A 
ATOM      6  H   UNL     1      -0.289  12.730  13.560  1.00  0.00     0.165 HD
ENDROOT
TORSDOF 0
ENDMDL
MODEL 2
REMARK VINA RESULT:    -3.199      1.445      1.793
REMARK INTER + INTRA:          -3.199
REMARK INTER:                  -3.199
REMARK INTRA:                   0.000
REMARK UNBOUND:                 0.000
REMARK SMILES c1cc[nH]c1
REMARK SMILES IDX 1 1 5 2 4 3 3 4 2 5
REMARK H PARENT 4 6
REMARK Flexibility Score: inf
ROOT
ATOM      1  C   UNL     1      -0.464  11.281  14.141  1.00  0.00     0.019 A 
ATOM      2  C   UNL     1      -1.363  10.645  14.972  1.00  0.00     0.082 A 
ATOM      3  N   UNL     1      -1.160   9.316  14.937  1.00  0.00    -0.368 N 
ATOM      4  C   UNL     1      -0.139   9.094  14.090  1.00  0.00     0.082 A 
ATOM      5  C   UNL     1       0.318  10.292  13.578  1.00  0.00     0.019 A 
ATOM      6  H   UNL     1      -1.695   8.592  15.467  1.00  0.00     0.165 HD
ENDROOT
TORSDOF 0
ENDMDL
MODEL 3
REMARK VINA RESULT:    -3.129      8.107      8.995
REMARK INTER + INTRA:          -3.129
REMARK INTER:                  -3.129
REMARK INTRA:                   0.000
REMARK UNBOUND:                 0.000
REMARK SMILES c1cc[nH]c1
REMARK SMILES IDX 1 1 5 2 4 3 3 4 2 5
REMARK H PARENT 4 6
REMARK Flexibility Score: inf
ROOT
ATOM      1  C   UNL     1       2.089  12.815   4.775  1.00  0.00     0.019 A 
ATOM      2  C   UNL     1       2.906  13.397   5.722  1.00  0.00     0.082 A 
ATOM      3  N   UNL     1       2.191  13.701   6.820  1.00  0.00    -0.368 N 
ATOM      4  C   UNL     1       0.923  13.319   6.586  1.00  0.00     0.082 A 
ATOM      5  C   UNL     1       0.823  12.764   5.326  1.00  0.00     0.019 A 
ATOM      6  H   UNL     1       2.553  14.150   7.691  1.00  0.00     0.165 HD
ENDROOT
TORSDOF 0
ENDMDL
MODEL 4
REMARK VINA RESULT:    -3.085      8.561      9.113
REMARK INTER + INTRA:          -3.085
REMARK INTER:                  -3.085
REMARK INTRA:                   0.000
REMARK UNBOUND:                 0.000
REMARK SMILES c1cc[nH]c1
REMARK SMILES IDX 1 1 5 2 4 3 3 4 2 5
REMARK H PARENT 4 6
REMARK Flexibility Score: inf
ROOT
ATOM      1  C   UNL     1       1.268  13.355   6.477  1.00  0.00     0.019 A 
ATOM      2  C   UNL     1       0.313  12.643   5.779  1.00  0.00     0.082 A 
ATOM      3  N   UNL     1       0.830  12.196   4.621  1.00  0.00    -0.368 N 
ATOM      4  C   UNL     1       2.107  12.614   4.569  1.00  0.00     0.082 A 
ATOM      5  C   UNL     1       2.413  13.336   5.705  1.00  0.00     0.019 A 
ATOM      6  H   UNL     1       0.332  11.630   3.897  1.00  0.00     0.165 HD
ENDROOT
TORSDOF 0
ENDMDL
MODEL 5
REMARK VINA RESULT:    -3.081      8.550      9.225
REMARK INTER + INTRA:          -3.081
REMARK INTER:                  -3.081
REMARK INTRA:                   0.000
REMARK UNBOUND:                 0.000
REMARK SMILES c1cc[nH]c1
REMARK SMILES IDX 1 1 5 2 4 3 3 4 2 5
REMARK H PARENT 4 6
REMARK Flexibility Score: inf
ROOT
ATOM      1  C   UNL     1       2.332  13.324   5.708  1.00  0.00     0.019 A 
ATOM      2  C   UNL     1       2.020  12.578   4.589  1.00  0.00     0.082 A 
ATOM      3  N   UNL     1       0.737  12.180   4.646  1.00  0.00    -0.368 N 
ATOM      4  C   UNL     1       0.223  12.662   5.790  1.00  0.00     0.082 A 
ATOM      5  C   UNL     1       1.184  13.378   6.475  1.00  0.00     0.019 A 
ATOM      6  H   UNL     1       0.235  11.603   3.934  1.00  0.00     0.165 HD
ENDROOT
TORSDOF 0
ENDMDL
MODEL 6
REMARK VINA RESULT:    -2.908      9.987     10.690
REMARK INTER + INTRA:          -2.908
REMARK INTER:                  -2.908
REMARK INTRA:                   0.000
REMARK UNBOUND:                 0.000
REMARK SMILES c1cc[nH]c1
REMARK SMILES IDX 1 1 5 2 4 3 3 4 2 5
REMARK H PARENT 4 6
REMARK Flexibility Score: inf
ROOT
ATOM      1  C   UNL     1       2.368  12.192   4.283  1.00  0.00     0.019 A 
ATOM      2  C   UNL     1       2.742  13.237   5.103  1.00  0.00     0.082 A 
ATOM      3  N   UNL     1       3.905  13.762   4.676  1.00  0.00    -0.368 N 
ATOM      4  C   UNL     1       4.280  13.063   3.591  1.00  0.00     0.082 A 
ATOM      5  C   UNL     1       3.349  12.081   3.317  1.00  0.00     0.019 A 
ATOM      6  H   UNL     1       4.420  14.562   5.108  1.00  0.00     0.165 HD
ENDROOT
TORSDOF 0
ENDMDL
MODEL 7
REMARK VINA RESULT:    -2.838      2.027      2.864
REMARK INTER + INTRA:          -2.838
REMARK INTER:                  -2.838
REMARK INTRA:                   0.000
REMARK UNBOUND:                 0.000
REMARK SMILES c1cc[nH]c1
REMARK SMILES IDX 1 1 5 2 4 3 3 4 2 5
REMARK H PARENT 4 6
REMARK Flexibility Score: inf
ROOT
ATOM      1  C   UNL     1      -1.074  10.156  14.777  1.00  0.00     0.019 A 
ATOM      2  C   UNL     1       0.118  10.210  15.471  1.00  0.00     0.082 A 
ATOM      3  N   UNL     1      -0.102  10.637  16.728  1.00  0.00    -0.368 N 
ATOM      4  C   UNL     1      -1.423  10.857  16.846  1.00  0.00     0.082 A 
ATOM      5  C   UNL     1      -2.057  10.569  15.655  1.00  0.00     0.019 A 
ATOM      6  H   UNL     1       0.619  10.771  17.471  1.00  0.00     0.165 HD
ENDROOT
TORSDOF 0
ENDMDL
MODEL 8
REMARK VINA RESULT:    -2.693     10.047     10.706
REMARK INTER + INTRA:          -2.693
REMARK INTER:                  -2.693
REMARK INTRA:                   0.000
REMARK UNBOUND:                 0.000
REMARK SMILES c1cc[nH]c1
REMARK SMILES IDX 1 1 5 2 4 3 3 4 2 5
REMARK H PARENT 4 6
REMARK Flexibility Score: inf
ROOT
ATOM      1  C   UNL     1       2.868  13.063   5.006  1.00  0.00     0.019 A 
ATOM      2  C   UNL     1       1.517  12.977   4.737  1.00  0.00     0.082 A 
ATOM      3  N   UNL     1       1.317  12.912   3.408  1.00  0.00    -0.368 N 
ATOM      4  C   UNL     1       2.527  12.956   2.823  1.00  0.00     0.082 A 
ATOM      5  C   UNL     1       3.513  13.049   3.785  1.00  0.00     0.019 A 
ATOM      6  H   UNL     1       0.395  12.842   2.923  1.00  0.00     0.165 HD
ENDROOT
TORSDOF 0
ENDMDL
MODEL 9
REMARK VINA RESULT:    -2.607     10.023     10.654
REMARK INTER + INTRA:          -2.607
REMARK INTER:                  -2.607
REMARK INTRA:                   0.000
REMARK UNBOUND:                 0.000
REMARK SMILES c1cc[nH]c1
REMARK SMILES IDX 1 1 5 2 4 3 3 4 2 5
REMARK H PARENT 4 6
REMARK Flexibility Score: inf
ROOT
ATOM      1  C   UNL     1       1.281  14.107   3.216  1.00  0.00     0.019 A 
ATOM      2  C   UNL     1       0.220  13.711   4.006  1.00  0.00     0.082 A 
ATOM      3  N   UNL     1       0.530  12.573   4.653  1.00  0.00    -0.368 N 
ATOM      4  C   UNL     1       1.778  12.236   4.286  1.00  0.00     0.082 A 
ATOM      5  C   UNL     1       2.275  13.166   3.395  1.00  0.00     0.019 A 
ATOM      6  H   UNL     1      -0.085  12.051   5.316  1.00  0.00     0.165 HD
ENDROOT
TORSDOF 0
ENDMDL
