MODEL 1
REMARK VINA RESULT:    -2.411      0.000      0.000
REMARK INTER + INTRA:          -2.925
REMARK INTER:                  -2.833
REMARK INTRA:                  -0.091
REMARK UNBOUND:                -0.091
REMARK SMILES O=C([O-])CCC(=O)[O-]
REMARK SMILES IDX 4 1 2 2 1 3 3 4 5 5 6 6 7 7 8 8
REMARK H PARENT
REMARK Flexibility Score: inf
ROOT
ATOM      1  C   UNL     1      64.593  50.760  39.099  1.00  0.00     0.059 C 
ENDROOT
BRANCH   1   2
ATOM      2  C   UNL     1      65.471  49.909  39.960  1.00  0.00     0.042 C 
ATOM      3  O   UNL     1      65.003  49.347  40.984  1.00  0.00    -0.550 OA
ATOM      4  O   UNL     1      66.796  49.695  39.603  1.00  0.00    -0.550 OA
ENDBRANCH   1   2
BRANCH   1   5
ATOM      5  C   UNL     1      64.245  50.030  37.801  1.00  0.00     0.059 C 
BRANCH   5   6
ATOM      6  C   UNL     1      64.533  50.900  36.618  1.00  0.00     0.042 C 
ATOM      7  O   UNL     1      65.481  51.728  36.657  1.00  0.00    -0.550 OA
ATOM      8  O   UNL     1      63.725  50.831  35.491  1.00  0.00    -0.550 OA
ENDBRANCH   5   6
ENDBRANCH   1   5
TORSDOF 3
ENDMDL
MODEL 2
REMARK VINA RESULT:    -2.387      2.168      3.648
REMARK INTER + INTRA:          -2.896
REMARK INTER:                  -2.776
REMARK INTRA:                  -0.121
REMARK UNBOUND:                -0.091
REMARK SMILES O=C([O-])CCC(=O)[O-]
REMARK SMILES IDX 4 1 2 2 1 3 3 4 5 5 6 6 7 7 8 8
REMARK H PARENT
REMARK Flexibility Score: inf
ROOT
ATOM      1  C   UNL     1      65.278  49.140  38.378  1.00  0.00     0.059 C 
ENDROOT
BRANCH   1   2
ATOM      2  C   UNL     1      64.899  49.991  39.548  1.00  0.00     0.042 C 
ATOM      3  O   UNL     1      64.456  51.156  39.368  1.00  0.00    -0.550 OA
ATOM      4  O   UNL     1      64.985  49.479  40.836  1.00  0.00    -0.550 OA
ENDBRANCH   1   2
BRANCH   1   5
ATOM      5  C   UNL     1      66.663  49.530  37.858  1.00  0.00     0.059 C 
BRANCH   5   6
ATOM      6  C   UNL     1      67.706  48.604  38.400  1.00  0.00     0.042 C 
ATOM      7  O   UNL     1      68.079  47.607  37.726  1.00  0.00    -0.550 OA
ATOM      8  O   UNL     1      68.229  48.811  39.669  1.00  0.00    -0.550 OA
ENDBRANCH   5   6
ENDBRANCH   1   5
TORSDOF 3
ENDMDL
MODEL 3
REMARK VINA RESULT:    -2.386      0.205      1.148
REMARK INTER + INTRA:          -2.896
REMARK INTER:                  -2.801
REMARK INTRA:                  -0.095
REMARK UNBOUND:                -0.091
REMARK SMILES O=C([O-])CCC(=O)[O-]
REMARK SMILES IDX 4 1 2 2 1 3 3 4 5 5 6 6 7 7 8 8
REMARK H PARENT
REMARK Flexibility Score: inf
ROOT
ATOM      1  C   UNL     1      64.628  50.754  38.994  1.00  0.00     0.059 C 
ENDROOT
BRANCH   1   2
ATOM      2  C   UNL     1      65.462  49.872  39.869  1.00  0.00     0.042 C 
ATOM      3  O   UNL     1      64.976  49.380  40.921  1.00  0.00    -0.550 OA
ATOM      4  O   UNL     1      66.761  49.551  39.495  1.00  0.00    -0.550 OA
ENDBRANCH   1   2
BRANCH   1   5
ATOM      5  C   UNL     1      64.207  50.007  37.726  1.00  0.00     0.059 C 
BRANCH   5   6
ATOM      6  C   UNL     1      64.552  50.807  36.509  1.00  0.00     0.042 C 
ATOM      7  O   UNL     1      63.741  50.878  35.548  1.00  0.00    -0.550 OA
ATOM      8  O   UNL     1      65.789  51.431  36.415  1.00  0.00    -0.550 OA
ENDBRANCH   5   6
ENDBRANCH   1   5
TORSDOF 3
ENDMDL
MODEL 4
REMARK VINA RESULT:    -2.383      0.133      4.054
REMARK INTER + INTRA:          -2.892
REMARK INTER:                  -2.778
REMARK INTRA:                  -0.114
REMARK UNBOUND:                -0.091
REMARK SMILES O=C([O-])CCC(=O)[O-]
REMARK SMILES IDX 4 1 2 2 1 3 3 4 5 5 6 6 7 7 8 8
REMARK H PARENT
REMARK Flexibility Score: inf
ROOT
ATOM      1  C   UNL     1      64.194  50.106  37.768  1.00  0.00     0.059 C 
ENDROOT
BRANCH   1   2
ATOM      2  C   UNL     1      64.565  50.910  36.563  1.00  0.00     0.042 C 
ATOM      3  O   UNL     1      65.612  51.609  36.564  1.00  0.00    -0.550 OA
ATOM      4  O   UNL     1      63.781  50.847  35.418  1.00  0.00    -0.550 OA
ENDBRANCH   1   2
BRANCH   1   5
ATOM      5  C   UNL     1      64.619  50.830  39.047  1.00  0.00     0.059 C 
BRANCH   5   6
ATOM      6  C   UNL     1      65.533  49.968  39.859  1.00  0.00     0.042 C 
ATOM      7  O   UNL     1      66.692  49.704  39.440  1.00  0.00    -0.550 OA
ATOM      8  O   UNL     1      65.089  49.414  41.052  1.00  0.00    -0.550 OA
ENDBRANCH   5   6
ENDBRANCH   1   5
TORSDOF 3
ENDMDL
MODEL 5
REMARK VINA RESULT:    -2.378      1.943      2.275
REMARK INTER + INTRA:          -2.887
REMARK INTER:                  -2.770
REMARK INTRA:                  -0.117
REMARK UNBOUND:                -0.091
REMARK SMILES O=C([O-])CCC(=O)[O-]
REMARK SMILES IDX 4 1 2 2 1 3 3 4 5 5 6 6 7 7 8 8
REMARK H PARENT
REMARK Flexibility Score: inf
ROOT
ATOM      1  C   UNL     1      66.669  49.079  38.120  1.00  0.00     0.059 C 
ENDROOT
BRANCH   1   2
ATOM      2  C   UNL     1      67.585  49.101  39.302  1.00  0.00     0.042 C 
ATOM      3  O   UNL     1      67.407  49.936  40.227  1.00  0.00    -0.550 OA
ATOM      4  O   UNL     1      68.606  48.165  39.408  1.00  0.00    -0.550 OA
ENDBRANCH   1   2
BRANCH   1   5
ATOM      5  C   UNL     1      65.211  48.993  38.573  1.00  0.00     0.059 C 
BRANCH   5   6
ATOM      6  C   UNL     1      64.481  50.253  38.231  1.00  0.00     0.042 C 
ATOM      7  O   UNL     1      64.416  51.194  39.065  1.00  0.00    -0.550 OA
ATOM      8  O   UNL     1      63.829  50.370  37.010  1.00  0.00    -0.550 OA
ENDBRANCH   5   6
ENDBRANCH   1   5
TORSDOF 3
ENDMDL
MODEL 6
REMARK VINA RESULT:    -2.376      2.160      3.375
REMARK INTER + INTRA:          -2.884
REMARK INTER:                  -2.765
REMARK INTRA:                  -0.118
REMARK UNBOUND:                -0.091
REMARK SMILES O=C([O-])CCC(=O)[O-]
REMARK SMILES IDX 4 1 2 2 1 3 3 4 5 5 6 6 7 7 8 8
REMARK H PARENT
REMARK Flexibility Score: inf
ROOT
ATOM      1  C   UNL     1      66.679  49.524  37.869  1.00  0.00     0.059 C 
ENDROOT
BRANCH   1   2
ATOM      2  C   UNL     1      67.720  48.601  38.419  1.00  0.00     0.042 C 
ATOM      3  O   UNL     1      68.185  48.786  39.574  1.00  0.00    -0.550 OA
ATOM      4  O   UNL     1      68.141  47.506  37.675  1.00  0.00    -0.550 OA
ENDBRANCH   1   2
BRANCH   1   5
ATOM      5  C   UNL     1      65.289  49.120  38.365  1.00  0.00     0.059 C 
BRANCH   5   6
ATOM      6  C   UNL     1      64.878  49.975  39.522  1.00  0.00     0.042 C 
ATOM      7  O   UNL     1      64.486  51.156  39.328  1.00  0.00    -0.550 OA
ATOM      8  O   UNL     1      64.974  49.485  40.817  1.00  0.00    -0.550 OA
ENDBRANCH   5   6
ENDBRANCH   1   5
TORSDOF 3
ENDMDL
MODEL 7
REMARK VINA RESULT:    -2.362      1.802      4.361
REMARK INTER + INTRA:          -2.868
REMARK INTER:                  -2.751
REMARK INTRA:                  -0.117
REMARK UNBOUND:                -0.091
REMARK SMILES O=C([O-])CCC(=O)[O-]
REMARK SMILES IDX 4 1 2 2 1 3 3 4 5 5 6 6 7 7 8 8
REMARK H PARENT
REMARK Flexibility Score: inf
ROOT
ATOM      1  C   UNL     1      64.908  50.480  39.729  1.00  0.00     0.059 C 
ENDROOT
BRANCH   1   2
ATOM      2  C   UNL     1      64.992  49.865  38.368  1.00  0.00     0.042 C 
ATOM      3  O   UNL     1      64.059  50.030  37.539  1.00  0.00    -0.550 OA
ATOM      4  O   UNL     1      66.124  49.151  37.997  1.00  0.00    -0.550 OA
ENDBRANCH   1   2
BRANCH   1   5
ATOM      5  C   UNL     1      64.993  49.401  40.811  1.00  0.00     0.059 C 
BRANCH   5   6
ATOM      6  C   UNL     1      66.190  49.625  41.681  1.00  0.00     0.042 C 
ATOM      7  O   UNL     1      67.335  49.284  41.282  1.00  0.00    -0.550 OA
ATOM      8  O   UNL     1      66.035  50.165  42.951  1.00  0.00    -0.550 OA
ENDBRANCH   5   6
ENDBRANCH   1   5
TORSDOF 3
ENDMDL
MODEL 8
REMARK VINA RESULT:    -2.347      2.182      3.496
REMARK INTER + INTRA:          -2.850
REMARK INTER:                  -2.735
REMARK INTRA:                  -0.115
REMARK UNBOUND:                -0.091
REMARK SMILES O=C([O-])CCC(=O)[O-]
REMARK SMILES IDX 4 1 2 2 1 3 3 4 5 5 6 6 7 7 8 8
REMARK H PARENT
REMARK Flexibility Score: inf
ROOT
ATOM      1  C   UNL     1      65.285  49.009  38.436  1.00  0.00     0.059 C 
ENDROOT
BRANCH   1   2
ATOM      2  C   UNL     1      64.874  49.901  39.564  1.00  0.00     0.042 C 
ATOM      3  O   UNL     1      64.906  49.479  40.750  1.00  0.00    -0.550 OA
ATOM      4  O   UNL     1      64.506  51.216  39.311  1.00  0.00    -0.550 OA
ENDBRANCH   1   2
BRANCH   1   5
ATOM      5  C   UNL     1      66.644  49.439  37.880  1.00  0.00     0.059 C 
BRANCH   5   6
ATOM      6  C   UNL     1      67.733  48.576  38.435  1.00  0.00     0.042 C 
ATOM      7  O   UNL     1      68.241  48.840  39.557  1.00  0.00    -0.550 OA
ATOM      8  O   UNL     1      68.223  47.510  37.691  1.00  0.00    -0.550 OA
ENDBRANCH   5   6
ENDBRANCH   1   5
TORSDOF 3
ENDMDL
MODEL 9
REMARK VINA RESULT:    -2.284      1.812      2.339
REMARK INTER + INTRA:          -2.775
REMARK INTER:                  -2.679
REMARK INTRA:                  -0.096
REMARK UNBOUND:                -0.091
REMARK SMILES O=C([O-])CCC(=O)[O-]
REMARK SMILES IDX 4 1 2 2 1 3 3 4 5 5 6 6 7 7 8 8
REMARK H PARENT
REMARK Flexibility Score: inf
ROOT
ATOM      1  C   UNL     1      66.794  50.154  39.775  1.00  0.00     0.059 C 
ENDROOT
BRANCH   1   2
ATOM      2  C   UNL     1      66.625  49.451  41.084  1.00  0.00     0.042 C 
ATOM      3  O   UNL     1      65.562  49.587  41.744  1.00  0.00    -0.550 OA
ATOM      4  O   UNL     1      67.621  48.603  41.552  1.00  0.00    -0.550 OA
ENDBRANCH   1   2
BRANCH   1   5
ATOM      5  C   UNL     1      65.899  49.522  38.707  1.00  0.00     0.059 C 
BRANCH   5   6
ATOM      6  C   UNL     1      64.689  50.369  38.470  1.00  0.00     0.042 C 
ATOM      7  O   UNL     1      63.885  50.079  37.545  1.00  0.00    -0.550 OA
ATOM      8  O   UNL     1      64.476  51.507  39.237  1.00  0.00    -0.550 OA
ENDBRANCH   5   6
ENDBRANCH   1   5
TORSDOF 3
ENDMDL
