MODEL 1
REMARK VINA RESULT:    -7.853      0.000      0.000
REMARK INTER + INTRA:          -9.761
REMARK INTER:                  -9.460
REMARK INTRA:                  -0.301
REMARK UNBOUND:                -0.301
REMARK SMILES O=c1c(O)c(-c2ccc(O)c(O)c2)oc2cc(O)cc(O)c12
REMARK SMILES IDX 5 1 3 2 2 3 1 4 22 5 20 6 19 7 17 8 16 9 15 10 14 11 6 12
REMARK SMILES IDX 7 13 8 14 9 15 13 16 11 17 10 18 12 20 4 22 21 24 18 26
REMARK H PARENT 10 19 12 21 4 23 21 25 18 27
REMARK Flexibility Score: inf
ROOT
ATOM      1  C   UNL     1     -32.582  25.003   2.274  1.00  0.00     0.180 A 
ATOM      2  C   UNL     1     -32.036  25.515   3.464  1.00  0.00     0.208 A 
ATOM      3  C   UNL     1     -30.709  25.973   3.462  1.00  0.00     0.238 A 
ATOM      4  O   UNL     1     -30.202  26.360   4.547  1.00  0.00    -0.285 OA
ATOM      5  C   UNL     1     -29.962  25.966   2.259  1.00  0.00     0.111 A 
ATOM      6  C   UNL     1     -28.623  26.447   2.130  1.00  0.00     0.134 A 
ATOM      7  C   UNL     1     -27.948  26.292   0.914  1.00  0.00     0.093 A 
ATOM      8  C   UNL     1     -28.579  25.732  -0.195  1.00  0.00     0.123 A 
ATOM      9  C   UNL     1     -29.905  25.308  -0.097  1.00  0.00     0.094 A 
ATOM     10  C   UNL     1     -30.593  25.415   1.114  1.00  0.00     0.146 A 
ATOM     11  O   UNL     1     -31.846  24.979   1.170  1.00  0.00    -0.452 OA
ENDROOT
BRANCH   1  12
ATOM     12  C   UNL     1     -33.968  24.489   2.201  1.00  0.00     0.025 A 
ATOM     13  C   UNL     1     -35.066  25.359   2.078  1.00  0.00     0.016 A 
ATOM     14  C   UNL     1     -36.367  24.852   2.036  1.00  0.00     0.051 A 
ATOM     15  C   UNL     1     -36.594  23.476   2.130  1.00  0.00     0.157 A 
ATOM     16  C   UNL     1     -34.201  23.109   2.318  1.00  0.00     0.062 A 
ATOM     17  C   UNL     1     -35.507  22.598   2.276  1.00  0.00     0.158 A 
BRANCH  15  18
ATOM     18  O   UNL     1     -37.904  22.999   2.084  1.00  0.00    -0.504 OA
ATOM     19  H   UNL     1     -38.561  23.299   1.373  1.00  0.00     0.293 HD
ENDBRANCH  15  18
BRANCH  17  20
ATOM     20  O   UNL     1     -35.725  21.226   2.378  1.00  0.00    -0.504 OA
ATOM     21  H   UNL     1     -35.052  20.613   2.823  1.00  0.00     0.293 HD
ENDBRANCH  17  20
ENDBRANCH   1  12
BRANCH   2  22
ATOM     22  O   UNL     1     -32.814  25.585   4.623  1.00  0.00    -0.502 OA
ATOM     23  H   UNL     1     -33.772  25.911   4.616  1.00  0.00     0.293 HD
ENDBRANCH   2  22
BRANCH   6  24
ATOM     24  O   UNL     1     -27.925  27.104   3.149  1.00  0.00    -0.507 OA
ATOM     25  H   UNL     1     -27.059  27.604   3.027  1.00  0.00     0.293 HD
ENDBRANCH   6  24
BRANCH   8  26
ATOM     26  O   UNL     1     -27.881  25.608  -1.395  1.00  0.00    -0.508 OA
ATOM     27  H   UNL     1     -26.957  25.194  -1.430  1.00  0.00     0.293 HD
ENDBRANCH   8  26
TORSDOF 6
ENDMDL
MODEL 2
REMARK VINA RESULT:    -7.332      1.541      3.418
REMARK INTER + INTRA:          -9.133
REMARK INTER:                  -8.870
REMARK INTRA:                  -0.263
REMARK UNBOUND:                -0.301
REMARK SMILES O=c1c(O)c(-c2ccc(O)c(O)c2)oc2cc(O)cc(O)c12
REMARK SMILES IDX 5 1 3 2 2 3 1 4 22 5 20 6 19 7 17 8 16 9 15 10 14 11 6 12
REMARK SMILES IDX 7 13 8 14 9 15 13 16 11 17 10 18 12 20 4 22 21 24 18 26
REMARK H PARENT 10 19 12 21 4 23 21 25 18 27
REMARK Flexibility Score: inf
ROOT
ATOM      1  C   UNL     1     -32.309  23.728   0.893  1.00  0.00     0.180 A 
ATOM      2  C   UNL     1     -31.773  23.247  -0.314  1.00  0.00     0.208 A 
ATOM      3  C   UNL     1     -30.534  23.738  -0.754  1.00  0.00     0.238 A 
ATOM      4  O   UNL     1     -30.096  23.359  -1.872  1.00  0.00    -0.285 OA
ATOM      5  C   UNL     1     -29.819  24.663   0.044  1.00  0.00     0.111 A 
ATOM      6  C   UNL     1     -28.533  25.195  -0.281  1.00  0.00     0.134 A 
ATOM      7  C   UNL     1     -27.970  26.184   0.534  1.00  0.00     0.093 A 
ATOM      8  C   UNL     1     -28.611  26.616   1.693  1.00  0.00     0.123 A 
ATOM      9  C   UNL     1     -29.842  26.064   2.050  1.00  0.00     0.094 A 
ATOM     10  C   UNL     1     -30.448  25.103   1.238  1.00  0.00     0.146 A 
ATOM     11  O   UNL     1     -31.630  24.620   1.603  1.00  0.00    -0.452 OA
ENDROOT
BRANCH   1  12
ATOM     12  C   UNL     1     -33.615  23.268   1.415  1.00  0.00     0.025 A 
ATOM     13  C   UNL     1     -33.764  21.997   1.997  1.00  0.00     0.016 A 
ATOM     14  C   UNL     1     -35.014  21.575   2.460  1.00  0.00     0.051 A 
ATOM     15  C   UNL     1     -36.131  22.405   2.336  1.00  0.00     0.157 A 
ATOM     16  C   UNL     1     -34.745  24.091   1.272  1.00  0.00     0.062 A 
ATOM     17  C   UNL     1     -35.999  23.668   1.737  1.00  0.00     0.158 A 
BRANCH  15  18
ATOM     18  O   UNL     1     -37.364  21.957   2.809  1.00  0.00    -0.504 OA
ATOM     19  H   UNL     1     -38.146  21.778   2.190  1.00  0.00     0.293 HD
ENDBRANCH  15  18
BRANCH  17  20
ATOM     20  O   UNL     1     -37.111  24.498   1.603  1.00  0.00    -0.504 OA
ATOM     21  H   UNL     1     -37.999  24.270   2.034  1.00  0.00     0.293 HD
ENDBRANCH  17  20
ENDBRANCH   1  12
BRANCH   2  22
ATOM     22  O   UNL     1     -32.458  22.276  -1.050  1.00  0.00    -0.502 OA
ATOM     23  H   UNL     1     -33.332  22.468  -1.525  1.00  0.00     0.293 HD
ENDBRANCH   2  22
BRANCH   6  24
ATOM     24  O   UNL     1     -27.763  24.771  -1.369  1.00  0.00    -0.507 OA
ATOM     25  H   UNL     1     -27.079  24.032  -1.339  1.00  0.00     0.293 HD
ENDBRANCH   6  24
BRANCH   8  26
ATOM     26  O   UNL     1     -28.012  27.591   2.488  1.00  0.00    -0.508 OA
ATOM     27  H   UNL     1     -27.079  27.933   2.295  1.00  0.00     0.293 HD
ENDBRANCH   8  26
TORSDOF 6
ENDMDL
MODEL 3
REMARK VINA RESULT:    -7.226      1.648      6.947
REMARK INTER + INTRA:          -9.005
REMARK INTER:                  -8.899
REMARK INTRA:                  -0.106
REMARK UNBOUND:                -0.301
REMARK SMILES O=c1c(O)c(-c2ccc(O)c(O)c2)oc2cc(O)cc(O)c12
REMARK SMILES IDX 5 1 3 2 2 3 1 4 22 5 20 6 19 7 17 8 16 9 15 10 14 11 6 12
REMARK SMILES IDX 7 13 8 14 9 15 13 16 11 17 10 18 12 20 4 22 21 24 18 26
REMARK H PARENT 10 19 12 21 4 23 21 25 18 27
REMARK Flexibility Score: inf
ROOT
ATOM      1  C   UNL     1     -31.453  25.063   1.479  1.00  0.00     0.180 A 
ATOM      2  C   UNL     1     -32.501  25.982   1.656  1.00  0.00     0.208 A 
ATOM      3  C   UNL     1     -33.793  25.499   1.917  1.00  0.00     0.238 A 
ATOM      4  O   UNL     1     -34.741  26.323   2.000  1.00  0.00    -0.285 OA
ATOM      5  C   UNL     1     -34.012  24.107   2.054  1.00  0.00     0.111 A 
ATOM      6  C   UNL     1     -35.272  23.507   2.362  1.00  0.00     0.134 A 
ATOM      7  C   UNL     1     -35.389  22.112   2.368  1.00  0.00     0.093 A 
ATOM      8  C   UNL     1     -34.284  21.294   2.140  1.00  0.00     0.123 A 
ATOM      9  C   UNL     1     -33.037  21.869   1.892  1.00  0.00     0.094 A 
ATOM     10  C   UNL     1     -32.895  23.257   1.842  1.00  0.00     0.146 A 
ATOM     11  O   UNL     1     -31.695  23.762   1.580  1.00  0.00    -0.452 OA
ENDROOT
BRANCH   1  12
ATOM     12  C   UNL     1     -30.067  25.495   1.187  1.00  0.00     0.025 A 
ATOM     13  C   UNL     1     -29.400  25.077   0.022  1.00  0.00     0.016 A 
ATOM     14  C   UNL     1     -28.083  25.478  -0.219  1.00  0.00     0.051 A 
ATOM     15  C   UNL     1     -27.410  26.286   0.702  1.00  0.00     0.157 A 
ATOM     16  C   UNL     1     -29.381  26.289   2.120  1.00  0.00     0.062 A 
ATOM     17  C   UNL     1     -28.058  26.692   1.879  1.00  0.00     0.158 A 
BRANCH  15  18
ATOM     18  O   UNL     1     -26.097  26.672   0.432  1.00  0.00    -0.504 OA
ATOM     19  H   UNL     1     -25.476  26.108  -0.137  1.00  0.00     0.293 HD
ENDBRANCH  15  18
BRANCH  17  20
ATOM     20  O   UNL     1     -27.391  27.492   2.805  1.00  0.00    -0.504 OA
ATOM     21  H   UNL     1     -27.591  27.436   3.797  1.00  0.00     0.293 HD
ENDBRANCH  17  20
ENDBRANCH   1  12
BRANCH   2  22
ATOM     22  O   UNL     1     -32.252  27.355   1.593  1.00  0.00    -0.502 OA
ATOM     23  H   UNL     1     -31.356  27.734   1.310  1.00  0.00     0.293 HD
ENDBRANCH   2  22
BRANCH   6  24
ATOM     24  O   UNL     1     -36.422  24.230   2.693  1.00  0.00    -0.507 OA
ATOM     25  H   UNL     1     -36.849  24.251   3.606  1.00  0.00     0.293 HD
ENDBRANCH   6  24
BRANCH   8  26
ATOM     26  O   UNL     1     -34.435  19.909   2.169  1.00  0.00    -0.508 OA
ATOM     27  H   UNL     1     -33.798  19.317   2.689  1.00  0.00     0.293 HD
ENDBRANCH   8  26
TORSDOF 6
ENDMDL
MODEL 4
REMARK VINA RESULT:    -7.144      2.148      3.784
REMARK INTER + INTRA:          -8.907
REMARK INTER:                  -8.695
REMARK INTRA:                  -0.212
REMARK UNBOUND:                -0.301
REMARK SMILES O=c1c(O)c(-c2ccc(O)c(O)c2)oc2cc(O)cc(O)c12
REMARK SMILES IDX 5 1 3 2 2 3 1 4 22 5 20 6 19 7 17 8 16 9 15 10 14 11 6 12
REMARK SMILES IDX 7 13 8 14 9 15 13 16 11 17 10 18 12 20 4 22 21 24 18 26
REMARK H PARENT 10 19 12 21 4 23 21 25 18 27
REMARK Flexibility Score: inf
ROOT
ATOM      1  C   UNL     1     -30.423  24.950   0.735  1.00  0.00     0.180 A 
ATOM      2  C   UNL     1     -30.021  24.048  -0.266  1.00  0.00     0.208 A 
ATOM      3  C   UNL     1     -28.732  24.165  -0.809  1.00  0.00     0.238 A 
ATOM      4  O   UNL     1     -28.405  23.403  -1.756  1.00  0.00    -0.285 OA
ATOM      5  C   UNL     1     -27.841  25.145  -0.308  1.00  0.00     0.111 A 
ATOM      6  C   UNL     1     -26.496  25.325  -0.754  1.00  0.00     0.134 A 
ATOM      7  C   UNL     1     -25.743  26.396  -0.259  1.00  0.00     0.093 A 
ATOM      8  C   UNL     1     -26.260  27.256   0.709  1.00  0.00     0.123 A 
ATOM      9  C   UNL     1     -27.553  27.056   1.192  1.00  0.00     0.094 A 
ATOM     10  C   UNL     1     -28.344  26.020   0.690  1.00  0.00     0.146 A 
ATOM     11  O   UNL     1     -29.577  25.879   1.161  1.00  0.00    -0.452 OA
ENDROOT
BRANCH   1  12
ATOM     12  C   UNL     1     -31.770  24.899   1.346  1.00  0.00     0.025 A 
ATOM     13  C   UNL     1     -32.713  25.919   1.127  1.00  0.00     0.016 A 
ATOM     14  C   UNL     1     -33.970  25.860   1.736  1.00  0.00     0.051 A 
ATOM     15  C   UNL     1     -34.299  24.796   2.580  1.00  0.00     0.157 A 
ATOM     16  C   UNL     1     -32.096  23.842   2.212  1.00  0.00     0.062 A 
ATOM     17  C   UNL     1     -33.358  23.782   2.823  1.00  0.00     0.158 A 
BRANCH  15  18
ATOM     18  O   UNL     1     -35.562  24.764   3.171  1.00  0.00    -0.504 OA
ATOM     19  H   UNL     1     -35.931  23.928   3.608  1.00  0.00     0.293 HD
ENDBRANCH  15  18
BRANCH  17  20
ATOM     20  O   UNL     1     -33.676  22.721   3.669  1.00  0.00    -0.504 OA
ATOM     21  H   UNL     1     -34.541  22.203   3.569  1.00  0.00     0.293 HD
ENDBRANCH  17  20
ENDBRANCH   1  12
BRANCH   2  22
ATOM     22  O   UNL     1     -30.887  23.039  -0.693  1.00  0.00    -0.502 OA
ATOM     23  H   UNL     1     -31.691  23.224  -1.281  1.00  0.00     0.293 HD
ENDBRANCH   2  22
BRANCH   6  24
ATOM     24  O   UNL     1     -25.848  24.472  -1.653  1.00  0.00    -0.507 OA
ATOM     25  H   UNL     1     -24.871  24.225  -1.615  1.00  0.00     0.293 HD
ENDBRANCH   6  24
BRANCH   8  26
ATOM     26  O   UNL     1     -25.475  28.302   1.190  1.00  0.00    -0.508 OA
ATOM     27  H   UNL     1     -25.839  29.243   1.272  1.00  0.00     0.293 HD
ENDBRANCH   8  26
TORSDOF 6
ENDMDL
MODEL 5
REMARK VINA RESULT:    -7.092      2.164      7.541
REMARK INTER + INTRA:          -8.844
REMARK INTER:                  -9.136
REMARK INTRA:                   0.292
REMARK UNBOUND:                -0.301
REMARK SMILES O=c1c(O)c(-c2ccc(O)c(O)c2)oc2cc(O)cc(O)c12
REMARK SMILES IDX 5 1 3 2 2 3 1 4 22 5 20 6 19 7 17 8 16 9 15 10 14 11 6 12
REMARK SMILES IDX 7 13 8 14 9 15 13 16 11 17 10 18 12 20 4 22 21 24 18 26
REMARK H PARENT 10 19 12 21 4 23 21 25 18 27
REMARK Flexibility Score: inf
ROOT
ATOM      1  C   UNL     1     -29.881  25.254   0.721  1.00  0.00     0.180 A 
ATOM      2  C   UNL     1     -30.024  24.159  -0.150  1.00  0.00     0.208 A 
ATOM      3  C   UNL     1     -31.287  23.565  -0.294  1.00  0.00     0.238 A 
ATOM      4  O   UNL     1     -31.392  22.539  -1.016  1.00  0.00    -0.285 OA
ATOM      5  C   UNL     1     -32.403  24.104   0.390  1.00  0.00     0.111 A 
ATOM      6  C   UNL     1     -33.739  23.609   0.284  1.00  0.00     0.134 A 
ATOM      7  C   UNL     1     -34.744  24.157   1.091  1.00  0.00     0.093 A 
ATOM      8  C   UNL     1     -34.478  25.221   1.951  1.00  0.00     0.123 A 
ATOM      9  C   UNL     1     -33.189  25.748   2.022  1.00  0.00     0.094 A 
ATOM     10  C   UNL     1     -32.156  25.198   1.259  1.00  0.00     0.146 A 
ATOM     11  O   UNL     1     -30.939  25.717   1.374  1.00  0.00    -0.452 OA
ENDROOT
BRANCH   1  12
ATOM     12  C   UNL     1     -28.579  25.925   0.936  1.00  0.00     0.025 A 
ATOM     13  C   UNL     1     -28.261  26.530   2.165  1.00  0.00     0.016 A 
ATOM     14  C   UNL     1     -27.036  27.180   2.334  1.00  0.00     0.051 A 
ATOM     15  C   UNL     1     -26.118  27.248   1.282  1.00  0.00     0.157 A 
ATOM     16  C   UNL     1     -27.664  26.014  -0.126  1.00  0.00     0.062 A 
ATOM     17  C   UNL     1     -26.433  26.666   0.044  1.00  0.00     0.158 A 
BRANCH  15  18
ATOM     18  O   UNL     1     -24.903  27.901   1.483  1.00  0.00    -0.504 OA
ATOM     19  H   UNL     1     -24.013  27.457   1.286  1.00  0.00     0.293 HD
ENDBRANCH  15  18
BRANCH  17  20
ATOM     20  O   UNL     1     -25.527  26.735  -1.012  1.00  0.00    -0.504 OA
ATOM     21  H   UNL     1     -25.766  26.405  -1.940  1.00  0.00     0.293 HD
ENDBRANCH  17  20
ENDBRANCH   1  12
BRANCH   2  22
ATOM     22  O   UNL     1     -28.926  23.689  -0.875  1.00  0.00    -0.502 OA
ATOM     23  H   UNL     1     -28.213  24.306  -1.245  1.00  0.00     0.293 HD
ENDBRANCH   2  22
BRANCH   6  24
ATOM     24  O   UNL     1     -34.134  22.607  -0.608  1.00  0.00    -0.507 OA
ATOM     25  H   UNL     1     -34.370  21.662  -0.348  1.00  0.00     0.293 HD
ENDBRANCH   6  24
BRANCH   8  26
ATOM     26  O   UNL     1     -35.507  25.752   2.727  1.00  0.00    -0.508 OA
ATOM     27  H   UNL     1     -36.241  26.318   2.318  1.00  0.00     0.293 HD
ENDBRANCH   8  26
TORSDOF 6
ENDMDL
MODEL 6
REMARK VINA RESULT:    -7.055      1.638      6.969
REMARK INTER + INTRA:          -8.800
REMARK INTER:                  -9.105
REMARK INTRA:                   0.306
REMARK UNBOUND:                -0.301
REMARK SMILES O=c1c(O)c(-c2ccc(O)c(O)c2)oc2cc(O)cc(O)c12
REMARK SMILES IDX 5 1 3 2 2 3 1 4 22 5 20 6 19 7 17 8 16 9 15 10 14 11 6 12
REMARK SMILES IDX 7 13 8 14 9 15 13 16 11 17 10 18 12 20 4 22 21 24 18 26
REMARK H PARENT 10 19 12 21 4 23 21 25 18 27
REMARK Flexibility Score: inf
ROOT
ATOM      1  C   UNL     1     -30.196  25.649   1.418  1.00  0.00     0.180 A 
ATOM      2  C   UNL     1     -30.420  25.895   2.784  1.00  0.00     0.208 A 
ATOM      3  C   UNL     1     -31.700  25.672   3.315  1.00  0.00     0.238 A 
ATOM      4  O   UNL     1     -31.913  25.965   4.520  1.00  0.00    -0.285 OA
ATOM      5  C   UNL     1     -32.726  25.154   2.488  1.00  0.00     0.111 A 
ATOM      6  C   UNL     1     -34.050  24.848   2.930  1.00  0.00     0.134 A 
ATOM      7  C   UNL     1     -35.012  24.440   1.998  1.00  0.00     0.093 A 
ATOM      8  C   UNL     1     -34.685  24.265   0.654  1.00  0.00     0.123 A 
ATOM      9  C   UNL     1     -33.382  24.509   0.221  1.00  0.00     0.094 A 
ATOM     10  C   UNL     1     -32.409  24.954   1.120  1.00  0.00     0.146 A 
ATOM     11  O   UNL     1     -31.187  25.195   0.661  1.00  0.00    -0.452 OA
ENDROOT
BRANCH   1  12
ATOM     12  C   UNL     1     -28.878  25.873   0.783  1.00  0.00     0.025 A 
ATOM     13  C   UNL     1     -28.427  25.061  -0.273  1.00  0.00     0.016 A 
ATOM     14  C   UNL     1     -27.167  25.276  -0.839  1.00  0.00     0.051 A 
ATOM     15  C   UNL     1     -26.337  26.291  -0.355  1.00  0.00     0.157 A 
ATOM     16  C   UNL     1     -28.032  26.878   1.281  1.00  0.00     0.062 A 
ATOM     17  C   UNL     1     -26.768  27.094   0.713  1.00  0.00     0.158 A 
BRANCH  15  18
ATOM     18  O   UNL     1     -25.086  26.482  -0.942  1.00  0.00    -0.504 OA
ATOM     19  H   UNL     1     -24.903  26.238  -1.909  1.00  0.00     0.293 HD
ENDBRANCH  15  18
BRANCH  17  20
ATOM     20  O   UNL     1     -25.943  28.103   1.206  1.00  0.00    -0.504 OA
ATOM     21  H   UNL     1     -25.103  27.893   1.731  1.00  0.00     0.293 HD
ENDBRANCH  17  20
ENDBRANCH   1  12
BRANCH   2  22
ATOM     22  O   UNL     1     -29.374  26.333   3.601  1.00  0.00    -0.502 OA
ATOM     23  H   UNL     1     -28.416  26.035   3.465  1.00  0.00     0.293 HD
ENDBRANCH   2  22
BRANCH   6  24
ATOM     24  O   UNL     1     -34.462  24.903   4.266  1.00  0.00    -0.507 OA
ATOM     25  H   UNL     1     -35.377  24.644   4.599  1.00  0.00     0.293 HD
ENDBRANCH   6  24
BRANCH   8  26
ATOM     26  O   UNL     1     -35.665  23.842  -0.242  1.00  0.00    -0.508 OA
ATOM     27  H   UNL     1     -35.757  22.869  -0.506  1.00  0.00     0.293 HD
ENDBRANCH   8  26
TORSDOF 6
ENDMDL
MODEL 7
REMARK VINA RESULT:    -6.956      1.876      6.727
REMARK INTER + INTRA:          -8.680
REMARK INTER:                  -8.591
REMARK INTRA:                  -0.089
REMARK UNBOUND:                -0.301
REMARK SMILES O=c1c(O)c(-c2ccc(O)c(O)c2)oc2cc(O)cc(O)c12
REMARK SMILES IDX 5 1 3 2 2 3 1 4 22 5 20 6 19 7 17 8 16 9 15 10 14 11 6 12
REMARK SMILES IDX 7 13 8 14 9 15 13 16 11 17 10 18 12 20 4 22 21 24 18 26
REMARK H PARENT 10 19 12 21 4 23 21 25 18 27
REMARK Flexibility Score: inf
ROOT
ATOM      1  C   UNL     1     -30.665  25.645   2.018  1.00  0.00     0.180 A 
ATOM      2  C   UNL     1     -31.592  25.925   3.037  1.00  0.00     0.208 A 
ATOM      3  C   UNL     1     -32.867  25.341   2.977  1.00  0.00     0.238 A 
ATOM      4  O   UNL     1     -33.717  25.655   3.851  1.00  0.00    -0.285 OA
ATOM      5  C   UNL     1     -33.183  24.442   1.930  1.00  0.00     0.111 A 
ATOM      6  C   UNL     1     -34.430  23.758   1.793  1.00  0.00     0.134 A 
ATOM      7  C   UNL     1     -34.666  22.974   0.658  1.00  0.00     0.093 A 
ATOM      8  C   UNL     1     -33.682  22.797  -0.314  1.00  0.00     0.123 A 
ATOM      9  C   UNL     1     -32.441  23.416  -0.164  1.00  0.00     0.094 A 
ATOM     10  C   UNL     1     -32.188  24.235   0.939  1.00  0.00     0.146 A 
ATOM     11  O   UNL     1     -31.002  24.823   1.031  1.00  0.00    -0.452 OA
ENDROOT
BRANCH   1  12
ATOM     12  C   UNL     1     -29.306  26.232   2.005  1.00  0.00     0.025 A 
ATOM     13  C   UNL     1     -28.851  26.999   0.919  1.00  0.00     0.016 A 
ATOM     14  C   UNL     1     -27.554  27.522   0.919  1.00  0.00     0.051 A 
ATOM     15  C   UNL     1     -26.692  27.277   1.992  1.00  0.00     0.157 A 
ATOM     16  C   UNL     1     -28.430  25.969   3.072  1.00  0.00     0.062 A 
ATOM     17  C   UNL     1     -27.129  26.494   3.073  1.00  0.00     0.158 A 
BRANCH  15  18
ATOM     18  O   UNL     1     -25.405  27.814   1.964  1.00  0.00    -0.504 OA
ATOM     19  H   UNL     1     -25.195  28.682   1.486  1.00  0.00     0.293 HD
ENDBRANCH  15  18
BRANCH  17  20
ATOM     20  O   UNL     1     -26.273  26.239   4.143  1.00  0.00    -0.504 OA
ATOM     21  H   UNL     1     -26.620  26.150   5.091  1.00  0.00     0.293 HD
ENDBRANCH  17  20
ENDBRANCH   1  12
BRANCH   2  22
ATOM     22  O   UNL     1     -31.236  26.754   4.104  1.00  0.00    -0.502 OA
ATOM     23  H   UNL     1     -31.399  27.754   4.094  1.00  0.00     0.293 HD
ENDBRANCH   2  22
BRANCH   6  24
ATOM     24  O   UNL     1     -35.451  23.794   2.748  1.00  0.00    -0.507 OA
ATOM     25  H   UNL     1     -36.437  23.818   2.539  1.00  0.00     0.293 HD
ENDBRANCH   6  24
BRANCH   8  26
ATOM     26  O   UNL     1     -33.947  21.995  -1.423  1.00  0.00    -0.508 OA
ATOM     27  H   UNL     1     -33.207  21.681  -2.039  1.00  0.00     0.293 HD
ENDBRANCH   8  26
TORSDOF 6
ENDMDL
MODEL 8
REMARK VINA RESULT:    -6.923      1.749      2.576
REMARK INTER + INTRA:          -8.641
REMARK INTER:                  -8.371
REMARK INTRA:                  -0.270
REMARK UNBOUND:                -0.301
REMARK SMILES O=c1c(O)c(-c2ccc(O)c(O)c2)oc2cc(O)cc(O)c12
REMARK SMILES IDX 5 1 3 2 2 3 1 4 22 5 20 6 19 7 17 8 16 9 15 10 14 11 6 12
REMARK SMILES IDX 7 13 8 14 9 15 13 16 11 17 10 18 12 20 4 22 21 24 18 26
REMARK H PARENT 10 19 12 21 4 23 21 25 18 27
REMARK Flexibility Score: inf
ROOT
ATOM      1  C   UNL     1     -30.165  25.551   1.585  1.00  0.00     0.180 A 
ATOM      2  C   UNL     1     -29.578  25.986   2.786  1.00  0.00     0.208 A 
ATOM      3  C   UNL     1     -28.229  26.374   2.782  1.00  0.00     0.238 A 
ATOM      4  O   UNL     1     -27.689  26.691   3.875  1.00  0.00    -0.285 OA
ATOM      5  C   UNL     1     -27.499  26.375   1.570  1.00  0.00     0.111 A 
ATOM      6  C   UNL     1     -26.138  26.791   1.441  1.00  0.00     0.134 A 
ATOM      7  C   UNL     1     -25.487  26.648   0.209  1.00  0.00     0.093 A 
ATOM      8  C   UNL     1     -26.161  26.167  -0.912  1.00  0.00     0.123 A 
ATOM      9  C   UNL     1     -27.505  25.809  -0.810  1.00  0.00     0.094 A 
ATOM     10  C   UNL     1     -28.172  25.904   0.413  1.00  0.00     0.146 A 
ATOM     11  O   UNL     1     -29.445  25.532   0.470  1.00  0.00    -0.452 OA
ENDROOT
BRANCH   1  12
ATOM     12  C   UNL     1     -31.578  25.114   1.512  1.00  0.00     0.025 A 
ATOM     13  C   UNL     1     -32.633  26.043   1.531  1.00  0.00     0.016 A 
ATOM     14  C   UNL     1     -33.960  25.604   1.487  1.00  0.00     0.051 A 
ATOM     15  C   UNL     1     -34.252  24.238   1.436  1.00  0.00     0.157 A 
ATOM     16  C   UNL     1     -31.876  23.741   1.483  1.00  0.00     0.062 A 
ATOM     17  C   UNL     1     -33.207  23.300   1.438  1.00  0.00     0.158 A 
BRANCH  15  18
ATOM     18  O   UNL     1     -35.586  23.832   1.390  1.00  0.00    -0.504 OA
ATOM     19  H   UNL     1     -36.214  23.954   2.176  1.00  0.00     0.293 HD
ENDBRANCH  15  18
BRANCH  17  20
ATOM     20  O   UNL     1     -33.491  21.937   1.394  1.00  0.00    -0.504 OA
ATOM     21  H   UNL     1     -34.021  21.528   0.633  1.00  0.00     0.293 HD
ENDBRANCH  17  20
ENDBRANCH   1  12
BRANCH   2  22
ATOM     22  O   UNL     1     -30.337  26.051   3.957  1.00  0.00    -0.502 OA
ATOM     23  H   UNL     1     -30.140  25.475   4.767  1.00  0.00     0.293 HD
ENDBRANCH   2  22
BRANCH   6  24
ATOM     24  O   UNL     1     -25.394  27.369   2.475  1.00  0.00    -0.507 OA
ATOM     25  H   UNL     1     -24.438  27.678   2.396  1.00  0.00     0.293 HD
ENDBRANCH   6  24
BRANCH   8  26
ATOM     26  O   UNL     1     -25.485  26.054  -2.125  1.00  0.00    -0.508 OA
ATOM     27  H   UNL     1     -25.839  25.475  -2.877  1.00  0.00     0.293 HD
ENDBRANCH   8  26
TORSDOF 6
ENDMDL
MODEL 9
REMARK VINA RESULT:    -6.859      2.279      7.020
REMARK INTER + INTRA:          -8.564
REMARK INTER:                  -8.811
REMARK INTRA:                   0.248
REMARK UNBOUND:                -0.301
REMARK SMILES O=c1c(O)c(-c2ccc(O)c(O)c2)oc2cc(O)cc(O)c12
REMARK SMILES IDX 5 1 3 2 2 3 1 4 22 5 20 6 19 7 17 8 16 9 15 10 14 11 6 12
REMARK SMILES IDX 7 13 8 14 9 15 13 16 11 17 10 18 12 20 4 22 21 24 18 26
REMARK H PARENT 10 19 12 21 4 23 21 25 18 27
REMARK Flexibility Score: inf
ROOT
ATOM      1  C   UNL     1     -30.056  25.434   1.142  1.00  0.00     0.180 A 
ATOM      2  C   UNL     1     -31.143  25.977   1.848  1.00  0.00     0.208 A 
ATOM      3  C   UNL     1     -32.394  25.346   1.762  1.00  0.00     0.238 A 
ATOM      4  O   UNL     1     -33.380  25.879   2.336  1.00  0.00    -0.285 OA
ATOM      5  C   UNL     1     -32.532  24.150   1.017  1.00  0.00     0.111 A 
ATOM      6  C   UNL     1     -33.743  23.401   0.896  1.00  0.00     0.134 A 
ATOM      7  C   UNL     1     -33.785  22.290   0.046  1.00  0.00     0.093 A 
ATOM      8  C   UNL     1     -32.649  21.862  -0.639  1.00  0.00     0.123 A 
ATOM      9  C   UNL     1     -31.447  22.553  -0.486  1.00  0.00     0.094 A 
ATOM     10  C   UNL     1     -31.382  23.688   0.325  1.00  0.00     0.146 A 
ATOM     11  O   UNL     1     -30.223  24.329   0.425  1.00  0.00    -0.452 OA
ENDROOT
BRANCH   1  12
ATOM     12  C   UNL     1     -28.710  26.049   1.172  1.00  0.00     0.025 A 
ATOM     13  C   UNL     1     -28.243  26.732   2.309  1.00  0.00     0.016 A 
ATOM     14  C   UNL     1     -26.978  27.327   2.305  1.00  0.00     0.051 A 
ATOM     15  C   UNL     1     -26.169  27.261   1.167  1.00  0.00     0.157 A 
ATOM     16  C   UNL     1     -27.903  26.004   0.023  1.00  0.00     0.062 A 
ATOM     17  C   UNL     1     -26.633  26.600   0.019  1.00  0.00     0.158 A 
BRANCH  15  18
ATOM     18  O   UNL     1     -24.911  27.862   1.195  1.00  0.00    -0.504 OA
ATOM     19  H   UNL     1     -24.056  27.328   1.089  1.00  0.00     0.293 HD
ENDBRANCH  15  18
BRANCH  17  20
ATOM     20  O   UNL     1     -25.835  26.537  -1.122  1.00  0.00    -0.504 OA
ATOM     21  H   UNL     1     -25.041  27.153  -1.249  1.00  0.00     0.293 HD
ENDBRANCH  17  20
ENDBRANCH   1  12
BRANCH   2  22
ATOM     22  O   UNL     1     -30.970  27.115   2.641  1.00  0.00    -0.502 OA
ATOM     23  H   UNL     1     -30.744  27.062   3.626  1.00  0.00     0.293 HD
ENDBRANCH   2  22
BRANCH   6  24
ATOM     24  O   UNL     1     -34.914  23.688   1.604  1.00  0.00    -0.507 OA
ATOM     25  H   UNL     1     -35.003  23.667   2.608  1.00  0.00     0.293 HD
ENDBRANCH   6  24
BRANCH   8  26
ATOM     26  O   UNL     1     -32.725  20.742  -1.465  1.00  0.00    -0.508 OA
ATOM     27  H   UNL     1     -32.441  20.779  -2.436  1.00  0.00     0.293 HD
ENDBRANCH   8  26
TORSDOF 6
ENDMDL
