MODEL 1
REMARK VINA RESULT:    -3.634      0.000      0.000
REMARK INTER + INTRA:          -3.740
REMARK INTER:                  -3.740
REMARK INTRA:                   0.000
REMARK UNBOUND:                 0.000
REMARK SMILES Oc1ccc2[nH]ccc2c1
REMARK SMILES IDX 3 1 4 2 5 3 9 4 8 5 7 6 6 7 10 8 2 9 1 11
REMARK H PARENT 6 10 1 12
REMARK Flexibility Score: inf
ROOT
ATOM      1  C   UNL     1     135.444 148.743 138.570  1.00  0.00     0.048 A 
ATOM      2  C   UNL     1     136.433 149.571 138.008  1.00  0.00     0.030 A 
ATOM      3  C   UNL     1     137.708 149.037 137.837  1.00  0.00     0.046 A 
ATOM      4  C   UNL     1     138.004 147.751 138.200  1.00  0.00     0.003 A 
ATOM      5  C   UNL     1     139.333 147.534 137.903  1.00  0.00     0.028 A 
ATOM      6  C   UNL     1     139.784 148.734 137.362  1.00  0.00     0.083 A 
ATOM      7  N   UNL     1     138.788 149.650 137.324  1.00  0.00    -0.361 N 
ATOM      8  C   UNL     1     137.049 146.904 138.759  1.00  0.00     0.056 A 
ATOM      9  C   UNL     1     135.747 147.414 138.946  1.00  0.00     0.116 A 
ATOM     10  H   UNL     1     138.850 150.629 136.967  1.00  0.00     0.166 HD
ENDROOT
BRANCH   9  11
ATOM     11  O   UNL     1     134.751 146.615 139.501  1.00  0.00    -0.508 OA
ATOM     12  H   UNL     1     134.807 146.286 140.457  1.00  0.00     0.293 HD
ENDBRANCH   9  11
TORSDOF 1
ENDMDL
MODEL 2
REMARK VINA RESULT:    -3.629     15.585     16.797
REMARK INTER + INTRA:          -3.735
REMARK INTER:                  -3.735
REMARK INTRA:                   0.000
REMARK UNBOUND:                 0.000
REMARK SMILES Oc1ccc2[nH]ccc2c1
REMARK SMILES IDX 3 1 4 2 5 3 9 4 8 5 7 6 6 7 10 8 2 9 1 11
REMARK H PARENT 6 10 1 12
REMARK Flexibility Score: inf
ROOT
ATOM      1  C   UNL     1     146.077 132.861 138.585  1.00  0.00     0.048 A 
ATOM      2  C   UNL     1     145.102 132.014 138.027  1.00  0.00     0.030 A 
ATOM      3  C   UNL     1     143.816 132.525 137.858  1.00  0.00     0.046 A 
ATOM      4  C   UNL     1     143.498 133.806 138.219  1.00  0.00     0.003 A 
ATOM      5  C   UNL     1     142.165 133.997 137.925  1.00  0.00     0.028 A 
ATOM      6  C   UNL     1     141.734 132.788 137.388  1.00  0.00     0.083 A 
ATOM      7  N   UNL     1     142.746 131.892 137.349  1.00  0.00    -0.361 N 
ATOM      8  C   UNL     1     144.439 134.671 138.774  1.00  0.00     0.056 A 
ATOM      9  C   UNL     1     145.750 134.185 138.959  1.00  0.00     0.116 A 
ATOM     10  H   UNL     1     142.702 130.910 136.994  1.00  0.00     0.166 HD
ENDROOT
BRANCH   9  11
ATOM     11  O   UNL     1     146.733 135.004 139.510  1.00  0.00    -0.508 OA
ATOM     12  H   UNL     1     146.551 135.574 140.327  1.00  0.00     0.293 HD
ENDBRANCH   9  11
TORSDOF 1
ENDMDL
MODEL 3
REMARK VINA RESULT:    -3.588     10.772     11.910
REMARK INTER + INTRA:          -3.693
REMARK INTER:                  -3.693
REMARK INTRA:                   0.000
REMARK UNBOUND:                 0.000
REMARK SMILES Oc1ccc2[nH]ccc2c1
REMARK SMILES IDX 3 1 4 2 5 3 9 4 8 5 7 6 6 7 10 8 2 9 1 11
REMARK H PARENT 6 10 1 12
REMARK Flexibility Score: inf
ROOT
ATOM      1  C   UNL     1     148.734 146.092 138.549  1.00  0.00     0.048 A 
ATOM      2  C   UNL     1     149.573 145.108 137.994  1.00  0.00     0.030 A 
ATOM      3  C   UNL     1     149.048 143.829 137.819  1.00  0.00     0.046 A 
ATOM      4  C   UNL     1     147.761 143.525 138.172  1.00  0.00     0.003 A 
ATOM      5  C   UNL     1     147.555 142.195 137.875  1.00  0.00     0.028 A 
ATOM      6  C   UNL     1     148.762 141.751 137.343  1.00  0.00     0.083 A 
ATOM      7  N   UNL     1     149.671 142.753 137.311  1.00  0.00    -0.361 N 
ATOM      8  C   UNL     1     146.904 144.475 138.724  1.00  0.00     0.056 A 
ATOM      9  C   UNL     1     147.405 145.780 138.915  1.00  0.00     0.116 A 
ATOM     10  H   UNL     1     150.654 142.697 136.962  1.00  0.00     0.166 HD
ENDROOT
BRANCH   9  11
ATOM     11  O   UNL     1     146.595 146.772 139.463  1.00  0.00    -0.508 OA
ATOM     12  H   UNL     1     146.980 147.515 140.033  1.00  0.00     0.293 HD
ENDBRANCH   9  11
TORSDOF 1
ENDMDL
MODEL 4
REMARK VINA RESULT:    -3.577     10.785     11.920
REMARK INTER + INTRA:          -3.682
REMARK INTER:                  -3.682
REMARK INTRA:                   0.000
REMARK UNBOUND:                 0.000
REMARK SMILES Oc1ccc2[nH]ccc2c1
REMARK SMILES IDX 3 1 4 2 5 3 9 4 8 5 7 6 6 7 10 8 2 9 1 11
REMARK H PARENT 6 10 1 12
REMARK Flexibility Score: inf
ROOT
ATOM      1  C   UNL     1     132.879 135.410 138.551  1.00  0.00     0.048 A 
ATOM      2  C   UNL     1     132.024 136.379 137.995  1.00  0.00     0.030 A 
ATOM      3  C   UNL     1     132.528 137.667 137.820  1.00  0.00     0.046 A 
ATOM      4  C   UNL     1     133.809 137.992 138.174  1.00  0.00     0.003 A 
ATOM      5  C   UNL     1     133.993 139.326 137.876  1.00  0.00     0.028 A 
ATOM      6  C   UNL     1     132.779 139.749 137.343  1.00  0.00     0.083 A 
ATOM      7  N   UNL     1     131.887 138.732 137.311  1.00  0.00    -0.361 N 
ATOM      8  C   UNL     1     134.681 137.057 138.727  1.00  0.00     0.056 A 
ATOM      9  C   UNL     1     134.203 135.744 138.918  1.00  0.00     0.116 A 
ATOM     10  H   UNL     1     130.904 138.771 136.961  1.00  0.00     0.166 HD
ENDROOT
BRANCH   9  11
ATOM     11  O   UNL     1     135.029 134.766 139.467  1.00  0.00    -0.508 OA
ATOM     12  H   UNL     1     135.984 134.643 139.155  1.00  0.00     0.293 HD
ENDBRANCH   9  11
TORSDOF 1
ENDMDL
MODEL 5
REMARK VINA RESULT:    -3.464     15.199     16.180
REMARK INTER + INTRA:          -3.565
REMARK INTER:                  -3.565
REMARK INTRA:                   0.000
REMARK UNBOUND:                 0.000
REMARK SMILES Oc1ccc2[nH]ccc2c1
REMARK SMILES IDX 3 1 4 2 5 3 9 4 8 5 7 6 6 7 10 8 2 9 1 11
REMARK H PARENT 6 10 1 12
REMARK Flexibility Score: inf
ROOT
ATOM      1  C   UNL     1     141.436 134.344 137.732  1.00  0.00     0.048 A 
ATOM      2  C   UNL     1     141.698 133.071 137.193  1.00  0.00     0.030 A 
ATOM      3  C   UNL     1     142.900 132.454 137.538  1.00  0.00     0.046 A 
ATOM      4  C   UNL     1     143.804 133.056 138.370  1.00  0.00     0.003 A 
ATOM      5  C   UNL     1     144.872 132.196 138.509  1.00  0.00     0.028 A 
ATOM      6  C   UNL     1     144.550 131.089 137.730  1.00  0.00     0.083 A 
ATOM      7  N   UNL     1     143.344 131.251 137.139  1.00  0.00    -0.361 N 
ATOM      8  C   UNL     1     143.576 134.315 138.920  1.00  0.00     0.056 A 
ATOM      9  C   UNL     1     142.368 134.968 138.592  1.00  0.00     0.116 A 
ATOM     10  H   UNL     1     142.861 130.577 136.504  1.00  0.00     0.166 HD
ENDROOT
BRANCH   9  11
ATOM     11  O   UNL     1     142.085 136.228 139.111  1.00  0.00    -0.508 OA
ATOM     12  H   UNL     1     141.851 136.358 140.088  1.00  0.00     0.293 HD
ENDBRANCH   9  11
TORSDOF 1
ENDMDL
MODEL 6
REMARK VINA RESULT:    -3.450      1.333      2.267
REMARK INTER + INTRA:          -3.551
REMARK INTER:                  -3.551
REMARK INTRA:                   0.000
REMARK UNBOUND:                 0.000
REMARK SMILES Oc1ccc2[nH]ccc2c1
REMARK SMILES IDX 3 1 4 2 5 3 9 4 8 5 7 6 6 7 10 8 2 9 1 11
REMARK H PARENT 6 10 1 12
REMARK Flexibility Score: inf
ROOT
ATOM      1  C   UNL     1     136.766 145.548 139.249  1.00  0.00     0.048 A 
ATOM      2  C   UNL     1     138.128 145.582 138.896  1.00  0.00     0.030 A 
ATOM      3  C   UNL     1     138.641 146.778 138.398  1.00  0.00     0.046 A 
ATOM      4  C   UNL     1     137.857 147.891 138.250  1.00  0.00     0.003 A 
ATOM      5  C   UNL     1     138.656 148.892 137.741  1.00  0.00     0.028 A 
ATOM      6  C   UNL     1     139.915 148.316 137.601  1.00  0.00     0.083 A 
ATOM      7  N   UNL     1     139.901 147.025 138.003  1.00  0.00    -0.361 N 
ATOM      8  C   UNL     1     136.506 147.891 138.591  1.00  0.00     0.056 A 
ATOM      9  C   UNL     1     135.955 146.696 139.098  1.00  0.00     0.116 A 
ATOM     10  H   UNL     1     140.707 146.360 138.007  1.00  0.00     0.166 HD
ENDROOT
BRANCH   9  11
ATOM     11  O   UNL     1     134.610 146.636 139.455  1.00  0.00    -0.508 OA
ATOM     12  H   UNL     1     134.139 145.751 139.597  1.00  0.00     0.293 HD
ENDBRANCH   9  11
TORSDOF 1
ENDMDL
MODEL 7
REMARK VINA RESULT:    -3.449      1.785      3.086
REMARK INTER + INTRA:          -3.550
REMARK INTER:                  -3.550
REMARK INTRA:                   0.000
REMARK UNBOUND:                 0.000
REMARK SMILES Oc1ccc2[nH]ccc2c1
REMARK SMILES IDX 3 1 4 2 5 3 9 4 8 5 7 6 6 7 10 8 2 9 1 11
REMARK H PARENT 6 10 1 12
REMARK Flexibility Score: inf
ROOT
ATOM      1  C   UNL     1     139.998 146.798 137.804  1.00  0.00     0.048 A 
ATOM      2  C   UNL     1     139.879 148.112 137.315  1.00  0.00     0.030 A 
ATOM      3  C   UNL     1     138.704 148.806 137.595  1.00  0.00     0.046 A 
ATOM      4  C   UNL     1     137.690 148.242 138.321  1.00  0.00     0.003 A 
ATOM      5  C   UNL     1     136.683 149.178 138.420  1.00  0.00     0.028 A 
ATOM      6  C   UNL     1     137.153 150.290 137.729  1.00  0.00     0.083 A 
ATOM      7  N   UNL     1     138.388 150.059 137.227  1.00  0.00    -0.361 N 
ATOM      8  C   UNL     1     137.775 146.944 138.820  1.00  0.00     0.056 A 
ATOM      9  C   UNL     1     138.952 146.213 138.554  1.00  0.00     0.116 A 
ATOM     10  H   UNL     1     138.972 150.721 136.668  1.00  0.00     0.166 HD
ENDROOT
BRANCH   9  11
ATOM     11  O   UNL     1     139.094 144.910 139.027  1.00  0.00    -0.508 OA
ATOM     12  H   UNL     1     138.559 144.144 138.637  1.00  0.00     0.293 HD
ENDBRANCH   9  11
TORSDOF 1
ENDMDL
MODEL 8
REMARK VINA RESULT:    -3.422     14.561     15.725
REMARK INTER + INTRA:          -3.522
REMARK INTER:                  -3.522
REMARK INTRA:                   0.000
REMARK UNBOUND:                 0.000
REMARK SMILES Oc1ccc2[nH]ccc2c1
REMARK SMILES IDX 3 1 4 2 5 3 9 4 8 5 7 6 6 7 10 8 2 9 1 11
REMARK H PARENT 6 10 1 12
REMARK Flexibility Score: inf
ROOT
ATOM      1  C   UNL     1     145.176 135.945 139.310  1.00  0.00     0.048 A 
ATOM      2  C   UNL     1     143.803 136.011 139.007  1.00  0.00     0.030 A 
ATOM      3  C   UNL     1     143.188 134.857 138.525  1.00  0.00     0.046 A 
ATOM      4  C   UNL     1     143.883 133.692 138.346  1.00  0.00     0.003 A 
ATOM      5  C   UNL     1     142.996 132.752 137.864  1.00  0.00     0.028 A 
ATOM      6  C   UNL     1     141.778 133.417 137.773  1.00  0.00     0.083 A 
ATOM      7  N   UNL     1     141.899 134.703 138.177  1.00  0.00    -0.361 N 
ATOM      8  C   UNL     1     145.242 133.592 138.636  1.00  0.00     0.056 A 
ATOM      9  C   UNL     1     145.896 134.743 139.126  1.00  0.00     0.116 A 
ATOM     10  H   UNL     1     141.144 135.423 138.212  1.00  0.00     0.166 HD
ENDROOT
BRANCH   9  11
ATOM     11  O   UNL     1     147.254 134.704 139.433  1.00  0.00    -0.508 OA
ATOM     12  H   UNL     1     147.741 133.827 139.570  1.00  0.00     0.293 HD
ENDBRANCH   9  11
TORSDOF 1
ENDMDL
MODEL 9
REMARK VINA RESULT:    -3.383      9.805     11.040
REMARK INTER + INTRA:          -3.482
REMARK INTER:                  -3.482
REMARK INTRA:                   0.000
REMARK UNBOUND:                 0.000
REMARK SMILES Oc1ccc2[nH]ccc2c1
REMARK SMILES IDX 3 1 4 2 5 3 9 4 8 5 7 6 6 7 10 8 2 9 1 11
REMARK H PARENT 6 10 1 12
REMARK Flexibility Score: inf
ROOT
ATOM      1  C   UNL     1     134.673 140.000 137.852  1.00  0.00     0.048 A 
ATOM      2  C   UNL     1     133.364 139.877 137.349  1.00  0.00     0.030 A 
ATOM      3  C   UNL     1     132.686 138.683 137.586  1.00  0.00     0.046 A 
ATOM      4  C   UNL     1     133.261 137.655 138.283  1.00  0.00     0.003 A 
ATOM      5  C   UNL     1     132.340 136.631 138.342  1.00  0.00     0.028 A 
ATOM      6  C   UNL     1     131.226 137.106 137.658  1.00  0.00     0.083 A 
ATOM      7  N   UNL     1     131.441 138.359 137.197  1.00  0.00    -0.361 N 
ATOM      8  C   UNL     1     134.554 137.744 138.795  1.00  0.00     0.056 A 
ATOM      9  C   UNL     1     135.269 138.940 138.572  1.00  0.00     0.116 A 
ATOM     10  H   UNL     1     130.774 138.951 136.653  1.00  0.00     0.166 HD
ENDROOT
BRANCH   9  11
ATOM     11  O   UNL     1     136.565 139.087 139.059  1.00  0.00    -0.508 OA
ATOM     12  H   UNL     1     136.743 139.325 140.027  1.00  0.00     0.293 HD
ENDBRANCH   9  11
TORSDOF 1
ENDMDL
