MODEL 1
REMARK VINA RESULT:    -3.850      0.000      0.000
REMARK INTER + INTRA:          -7.980
REMARK INTER:                  -6.775
REMARK INTRA:                  -1.205
REMARK UNBOUND:                -1.205
REMARK SMILES CCCCCCC=CCCCCCCCC(=O)[O-]
REMARK SMILES IDX 10 1 11 2 12 3 13 4 14 5 15 6 16 7 17 8 18 9 9 10 8 11 7 12
REMARK SMILES IDX 6 13 5 14 4 15 3 16 2 17 1 18
REMARK H PARENT
REMARK Flexibility Score: inf
ROOT
ATOM      1  C   UNL     1     -16.497 -20.304   3.281  1.00  0.00     0.004 C 
ENDROOT
BRANCH   1   2
ATOM      2  C   UNL     1     -15.599 -20.225   2.031  1.00  0.00     0.000 C 
BRANCH   2   3
ATOM      3  C   UNL     1     -15.236 -21.585   1.403  1.00  0.00     0.000 C 
BRANCH   3   4
ATOM      4  C   UNL     1     -14.044 -21.556   0.427  1.00  0.00     0.000 C 
BRANCH   4   5
ATOM      5  C   UNL     1     -14.015 -22.705  -0.601  1.00  0.00     0.006 C 
BRANCH   5   6
ATOM      6  C   UNL     1     -15.367 -23.410  -0.803  1.00  0.00     0.053 C 
BRANCH   6   7
ATOM      7  C   UNL     1     -15.496 -23.991  -2.178  1.00  0.00     0.041 C 
ATOM      8  O   UNL     1     -14.716 -23.626  -3.095  1.00  0.00    -0.550 OA
ATOM      9  O   UNL     1     -16.456 -24.961  -2.436  1.00  0.00    -0.550 OA
ENDBRANCH   6   7
ENDBRANCH   5   6
ENDBRANCH   4   5
ENDBRANCH   3   4
ENDBRANCH   2   3
ENDBRANCH   1   2
BRANCH   1  10
ATOM     10  C   UNL     1     -17.219 -21.651   3.460  1.00  0.00     0.027 C 
BRANCH  10  11
ATOM     11  C   UNL     1     -17.284 -22.086   4.900  1.00  0.00    -0.031 C 
ATOM     12  C   UNL     1     -16.995 -23.342   5.269  1.00  0.00    -0.031 C 
BRANCH  12  13
ATOM     13  C   UNL     1     -17.069 -23.753   6.714  1.00  0.00     0.027 C 
BRANCH  13  14
ATOM     14  C   UNL     1     -17.178 -22.529   7.633  1.00  0.00     0.004 C 
BRANCH  14  15
ATOM     15  C   UNL     1     -15.874 -22.233   8.397  1.00  0.00     0.000 C 
BRANCH  15  16
ATOM     16  C   UNL     1     -15.015 -21.103   7.802  1.00  0.00    -0.000 C 
BRANCH  16  17
ATOM     17  C   UNL     1     -15.624 -19.710   8.021  1.00  0.00    -0.003 C 
ATOM     18  C   UNL     1     -16.082 -19.097   6.701  1.00  0.00     0.004 C 
ENDBRANCH  16  17
ENDBRANCH  15  16
ENDBRANCH  14  15
ENDBRANCH  13  14
ENDBRANCH  12  13
ENDBRANCH  10  11
ENDBRANCH   1  10
TORSDOF 13
ENDMDL
MODEL 2
REMARK VINA RESULT:    -3.758      3.967      7.397
REMARK INTER + INTRA:          -7.818
REMARK INTER:                  -6.358
REMARK INTRA:                  -1.459
REMARK UNBOUND:                -1.205
REMARK SMILES CCCCCCC=CCCCCCCCC(=O)[O-]
REMARK SMILES IDX 10 1 11 2 12 3 13 4 14 5 15 6 16 7 17 8 18 9 9 10 8 11 7 12
REMARK SMILES IDX 6 13 5 14 4 15 3 16 2 17 1 18
REMARK H PARENT
REMARK Flexibility Score: inf
ROOT
ATOM      1  C   UNL     1     -16.685 -23.194   5.834  1.00  0.00     0.004 C 
ENDROOT
BRANCH   1   2
ATOM      2  C   UNL     1     -17.243 -23.336   7.264  1.00  0.00     0.000 C 
BRANCH   2   3
ATOM      3  C   UNL     1     -16.228 -23.059   8.390  1.00  0.00     0.000 C 
BRANCH   3   4
ATOM      4  C   UNL     1     -14.839 -22.587   7.915  1.00  0.00     0.000 C 
BRANCH   4   5
ATOM      5  C   UNL     1     -14.509 -21.114   8.230  1.00  0.00     0.006 C 
BRANCH   5   6
ATOM      6  C   UNL     1     -15.723 -20.170   8.199  1.00  0.00     0.053 C 
BRANCH   6   7
ATOM      7  C   UNL     1     -15.508 -19.011   7.275  1.00  0.00     0.041 C 
ATOM      8  O   UNL     1     -16.197 -18.900   6.228  1.00  0.00    -0.550 OA
ATOM      9  O   UNL     1     -14.570 -18.036   7.590  1.00  0.00    -0.550 OA
ENDBRANCH   6   7
ENDBRANCH   5   6
ENDBRANCH   4   5
ENDBRANCH   3   4
ENDBRANCH   2   3
ENDBRANCH   1   2
BRANCH   1  10
ATOM     10  C   UNL     1     -17.417 -22.156   4.966  1.00  0.00     0.027 C 
BRANCH  10  11
ATOM     11  C   UNL     1     -17.344 -22.475   3.497  1.00  0.00    -0.031 C 
ATOM     12  C   UNL     1     -16.707 -23.564   3.044  1.00  0.00    -0.031 C 
BRANCH  12  13
ATOM     13  C   UNL     1     -16.647 -23.861   1.570  1.00  0.00     0.027 C 
BRANCH  13  14
ATOM     14  C   UNL     1     -15.238 -24.301   1.151  1.00  0.00     0.004 C 
BRANCH  14  15
ATOM     15  C   UNL     1     -14.209 -23.158   1.211  1.00  0.00     0.000 C 
BRANCH  15  16
ATOM     16  C   UNL     1     -14.605 -21.886   0.439  1.00  0.00    -0.000 C 
BRANCH  16  17
ATOM     17  C   UNL     1     -14.161 -20.596   1.144  1.00  0.00    -0.003 C 
ATOM     18  C   UNL     1     -15.331 -19.935   1.868  1.00  0.00     0.004 C 
ENDBRANCH  16  17
ENDBRANCH  15  16
ENDBRANCH  14  15
ENDBRANCH  13  14
ENDBRANCH  12  13
ENDBRANCH  10  11
ENDBRANCH   1  10
TORSDOF 13
ENDMDL
MODEL 3
REMARK VINA RESULT:    -3.651      2.181      3.063
REMARK INTER + INTRA:          -7.630
REMARK INTER:                  -5.941
REMARK INTRA:                  -1.689
REMARK UNBOUND:                -1.205
REMARK SMILES CCCCCCC=CCCCCCCCC(=O)[O-]
REMARK SMILES IDX 10 1 11 2 12 3 13 4 14 5 15 6 16 7 17 8 18 9 9 10 8 11 7 12
REMARK SMILES IDX 6 13 5 14 4 15 3 16 2 17 1 18
REMARK H PARENT
REMARK Flexibility Score: inf
ROOT
ATOM      1  C   UNL     1     -18.206 -22.882   3.603  1.00  0.00     0.004 C 
ENDROOT
BRANCH   1   2
ATOM      2  C   UNL     1     -18.098 -24.418   3.672  1.00  0.00     0.000 C 
BRANCH   2   3
ATOM      3  C   UNL     1     -17.057 -25.040   2.721  1.00  0.00     0.000 C 
BRANCH   3   4
ATOM      4  C   UNL     1     -17.248 -24.698   1.230  1.00  0.00     0.000 C 
BRANCH   4   5
ATOM      5  C   UNL     1     -16.053 -23.986   0.566  1.00  0.00     0.006 C 
BRANCH   5   6
ATOM      6  C   UNL     1     -15.143 -23.225   1.545  1.00  0.00     0.053 C 
BRANCH   6   7
ATOM      7  C   UNL     1     -14.857 -21.832   1.077  1.00  0.00     0.041 C 
ATOM      8  O   UNL     1     -14.099 -21.639   0.091  1.00  0.00    -0.550 OA
ATOM      9  O   UNL     1     -15.456 -20.749   1.708  1.00  0.00    -0.550 OA
ENDBRANCH   6   7
ENDBRANCH   5   6
ENDBRANCH   4   5
ENDBRANCH   3   4
ENDBRANCH   2   3
ENDBRANCH   1   2
BRANCH   1  10
ATOM     10  C   UNL     1     -17.198 -22.134   4.493  1.00  0.00     0.027 C 
BRANCH  10  11
ATOM     11  C   UNL     1     -17.254 -22.578   5.930  1.00  0.00    -0.031 C 
ATOM     12  C   UNL     1     -16.184 -23.098   6.548  1.00  0.00    -0.031 C 
BRANCH  12  13
ATOM     13  C   UNL     1     -16.266 -23.535   7.985  1.00  0.00     0.027 C 
BRANCH  13  14
ATOM     14  C   UNL     1     -15.321 -22.710   8.870  1.00  0.00     0.004 C 
BRANCH  14  15
ATOM     15  C   UNL     1     -14.412 -21.768   8.060  1.00  0.00     0.000 C 
BRANCH  15  16
ATOM     16  C   UNL     1     -14.617 -20.268   8.341  1.00  0.00    -0.000 C 
BRANCH  16  17
ATOM     17  C   UNL     1     -16.032 -19.782   7.993  1.00  0.00    -0.003 C 
ATOM     18  C   UNL     1     -16.066 -19.136   6.611  1.00  0.00     0.004 C 
ENDBRANCH  16  17
ENDBRANCH  15  16
ENDBRANCH  14  15
ENDBRANCH  13  14
ENDBRANCH  12  13
ENDBRANCH  10  11
ENDBRANCH   1  10
TORSDOF 13
ENDMDL
MODEL 4
REMARK VINA RESULT:    -3.535      1.245      1.625
REMARK INTER + INTRA:          -7.427
REMARK INTER:                  -6.188
REMARK INTRA:                  -1.238
REMARK UNBOUND:                -1.205
REMARK SMILES CCCCCCC=CCCCCCCCC(=O)[O-]
REMARK SMILES IDX 10 1 11 2 12 3 13 4 14 5 15 6 16 7 17 8 18 9 9 10 8 11 7 12
REMARK SMILES IDX 6 13 5 14 4 15 3 16 2 17 1 18
REMARK H PARENT
REMARK Flexibility Score: inf
ROOT
ATOM      1  C   UNL     1     -17.937 -23.747   3.342  1.00  0.00     0.004 C 
ENDROOT
BRANCH   1   2
ATOM      2  C   UNL     1     -16.870 -23.952   2.249  1.00  0.00     0.000 C 
BRANCH   2   3
ATOM      3  C   UNL     1     -16.018 -22.708   1.929  1.00  0.00     0.000 C 
BRANCH   3   4
ATOM      4  C   UNL     1     -14.682 -22.997   1.217  1.00  0.00     0.000 C 
BRANCH   4   5
ATOM      5  C   UNL     1     -14.633 -22.586  -0.269  1.00  0.00     0.006 C 
BRANCH   5   6
ATOM      6  C   UNL     1     -14.380 -23.750  -1.241  1.00  0.00     0.053 C 
BRANCH   6   7
ATOM      7  C   UNL     1     -15.579 -24.044  -2.088  1.00  0.00     0.041 C 
ATOM      8  O   UNL     1     -15.462 -24.736  -3.133  1.00  0.00    -0.550 OA
ATOM      9  O   UNL     1     -16.832 -23.583  -1.705  1.00  0.00    -0.550 OA
ENDBRANCH   6   7
ENDBRANCH   5   6
ENDBRANCH   4   5
ENDBRANCH   3   4
ENDBRANCH   2   3
ENDBRANCH   1   2
BRANCH   1  10
ATOM     10  C   UNL     1     -17.828 -22.409   4.092  1.00  0.00     0.027 C 
BRANCH  10  11
ATOM     11  C   UNL     1     -17.120 -22.542   5.414  1.00  0.00    -0.031 C 
ATOM     12  C   UNL     1     -17.126 -23.692   6.102  1.00  0.00    -0.031 C 
BRANCH  12  13
ATOM     13  C   UNL     1     -16.411 -23.799   7.422  1.00  0.00     0.027 C 
BRANCH  13  14
ATOM     14  C   UNL     1     -16.461 -22.471   8.189  1.00  0.00     0.004 C 
BRANCH  14  15
ATOM     15  C   UNL     1     -15.069 -21.847   8.398  1.00  0.00     0.000 C 
BRANCH  15  16
ATOM     16  C   UNL     1     -14.924 -20.398   7.897  1.00  0.00    -0.000 C 
BRANCH  16  17
ATOM     17  C   UNL     1     -16.271 -19.748   7.548  1.00  0.00    -0.003 C 
ATOM     18  C   UNL     1     -16.135 -18.812   6.351  1.00  0.00     0.004 C 
ENDBRANCH  16  17
ENDBRANCH  15  16
ENDBRANCH  14  15
ENDBRANCH  13  14
ENDBRANCH  12  13
ENDBRANCH  10  11
ENDBRANCH   1  10
TORSDOF 13
ENDMDL
MODEL 5
REMARK VINA RESULT:    -3.528      3.944      7.116
REMARK INTER + INTRA:          -7.414
REMARK INTER:                  -5.973
REMARK INTRA:                  -1.441
REMARK UNBOUND:                -1.205
REMARK SMILES CCCCCCC=CCCCCCCCC(=O)[O-]
REMARK SMILES IDX 10 1 11 2 12 3 13 4 14 5 15 6 16 7 17 8 18 9 9 10 8 11 7 12
REMARK SMILES IDX 6 13 5 14 4 15 3 16 2 17 1 18
REMARK H PARENT
REMARK Flexibility Score: inf
ROOT
ATOM      1  C   UNL     1     -18.200 -24.249   3.591  1.00  0.00     0.004 C 
ENDROOT
BRANCH   1   2
ATOM      2  C   UNL     1     -17.159 -23.373   4.316  1.00  0.00     0.000 C 
BRANCH   2   3
ATOM      3  C   UNL     1     -16.403 -24.075   5.462  1.00  0.00     0.000 C 
BRANCH   3   4
ATOM      4  C   UNL     1     -17.138 -24.088   6.817  1.00  0.00     0.000 C 
BRANCH   4   5
ATOM      5  C   UNL     1     -16.678 -23.010   7.818  1.00  0.00     0.006 C 
BRANCH   5   6
ATOM      6  C   UNL     1     -17.093 -21.577   7.445  1.00  0.00     0.053 C 
BRANCH   6   7
ATOM      7  C   UNL     1     -15.922 -20.643   7.419  1.00  0.00     0.041 C 
ATOM      8  O   UNL     1     -14.774 -21.059   7.722  1.00  0.00    -0.550 OA
ATOM      9  O   UNL     1     -16.095 -19.322   7.027  1.00  0.00    -0.550 OA
ENDBRANCH   6   7
ENDBRANCH   5   6
ENDBRANCH   4   5
ENDBRANCH   3   4
ENDBRANCH   2   3
ENDBRANCH   1   2
BRANCH   1  10
ATOM     10  C   UNL     1     -17.697 -24.880   2.282  1.00  0.00     0.027 C 
BRANCH  10  11
ATOM     11  C   UNL     1     -16.440 -24.228   1.770  1.00  0.00    -0.031 C 
ATOM     12  C   UNL     1     -16.340 -23.789   0.508  1.00  0.00    -0.031 C 
BRANCH  12  13
ATOM     13  C   UNL     1     -15.073 -23.141   0.019  1.00  0.00     0.027 C 
BRANCH  13  14
ATOM     14  C   UNL     1     -14.302 -22.490   1.176  1.00  0.00     0.004 C 
BRANCH  14  15
ATOM     15  C   UNL     1     -13.994 -21.002   0.929  1.00  0.00     0.000 C 
BRANCH  15  16
ATOM     16  C   UNL     1     -15.015 -20.019   1.531  1.00  0.00    -0.000 C 
BRANCH  16  17
ATOM     17  C   UNL     1     -16.035 -20.704   2.452  1.00  0.00    -0.003 C 
ATOM     18  C   UNL     1     -16.481 -19.768   3.571  1.00  0.00     0.004 C 
ENDBRANCH  16  17
ENDBRANCH  15  16
ENDBRANCH  14  15
ENDBRANCH  13  14
ENDBRANCH  12  13
ENDBRANCH  10  11
ENDBRANCH   1  10
TORSDOF 13
ENDMDL
MODEL 6
REMARK VINA RESULT:    -3.448      2.707      3.566
REMARK INTER + INTRA:          -7.272
REMARK INTER:                  -6.303
REMARK INTRA:                  -0.969
REMARK UNBOUND:                -1.205
REMARK SMILES CCCCCCC=CCCCCCCCC(=O)[O-]
REMARK SMILES IDX 10 1 11 2 12 3 13 4 14 5 15 6 16 7 17 8 18 9 9 10 8 11 7 12
REMARK SMILES IDX 6 13 5 14 4 15 3 16 2 17 1 18
REMARK H PARENT
REMARK Flexibility Score: inf
ROOT
ATOM      1  C   UNL     1     -18.046 -25.008   1.160  1.00  0.00     0.004 C 
ENDROOT
BRANCH   1   2
ATOM      2  C   UNL     1     -16.679 -25.121   0.457  1.00  0.00     0.000 C 
BRANCH   2   3
ATOM      3  C   UNL     1     -15.457 -24.940   1.378  1.00  0.00     0.000 C 
BRANCH   3   4
ATOM      4  C   UNL     1     -14.209 -24.342   0.699  1.00  0.00     0.000 C 
BRANCH   4   5
ATOM      5  C   UNL     1     -14.013 -22.828   0.914  1.00  0.00     0.006 C 
BRANCH   5   6
ATOM      6  C   UNL     1     -15.303 -22.062   1.250  1.00  0.00     0.053 C 
BRANCH   6   7
ATOM      7  C   UNL     1     -15.030 -20.633   1.606  1.00  0.00     0.041 C 
ATOM      8  O   UNL     1     -15.825 -20.003   2.352  1.00  0.00    -0.550 OA
ATOM      9  O   UNL     1     -13.880 -20.008   1.142  1.00  0.00    -0.550 OA
ENDBRANCH   6   7
ENDBRANCH   5   6
ENDBRANCH   4   5
ENDBRANCH   3   4
ENDBRANCH   2   3
ENDBRANCH   1   2
BRANCH   1  10
ATOM     10  C   UNL     1     -17.982 -25.113   2.693  1.00  0.00     0.027 C 
BRANCH  10  11
ATOM     11  C   UNL     1     -17.891 -23.768   3.363  1.00  0.00    -0.031 C 
ATOM     12  C   UNL     1     -17.320 -23.618   4.566  1.00  0.00    -0.031 C 
BRANCH  12  13
ATOM     13  C   UNL     1     -17.243 -22.262   5.215  1.00  0.00     0.027 C 
BRANCH  13  14
ATOM     14  C   UNL     1     -16.574 -22.346   6.594  1.00  0.00     0.004 C 
BRANCH  14  15
ATOM     15  C   UNL     1     -16.754 -21.064   7.426  1.00  0.00     0.000 C 
BRANCH  15  16
ATOM     16  C   UNL     1     -15.445 -20.349   7.809  1.00  0.00    -0.000 C 
BRANCH  16  17
ATOM     17  C   UNL     1     -15.417 -18.877   7.373  1.00  0.00    -0.003 C 
ATOM     18  C   UNL     1     -16.191 -18.674   6.074  1.00  0.00     0.004 C 
ENDBRANCH  16  17
ENDBRANCH  15  16
ENDBRANCH  14  15
ENDBRANCH  13  14
ENDBRANCH  12  13
ENDBRANCH  10  11
ENDBRANCH   1  10
TORSDOF 13
ENDMDL
MODEL 7
REMARK VINA RESULT:    -3.364      1.439      2.539
REMARK INTER + INTRA:          -7.125
REMARK INTER:                  -5.968
REMARK INTRA:                  -1.157
REMARK UNBOUND:                -1.205
REMARK SMILES CCCCCCC=CCCCCCCCC(=O)[O-]
REMARK SMILES IDX 10 1 11 2 12 3 13 4 14 5 15 6 16 7 17 8 18 9 9 10 8 11 7 12
REMARK SMILES IDX 6 13 5 14 4 15 3 16 2 17 1 18
REMARK H PARENT
REMARK Flexibility Score: inf
ROOT
ATOM      1  C   UNL     1     -18.203 -24.157   3.707  1.00  0.00     0.004 C 
ENDROOT
BRANCH   1   2
ATOM      2  C   UNL     1     -18.009 -22.638   3.885  1.00  0.00     0.000 C 
BRANCH   2   3
ATOM      3  C   UNL     1     -16.868 -22.026   3.050  1.00  0.00     0.000 C 
BRANCH   3   4
ATOM      4  C   UNL     1     -16.034 -23.039   2.241  1.00  0.00     0.000 C 
BRANCH   4   5
ATOM      5  C   UNL     1     -15.375 -22.472   0.968  1.00  0.00     0.006 C 
BRANCH   5   6
ATOM      6  C   UNL     1     -14.897 -23.540  -0.030  1.00  0.00     0.053 C 
BRANCH   6   7
ATOM      7  C   UNL     1     -15.983 -23.949  -0.977  1.00  0.00     0.041 C 
ATOM      8  O   UNL     1     -16.761 -24.891  -0.679  1.00  0.00    -0.550 OA
ATOM      9  O   UNL     1     -16.155 -23.265  -2.174  1.00  0.00    -0.550 OA
ENDBRANCH   6   7
ENDBRANCH   5   6
ENDBRANCH   4   5
ENDBRANCH   3   4
ENDBRANCH   2   3
ENDBRANCH   1   2
BRANCH   1  10
ATOM     10  C   UNL     1     -17.651 -25.007   4.863  1.00  0.00     0.027 C 
BRANCH  10  11
ATOM     11  C   UNL     1     -17.114 -24.170   5.993  1.00  0.00    -0.031 C 
ATOM     12  C   UNL     1     -17.479 -24.386   7.264  1.00  0.00    -0.031 C 
BRANCH  12  13
ATOM     13  C   UNL     1     -16.928 -23.534   8.376  1.00  0.00     0.027 C 
BRANCH  13  14
ATOM     14  C   UNL     1     -17.898 -22.401   8.738  1.00  0.00     0.004 C 
BRANCH  14  15
ATOM     15  C   UNL     1     -17.583 -21.085   8.003  1.00  0.00     0.000 C 
BRANCH  15  16
ATOM     16  C   UNL     1     -16.194 -21.026   7.342  1.00  0.00    -0.000 C 
BRANCH  16  17
ATOM     17  C   UNL     1     -15.178 -20.213   8.157  1.00  0.00    -0.003 C 
ATOM     18  C   UNL     1     -13.875 -20.986   8.339  1.00  0.00     0.004 C 
ENDBRANCH  16  17
ENDBRANCH  15  16
ENDBRANCH  14  15
ENDBRANCH  13  14
ENDBRANCH  12  13
ENDBRANCH  10  11
ENDBRANCH   1  10
TORSDOF 13
ENDMDL
MODEL 8
REMARK VINA RESULT:    -3.356      3.920      8.219
REMARK INTER + INTRA:          -7.112
REMARK INTER:                  -6.105
REMARK INTRA:                  -1.006
REMARK UNBOUND:                -1.205
REMARK SMILES CCCCCCC=CCCCCCCCC(=O)[O-]
REMARK SMILES IDX 10 1 11 2 12 3 13 4 14 5 15 6 16 7 17 8 18 9 9 10 8 11 7 12
REMARK SMILES IDX 6 13 5 14 4 15 3 16 2 17 1 18
REMARK H PARENT
REMARK Flexibility Score: inf
ROOT
ATOM      1  C   UNL     1     -17.167 -22.127   5.106  1.00  0.00     0.004 C 
ENDROOT
BRANCH   1   2
ATOM      2  C   UNL     1     -16.890 -23.284   6.087  1.00  0.00     0.000 C 
BRANCH   2   3
ATOM      3  C   UNL     1     -17.034 -22.921   7.577  1.00  0.00     0.000 C 
BRANCH   3   4
ATOM      4  C   UNL     1     -15.709 -22.617   8.306  1.00  0.00     0.000 C 
BRANCH   4   5
ATOM      5  C   UNL     1     -15.071 -21.258   7.957  1.00  0.00     0.006 C 
BRANCH   5   6
ATOM      6  C   UNL     1     -16.033 -20.062   8.047  1.00  0.00     0.053 C 
BRANCH   6   7
ATOM      7  C   UNL     1     -15.607 -18.932   7.162  1.00  0.00     0.041 C 
ATOM      8  O   UNL     1     -14.667 -18.173   7.514  1.00  0.00    -0.550 OA
ATOM      9  O   UNL     1     -16.226 -18.738   5.933  1.00  0.00    -0.550 OA
ENDBRANCH   6   7
ENDBRANCH   5   6
ENDBRANCH   4   5
ENDBRANCH   3   4
ENDBRANCH   2   3
ENDBRANCH   1   2
BRANCH   1  10
ATOM     10  C   UNL     1     -18.032 -22.515   3.895  1.00  0.00     0.027 C 
BRANCH  10  11
ATOM     11  C   UNL     1     -17.243 -23.211   2.818  1.00  0.00    -0.031 C 
ATOM     12  C   UNL     1     -16.240 -22.598   2.175  1.00  0.00    -0.031 C 
BRANCH  12  13
ATOM     13  C   UNL     1     -15.466 -23.315   1.101  1.00  0.00     0.027 C 
BRANCH  13  14
ATOM     14  C   UNL     1     -15.877 -24.792   1.015  1.00  0.00     0.004 C 
BRANCH  14  15
ATOM     15  C   UNL     1     -16.698 -25.113  -0.247  1.00  0.00     0.000 C 
BRANCH  15  16
ATOM     16  C   UNL     1     -16.486 -24.144  -1.424  1.00  0.00    -0.000 C 
BRANCH  16  17
ATOM     17  C   UNL     1     -15.749 -24.789  -2.607  1.00  0.00    -0.003 C 
ATOM     18  C   UNL     1     -14.511 -23.984  -2.988  1.00  0.00     0.004 C 
ENDBRANCH  16  17
ENDBRANCH  15  16
ENDBRANCH  14  15
ENDBRANCH  13  14
ENDBRANCH  12  13
ENDBRANCH  10  11
ENDBRANCH   1  10
TORSDOF 13
ENDMDL
MODEL 9
REMARK VINA RESULT:    -3.330      3.947      7.425
REMARK INTER + INTRA:          -7.065
REMARK INTER:                  -5.637
REMARK INTRA:                  -1.427
REMARK UNBOUND:                -1.205
REMARK SMILES CCCCCCC=CCCCCCCCC(=O)[O-]
REMARK SMILES IDX 10 1 11 2 12 3 13 4 14 5 15 6 16 7 17 8 18 9 9 10 8 11 7 12
REMARK SMILES IDX 6 13 5 14 4 15 3 16 2 17 1 18
REMARK H PARENT
REMARK Flexibility Score: inf
ROOT
ATOM      1  C   UNL     1     -16.533 -20.429   5.119  1.00  0.00     0.004 C 
ENDROOT
BRANCH   1   2
ATOM      2  C   UNL     1     -16.185 -19.747   6.457  1.00  0.00     0.000 C 
BRANCH   2   3
ATOM      3  C   UNL     1     -16.620 -20.523   7.715  1.00  0.00     0.000 C 
BRANCH   3   4
ATOM      4  C   UNL     1     -15.580 -21.522   8.260  1.00  0.00     0.000 C 
BRANCH   4   5
ATOM      5  C   UNL     1     -16.156 -22.874   8.724  1.00  0.00     0.006 C 
BRANCH   5   6
ATOM      6  C   UNL     1     -17.686 -22.898   8.867  1.00  0.00     0.053 C 
BRANCH   6   7
ATOM      7  C   UNL     1     -18.271 -24.203   8.424  1.00  0.00     0.041 C 
ATOM      8  O   UNL     1     -19.274 -24.681   9.015  1.00  0.00    -0.550 OA
ATOM      9  O   UNL     1     -17.728 -24.875   7.335  1.00  0.00    -0.550 OA
ENDBRANCH   6   7
ENDBRANCH   5   6
ENDBRANCH   4   5
ENDBRANCH   3   4
ENDBRANCH   2   3
ENDBRANCH   1   2
BRANCH   1  10
ATOM     10  C   UNL     1     -17.282 -21.765   5.264  1.00  0.00     0.027 C 
BRANCH  10  11
ATOM     11  C   UNL     1     -17.329 -22.545   3.977  1.00  0.00    -0.031 C 
ATOM     12  C   UNL     1     -17.881 -23.764   3.913  1.00  0.00    -0.031 C 
BRANCH  12  13
ATOM     13  C   UNL     1     -17.914 -24.524   2.614  1.00  0.00     0.027 C 
BRANCH  13  14
ATOM     14  C   UNL     1     -16.503 -24.694   2.036  1.00  0.00     0.004 C 
BRANCH  14  15
ATOM     15  C   UNL     1     -16.453 -24.500   0.509  1.00  0.00     0.000 C 
BRANCH  15  16
ATOM     16  C   UNL     1     -15.703 -23.240   0.039  1.00  0.00    -0.000 C 
BRANCH  16  17
ATOM     17  C   UNL     1     -14.780 -22.655   1.117  1.00  0.00    -0.003 C 
ATOM     18  C   UNL     1     -15.079 -21.179   1.355  1.00  0.00     0.004 C 
ENDBRANCH  16  17
ENDBRANCH  15  16
ENDBRANCH  14  15
ENDBRANCH  13  14
ENDBRANCH  12  13
ENDBRANCH  10  11
ENDBRANCH   1  10
TORSDOF 13
ENDMDL
