MODEL 1
REMARK VINA RESULT:    -5.255      0.000      0.000
REMARK INTER + INTRA:          -6.659
REMARK INTER:                  -6.483
REMARK INTRA:                  -0.175
REMARK UNBOUND:                -0.175
REMARK SMILES C=C1CC[C@@H]2[C@@H]1[C@H]1[C@@H](CC[C@@H]2C)C1(C)C
REMARK SMILES IDX 6 1 5 2 4 3 3 4 2 5 1 6 11 7 12 8 10 9 7 11 8 12 13 13 14 14
REMARK SMILES IDX 15 15 9 16
REMARK H PARENT
REMARK Flexibility Score: 80.00
ROOT
ATOM      1  C   UNL     1     110.969 111.823 113.775  1.00  0.00     0.022 C 
ATOM      2  C   UNL     1     110.616 111.362 112.351  1.00  0.00    -0.000 C 
ATOM      3  C   UNL     1     109.590 112.398 111.858  1.00  0.00     0.009 C 
ATOM      4  C   UNL     1     108.783 112.782 113.094  1.00  0.00     0.031 C 
ATOM      5  C   UNL     1     109.710 112.497 114.225  1.00  0.00    -0.074 C 
ATOM      6  C   UNL     1     109.471 112.887 115.484  1.00  0.00     0.008 C 
ENDROOT
BRANCH   2   7
ATOM      7  C   UNL     1     111.837 111.032 111.416  1.00  0.00    -0.011 C 
ATOM      8  C   UNL     1     111.792 111.753 110.056  1.00  0.00     0.008 C 
BRANCH   7   9
ATOM      9  C   UNL     1     113.224 111.246 112.072  1.00  0.00     0.004 CG0
ATOM     10  G   UNL     1     113.593 110.212 113.158  1.00  0.00     0.000 G0
ENDBRANCH   7   9
ENDBRANCH   2   7
BRANCH   1  11
ATOM     11  C   UNL     1     111.320 110.610 114.650  1.00  0.00     0.006 C 
ATOM     12  C   UNL     1     112.556 109.790 114.233  1.00  0.00    -0.001 C 
ATOM     13  C   UNL     1     112.562 110.593 115.552  1.00  0.00    -0.029 C 
ATOM     14  C   UNL     1     113.369 111.897 115.704  1.00  0.00     0.012 C 
ATOM     15  C   UNL     1     112.384 109.772 116.834  1.00  0.00     0.012 C 
BRANCH  12  16
ATOM     16  C   UNL     1     113.604 110.206 113.163  1.00  0.00     0.005 CG0
ATOM     17  G   UNL     1     113.231 111.236 112.075  1.00  0.00     0.000 G0
ENDBRANCH  12  16
ENDBRANCH   1  11
TORSDOF 0
ENDMDL
MODEL 2
REMARK VINA RESULT:    -5.237      3.249      4.890
REMARK INTER + INTRA:          -6.637
REMARK INTER:                  -6.473
REMARK INTRA:                  -0.165
REMARK UNBOUND:                -0.175
REMARK SMILES C=C1CC[C@@H]2[C@@H]1[C@H]1[C@@H](CC[C@@H]2C)C1(C)C
REMARK SMILES IDX 6 1 5 2 4 3 3 4 2 5 1 6 11 7 12 8 10 9 7 11 8 12 13 13 14 14
REMARK SMILES IDX 15 15 9 16
REMARK H PARENT
REMARK Flexibility Score: 80.00
ROOT
ATOM      1  C   UNL     1     110.979 111.825 108.887  1.00  0.00     0.022 C 
ATOM      2  C   UNL     1     110.615 111.330 107.477  1.00  0.00    -0.000 C 
ATOM      3  C   UNL     1     109.563 112.337 106.979  1.00  0.00     0.009 C 
ATOM      4  C   UNL     1     108.766 112.730 108.218  1.00  0.00     0.031 C 
ATOM      5  C   UNL     1     109.714 112.484 109.342  1.00  0.00    -0.074 C 
ATOM      6  C   UNL     1     109.485 112.894 110.596  1.00  0.00     0.008 C 
ENDROOT
BRANCH   2   7
ATOM      7  C   UNL     1     111.829 111.004 106.532  1.00  0.00    -0.011 C 
ATOM      8  C   UNL     1     111.756 111.703 105.161  1.00  0.00     0.008 C 
BRANCH   7   9
ATOM      9  C   UNL     1     113.221 111.249 107.166  1.00  0.00     0.004 CG0
ATOM     10  G   UNL     1     113.624 110.232 108.255  1.00  0.00     0.000 G0
ENDBRANCH   7   9
ENDBRANCH   2   7
BRANCH   1  11
ATOM     11  C   UNL     1     111.364 110.635 109.780  1.00  0.00     0.006 C 
ATOM     12  C   UNL     1     112.605 109.824 109.357  1.00  0.00    -0.001 C 
ATOM     13  C   UNL     1     112.623 110.655 110.659  1.00  0.00    -0.029 C 
ATOM     14  C   UNL     1     113.413 111.973 110.769  1.00  0.00     0.012 C 
ATOM     15  C   UNL     1     112.481 109.858 111.961  1.00  0.00     0.012 C 
BRANCH  12  16
ATOM     16  C   UNL     1     113.626 110.234 108.260  1.00  0.00     0.005 CG0
ATOM     17  G   UNL     1     113.224 111.249 107.168  1.00  0.00     0.000 G0
ENDBRANCH  12  16
ENDBRANCH   1  11
TORSDOF 0
ENDMDL
MODEL 3
REMARK VINA RESULT:    -5.213      1.934      3.825
REMARK INTER + INTRA:          -6.607
REMARK INTER:                  -6.442
REMARK INTRA:                  -0.165
REMARK UNBOUND:                -0.175
REMARK SMILES C=C1CC[C@@H]2[C@@H]1[C@H]1[C@@H](CC[C@@H]2C)C1(C)C
REMARK SMILES IDX 6 1 5 2 4 3 3 4 2 5 1 6 11 7 12 8 10 9 7 11 8 12 13 13 14 14
REMARK SMILES IDX 15 15 9 16
REMARK H PARENT
REMARK Flexibility Score: 80.00
ROOT
ATOM      1  C   UNL     1     111.264 110.441 113.873  1.00  0.00     0.022 C 
ATOM      2  C   UNL     1     111.698 110.970 112.496  1.00  0.00    -0.000 C 
ATOM      3  C   UNL     1     112.734 109.944 112.003  1.00  0.00     0.009 C 
ATOM      4  C   UNL     1     113.470 109.483 113.257  1.00  0.00     0.031 C 
ATOM      5  C   UNL     1     112.487 109.724 114.352  1.00  0.00    -0.074 C 
ATOM      6  C   UNL     1     112.655 109.265 115.599  1.00  0.00     0.008 C 
ENDROOT
BRANCH   2   7
ATOM      7  C   UNL     1     110.533 111.368 111.517  1.00  0.00    -0.011 C 
ATOM      8  C   UNL     1     110.638 110.717 110.126  1.00  0.00     0.008 C 
BRANCH   7   9
ATOM      9  C   UNL     1     109.110 111.146 112.088  1.00  0.00     0.004 CG0
ATOM     10  G   UNL     1     108.694 112.139 113.194  1.00  0.00     0.000 G0
ENDBRANCH   7   9
ENDBRANCH   2   7
BRANCH   1  11
ATOM     11  C   UNL     1     110.884 111.613 114.792  1.00  0.00     0.006 C 
ATOM     12  C   UNL     1     109.688 112.479 114.350  1.00  0.00    -0.001 C 
ATOM     13  C   UNL     1     109.592 111.606 115.620  1.00  0.00    -0.029 C 
ATOM     14  C   UNL     1     108.755 110.313 115.655  1.00  0.00     0.012 C 
ATOM     15  C   UNL     1     109.709 112.354 116.954  1.00  0.00     0.012 C 
BRANCH  12  16
ATOM     16  C   UNL     1     108.697 112.142 113.201  1.00  0.00     0.005 CG0
ATOM     17  G   UNL     1     109.109 111.152 112.090  1.00  0.00     0.000 G0
ENDBRANCH  12  16
ENDBRANCH   1  11
TORSDOF 0
ENDMDL
MODEL 4
REMARK VINA RESULT:    -5.196      3.785      6.131
REMARK INTER + INTRA:          -6.587
REMARK INTER:                  -6.422
REMARK INTRA:                  -0.165
REMARK UNBOUND:                -0.175
REMARK SMILES C=C1CC[C@@H]2[C@@H]1[C@H]1[C@@H](CC[C@@H]2C)C1(C)C
REMARK SMILES IDX 6 1 5 2 4 3 3 4 2 5 1 6 11 7 12 8 10 9 7 11 8 12 13 13 14 14
REMARK SMILES IDX 15 15 9 16
REMARK H PARENT
REMARK Flexibility Score: 80.00
ROOT
ATOM      1  C   UNL     1     111.286 110.469 109.004  1.00  0.00     0.022 C 
ATOM      2  C   UNL     1     111.721 110.981 107.620  1.00  0.00    -0.000 C 
ATOM      3  C   UNL     1     112.772 109.960 107.149  1.00  0.00     0.009 C 
ATOM      4  C   UNL     1     113.506 109.528 108.414  1.00  0.00     0.031 C 
ATOM      5  C   UNL     1     112.516 109.775 109.500  1.00  0.00    -0.074 C 
ATOM      6  C   UNL     1     112.682 109.338 110.755  1.00  0.00     0.008 C 
ENDROOT
BRANCH   2   7
ATOM      7  C   UNL     1     110.556 111.350 106.630  1.00  0.00    -0.011 C 
ATOM      8  C   UNL     1     110.675 110.675 105.250  1.00  0.00     0.008 C 
BRANCH   7   9
ATOM      9  C   UNL     1     109.133 111.122 107.198  1.00  0.00     0.004 CG0
ATOM     10  G   UNL     1     108.701 112.131 108.284  1.00  0.00     0.000 G0
ENDBRANCH   7   9
ENDBRANCH   2   7
BRANCH   1  11
ATOM     11  C   UNL     1     110.888 111.651 109.902  1.00  0.00     0.006 C 
ATOM     12  C   UNL     1     109.683 112.495 109.441  1.00  0.00    -0.001 C 
ATOM     13  C   UNL     1     109.593 111.642 110.725  1.00  0.00    -0.029 C 
ATOM     14  C   UNL     1     108.771 110.340 110.778  1.00  0.00     0.012 C 
ATOM     15  C   UNL     1     109.695 112.413 112.047  1.00  0.00     0.012 C 
BRANCH  12  16
ATOM     16  C   UNL     1     108.702 112.127 108.294  1.00  0.00     0.005 CG0
ATOM     17  G   UNL     1     109.130 111.125 107.200  1.00  0.00     0.000 G0
ENDBRANCH  12  16
ENDBRANCH   1  11
TORSDOF 0
ENDMDL
MODEL 5
REMARK VINA RESULT:    -5.134      2.063      4.929
REMARK INTER + INTRA:          -6.509
REMARK INTER:                  -6.343
REMARK INTRA:                  -0.166
REMARK UNBOUND:                -0.175
REMARK SMILES C=C1CC[C@@H]2[C@@H]1[C@H]1[C@@H](CC[C@@H]2C)C1(C)C
REMARK SMILES IDX 6 1 5 2 4 3 3 4 2 5 1 6 11 7 12 8 10 9 7 11 8 12 13 13 14 14
REMARK SMILES IDX 15 15 9 16
REMARK H PARENT
REMARK Flexibility Score: 80.00
ROOT
ATOM      1  C   UNL     1     111.291 110.682 113.724  1.00  0.00     0.022 C 
ATOM      2  C   UNL     1     110.522 110.522 115.047  1.00  0.00    -0.000 C 
ATOM      3  C   UNL     1     111.600 110.124 116.070  1.00  0.00     0.009 C 
ATOM      4  C   UNL     1     112.591 109.263 115.293  1.00  0.00     0.031 C 
ATOM      5  C   UNL     1     112.422 109.714 113.882  1.00  0.00    -0.074 C 
ATOM      6  C   UNL     1     113.253 109.356 112.895  1.00  0.00     0.008 C 
ENDROOT
BRANCH   2   7
ATOM      7  C   UNL     1     109.552 111.703 115.421  1.00  0.00    -0.011 C 
ATOM      8  C   UNL     1     109.771 112.263 116.839  1.00  0.00     0.008 C 
BRANCH   7   9
ATOM      9  C   UNL     1     109.534 112.867 114.400  1.00  0.00     0.004 CG0
ATOM     10  G   UNL     1     108.843 112.541 113.058  1.00  0.00     0.000 G0
ENDBRANCH   7   9
ENDBRANCH   2   7
BRANCH   1  11
ATOM     11  C   UNL     1     110.382 110.319 112.539  1.00  0.00     0.006 C 
ATOM     12  C   UNL     1     109.134 111.199 112.330  1.00  0.00    -0.001 C 
ATOM     13  C   UNL     1     110.280 111.212 111.295  1.00  0.00    -0.029 C 
ATOM     14  C   UNL     1     111.249 112.403 111.171  1.00  0.00     0.012 C 
ATOM     15  C   UNL     1     110.016 110.437 109.998  1.00  0.00     0.012 C 
BRANCH  12  16
ATOM     16  C   UNL     1     108.838 112.543 113.053  1.00  0.00     0.005 CG0
ATOM     17  G   UNL     1     109.520 112.863 114.400  1.00  0.00     0.000 G0
ENDBRANCH  12  16
ENDBRANCH   1  11
TORSDOF 0
ENDMDL
MODEL 6
REMARK VINA RESULT:    -5.031      2.099      4.710
REMARK INTER + INTRA:          -6.382
REMARK INTER:                  -6.231
REMARK INTRA:                  -0.151
REMARK UNBOUND:                -0.175
REMARK SMILES C=C1CC[C@@H]2[C@@H]1[C@H]1[C@@H](CC[C@@H]2C)C1(C)C
REMARK SMILES IDX 6 1 5 2 4 3 3 4 2 5 1 6 11 7 12 8 10 9 7 11 8 12 13 13 14 14
REMARK SMILES IDX 15 15 9 16
REMARK H PARENT
REMARK Flexibility Score: 80.00
ROOT
ATOM      1  C   UNL     1     111.649 110.755 112.081  1.00  0.00     0.022 C 
ATOM      2  C   UNL     1     110.229 110.837 112.668  1.00  0.00    -0.000 C 
ATOM      3  C   UNL     1     110.445 110.810 114.191  1.00  0.00     0.009 C 
ATOM      4  C   UNL     1     111.646 109.896 114.410  1.00  0.00     0.031 C 
ATOM      5  C   UNL     1     112.392 109.977 113.122  1.00  0.00    -0.074 C 
ATOM      6  C   UNL     1     113.625 109.482 112.958  1.00  0.00     0.008 C 
ENDROOT
BRANCH   2   7
ATOM      7  C   UNL     1     109.308 111.965 112.074  1.00  0.00    -0.011 C 
ATOM      8  C   UNL     1     108.669 112.873 113.142  1.00  0.00     0.008 C 
BRANCH   7   9
ATOM      9  C   UNL     1     109.981 112.837 110.985  1.00  0.00     0.004 CG0
ATOM     10  G   UNL     1     110.215 112.123 109.637  1.00  0.00     0.000 G0
ENDBRANCH   7   9
ENDBRANCH   2   7
BRANCH   1  11
ATOM     11  C   UNL     1     111.618 110.027 110.728  1.00  0.00     0.006 C 
ATOM     12  C   UNL     1     110.803 110.693 109.602  1.00  0.00    -0.001 C 
ATOM     13  C   UNL     1     112.339 110.584 109.492  1.00  0.00    -0.029 C 
ATOM     14  C   UNL     1     113.255 111.809 109.674  1.00  0.00     0.012 C 
ATOM     15  C   UNL     1     112.865 109.500 108.543  1.00  0.00     0.012 C 
BRANCH  12  16
ATOM     16  C   UNL     1     110.211 112.130 109.637  1.00  0.00     0.005 CG0
ATOM     17  G   UNL     1     109.979 112.839 110.988  1.00  0.00     0.000 G0
ENDBRANCH  12  16
ENDBRANCH   1  11
TORSDOF 0
ENDMDL
MODEL 7
REMARK VINA RESULT:    -4.981      1.665      4.213
REMARK INTER + INTRA:          -6.321
REMARK INTER:                  -6.157
REMARK INTRA:                  -0.165
REMARK UNBOUND:                -0.175
REMARK SMILES C=C1CC[C@@H]2[C@@H]1[C@H]1[C@@H](CC[C@@H]2C)C1(C)C
REMARK SMILES IDX 6 1 5 2 4 3 3 4 2 5 1 6 11 7 12 8 10 9 7 11 8 12 13 13 14 14
REMARK SMILES IDX 15 15 9 16
REMARK H PARENT
REMARK Flexibility Score: 80.00
ROOT
ATOM      1  C   UNL     1     110.526 111.435 112.319  1.00  0.00     0.022 C 
ATOM      2  C   UNL     1     111.945 111.634 112.877  1.00  0.00    -0.000 C 
ATOM      3  C   UNL     1     111.742 111.768 114.397  1.00  0.00     0.009 C 
ATOM      4  C   UNL     1     110.412 112.495 114.561  1.00  0.00     0.031 C 
ATOM      5  C   UNL     1     109.677 112.178 113.303  1.00  0.00    -0.074 C 
ATOM      6  C   UNL     1     108.378 112.453 113.125  1.00  0.00     0.008 C 
ENDROOT
BRANCH   2   7
ATOM      7  C   UNL     1     113.031 110.618 112.366  1.00  0.00    -0.011 C 
ATOM      8  C   UNL     1     113.820 109.930 113.495  1.00  0.00     0.008 C 
BRANCH   7   9
ATOM      9  C   UNL     1     112.496 109.549 111.381  1.00  0.00     0.004 CG0
ATOM     10  G   UNL     1     112.144 110.083 109.975  1.00  0.00     0.000 G0
ENDBRANCH   7   9
ENDBRANCH   2   7
BRANCH   1  11
ATOM     11  C   UNL     1     110.427 112.030 110.906  1.00  0.00     0.006 C 
ATOM     12  C   UNL     1     111.326 111.398 109.824  1.00  0.00    -0.001 C 
ATOM     13  C   UNL     1     109.790 111.255 109.744  1.00  0.00    -0.029 C 
ATOM     14  C   UNL     1     109.082 109.923 110.058  1.00  0.00     0.012 C 
ATOM     15  C   UNL     1     109.090 112.150 108.714  1.00  0.00     0.012 C 
BRANCH  12  16
ATOM     16  C   UNL     1     112.137 110.081 109.974  1.00  0.00     0.005 CG0
ATOM     17  G   UNL     1     112.494 109.547 111.378  1.00  0.00     0.000 G0
ENDBRANCH  12  16
ENDBRANCH   1  11
TORSDOF 0
ENDMDL
MODEL 8
REMARK VINA RESULT:    -4.969      5.428      8.310
REMARK INTER + INTRA:          -6.306
REMARK INTER:                  -6.145
REMARK INTRA:                  -0.161
REMARK UNBOUND:                -0.175
REMARK SMILES C=C1CC[C@@H]2[C@@H]1[C@H]1[C@@H](CC[C@@H]2C)C1(C)C
REMARK SMILES IDX 6 1 5 2 4 3 3 4 2 5 1 6 11 7 12 8 10 9 7 11 8 12 13 13 14 14
REMARK SMILES IDX 15 15 9 16
REMARK H PARENT
REMARK Flexibility Score: 80.00
ROOT
ATOM      1  C   UNL     1     111.678 110.749 107.018  1.00  0.00     0.022 C 
ATOM      2  C   UNL     1     110.263 110.848 107.613  1.00  0.00    -0.000 C 
ATOM      3  C   UNL     1     110.485 110.805 109.135  1.00  0.00     0.009 C 
ATOM      4  C   UNL     1     111.673 109.871 109.340  1.00  0.00     0.031 C 
ATOM      5  C   UNL     1     112.414 109.951 108.049  1.00  0.00    -0.074 C 
ATOM      6  C   UNL     1     113.638 109.437 107.875  1.00  0.00     0.008 C 
ENDROOT
BRANCH   2   7
ATOM      7  C   UNL     1     109.356 111.995 107.033  1.00  0.00    -0.011 C 
ATOM      8  C   UNL     1     108.732 112.901 108.111  1.00  0.00     0.008 C 
BRANCH   7   9
ATOM      9  C   UNL     1     110.039 112.869 105.952  1.00  0.00     0.004 CG0
ATOM     10  G   UNL     1     110.263 112.165 104.596  1.00  0.00     0.000 G0
ENDBRANCH   7   9
ENDBRANCH   2   7
BRANCH   1  11
ATOM     11  C   UNL     1     111.629 110.032 105.659  1.00  0.00     0.006 C 
ATOM     12  C   UNL     1     110.820 110.720 104.542  1.00  0.00    -0.001 C 
ATOM     13  C   UNL     1     112.354 110.585 104.425  1.00  0.00    -0.029 C 
ATOM     14  C   UNL     1     113.292 111.794 104.612  1.00  0.00     0.012 C 
ATOM     15  C   UNL     1     112.857 109.501 103.465  1.00  0.00     0.012 C 
BRANCH  12  16
ATOM     16  C   UNL     1     110.254 112.167 104.591  1.00  0.00     0.005 CG0
ATOM     17  G   UNL     1     110.037 112.868 105.949  1.00  0.00     0.000 G0
ENDBRANCH  12  16
ENDBRANCH   1  11
TORSDOF 0
ENDMDL
MODEL 9
REMARK VINA RESULT:    -4.943      2.330      5.124
REMARK INTER + INTRA:          -6.275
REMARK INTER:                  -6.117
REMARK INTRA:                  -0.158
REMARK UNBOUND:                -0.175
REMARK SMILES C=C1CC[C@@H]2[C@@H]1[C@H]1[C@@H](CC[C@@H]2C)C1(C)C
REMARK SMILES IDX 6 1 5 2 4 3 3 4 2 5 1 6 11 7 12 8 10 9 7 11 8 12 13 13 14 14
REMARK SMILES IDX 15 15 9 16
REMARK H PARENT
REMARK Flexibility Score: 80.00
ROOT
ATOM      1  C   UNL     1     111.652 110.765 117.084  1.00  0.00     0.022 C 
ATOM      2  C   UNL     1     110.235 110.844 117.676  1.00  0.00    -0.000 C 
ATOM      3  C   UNL     1     110.454 110.805 119.198  1.00  0.00     0.009 C 
ATOM      4  C   UNL     1     111.655 109.889 119.407  1.00  0.00     0.031 C 
ATOM      5  C   UNL     1     112.397 109.979 118.117  1.00  0.00    -0.074 C 
ATOM      6  C   UNL     1     113.630 109.484 117.946  1.00  0.00     0.008 C 
ENDROOT
BRANCH   2   7
ATOM      7  C   UNL     1     109.312 111.978 117.093  1.00  0.00    -0.011 C 
ATOM      8  C   UNL     1     108.674 112.875 118.169  1.00  0.00     0.008 C 
BRANCH   7   9
ATOM      9  C   UNL     1     109.985 112.861 116.013  1.00  0.00     0.004 CG0
ATOM     10  G   UNL     1     110.213 112.161 114.656  1.00  0.00     0.000 G0
ENDBRANCH   7   9
ENDBRANCH   2   7
BRANCH   1  11
ATOM     11  C   UNL     1     111.617 110.048 115.726  1.00  0.00     0.006 C 
ATOM     12  C   UNL     1     110.801 110.723 114.607  1.00  0.00    -0.001 C 
ATOM     13  C   UNL     1     112.337 110.612 114.493  1.00  0.00    -0.029 C 
ATOM     14  C   UNL     1     113.255 111.835 114.682  1.00  0.00     0.012 C 
ATOM     15  C   UNL     1     112.858 109.535 113.534  1.00  0.00     0.012 C 
BRANCH  12  16
ATOM     16  C   UNL     1     110.212 112.161 114.654  1.00  0.00     0.005 CG0
ATOM     17  G   UNL     1     109.986 112.861 116.011  1.00  0.00     0.000 G0
ENDBRANCH  12  16
ENDBRANCH   1  11
TORSDOF 0
ENDMDL
