MODEL 1
REMARK VINA RESULT:    -3.110      0.000      0.000
REMARK INTER + INTRA:         -14.645
REMARK INTER:                  -8.202
REMARK INTRA:                  -6.443
REMARK UNBOUND:                -6.443
REMARK SMILES CCCCCCCCCCCCCCCCCCCCCCCCCCCCCC(=O)[O-]
REMARK SMILES IDX 16 1 17 2 18 3 19 4 20 5 21 6 22 7 23 8 24 9 25 10 26 11
REMARK SMILES IDX 27 12 28 13 29 14 30 15 31 16 32 17 15 18 14 19 13 20 12 21
REMARK SMILES IDX 11 22 10 23 9 24 8 25 7 26 6 27 5 28 4 29 3 30 2 31 1 32
REMARK H PARENT
REMARK Flexibility Score: inf
ROOT
ATOM      1  C   UNL     1      -0.693 -15.161 -17.752  1.00  0.00     0.000 C 
ENDROOT
BRANCH   1   2
ATOM      2  C   UNL     1      -2.013 -15.355 -18.518  1.00  0.00     0.000 C 
BRANCH   2   3
ATOM      3  C   UNL     1      -2.226 -14.292 -19.606  1.00  0.00     0.000 C 
BRANCH   3   4
ATOM      4  C   UNL     1      -3.692 -13.829 -19.697  1.00  0.00     0.000 C 
BRANCH   4   5
ATOM      5  C   UNL     1      -4.660 -14.790 -18.988  1.00  0.00     0.000 C 
BRANCH   5   6
ATOM      6  C   UNL     1      -5.547 -14.081 -17.954  1.00  0.00     0.000 C 
BRANCH   6   7
ATOM      7  C   UNL     1      -5.352 -12.558 -18.020  1.00  0.00     0.000 C 
BRANCH   7   8
ATOM      8  C   UNL     1      -5.004 -11.941 -16.657  1.00  0.00     0.000 C 
BRANCH   8   9
ATOM      9  C   UNL     1      -4.000 -10.780 -16.770  1.00  0.00     0.000 C 
BRANCH   9  10
ATOM     10  C   UNL     1      -4.606  -9.429 -16.348  1.00  0.00     0.000 C 
BRANCH  10  11
ATOM     11  C   UNL     1      -4.474  -8.308 -17.398  1.00  0.00     0.000 C 
BRANCH  11  12
ATOM     12  C   UNL     1      -5.065  -8.677 -18.777  1.00  0.00     0.000 C 
BRANCH  12  13
ATOM     13  C   UNL     1      -4.010  -8.722 -19.898  1.00  0.00     0.006 C 
BRANCH  13  14
ATOM     14  C   UNL     1      -3.820 -10.138 -20.457  1.00  0.00     0.053 C 
BRANCH  14  15
ATOM     15  C   UNL     1      -3.740 -10.103 -21.951  1.00  0.00     0.041 C 
ATOM     16  O   UNL     1      -4.705  -9.658 -22.625  1.00  0.00    -0.550 OA
ATOM     17  O   UNL     1      -2.617 -10.601 -22.600  1.00  0.00    -0.550 OA
ENDBRANCH  14  15
ENDBRANCH  13  14
ENDBRANCH  12  13
ENDBRANCH  11  12
ENDBRANCH  10  11
ENDBRANCH   9  10
ENDBRANCH   8   9
ENDBRANCH   7   8
ENDBRANCH   6   7
ENDBRANCH   5   6
ENDBRANCH   4   5
ENDBRANCH   3   4
ENDBRANCH   2   3
ENDBRANCH   1   2
BRANCH   1  18
ATOM     18  C   UNL     1      -0.910 -14.919 -16.247  1.00  0.00     0.000 C 
BRANCH  18  19
ATOM     19  C   UNL     1      -2.140 -14.057 -15.898  1.00  0.00     0.000 C 
BRANCH  19  20
ATOM     20  C   UNL     1      -1.975 -13.152 -14.662  1.00  0.00     0.000 C 
BRANCH  20  21
ATOM     21  C   UNL     1      -0.832 -12.124 -14.763  1.00  0.00     0.000 C 
BRANCH  21  22
ATOM     22  C   UNL     1      -1.244 -10.667 -14.474  1.00  0.00     0.000 C 
BRANCH  22  23
ATOM     23  C   UNL     1      -0.132  -9.781 -13.876  1.00  0.00     0.000 C 
BRANCH  23  24
ATOM     24  C   UNL     1      -0.115  -8.322 -14.379  1.00  0.00    -0.000 C 
BRANCH  24  25
ATOM     25  C   UNL     1      -1.073  -8.030 -15.547  1.00  0.00    -0.000 C 
BRANCH  25  26
ATOM     26  C   UNL     1      -0.372  -8.090 -16.915  1.00  0.00    -0.000 C 
BRANCH  26  27
ATOM     27  C   UNL     1      -1.032  -9.095 -17.877  1.00  0.00    -0.000 C 
BRANCH  27  28
ATOM     28  C   UNL     1      -0.048  -9.969 -18.683  1.00  0.00    -0.000 C 
BRANCH  28  29
ATOM     29  C   UNL     1      -0.118 -11.476 -18.380  1.00  0.00    -0.000 C 
BRANCH  29  30
ATOM     30  C   UNL     1       1.186 -12.024 -17.777  1.00  0.00    -0.000 C 
BRANCH  30  31
ATOM     31  C   UNL     1       1.937 -10.973 -16.945  1.00  0.00    -0.003 C 
ATOM     32  C   UNL     1       2.665 -11.580 -15.745  1.00  0.00     0.004 C 
ENDBRANCH  30  31
ENDBRANCH  29  30
ENDBRANCH  28  29
ENDBRANCH  27  28
ENDBRANCH  26  27
ENDBRANCH  25  26
ENDBRANCH  24  25
ENDBRANCH  23  24
ENDBRANCH  22  23
ENDBRANCH  21  22
ENDBRANCH  20  21
ENDBRANCH  19  20
ENDBRANCH  18  19
ENDBRANCH   1  18
TORSDOF 28
ENDMDL
MODEL 2
REMARK VINA RESULT:    -3.097      8.910     12.435
REMARK INTER + INTRA:         -14.609
REMARK INTER:                  -9.776
REMARK INTRA:                  -4.833
REMARK UNBOUND:                -6.443
REMARK SMILES CCCCCCCCCCCCCCCCCCCCCCCCCCCCCC(=O)[O-]
REMARK SMILES IDX 16 1 17 2 18 3 19 4 20 5 21 6 22 7 23 8 24 9 25 10 26 11
REMARK SMILES IDX 27 12 28 13 29 14 30 15 31 16 32 17 15 18 14 19 13 20 12 21
REMARK SMILES IDX 11 22 10 23 9 24 8 25 7 26 6 27 5 28 4 29 3 30 2 31 1 32
REMARK H PARENT
REMARK Flexibility Score: inf
ROOT
ATOM      1  C   UNL     1      -2.115  -3.000 -23.198  1.00  0.00     0.000 C 
ENDROOT
BRANCH   1   2
ATOM      2  C   UNL     1      -3.116  -1.848 -23.391  1.00  0.00     0.000 C 
BRANCH   2   3
ATOM      3  C   UNL     1      -2.611  -0.787 -24.380  1.00  0.00     0.000 C 
BRANCH   3   4
ATOM      4  C   UNL     1      -3.762  -0.029 -25.067  1.00  0.00     0.000 C 
BRANCH   4   5
ATOM      5  C   UNL     1      -5.038  -0.878 -25.192  1.00  0.00     0.000 C 
BRANCH   5   6
ATOM      6  C   UNL     1      -5.106  -1.653 -26.516  1.00  0.00     0.000 C 
BRANCH   6   7
ATOM      7  C   UNL     1      -5.259  -3.160 -26.259  1.00  0.00     0.000 C 
BRANCH   7   8
ATOM      8  C   UNL     1      -4.081  -3.981 -26.805  1.00  0.00     0.000 C 
BRANCH   8   9
ATOM      9  C   UNL     1      -2.921  -3.098 -27.298  1.00  0.00     0.000 C 
BRANCH   9  10
ATOM     10  C   UNL     1      -1.544  -3.621 -26.847  1.00  0.00     0.000 C 
BRANCH  10  11
ATOM     11  C   UNL     1      -0.774  -4.417 -27.920  1.00  0.00     0.000 C 
BRANCH  11  12
ATOM     12  C   UNL     1       0.240  -3.564 -28.716  1.00  0.00     0.000 C 
BRANCH  12  13
ATOM     13  C   UNL     1       0.276  -2.091 -28.269  1.00  0.00     0.006 C 
BRANCH  13  14
ATOM     14  C   UNL     1       0.040  -1.126 -29.439  1.00  0.00     0.053 C 
BRANCH  14  15
ATOM     15  C   UNL     1      -1.150  -0.260 -29.169  1.00  0.00     0.041 C 
ATOM     16  O   UNL     1      -1.454   0.046 -27.987  1.00  0.00    -0.550 OA
ATOM     17  O   UNL     1      -1.948   0.174 -30.221  1.00  0.00    -0.550 OA
ENDBRANCH  14  15
ENDBRANCH  13  14
ENDBRANCH  12  13
ENDBRANCH  11  12
ENDBRANCH  10  11
ENDBRANCH   9  10
ENDBRANCH   8   9
ENDBRANCH   7   8
ENDBRANCH   6   7
ENDBRANCH   5   6
ENDBRANCH   4   5
ENDBRANCH   3   4
ENDBRANCH   2   3
ENDBRANCH   1   2
BRANCH   1  18
ATOM     18  C   UNL     1      -2.727  -4.378 -23.509  1.00  0.00     0.000 C 
BRANCH  18  19
ATOM     19  C   UNL     1      -3.991  -4.726 -22.696  1.00  0.00     0.000 C 
BRANCH  19  20
ATOM     20  C   UNL     1      -5.059  -5.530 -23.462  1.00  0.00     0.000 C 
BRANCH  20  21
ATOM     21  C   UNL     1      -4.574  -6.880 -24.022  1.00  0.00     0.000 C 
BRANCH  21  22
ATOM     22  C   UNL     1      -5.048  -7.194 -25.455  1.00  0.00     0.000 C 
BRANCH  22  23
ATOM     23  C   UNL     1      -3.984  -7.839 -26.367  1.00  0.00     0.000 C 
BRANCH  23  24
ATOM     24  C   UNL     1      -2.538  -7.360 -26.128  1.00  0.00    -0.000 C 
BRANCH  24  25
ATOM     25  C   UNL     1      -1.457  -8.435 -26.341  1.00  0.00    -0.000 C 
BRANCH  25  26
ATOM     26  C   UNL     1      -0.684  -8.243 -27.657  1.00  0.00    -0.000 C 
BRANCH  26  27
ATOM     27  C   UNL     1      -1.181  -9.174 -28.778  1.00  0.00    -0.000 C 
BRANCH  27  28
ATOM     28  C   UNL     1      -2.146 -10.287 -28.322  1.00  0.00    -0.000 C 
BRANCH  28  29
ATOM     29  C   UNL     1      -1.478 -11.633 -27.988  1.00  0.00    -0.000 C 
BRANCH  29  30
ATOM     30  C   UNL     1      -1.816 -12.133 -26.574  1.00  0.00    -0.000 C 
BRANCH  30  31
ATOM     31  C   UNL     1      -3.322 -12.072 -26.273  1.00  0.00    -0.003 C 
ATOM     32  C   UNL     1      -4.113 -13.164 -26.994  1.00  0.00     0.004 C 
ENDBRANCH  30  31
ENDBRANCH  29  30
ENDBRANCH  28  29
ENDBRANCH  27  28
ENDBRANCH  26  27
ENDBRANCH  25  26
ENDBRANCH  24  25
ENDBRANCH  23  24
ENDBRANCH  22  23
ENDBRANCH  21  22
ENDBRANCH  20  21
ENDBRANCH  19  20
ENDBRANCH  18  19
ENDBRANCH   1  18
TORSDOF 28
ENDMDL
MODEL 3
REMARK VINA RESULT:    -3.036      9.615     13.877
REMARK INTER + INTRA:         -14.448
REMARK INTER:                 -10.362
REMARK INTRA:                  -4.086
REMARK UNBOUND:                -6.443
REMARK SMILES CCCCCCCCCCCCCCCCCCCCCCCCCCCCCC(=O)[O-]
REMARK SMILES IDX 16 1 17 2 18 3 19 4 20 5 21 6 22 7 23 8 24 9 25 10 26 11
REMARK SMILES IDX 27 12 28 13 29 14 30 15 31 16 32 17 15 18 14 19 13 20 12 21
REMARK SMILES IDX 11 22 10 23 9 24 8 25 7 26 6 27 5 28 4 29 3 30 2 31 1 32
REMARK H PARENT
REMARK Flexibility Score: inf
ROOT
ATOM      1  C   UNL     1       0.318  -4.025 -26.957  1.00  0.00     0.000 C 
ENDROOT
BRANCH   1   2
ATOM      2  C   UNL     1       1.150  -3.081 -27.843  1.00  0.00     0.000 C 
BRANCH   2   3
ATOM      3  C   UNL     1       0.763  -3.174 -29.327  1.00  0.00     0.000 C 
BRANCH   3   4
ATOM      4  C   UNL     1       1.943  -3.610 -30.216  1.00  0.00     0.000 C 
BRANCH   4   5
ATOM      5  C   UNL     1       1.906  -5.110 -30.554  1.00  0.00     0.000 C 
BRANCH   5   6
ATOM      6  C   UNL     1       2.681  -5.965 -29.541  1.00  0.00     0.000 C 
BRANCH   6   7
ATOM      7  C   UNL     1       2.161  -7.411 -29.535  1.00  0.00     0.000 C 
BRANCH   7   8
ATOM      8  C   UNL     1       0.659  -7.505 -29.224  1.00  0.00     0.000 C 
BRANCH   8   9
ATOM      9  C   UNL     1       0.240  -8.904 -28.740  1.00  0.00     0.000 C 
BRANCH   9  10
ATOM     10  C   UNL     1      -1.015  -9.430 -29.461  1.00  0.00     0.000 C 
BRANCH  10  11
ATOM     11  C   UNL     1      -2.052 -10.105 -28.541  1.00  0.00     0.000 C 
BRANCH  11  12
ATOM     12  C   UNL     1      -2.101  -9.505 -27.117  1.00  0.00     0.000 C 
BRANCH  12  13
ATOM     13  C   UNL     1      -3.535  -9.285 -26.601  1.00  0.00     0.006 C 
BRANCH  13  14
ATOM     14  C   UNL     1      -3.564  -8.918 -25.111  1.00  0.00     0.053 C 
BRANCH  14  15
ATOM     15  C   UNL     1      -4.087 -10.062 -24.302  1.00  0.00     0.041 C 
ATOM     16  O   UNL     1      -4.809  -9.845 -23.293  1.00  0.00    -0.550 OA
ATOM     17  O   UNL     1      -3.744 -11.366 -24.636  1.00  0.00    -0.550 OA
ENDBRANCH  14  15
ENDBRANCH  13  14
ENDBRANCH  12  13
ENDBRANCH  11  12
ENDBRANCH  10  11
ENDBRANCH   9  10
ENDBRANCH   8   9
ENDBRANCH   7   8
ENDBRANCH   6   7
ENDBRANCH   5   6
ENDBRANCH   4   5
ENDBRANCH   3   4
ENDBRANCH   2   3
ENDBRANCH   1   2
BRANCH   1  18
ATOM     18  C   UNL     1      -0.850  -4.679 -27.718  1.00  0.00     0.000 C 
BRANCH  18  19
ATOM     19  C   UNL     1      -1.571  -5.808 -26.955  1.00  0.00     0.000 C 
BRANCH  19  20
ATOM     20  C   UNL     1      -2.658  -5.341 -25.968  1.00  0.00     0.000 C 
BRANCH  20  21
ATOM     21  C   UNL     1      -4.091  -5.348 -26.534  1.00  0.00     0.000 C 
BRANCH  21  22
ATOM     22  C   UNL     1      -4.999  -4.216 -26.013  1.00  0.00     0.000 C 
BRANCH  22  23
ATOM     23  C   UNL     1      -5.243  -3.066 -27.010  1.00  0.00     0.000 C 
BRANCH  23  24
ATOM     24  C   UNL     1      -4.701  -1.690 -26.569  1.00  0.00    -0.000 C 
BRANCH  24  25
ATOM     25  C   UNL     1      -3.171  -1.617 -26.416  1.00  0.00    -0.000 C 
BRANCH  25  26
ATOM     26  C   UNL     1      -2.443  -1.568 -27.770  1.00  0.00    -0.000 C 
BRANCH  26  27
ATOM     27  C   UNL     1      -2.008  -0.143 -28.159  1.00  0.00    -0.000 C 
BRANCH  27  28
ATOM     28  C   UNL     1      -0.947  -0.068 -29.276  1.00  0.00    -0.000 C 
BRANCH  28  29
ATOM     29  C   UNL     1      -1.374   0.721 -30.528  1.00  0.00    -0.000 C 
BRANCH  29  30
ATOM     30  C   UNL     1      -0.741   0.178 -31.820  1.00  0.00    -0.000 C 
BRANCH  30  31
ATOM     31  C   UNL     1       0.759   0.497 -31.920  1.00  0.00    -0.003 C 
ATOM     32  C   UNL     1       1.078   1.953 -31.577  1.00  0.00     0.004 C 
ENDBRANCH  30  31
ENDBRANCH  29  30
ENDBRANCH  28  29
ENDBRANCH  27  28
ENDBRANCH  26  27
ENDBRANCH  25  26
ENDBRANCH  24  25
ENDBRANCH  23  24
ENDBRANCH  22  23
ENDBRANCH  21  22
ENDBRANCH  20  21
ENDBRANCH  19  20
ENDBRANCH  18  19
ENDBRANCH   1  18
TORSDOF 28
ENDMDL
MODEL 4
REMARK VINA RESULT:    -3.035      9.575     12.661
REMARK INTER + INTRA:         -14.445
REMARK INTER:                  -8.627
REMARK INTRA:                  -5.819
REMARK UNBOUND:                -6.443
REMARK SMILES CCCCCCCCCCCCCCCCCCCCCCCCCCCCCC(=O)[O-]
REMARK SMILES IDX 16 1 17 2 18 3 19 4 20 5 21 6 22 7 23 8 24 9 25 10 26 11
REMARK SMILES IDX 27 12 28 13 29 14 30 15 31 16 32 17 15 18 14 19 13 20 12 21
REMARK SMILES IDX 11 22 10 23 9 24 8 25 7 26 6 27 5 28 4 29 3 30 2 31 1 32
REMARK H PARENT
REMARK Flexibility Score: inf
ROOT
ATOM      1  C   UNL     1      -0.861  -2.115 -28.335  1.00  0.00     0.000 C 
ENDROOT
BRANCH   1   2
ATOM      2  C   UNL     1      -0.409  -1.252 -27.144  1.00  0.00     0.000 C 
BRANCH   2   3
ATOM      3  C   UNL     1      -1.491  -0.260 -26.692  1.00  0.00     0.000 C 
BRANCH   3   4
ATOM      4  C   UNL     1      -2.875  -0.589 -27.281  1.00  0.00     0.000 C 
BRANCH   4   5
ATOM      5  C   UNL     1      -3.996  -0.526 -26.230  1.00  0.00     0.000 C 
BRANCH   5   6
ATOM      6  C   UNL     1      -5.008  -1.672 -26.374  1.00  0.00     0.000 C 
BRANCH   6   7
ATOM      7  C   UNL     1      -4.412  -2.827 -27.194  1.00  0.00     0.000 C 
BRANCH   7   8
ATOM      8  C   UNL     1      -4.523  -4.184 -26.482  1.00  0.00     0.000 C 
BRANCH   8   9
ATOM      9  C   UNL     1      -5.191  -4.075 -25.099  1.00  0.00     0.000 C 
BRANCH   9  10
ATOM     10  C   UNL     1      -4.209  -4.341 -23.943  1.00  0.00     0.000 C 
BRANCH  10  11
ATOM     11  C   UNL     1      -3.659  -3.073 -23.261  1.00  0.00     0.000 C 
BRANCH  11  12
ATOM     12  C   UNL     1      -2.233  -2.691 -23.720  1.00  0.00     0.000 C 
BRANCH  12  13
ATOM     13  C   UNL     1      -1.781  -1.311 -23.208  1.00  0.00     0.006 C 
BRANCH  13  14
ATOM     14  C   UNL     1      -2.943  -0.504 -22.614  1.00  0.00     0.053 C 
BRANCH  14  15
ATOM     15  C   UNL     1      -2.660   0.962 -22.703  1.00  0.00     0.041 C 
ATOM     16  O   UNL     1      -2.541   1.516 -23.827  1.00  0.00    -0.550 OA
ATOM     17  O   UNL     1      -2.486   1.709 -21.544  1.00  0.00    -0.550 OA
ENDBRANCH  14  15
ENDBRANCH  13  14
ENDBRANCH  12  13
ENDBRANCH  11  12
ENDBRANCH  10  11
ENDBRANCH   9  10
ENDBRANCH   8   9
ENDBRANCH   7   8
ENDBRANCH   6   7
ENDBRANCH   5   6
ENDBRANCH   4   5
ENDBRANCH   3   4
ENDBRANCH   2   3
ENDBRANCH   1   2
BRANCH   1  18
ATOM     18  C   UNL     1      -0.878  -3.619 -28.006  1.00  0.00     0.000 C 
BRANCH  18  19
ATOM     19  C   UNL     1      -0.878  -3.955 -26.501  1.00  0.00     0.000 C 
BRANCH  19  20
ATOM     20  C   UNL     1      -0.027  -5.176 -26.103  1.00  0.00     0.000 C 
BRANCH  20  21
ATOM     21  C   UNL     1      -0.385  -5.798 -24.740  1.00  0.00     0.000 C 
BRANCH  21  22
ATOM     22  C   UNL     1      -1.587  -6.762 -24.764  1.00  0.00     0.000 C 
BRANCH  22  23
ATOM     23  C   UNL     1      -1.990  -7.267 -26.164  1.00  0.00     0.000 C 
BRANCH  23  24
ATOM     24  C   UNL     1      -3.439  -7.784 -26.283  1.00  0.00    -0.000 C 
BRANCH  24  25
ATOM     25  C   UNL     1      -3.570  -9.227 -26.801  1.00  0.00    -0.000 C 
BRANCH  25  26
ATOM     26  C   UNL     1      -2.206  -9.876 -27.092  1.00  0.00    -0.000 C 
BRANCH  26  27
ATOM     27  C   UNL     1      -2.066 -10.337 -28.554  1.00  0.00    -0.000 C 
BRANCH  27  28
ATOM     28  C   UNL     1      -1.107  -9.490 -29.416  1.00  0.00    -0.000 C 
BRANCH  28  29
ATOM     29  C   UNL     1       0.375  -9.564 -29.006  1.00  0.00    -0.000 C 
BRANCH  29  30
ATOM     30  C   UNL     1       0.882  -8.264 -28.362  1.00  0.00    -0.000 C 
BRANCH  30  31
ATOM     31  C   UNL     1       0.316  -7.009 -29.045  1.00  0.00    -0.003 C 
ATOM     32  C   UNL     1       1.406  -6.116 -29.639  1.00  0.00     0.004 C 
ENDBRANCH  30  31
ENDBRANCH  29  30
ENDBRANCH  28  29
ENDBRANCH  27  28
ENDBRANCH  26  27
ENDBRANCH  25  26
ENDBRANCH  24  25
ENDBRANCH  23  24
ENDBRANCH  22  23
ENDBRANCH  21  22
ENDBRANCH  20  21
ENDBRANCH  19  20
ENDBRANCH  18  19
ENDBRANCH   1  18
TORSDOF 28
ENDMDL
MODEL 5
REMARK VINA RESULT:    -3.034      7.791     12.156
REMARK INTER + INTRA:         -14.443
REMARK INTER:                  -9.386
REMARK INTRA:                  -5.057
REMARK UNBOUND:                -6.443
REMARK SMILES CCCCCCCCCCCCCCCCCCCCCCCCCCCCCC(=O)[O-]
REMARK SMILES IDX 16 1 17 2 18 3 19 4 20 5 21 6 22 7 23 8 24 9 25 10 26 11
REMARK SMILES IDX 27 12 28 13 29 14 30 15 31 16 32 17 15 18 14 19 13 20 12 21
REMARK SMILES IDX 11 22 10 23 9 24 8 25 7 26 6 27 5 28 4 29 3 30 2 31 1 32
REMARK H PARENT
REMARK Flexibility Score: inf
ROOT
ATOM      1  C   UNL     1       0.723  -5.156 -28.924  1.00  0.00     0.000 C 
ENDROOT
BRANCH   1   2
ATOM      2  C   UNL     1       1.075  -3.812 -28.262  1.00  0.00     0.000 C 
BRANCH   2   3
ATOM      3  C   UNL     1       0.132  -2.678 -28.693  1.00  0.00     0.000 C 
BRANCH   3   4
ATOM      4  C   UNL     1      -1.231  -2.743 -27.979  1.00  0.00     0.000 C 
BRANCH   4   5
ATOM      5  C   UNL     1      -1.094  -2.811 -26.449  1.00  0.00     0.000 C 
BRANCH   5   6
ATOM      6  C   UNL     1      -2.049  -3.832 -25.814  1.00  0.00     0.000 C 
BRANCH   6   7
ATOM      7  C   UNL     1      -2.648  -4.760 -26.884  1.00  0.00     0.000 C 
BRANCH   7   8
ATOM      8  C   UNL     1      -4.183  -4.725 -26.914  1.00  0.00     0.000 C 
BRANCH   8   9
ATOM      9  C   UNL     1      -4.771  -3.681 -25.947  1.00  0.00     0.000 C 
BRANCH   9  10
ATOM     10  C   UNL     1      -5.329  -2.445 -26.677  1.00  0.00     0.000 C 
BRANCH  10  11
ATOM     11  C   UNL     1      -4.484  -1.165 -26.515  1.00  0.00     0.000 C 
BRANCH  11  12
ATOM     12  C   UNL     1      -5.014  -0.206 -25.425  1.00  0.00     0.000 C 
BRANCH  12  13
ATOM     13  C   UNL     1      -3.957   0.151 -24.364  1.00  0.00     0.006 C 
BRANCH  13  14
ATOM     14  C   UNL     1      -3.457  -1.087 -23.607  1.00  0.00     0.053 C 
BRANCH  14  15
ATOM     15  C   UNL     1      -2.009  -0.939 -23.263  1.00  0.00     0.041 C 
ATOM     16  O   UNL     1      -1.443   0.179 -23.376  1.00  0.00    -0.550 OA
ATOM     17  O   UNL     1      -1.273  -2.046 -22.857  1.00  0.00    -0.550 OA
ENDBRANCH  14  15
ENDBRANCH  13  14
ENDBRANCH  12  13
ENDBRANCH  11  12
ENDBRANCH  10  11
ENDBRANCH   9  10
ENDBRANCH   8   9
ENDBRANCH   7   8
ENDBRANCH   6   7
ENDBRANCH   5   6
ENDBRANCH   4   5
ENDBRANCH   3   4
ENDBRANCH   2   3
ENDBRANCH   1   2
BRANCH   1  18
ATOM     18  C   UNL     1       0.596  -6.304 -27.906  1.00  0.00     0.000 C 
BRANCH  18  19
ATOM     19  C   UNL     1      -0.522  -7.322 -28.210  1.00  0.00     0.000 C 
BRANCH  19  20
ATOM     20  C   UNL     1      -0.036  -8.741 -28.560  1.00  0.00     0.000 C 
BRANCH  20  21
ATOM     21  C   UNL     1      -1.089  -9.634 -29.245  1.00  0.00     0.000 C 
BRANCH  21  22
ATOM     22  C   UNL     1      -2.254 -10.074 -28.337  1.00  0.00     0.000 C 
BRANCH  22  23
ATOM     23  C   UNL     1      -2.079 -11.457 -27.676  1.00  0.00     0.000 C 
BRANCH  23  24
ATOM     24  C   UNL     1      -3.375 -12.091 -27.130  1.00  0.00    -0.000 C 
BRANCH  24  25
ATOM     25  C   UNL     1      -3.497 -12.095 -25.596  1.00  0.00    -0.000 C 
BRANCH  25  26
ATOM     26  C   UNL     1      -2.244 -11.531 -24.903  1.00  0.00    -0.000 C 
BRANCH  26  27
ATOM     27  C   UNL     1      -2.524 -10.222 -24.144  1.00  0.00    -0.000 C 
BRANCH  27  28
ATOM     28  C   UNL     1      -1.809  -8.976 -24.707  1.00  0.00    -0.000 C 
BRANCH  28  29
ATOM     29  C   UNL     1      -2.732  -7.945 -25.383  1.00  0.00    -0.000 C 
BRANCH  29  30
ATOM     30  C   UNL     1      -4.165  -8.466 -25.579  1.00  0.00    -0.000 C 
BRANCH  30  31
ATOM     31  C   UNL     1      -5.222  -7.518 -24.990  1.00  0.00    -0.003 C 
ATOM     32  C   UNL     1      -5.090  -7.356 -23.475  1.00  0.00     0.004 C 
ENDBRANCH  30  31
ENDBRANCH  29  30
ENDBRANCH  28  29
ENDBRANCH  27  28
ENDBRANCH  26  27
ENDBRANCH  25  26
ENDBRANCH  24  25
ENDBRANCH  23  24
ENDBRANCH  22  23
ENDBRANCH  21  22
ENDBRANCH  20  21
ENDBRANCH  19  20
ENDBRANCH  18  19
ENDBRANCH   1  18
TORSDOF 28
ENDMDL
MODEL 6
REMARK VINA RESULT:    -3.033     13.841     16.103
REMARK INTER + INTRA:         -14.442
REMARK INTER:                  -8.700
REMARK INTRA:                  -5.742
REMARK UNBOUND:                -6.443
REMARK SMILES CCCCCCCCCCCCCCCCCCCCCCCCCCCCCC(=O)[O-]
REMARK SMILES IDX 16 1 17 2 18 3 19 4 20 5 21 6 22 7 23 8 24 9 25 10 26 11
REMARK SMILES IDX 27 12 28 13 29 14 30 15 31 16 32 17 15 18 14 19 13 20 12 21
REMARK SMILES IDX 11 22 10 23 9 24 8 25 7 26 6 27 5 28 4 29 3 30 2 31 1 32
REMARK H PARENT
REMARK Flexibility Score: inf
ROOT
ATOM      1  C   UNL     1      10.780 -11.134 -22.708  1.00  0.00     0.000 C 
ENDROOT
BRANCH   1   2
ATOM      2  C   UNL     1      12.111 -11.547 -23.359  1.00  0.00     0.000 C 
BRANCH   2   3
ATOM      3  C   UNL     1      13.210 -10.491 -23.175  1.00  0.00     0.000 C 
BRANCH   3   4
ATOM      4  C   UNL     1      13.522  -9.733 -24.479  1.00  0.00     0.000 C 
BRANCH   4   5
ATOM      5  C   UNL     1      13.483  -8.206 -24.299  1.00  0.00     0.000 C 
BRANCH   5   6
ATOM      6  C   UNL     1      12.264  -7.561 -24.974  1.00  0.00     0.000 C 
BRANCH   6   7
ATOM      7  C   UNL     1      11.826  -8.374 -26.203  1.00  0.00     0.000 C 
BRANCH   7   8
ATOM      8  C   UNL     1      10.323  -8.692 -26.204  1.00  0.00     0.000 C 
BRANCH   8   9
ATOM      9  C   UNL     1      10.036 -10.204 -26.197  1.00  0.00     0.000 C 
BRANCH   9  10
ATOM     10  C   UNL     1      11.132 -11.019 -26.909  1.00  0.00     0.000 C 
BRANCH  10  11
ATOM     11  C   UNL     1      10.973 -12.548 -26.798  1.00  0.00     0.000 C 
BRANCH  11  12
ATOM     12  C   UNL     1       9.852 -12.987 -25.827  1.00  0.00     0.000 C 
BRANCH  12  13
ATOM     13  C   UNL     1       9.078 -14.225 -26.314  1.00  0.00     0.006 C 
BRANCH  13  14
ATOM     14  C   UNL     1       9.092 -14.352 -27.844  1.00  0.00     0.053 C 
BRANCH  14  15
ATOM     15  C   UNL     1       9.725 -15.643 -28.255  1.00  0.00     0.041 C 
ATOM     16  O   UNL     1      10.894 -15.653 -28.721  1.00  0.00    -0.550 OA
ATOM     17  O   UNL     1       9.009 -16.830 -28.163  1.00  0.00    -0.550 OA
ENDBRANCH  14  15
ENDBRANCH  13  14
ENDBRANCH  12  13
ENDBRANCH  11  12
ENDBRANCH  10  11
ENDBRANCH   9  10
ENDBRANCH   8   9
ENDBRANCH   7   8
ENDBRANCH   6   7
ENDBRANCH   5   6
ENDBRANCH   4   5
ENDBRANCH   3   4
ENDBRANCH   2   3
ENDBRANCH   1   2
BRANCH   1  18
ATOM     18  C   UNL     1      10.907  -9.859 -21.855  1.00  0.00     0.000 C 
BRANCH  18  19
ATOM     19  C   UNL     1       9.957  -8.711 -22.254  1.00  0.00     0.000 C 
BRANCH  19  20
ATOM     20  C   UNL     1      10.452  -7.298 -21.893  1.00  0.00     0.000 C 
BRANCH  20  21
ATOM     21  C   UNL     1      11.775  -7.258 -21.103  1.00  0.00     0.000 C 
BRANCH  21  22
ATOM     22  C   UNL     1      12.220  -5.852 -20.657  1.00  0.00     0.000 C 
BRANCH  22  23
ATOM     23  C   UNL     1      13.503  -5.328 -21.333  1.00  0.00     0.000 C 
BRANCH  23  24
ATOM     24  C   UNL     1      13.308  -4.747 -22.748  1.00  0.00    -0.000 C 
BRANCH  24  25
ATOM     25  C   UNL     1      13.329  -3.209 -22.825  1.00  0.00    -0.000 C 
BRANCH  25  26
ATOM     26  C   UNL     1      12.115  -2.568 -22.132  1.00  0.00    -0.000 C 
BRANCH  26  27
ATOM     27  C   UNL     1      10.865  -2.540 -23.030  1.00  0.00    -0.000 C 
BRANCH  27  28
ATOM     28  C   UNL     1       9.660  -3.343 -22.496  1.00  0.00    -0.000 C 
BRANCH  28  29
ATOM     29  C   UNL     1       9.089  -4.388 -23.472  1.00  0.00    -0.000 C 
BRANCH  29  30
ATOM     30  C   UNL     1      10.054  -4.720 -24.622  1.00  0.00    -0.000 C 
BRANCH  30  31
ATOM     31  C   UNL     1       9.505  -4.293 -25.993  1.00  0.00    -0.003 C 
ATOM     32  C   UNL     1       8.711  -5.403 -26.682  1.00  0.00     0.004 C 
ENDBRANCH  30  31
ENDBRANCH  29  30
ENDBRANCH  28  29
ENDBRANCH  27  28
ENDBRANCH  26  27
ENDBRANCH  25  26
ENDBRANCH  24  25
ENDBRANCH  23  24
ENDBRANCH  22  23
ENDBRANCH  21  22
ENDBRANCH  20  21
ENDBRANCH  19  20
ENDBRANCH  18  19
ENDBRANCH   1  18
TORSDOF 28
ENDMDL
MODEL 7
REMARK VINA RESULT:    -2.998      3.644      6.365
REMARK INTER + INTRA:         -14.349
REMARK INTER:                  -8.278
REMARK INTRA:                  -6.071
REMARK UNBOUND:                -6.443
REMARK SMILES CCCCCCCCCCCCCCCCCCCCCCCCCCCCCC(=O)[O-]
REMARK SMILES IDX 16 1 17 2 18 3 19 4 20 5 21 6 22 7 23 8 24 9 25 10 26 11
REMARK SMILES IDX 27 12 28 13 29 14 30 15 31 16 32 17 15 18 14 19 13 20 12 21
REMARK SMILES IDX 11 22 10 23 9 24 8 25 7 26 6 27 5 28 4 29 3 30 2 31 1 32
REMARK H PARENT
REMARK Flexibility Score: inf
ROOT
ATOM      1  C   UNL     1      -5.368 -13.239 -17.498  1.00  0.00     0.000 C 
ENDROOT
BRANCH   1   2
ATOM      2  C   UNL     1      -5.780 -11.886 -16.894  1.00  0.00     0.000 C 
BRANCH   2   3
ATOM      3  C   UNL     1      -4.601 -11.147 -16.244  1.00  0.00     0.000 C 
BRANCH   3   4
ATOM      4  C   UNL     1      -4.548  -9.659 -16.640  1.00  0.00     0.000 C 
BRANCH   4   5
ATOM      5  C   UNL     1      -5.056  -9.411 -18.070  1.00  0.00     0.000 C 
BRANCH   5   6
ATOM      6  C   UNL     1      -4.658  -8.028 -18.607  1.00  0.00     0.000 C 
BRANCH   6   7
ATOM      7  C   UNL     1      -3.225  -7.669 -18.186  1.00  0.00     0.000 C 
BRANCH   7   8
ATOM      8  C   UNL     1      -3.073  -6.196 -17.778  1.00  0.00     0.000 C 
BRANCH   8   9
ATOM      9  C   UNL     1      -3.549  -5.926 -16.339  1.00  0.00     0.000 C 
BRANCH   9  10
ATOM     10  C   UNL     1      -3.340  -4.463 -15.910  1.00  0.00     0.000 C 
BRANCH  10  11
ATOM     11  C   UNL     1      -2.089  -4.218 -15.042  1.00  0.00     0.000 C 
BRANCH  11  12
ATOM     12  C   UNL     1      -2.332  -4.432 -13.531  1.00  0.00     0.000 C 
BRANCH  12  13
ATOM     13  C   UNL     1      -1.050  -4.789 -12.755  1.00  0.00     0.006 C 
BRANCH  13  14
ATOM     14  C   UNL     1       0.177  -4.871 -13.673  1.00  0.00     0.053 C 
BRANCH  14  15
ATOM     15  C   UNL     1       1.319  -5.526 -12.961  1.00  0.00     0.041 C 
ATOM     16  O   UNL     1       2.501  -5.164 -13.197  1.00  0.00    -0.550 OA
ATOM     17  O   UNL     1       1.080  -6.564 -12.069  1.00  0.00    -0.550 OA
ENDBRANCH  14  15
ENDBRANCH  13  14
ENDBRANCH  12  13
ENDBRANCH  11  12
ENDBRANCH  10  11
ENDBRANCH   9  10
ENDBRANCH   8   9
ENDBRANCH   7   8
ENDBRANCH   6   7
ENDBRANCH   5   6
ENDBRANCH   4   5
ENDBRANCH   3   4
ENDBRANCH   2   3
ENDBRANCH   1   2
BRANCH   1  18
ATOM     18  C   UNL     1      -3.941 -13.658 -17.097  1.00  0.00     0.000 C 
BRANCH  18  19
ATOM     19  C   UNL     1      -3.104 -14.283 -18.232  1.00  0.00     0.000 C 
BRANCH  19  20
ATOM     20  C   UNL     1      -3.706 -14.140 -19.643  1.00  0.00     0.000 C 
BRANCH  20  21
ATOM     21  C   UNL     1      -3.007 -13.101 -20.542  1.00  0.00     0.000 C 
BRANCH  21  22
ATOM     22  C   UNL     1      -3.221 -11.633 -20.121  1.00  0.00     0.000 C 
BRANCH  22  23
ATOM     23  C   UNL     1      -1.936 -10.869 -19.744  1.00  0.00     0.000 C 
BRANCH  23  24
ATOM     24  C   UNL     1      -1.522 -10.975 -18.262  1.00  0.00    -0.000 C 
BRANCH  24  25
ATOM     25  C   UNL     1      -0.298 -11.869 -17.994  1.00  0.00    -0.000 C 
BRANCH  25  26
ATOM     26  C   UNL     1       0.035 -11.982 -16.497  1.00  0.00    -0.000 C 
BRANCH  26  27
ATOM     27  C   UNL     1      -1.173 -11.673 -15.595  1.00  0.00    -0.000 C 
BRANCH  27  28
ATOM     28  C   UNL     1      -0.943 -10.556 -14.556  1.00  0.00    -0.000 C 
BRANCH  28  29
ATOM     29  C   UNL     1      -1.315  -9.139 -15.030  1.00  0.00    -0.000 C 
BRANCH  29  30
ATOM     30  C   UNL     1      -0.108  -8.188 -15.069  1.00  0.00    -0.000 C 
BRANCH  30  31
ATOM     31  C   UNL     1       0.023  -7.457 -16.415  1.00  0.00    -0.003 C 
ATOM     32  C   UNL     1       0.818  -8.258 -17.447  1.00  0.00     0.004 C 
ENDBRANCH  30  31
ENDBRANCH  29  30
ENDBRANCH  28  29
ENDBRANCH  27  28
ENDBRANCH  26  27
ENDBRANCH  25  26
ENDBRANCH  24  25
ENDBRANCH  23  24
ENDBRANCH  22  23
ENDBRANCH  21  22
ENDBRANCH  20  21
ENDBRANCH  19  20
ENDBRANCH  18  19
ENDBRANCH   1  18
TORSDOF 28
ENDMDL
MODEL 8
REMARK VINA RESULT:    -2.972      1.942      6.682
REMARK INTER + INTRA:         -14.279
REMARK INTER:                  -8.421
REMARK INTRA:                  -5.858
REMARK UNBOUND:                -6.443
REMARK SMILES CCCCCCCCCCCCCCCCCCCCCCCCCCCCCC(=O)[O-]
REMARK SMILES IDX 16 1 17 2 18 3 19 4 20 5 21 6 22 7 23 8 24 9 25 10 26 11
REMARK SMILES IDX 27 12 28 13 29 14 30 15 31 16 32 17 15 18 14 19 13 20 12 21
REMARK SMILES IDX 11 22 10 23 9 24 8 25 7 26 6 27 5 28 4 29 3 30 2 31 1 32
REMARK H PARENT
REMARK Flexibility Score: inf
ROOT
ATOM      1  C   UNL     1      -2.864  -7.830 -17.158  1.00  0.00     0.000 C 
ENDROOT
BRANCH   1   2
ATOM      2  C   UNL     1      -1.822  -8.058 -16.049  1.00  0.00     0.000 C 
BRANCH   2   3
ATOM      3  C   UNL     1      -1.382  -9.526 -15.946  1.00  0.00     0.000 C 
BRANCH   3   4
ATOM      4  C   UNL     1      -0.738  -9.853 -14.586  1.00  0.00     0.000 C 
BRANCH   4   5
ATOM      5  C   UNL     1      -0.888 -11.334 -14.201  1.00  0.00     0.000 C 
BRANCH   5   6
ATOM      6  C   UNL     1      -1.617 -12.154 -15.275  1.00  0.00     0.000 C 
BRANCH   6   7
ATOM      7  C   UNL     1      -2.517 -13.220 -14.630  1.00  0.00     0.000 C 
BRANCH   7   8
ATOM      8  C   UNL     1      -1.875 -14.616 -14.621  1.00  0.00     0.000 C 
BRANCH   8   9
ATOM      9  C   UNL     1      -0.897 -14.827 -15.792  1.00  0.00     0.000 C 
BRANCH   9  10
ATOM     10  C   UNL     1       0.371 -15.593 -15.374  1.00  0.00     0.000 C 
BRANCH  10  11
ATOM     11  C   UNL     1       1.669 -15.111 -16.052  1.00  0.00     0.000 C 
BRANCH  11  12
ATOM     12  C   UNL     1       1.427 -14.174 -17.258  1.00  0.00     0.000 C 
BRANCH  12  13
ATOM     13  C   UNL     1       2.231 -12.863 -17.179  1.00  0.00     0.006 C 
BRANCH  13  14
ATOM     14  C   UNL     1       1.330 -11.625 -17.268  1.00  0.00     0.053 C 
BRANCH  14  15
ATOM     15  C   UNL     1       1.716 -10.781 -18.441  1.00  0.00     0.041 C 
ATOM     16  O   UNL     1       0.971  -9.837 -18.813  1.00  0.00    -0.550 OA
ATOM     17  O   UNL     1       2.878 -11.061 -19.148  1.00  0.00    -0.550 OA
ENDBRANCH  14  15
ENDBRANCH  13  14
ENDBRANCH  12  13
ENDBRANCH  11  12
ENDBRANCH  10  11
ENDBRANCH   9  10
ENDBRANCH   8   9
ENDBRANCH   7   8
ENDBRANCH   6   7
ENDBRANCH   5   6
ENDBRANCH   4   5
ENDBRANCH   3   4
ENDBRANCH   2   3
ENDBRANCH   1   2
BRANCH   1  18
ATOM     18  C   UNL     1      -4.285  -8.242 -16.731  1.00  0.00     0.000 C 
BRANCH  18  19
ATOM     19  C   UNL     1      -4.760  -9.602 -17.281  1.00  0.00     0.000 C 
BRANCH  19  20
ATOM     20  C   UNL     1      -4.937 -10.709 -16.224  1.00  0.00     0.000 C 
BRANCH  20  21
ATOM     21  C   UNL     1      -5.774 -11.917 -16.686  1.00  0.00     0.000 C 
BRANCH  21  22
ATOM     22  C   UNL     1      -4.954 -13.165 -17.067  1.00  0.00     0.000 C 
BRANCH  22  23
ATOM     23  C   UNL     1      -5.635 -14.107 -18.081  1.00  0.00     0.000 C 
BRANCH  23  24
ATOM     24  C   UNL     1      -4.672 -14.872 -19.013  1.00  0.00    -0.000 C 
BRANCH  24  25
ATOM     25  C   UNL     1      -3.686 -13.985 -19.793  1.00  0.00    -0.000 C 
BRANCH  25  26
ATOM     26  C   UNL     1      -2.219 -14.282 -19.440  1.00  0.00    -0.000 C 
BRANCH  26  27
ATOM     27  C   UNL     1      -1.416 -13.010 -19.113  1.00  0.00    -0.000 C 
BRANCH  27  28
ATOM     28  C   UNL     1      -2.269 -11.768 -18.780  1.00  0.00    -0.000 C 
BRANCH  28  29
ATOM     29  C   UNL     1      -2.195 -10.630 -19.814  1.00  0.00    -0.000 C 
BRANCH  29  30
ATOM     30  C   UNL     1      -3.498 -10.462 -20.611  1.00  0.00    -0.000 C 
BRANCH  30  31
ATOM     31  C   UNL     1      -3.254 -10.367 -22.126  1.00  0.00    -0.003 C 
ATOM     32  C   UNL     1      -3.276 -11.732 -22.814  1.00  0.00     0.004 C 
ENDBRANCH  30  31
ENDBRANCH  29  30
ENDBRANCH  28  29
ENDBRANCH  27  28
ENDBRANCH  26  27
ENDBRANCH  25  26
ENDBRANCH  24  25
ENDBRANCH  23  24
ENDBRANCH  22  23
ENDBRANCH  21  22
ENDBRANCH  20  21
ENDBRANCH  19  20
ENDBRANCH  18  19
ENDBRANCH   1  18
TORSDOF 28
ENDMDL
MODEL 9
REMARK VINA RESULT:    -2.933      8.591     12.092
REMARK INTER + INTRA:         -14.178
REMARK INTER:                  -8.294
REMARK INTRA:                  -5.883
REMARK UNBOUND:                -6.443
REMARK SMILES CCCCCCCCCCCCCCCCCCCCCCCCCCCCCC(=O)[O-]
REMARK SMILES IDX 16 1 17 2 18 3 19 4 20 5 21 6 22 7 23 8 24 9 25 10 26 11
REMARK SMILES IDX 27 12 28 13 29 14 30 15 31 16 32 17 15 18 14 19 13 20 12 21
REMARK SMILES IDX 11 22 10 23 9 24 8 25 7 26 6 27 5 28 4 29 3 30 2 31 1 32
REMARK H PARENT
REMARK Flexibility Score: inf
ROOT
ATOM      1  C   UNL     1      -1.174  -1.533 -27.241  1.00  0.00     0.000 C 
ENDROOT
BRANCH   1   2
ATOM      2  C   UNL     1      -0.691  -2.835 -27.902  1.00  0.00     0.000 C 
BRANCH   2   3
ATOM      3  C   UNL     1      -1.628  -4.020 -27.623  1.00  0.00     0.000 C 
BRANCH   3   4
ATOM      4  C   UNL     1      -0.888  -5.221 -27.004  1.00  0.00     0.000 C 
BRANCH   4   5
ATOM      5  C   UNL     1      -1.848  -6.305 -26.488  1.00  0.00     0.000 C 
BRANCH   5   6
ATOM      6  C   UNL     1      -1.148  -7.342 -25.598  1.00  0.00     0.000 C 
BRANCH   6   7
ATOM      7  C   UNL     1      -1.953  -8.650 -25.545  1.00  0.00     0.000 C 
BRANCH   7   8
ATOM      8  C   UNL     1      -3.199  -8.621 -26.444  1.00  0.00     0.000 C 
BRANCH   8   9
ATOM      9  C   UNL     1      -3.388  -9.926 -27.239  1.00  0.00     0.000 C 
BRANCH   9  10
ATOM     10  C   UNL     1      -2.074 -10.439 -27.856  1.00  0.00     0.000 C 
BRANCH  10  11
ATOM     11  C   UNL     1      -1.599  -9.663 -29.101  1.00  0.00     0.000 C 
BRANCH  11  12
ATOM     12  C   UNL     1      -0.064  -9.509 -29.188  1.00  0.00     0.000 C 
BRANCH  12  13
ATOM     13  C   UNL     1       0.429  -8.106 -28.787  1.00  0.00     0.006 C 
BRANCH  13  14
ATOM     14  C   UNL     1       1.929  -7.923 -29.050  1.00  0.00     0.053 C 
BRANCH  14  15
ATOM     15  C   UNL     1       2.180  -6.633 -29.764  1.00  0.00     0.041 C 
ATOM     16  O   UNL     1       3.315  -6.390 -30.251  1.00  0.00    -0.550 OA
ATOM     17  O   UNL     1       1.173  -5.680 -29.856  1.00  0.00    -0.550 OA
ENDBRANCH  14  15
ENDBRANCH  13  14
ENDBRANCH  12  13
ENDBRANCH  11  12
ENDBRANCH  10  11
ENDBRANCH   9  10
ENDBRANCH   8   9
ENDBRANCH   7   8
ENDBRANCH   6   7
ENDBRANCH   5   6
ENDBRANCH   4   5
ENDBRANCH   3   4
ENDBRANCH   2   3
ENDBRANCH   1   2
BRANCH   1  18
ATOM     18  C   UNL     1      -2.663  -1.248 -27.508  1.00  0.00     0.000 C 
BRANCH  18  19
ATOM     19  C   UNL     1      -3.490  -0.882 -26.258  1.00  0.00     0.000 C 
BRANCH  19  20
ATOM     20  C   UNL     1      -4.776  -1.707 -26.060  1.00  0.00     0.000 C 
BRANCH  20  21
ATOM     21  C   UNL     1      -5.000  -2.816 -27.106  1.00  0.00     0.000 C 
BRANCH  21  22
ATOM     22  C   UNL     1      -4.951  -4.252 -26.548  1.00  0.00     0.000 C 
BRANCH  22  23
ATOM     23  C   UNL     1      -5.177  -4.368 -25.027  1.00  0.00     0.000 C 
BRANCH  23  24
ATOM     24  C   UNL     1      -4.864  -5.753 -24.422  1.00  0.00    -0.000 C 
BRANCH  24  25
ATOM     25  C   UNL     1      -3.847  -5.739 -23.266  1.00  0.00    -0.000 C 
BRANCH  25  26
ATOM     26  C   UNL     1      -4.426  -5.132 -21.977  1.00  0.00    -0.000 C 
BRANCH  26  27
ATOM     27  C   UNL     1      -3.592  -3.950 -21.450  1.00  0.00    -0.000 C 
BRANCH  27  28
ATOM     28  C   UNL     1      -3.499  -2.741 -22.404  1.00  0.00    -0.000 C 
BRANCH  28  29
ATOM     29  C   UNL     1      -2.068  -2.327 -22.793  1.00  0.00    -0.000 C 
BRANCH  29  30
ATOM     30  C   UNL     1      -1.547  -3.073 -24.033  1.00  0.00    -0.000 C 
BRANCH  30  31
ATOM     31  C   UNL     1      -0.166  -3.706 -23.802  1.00  0.00    -0.003 C 
ATOM     32  C   UNL     1      -0.223  -4.933 -22.892  1.00  0.00     0.004 C 
ENDBRANCH  30  31
ENDBRANCH  29  30
ENDBRANCH  28  29
ENDBRANCH  27  28
ENDBRANCH  26  27
ENDBRANCH  25  26
ENDBRANCH  24  25
ENDBRANCH  23  24
ENDBRANCH  22  23
ENDBRANCH  21  22
ENDBRANCH  20  21
ENDBRANCH  19  20
ENDBRANCH  18  19
ENDBRANCH   1  18
TORSDOF 28
ENDMDL
