MODEL 1
REMARK VINA RESULT:    -6.312      0.000      0.000
REMARK INTER + INTRA:         -10.080
REMARK INTER:                  -9.633
REMARK INTRA:                  -0.447
REMARK UNBOUND:                -0.447
REMARK SMILES CCCCCCCCCCC(=O)[O-]
REMARK SMILES IDX 7 1 8 2 9 3 10 4 11 5 12 6 13 7 6 8 5 9 4 10 3 11 2 12 1 13
REMARK H PARENT
REMARK Flexibility Score: inf
ROOT
ATOM      1  C   UNL     1     -22.158 -20.818  30.330  1.00  0.00     0.000 C 
ENDROOT
BRANCH   1   2
ATOM      2  C   UNL     1     -21.142 -19.678  30.514  1.00  0.00     0.000 C 
BRANCH   2   3
ATOM      3  C   UNL     1     -20.576 -19.172  29.178  1.00  0.00     0.006 C 
BRANCH   3   4
ATOM      4  C   UNL     1     -20.520 -17.640  29.101  1.00  0.00     0.053 C 
BRANCH   4   5
ATOM      5  C   UNL     1     -19.120 -17.158  29.316  1.00  0.00     0.041 C 
ATOM      6  O   UNL     1     -18.286 -17.196  28.373  1.00  0.00    -0.550 OA
ATOM      7  O   UNL     1     -18.722 -16.712  30.570  1.00  0.00    -0.550 OA
ENDBRANCH   4   5
ENDBRANCH   3   4
ENDBRANCH   2   3
ENDBRANCH   1   2
BRANCH   1   8
ATOM      8  C   UNL     1     -21.964 -21.952  31.350  1.00  0.00     0.000 C 
BRANCH   8   9
ATOM      9  C   UNL     1     -22.331 -23.332  30.782  1.00  0.00    -0.000 C 
BRANCH   9  10
ATOM     10  C   UNL     1     -22.087 -23.384  29.268  1.00  0.00    -0.000 C 
BRANCH  10  11
ATOM     11  C   UNL     1     -22.939 -24.481  28.612  1.00  0.00    -0.000 C 
BRANCH  11  12
ATOM     12  C   UNL     1     -23.556 -25.444  29.639  1.00  0.00    -0.003 C 
ATOM     13  C   UNL     1     -24.252 -26.638  28.987  1.00  0.00     0.004 C 
ENDBRANCH  11  12
ENDBRANCH  10  11
ENDBRANCH   9  10
ENDBRANCH   8   9
ENDBRANCH   1   8
TORSDOF 9
ENDMDL
MODEL 2
REMARK VINA RESULT:    -6.299      0.947      1.235
REMARK INTER + INTRA:         -10.060
REMARK INTER:                  -9.615
REMARK INTRA:                  -0.445
REMARK UNBOUND:                -0.447
REMARK SMILES CCCCCCCCCCC(=O)[O-]
REMARK SMILES IDX 7 1 8 2 9 3 10 4 11 5 12 6 13 7 6 8 5 9 4 10 3 11 2 12 1 13
REMARK H PARENT
REMARK Flexibility Score: inf
ROOT
ATOM      1  C   UNL     1     -22.111 -20.893  29.157  1.00  0.00     0.000 C 
ENDROOT
BRANCH   1   2
ATOM      2  C   UNL     1     -21.281 -19.725  28.597  1.00  0.00     0.000 C 
BRANCH   2   3
ATOM      3  C   UNL     1     -20.474 -19.001  29.686  1.00  0.00     0.006 C 
BRANCH   3   4
ATOM      4  C   UNL     1     -19.679 -17.808  29.139  1.00  0.00     0.053 C 
BRANCH   4   5
ATOM      5  C   UNL     1     -18.998 -17.079  30.255  1.00  0.00     0.041 C 
ATOM      6  O   UNL     1     -18.278 -16.077  30.009  1.00  0.00    -0.550 OA
ATOM      7  O   UNL     1     -19.121 -17.537  31.561  1.00  0.00    -0.550 OA
ENDBRANCH   4   5
ENDBRANCH   3   4
ENDBRANCH   2   3
ENDBRANCH   1   2
BRANCH   1   8
ATOM      8  C   UNL     1     -22.102 -20.940  30.694  1.00  0.00     0.000 C 
BRANCH   8   9
ATOM      9  C   UNL     1     -22.223 -22.370  31.245  1.00  0.00    -0.000 C 
BRANCH   9  10
ATOM     10  C   UNL     1     -21.984 -23.406  30.140  1.00  0.00    -0.000 C 
BRANCH  10  11
ATOM     11  C   UNL     1     -23.040 -24.521  30.194  1.00  0.00    -0.000 C 
BRANCH  11  12
ATOM     12  C   UNL     1     -23.400 -25.060  28.801  1.00  0.00    -0.003 C 
ATOM     13  C   UNL     1     -23.775 -26.542  28.819  1.00  0.00     0.004 C 
ENDBRANCH  11  12
ENDBRANCH  10  11
ENDBRANCH   9  10
ENDBRANCH   8   9
ENDBRANCH   1   8
TORSDOF 9
ENDMDL
MODEL 3
REMARK VINA RESULT:    -6.296      5.106      8.094
REMARK INTER + INTRA:         -10.055
REMARK INTER:                  -9.636
REMARK INTRA:                  -0.419
REMARK UNBOUND:                -0.447
REMARK SMILES CCCCCCCCCCC(=O)[O-]
REMARK SMILES IDX 7 1 8 2 9 3 10 4 11 5 12 6 13 7 6 8 5 9 4 10 3 11 2 12 1 13
REMARK H PARENT
REMARK Flexibility Score: inf
ROOT
ATOM      1  C   UNL     1     -22.251 -23.535  29.148  1.00  0.00     0.000 C 
ENDROOT
BRANCH   1   2
ATOM      2  C   UNL     1     -23.099 -24.703  28.617  1.00  0.00     0.000 C 
BRANCH   2   3
ATOM      3  C   UNL     1     -24.055 -25.268  29.679  1.00  0.00     0.006 C 
BRANCH   3   4
ATOM      4  C   UNL     1     -24.483 -26.711  29.383  1.00  0.00     0.053 C 
BRANCH   4   5
ATOM      5  C   UNL     1     -25.319 -27.247  30.502  1.00  0.00     0.041 C 
ATOM      6  O   UNL     1     -25.286 -26.699  31.635  1.00  0.00    -0.550 OA
ATOM      7  O   UNL     1     -26.098 -28.381  30.308  1.00  0.00    -0.550 OA
ENDBRANCH   4   5
ENDBRANCH   3   4
ENDBRANCH   2   3
ENDBRANCH   1   2
BRANCH   1   8
ATOM      8  C   UNL     1     -22.341 -23.387  30.676  1.00  0.00     0.000 C 
BRANCH   8   9
ATOM      9  C   UNL     1     -21.966 -21.978  31.160  1.00  0.00    -0.000 C 
BRANCH   9  10
ATOM     10  C   UNL     1     -22.247 -20.932  30.074  1.00  0.00    -0.000 C 
BRANCH  10  11
ATOM     11  C   UNL     1     -21.266 -19.753  30.180  1.00  0.00    -0.000 C 
BRANCH  11  12
ATOM     12  C   UNL     1     -20.899 -19.167  28.808  1.00  0.00    -0.003 C 
ATOM     13  C   UNL     1     -20.173 -17.826  28.913  1.00  0.00     0.004 C 
ENDBRANCH  11  12
ENDBRANCH  10  11
ENDBRANCH   9  10
ENDBRANCH   8   9
ENDBRANCH   1   8
TORSDOF 9
ENDMDL
MODEL 4
REMARK VINA RESULT:    -6.228      4.617      7.641
REMARK INTER + INTRA:          -9.952
REMARK INTER:                  -9.546
REMARK INTRA:                  -0.406
REMARK UNBOUND:                -0.447
REMARK SMILES CCCCCCCCCCC(=O)[O-]
REMARK SMILES IDX 7 1 8 2 9 3 10 4 11 5 12 6 13 7 6 8 5 9 4 10 3 11 2 12 1 13
REMARK H PARENT
REMARK Flexibility Score: inf
ROOT
ATOM      1  C   UNL     1     -22.368 -22.199  31.411  1.00  0.00     0.000 C 
ENDROOT
BRANCH   1   2
ATOM      2  C   UNL     1     -22.225 -23.431  30.500  1.00  0.00     0.000 C 
BRANCH   2   3
ATOM      3  C   UNL     1     -23.124 -24.597  30.942  1.00  0.00     0.006 C 
BRANCH   3   4
ATOM      4  C   UNL     1     -23.530 -25.507  29.776  1.00  0.00     0.053 C 
BRANCH   4   5
ATOM      5  C   UNL     1     -24.963 -25.915  29.907  1.00  0.00     0.041 C 
ATOM      6  O   UNL     1     -25.746 -25.803  28.927  1.00  0.00    -0.550 OA
ATOM      7  O   UNL     1     -25.447 -26.373  31.126  1.00  0.00    -0.550 OA
ENDBRANCH   4   5
ENDBRANCH   3   4
ENDBRANCH   2   3
ENDBRANCH   1   2
BRANCH   1   8
ATOM      8  C   UNL     1     -21.992 -20.890  30.695  1.00  0.00     0.000 C 
BRANCH   8   9
ATOM      9  C   UNL     1     -22.039 -21.015  29.165  1.00  0.00    -0.000 C 
BRANCH   9  10
ATOM     10  C   UNL     1     -21.346 -19.821  28.496  1.00  0.00    -0.000 C 
BRANCH  10  11
ATOM     11  C   UNL     1     -20.573 -18.986  29.528  1.00  0.00    -0.000 C 
BRANCH  11  12
ATOM     12  C   UNL     1     -20.427 -17.515  29.106  1.00  0.00    -0.003 C 
ATOM     13  C   UNL     1     -19.017 -17.176  28.623  1.00  0.00     0.004 C 
ENDBRANCH  11  12
ENDBRANCH  10  11
ENDBRANCH   9  10
ENDBRANCH   8   9
ENDBRANCH   1   8
TORSDOF 9
ENDMDL
MODEL 5
REMARK VINA RESULT:    -6.051      4.204      7.562
REMARK INTER + INTRA:          -9.682
REMARK INTER:                  -9.371
REMARK INTRA:                  -0.310
REMARK UNBOUND:                -0.447
REMARK SMILES CCCCCCCCCCC(=O)[O-]
REMARK SMILES IDX 7 1 8 2 9 3 10 4 11 5 12 6 13 7 6 8 5 9 4 10 3 11 2 12 1 13
REMARK H PARENT
REMARK Flexibility Score: inf
ROOT
ATOM      1  C   UNL     1     -22.005 -21.020  30.529  1.00  0.00     0.000 C 
ENDROOT
BRANCH   1   2
ATOM      2  C   UNL     1     -22.588 -22.257  31.232  1.00  0.00     0.000 C 
BRANCH   2   3
ATOM      3  C   UNL     1     -22.281 -23.562  30.481  1.00  0.00     0.006 C 
BRANCH   3   4
ATOM      4  C   UNL     1     -23.110 -24.749  30.991  1.00  0.00     0.053 C 
BRANCH   4   5
ATOM      5  C   UNL     1     -23.893 -25.358  29.870  1.00  0.00     0.041 C 
ATOM      6  O   UNL     1     -23.630 -25.055  28.677  1.00  0.00    -0.550 OA
ATOM      7  O   UNL     1     -24.944 -26.223  30.146  1.00  0.00    -0.550 OA
ENDBRANCH   4   5
ENDBRANCH   3   4
ENDBRANCH   2   3
ENDBRANCH   1   2
BRANCH   1   8
ATOM      8  C   UNL     1     -20.907 -20.333  31.358  1.00  0.00     0.000 C 
BRANCH   8   9
ATOM      9  C   UNL     1     -20.522 -18.951  30.806  1.00  0.00    -0.000 C 
BRANCH   9  10
ATOM     10  C   UNL     1     -20.675 -18.908  29.281  1.00  0.00    -0.000 C 
BRANCH  10  11
ATOM     11  C   UNL     1     -20.218 -17.553  28.720  1.00  0.00    -0.000 C 
BRANCH  11  12
ATOM     12  C   UNL     1     -18.688 -17.406  28.706  1.00  0.00    -0.003 C 
ATOM     13  C   UNL     1     -18.217 -16.207  27.884  1.00  0.00     0.004 C 
ENDBRANCH  11  12
ENDBRANCH  10  11
ENDBRANCH   9  10
ENDBRANCH   8   9
ENDBRANCH   1   8
TORSDOF 9
ENDMDL
MODEL 6
REMARK VINA RESULT:    -5.925      0.960      1.788
REMARK INTER + INTRA:          -9.489
REMARK INTER:                  -9.111
REMARK INTRA:                  -0.378
REMARK UNBOUND:                -0.447
REMARK SMILES CCCCCCCCCCC(=O)[O-]
REMARK SMILES IDX 7 1 8 2 9 3 10 4 11 5 12 6 13 7 6 8 5 9 4 10 3 11 2 12 1 13
REMARK H PARENT
REMARK Flexibility Score: inf
ROOT
ATOM      1  C   UNL     1     -20.603 -18.905  30.735  1.00  0.00     0.000 C 
ENDROOT
BRANCH   1   2
ATOM      2  C   UNL     1     -20.835 -18.921  29.214  1.00  0.00     0.000 C 
BRANCH   2   3
ATOM      3  C   UNL     1     -20.131 -17.757  28.499  1.00  0.00     0.006 C 
BRANCH   3   4
ATOM      4  C   UNL     1     -18.620 -17.729  28.759  1.00  0.00     0.053 C 
BRANCH   4   5
ATOM      5  C   UNL     1     -18.186 -16.357  29.168  1.00  0.00     0.041 C 
ATOM      6  O   UNL     1     -17.748 -15.549  28.308  1.00  0.00    -0.550 OA
ATOM      7  O   UNL     1     -18.221 -15.986  30.507  1.00  0.00    -0.550 OA
ENDBRANCH   4   5
ENDBRANCH   3   4
ENDBRANCH   2   3
ENDBRANCH   1   2
BRANCH   1   8
ATOM      8  C   UNL     1     -20.924 -20.257  31.394  1.00  0.00     0.000 C 
BRANCH   8   9
ATOM      9  C   UNL     1     -22.001 -21.048  30.635  1.00  0.00    -0.000 C 
BRANCH   9  10
ATOM     10  C   UNL     1     -22.190 -22.442  31.246  1.00  0.00    -0.000 C 
BRANCH  10  11
ATOM     11  C   UNL     1     -22.240 -23.519  30.152  1.00  0.00    -0.000 C 
BRANCH  11  12
ATOM     12  C   UNL     1     -23.088 -24.735  30.559  1.00  0.00    -0.003 C 
ATOM     13  C   UNL     1     -23.623 -25.511  29.356  1.00  0.00     0.004 C 
ENDBRANCH  11  12
ENDBRANCH  10  11
ENDBRANCH   9  10
ENDBRANCH   8   9
ENDBRANCH   1   8
TORSDOF 9
ENDMDL
MODEL 7
REMARK VINA RESULT:    -5.861      5.483      8.400
REMARK INTER + INTRA:          -9.392
REMARK INTER:                  -8.982
REMARK INTRA:                  -0.410
REMARK UNBOUND:                -0.447
REMARK SMILES CCCCCCCCCCC(=O)[O-]
REMARK SMILES IDX 7 1 8 2 9 3 10 4 11 5 12 6 13 7 6 8 5 9 4 10 3 11 2 12 1 13
REMARK H PARENT
REMARK Flexibility Score: inf
ROOT
ATOM      1  C   UNL     1     -23.989 -24.996  30.790  1.00  0.00     0.000 C 
ENDROOT
BRANCH   1   2
ATOM      2  C   UNL     1     -23.197 -25.429  29.544  1.00  0.00     0.000 C 
BRANCH   2   3
ATOM      3  C   UNL     1     -23.983 -26.406  28.656  1.00  0.00     0.006 C 
BRANCH   3   4
ATOM      4  C   UNL     1     -25.491 -26.380  28.937  1.00  0.00     0.053 C 
BRANCH   4   5
ATOM      5  C   UNL     1     -25.995 -27.763  29.205  1.00  0.00     0.041 C 
ATOM      6  O   UNL     1     -26.017 -28.211  30.382  1.00  0.00    -0.550 OA
ATOM      7  O   UNL     1     -26.396 -28.574  28.151  1.00  0.00    -0.550 OA
ENDBRANCH   4   5
ENDBRANCH   3   4
ENDBRANCH   2   3
ENDBRANCH   1   2
BRANCH   1   8
ATOM      8  C   UNL     1     -23.309 -23.846  31.552  1.00  0.00     0.000 C 
BRANCH   8   9
ATOM      9  C   UNL     1     -22.207 -23.159  30.731  1.00  0.00    -0.000 C 
BRANCH   9  10
ATOM     10  C   UNL     1     -21.966 -21.727  31.225  1.00  0.00    -0.000 C 
BRANCH  10  11
ATOM     11  C   UNL     1     -22.086 -20.720  30.071  1.00  0.00    -0.000 C 
BRANCH  11  12
ATOM     12  C   UNL     1     -21.103 -19.546  30.209  1.00  0.00    -0.003 C 
ATOM     13  C   UNL     1     -20.795 -18.874  28.872  1.00  0.00     0.004 C 
ENDBRANCH  11  12
ENDBRANCH  10  11
ENDBRANCH   9  10
ENDBRANCH   8   9
ENDBRANCH   1   8
TORSDOF 9
ENDMDL
MODEL 8
REMARK VINA RESULT:    -5.690      1.899      3.461
REMARK INTER + INTRA:          -9.131
REMARK INTER:                  -8.723
REMARK INTRA:                  -0.408
REMARK UNBOUND:                -0.447
REMARK SMILES CCCCCCCCCCC(=O)[O-]
REMARK SMILES IDX 7 1 8 2 9 3 10 4 11 5 12 6 13 7 6 8 5 9 4 10 3 11 2 12 1 13
REMARK H PARENT
REMARK Flexibility Score: inf
ROOT
ATOM      1  C   UNL     1     -22.346 -23.506  30.632  1.00  0.00     0.000 C 
ENDROOT
BRANCH   1   2
ATOM      2  C   UNL     1     -22.292 -23.271  29.113  1.00  0.00     0.000 C 
BRANCH   2   3
ATOM      3  C   UNL     1     -22.113 -21.787  28.752  1.00  0.00     0.006 C 
BRANCH   3   4
ATOM      4  C   UNL     1     -22.050 -20.881  29.989  1.00  0.00     0.053 C 
BRANCH   4   5
ATOM      5  C   UNL     1     -21.262 -19.645  29.689  1.00  0.00     0.041 C 
ATOM      6  O   UNL     1     -20.829 -18.927  30.628  1.00  0.00    -0.550 OA
ATOM      7  O   UNL     1     -21.046 -19.260  28.372  1.00  0.00    -0.550 OA
ENDBRANCH   4   5
ENDBRANCH   3   4
ENDBRANCH   2   3
ENDBRANCH   1   2
BRANCH   1   8
ATOM      8  C   UNL     1     -23.148 -24.765  31.005  1.00  0.00     0.000 C 
BRANCH   8   9
ATOM      9  C   UNL     1     -23.746 -25.473  29.780  1.00  0.00    -0.000 C 
BRANCH   9  10
ATOM     10  C   UNL     1     -25.191 -25.911  30.052  1.00  0.00    -0.000 C 
BRANCH  10  11
ATOM     11  C   UNL     1     -25.911 -26.271  28.743  1.00  0.00    -0.000 C 
BRANCH  11  12
ATOM     12  C   UNL     1     -25.455 -27.622  28.171  1.00  0.00    -0.003 C 
ATOM     13  C   UNL     1     -26.579 -28.371  27.456  1.00  0.00     0.004 C 
ENDBRANCH  11  12
ENDBRANCH  10  11
ENDBRANCH   9  10
ENDBRANCH   8   9
ENDBRANCH   1   8
TORSDOF 9
ENDMDL
MODEL 9
REMARK VINA RESULT:    -5.529      3.257      5.467
REMARK INTER + INTRA:          -8.885
REMARK INTER:                  -8.449
REMARK INTRA:                  -0.436
REMARK UNBOUND:                -0.447
REMARK SMILES CCCCCCCCCCC(=O)[O-]
REMARK SMILES IDX 7 1 8 2 9 3 10 4 11 5 12 6 13 7 6 8 5 9 4 10 3 11 2 12 1 13
REMARK H PARENT
REMARK Flexibility Score: inf
ROOT
ATOM      1  C   UNL     1     -24.130 -25.285  31.235  1.00  0.00     0.000 C 
ENDROOT
BRANCH   1   2
ATOM      2  C   UNL     1     -23.409 -25.108  29.888  1.00  0.00     0.000 C 
BRANCH   2   3
ATOM      3  C   UNL     1     -22.469 -23.892  29.878  1.00  0.00     0.006 C 
BRANCH   3   4
ATOM      4  C   UNL     1     -22.553 -23.067  31.169  1.00  0.00     0.053 C 
BRANCH   4   5
ATOM      5  C   UNL     1     -21.928 -21.722  30.970  1.00  0.00     0.041 C 
ATOM      6  O   UNL     1     -21.028 -21.321  31.754  1.00  0.00    -0.550 OA
ATOM      7  O   UNL     1     -22.372 -20.893  29.948  1.00  0.00    -0.550 OA
ENDBRANCH   4   5
ENDBRANCH   3   4
ENDBRANCH   2   3
ENDBRANCH   1   2
BRANCH   1   8
ATOM      8  C   UNL     1     -25.317 -26.258  31.146  1.00  0.00     0.000 C 
BRANCH   8   9
ATOM      9  C   UNL     1     -25.312 -27.084  29.850  1.00  0.00    -0.000 C 
BRANCH   9  10
ATOM     10  C   UNL     1     -26.077 -28.400  30.036  1.00  0.00    -0.000 C 
BRANCH  10  11
ATOM     11  C   UNL     1     -26.802 -28.802  28.741  1.00  0.00    -0.000 C 
BRANCH  11  12
ATOM     12  C   UNL     1     -26.210 -28.119  27.498  1.00  0.00    -0.003 C 
ATOM     13  C   UNL     1     -26.875 -28.577  26.200  1.00  0.00     0.004 C 
ENDBRANCH  11  12
ENDBRANCH  10  11
ENDBRANCH   9  10
ENDBRANCH   8   9
ENDBRANCH   1   8
TORSDOF 9
ENDMDL
