MODEL 1
REMARK VINA RESULT:    -8.620      0.000      0.000
REMARK INTER + INTRA:         -12.270
REMARK INTER:                 -11.391
REMARK INTRA:                  -0.879
REMARK UNBOUND:                -0.879
REMARK SMILES C=C(CC[C@@H](C)[C@@H]1CC[C@]2(C)[C@H]3CC[C@H]4C(C)(C)[C@H](O)CC[C@@]45C[C@@]35CC[C@]12C)C(C)C
REMARK SMILES IDX 4 1 3 2 2 3 1 4 30 5 31 6 32 7 5 8 6 9 7 10 8 11 28 12 9 13
REMARK SMILES IDX 10 14 27 15 29 16 11 17 12 18 26 19 25 20 13 21 23 22 24 23
REMARK SMILES IDX 14 24 15 25 22 26 16 27 21 28 19 29 17 30 18 31 20 32
REMARK H PARENT 20 33
REMARK Flexibility Score: inf
ROOT
ATOM      1  C   UNL     1     120.203 130.485 129.751  1.00  0.00     0.008 C 
ENDROOT
BRANCH   1   2
ATOM      2  C   UNL     1     119.869 131.986 129.824  1.00  0.00     0.031 C 
BRANCH   2   3
ATOM      3  C   UNL     1     121.129 132.825 129.872  1.00  0.00    -0.075 C 
ATOM      4  C   UNL     1     122.328 132.216 129.782  1.00  0.00     0.008 C 
BRANCH   3   5
ATOM      5  C   UNL     1     121.025 134.338 130.007  1.00  0.00     0.008 C 
ATOM      6  C   UNL     1     121.834 134.845 131.207  1.00  0.00     0.012 C 
ATOM      7  C   UNL     1     119.561 134.791 130.095  1.00  0.00     0.012 C 
ENDBRANCH   3   5
ENDBRANCH   2   3
ENDBRANCH   1   2
BRANCH   1   8
ATOM      8  C   UNL     1     119.687 129.685 130.984  1.00  0.00    -0.010 C 
ATOM      9  C   UNL     1     119.697 130.527 132.270  1.00  0.00     0.008 C 
BRANCH   8  10
ATOM     10  C   UNL     1     118.343 128.879 130.793  1.00  0.00    -0.002 C 
ATOM     11  C   UNL     1     117.471 128.867 132.042  1.00  0.00     0.005 C 
ATOM     12  C   UNL     1     118.298 127.404 130.260  1.00  0.00    -0.024 C 
ATOM     13  C   UNL     1     116.312 127.946 131.718  1.00  0.00     0.008 C 
ATOM     14  C   UNL     1     116.804 126.933 130.636  1.00  0.00    -0.024 C 
ATOM     15  C   UNL     1     119.376 126.512 130.966  1.00  0.00     0.008 C 
ATOM     16  C   UNL     1     118.587 127.365 128.729  1.00  0.00     0.012 C 
ATOM     17  C   UNL     1     115.822 127.046 129.430  1.00  0.00     0.012 C 
ATOM     18  C   UNL     1     116.787 125.477 131.241  1.00  0.00     0.002 C 
ATOM     19  C   UNL     1     119.266 125.004 130.641  1.00  0.00     0.008 C 
ATOM     20  C   UNL     1     117.794 124.559 130.505  1.00  0.00    -0.020 C 
ATOM     21  C   UNL     1     115.400 124.879 131.623  1.00  0.00     0.005 C 
ATOM     22  C   UNL     1     117.434 123.070 130.348  1.00  0.00    -0.020 C 
ATOM     23  C   UNL     1     117.471 123.975 129.115  1.00  0.00     0.015 C 
ATOM     24  C   UNL     1     114.951 123.698 130.771  1.00  0.00     0.005 C 
ATOM     25  C   UNL     1     116.021 122.575 130.758  1.00  0.00     0.004 C 
ATOM     26  C   UNL     1     118.585 122.045 130.485  1.00  0.00     0.010 C 
ATOM     27  C   UNL     1     115.599 121.266 129.963  1.00  0.00    -0.006 C 
ATOM     28  C   UNL     1     118.067 120.601 130.421  1.00  0.00     0.033 C 
ATOM     29  C   UNL     1     116.869 120.482 129.455  1.00  0.00     0.120 C 
ATOM     30  C   UNL     1     114.728 121.590 128.722  1.00  0.00     0.014 C 
ATOM     31  C   UNL     1     114.751 120.373 130.906  1.00  0.00     0.014 C 
BRANCH  29  32
ATOM     32  O   UNL     1     116.581 119.134 129.161  1.00  0.00    -0.393 OA
ATOM     33  H   UNL     1     116.044 119.105 128.326  1.00  0.00     0.210 HD
ENDBRANCH  29  32
ENDBRANCH   8  10
ENDBRANCH   1   8
TORSDOF 6
ENDMDL
MODEL 2
REMARK VINA RESULT:    -8.207      1.358      2.836
REMARK INTER + INTRA:         -11.725
REMARK INTER:                 -11.568
REMARK INTRA:                  -0.157
REMARK UNBOUND:                -0.879
REMARK SMILES C=C(CC[C@@H](C)[C@@H]1CC[C@]2(C)[C@H]3CC[C@H]4C(C)(C)[C@H](O)CC[C@@]45C[C@@]35CC[C@]12C)C(C)C
REMARK SMILES IDX 4 1 3 2 2 3 1 4 30 5 31 6 32 7 5 8 6 9 7 10 8 11 28 12 9 13
REMARK SMILES IDX 10 14 27 15 29 16 11 17 12 18 26 19 25 20 13 21 23 22 24 23
REMARK SMILES IDX 14 24 15 25 22 26 16 27 21 28 19 29 17 30 18 31 20 32
REMARK H PARENT 20 33
REMARK Flexibility Score: inf
ROOT
ATOM      1  C   UNL     1     120.510 130.052 130.282  1.00  0.00     0.008 C 
ENDROOT
BRANCH   1   2
ATOM      2  C   UNL     1     120.571 131.337 131.129  1.00  0.00     0.031 C 
BRANCH   2   3
ATOM      3  C   UNL     1     120.394 132.569 130.267  1.00  0.00    -0.075 C 
ATOM      4  C   UNL     1     119.163 132.892 129.826  1.00  0.00     0.008 C 
BRANCH   3   5
ATOM      5  C   UNL     1     121.602 133.429 129.923  1.00  0.00     0.008 C 
ATOM      6  C   UNL     1     122.851 132.567 129.699  1.00  0.00     0.012 C 
ATOM      7  C   UNL     1     121.852 134.497 130.997  1.00  0.00     0.012 C 
ENDBRANCH   3   5
ENDBRANCH   2   3
ENDBRANCH   1   2
BRANCH   1   8
ATOM      8  C   UNL     1     119.528 128.989 130.858  1.00  0.00    -0.010 C 
ATOM      9  C   UNL     1     118.156 129.590 131.203  1.00  0.00     0.008 C 
BRANCH   8  10
ATOM     10  C   UNL     1     119.416 127.627 130.067  1.00  0.00    -0.002 C 
ATOM     11  C   UNL     1     118.924 127.806 128.637  1.00  0.00     0.005 C 
ATOM     12  C   UNL     1     118.627 126.385 130.609  1.00  0.00    -0.024 C 
ATOM     13  C   UNL     1     118.751 126.403 128.090  1.00  0.00     0.008 C 
ATOM     14  C   UNL     1     118.480 125.456 129.301  1.00  0.00    -0.024 C 
ATOM     15  C   UNL     1     117.227 126.804 131.176  1.00  0.00     0.008 C 
ATOM     16  C   UNL     1     119.414 125.696 131.765  1.00  0.00     0.012 C 
ATOM     17  C   UNL     1     119.556 124.329 129.245  1.00  0.00     0.012 C 
ATOM     18  C   UNL     1     117.028 124.854 129.175  1.00  0.00     0.002 C 
ATOM     19  C   UNL     1     116.310 125.616 131.547  1.00  0.00     0.008 C 
ATOM     20  C   UNL     1     116.477 124.440 130.561  1.00  0.00    -0.020 C 
ATOM     21  C   UNL     1     116.750 123.908 127.968  1.00  0.00     0.005 C 
ATOM     22  C   UNL     1     115.546 123.215 130.634  1.00  0.00    -0.020 C 
ATOM     23  C   UNL     1     116.945 123.142 131.250  1.00  0.00     0.015 C 
ATOM     24  C   UNL     1     116.487 122.453 128.337  1.00  0.00     0.005 C 
ATOM     25  C   UNL     1     115.338 122.335 129.373  1.00  0.00     0.004 C 
ATOM     26  C   UNL     1     114.360 123.285 131.625  1.00  0.00     0.010 C 
ATOM     27  C   UNL     1     114.936 120.845 129.750  1.00  0.00    -0.006 C 
ATOM     28  C   UNL     1     113.455 122.050 131.510  1.00  0.00     0.033 C 
ATOM     29  C   UNL     1     114.276 120.786 131.182  1.00  0.00     0.120 C 
ATOM     30  C   UNL     1     116.161 119.894 129.766  1.00  0.00     0.014 C 
ATOM     31  C   UNL     1     113.951 120.316 128.676  1.00  0.00     0.014 C 
BRANCH  29  32
ATOM     32  O   UNL     1     113.513 119.616 131.369  1.00  0.00    -0.393 OA
ATOM     33  H   UNL     1     112.961 119.732 132.186  1.00  0.00     0.210 HD
ENDBRANCH  29  32
ENDBRANCH   8  10
ENDBRANCH   1   8
TORSDOF 6
ENDMDL
MODEL 3
REMARK VINA RESULT:    -7.527      2.665      3.702
REMARK INTER + INTRA:         -10.826
REMARK INTER:                  -9.863
REMARK INTRA:                  -0.963
REMARK UNBOUND:                -0.879
REMARK SMILES C=C(CC[C@@H](C)[C@@H]1CC[C@]2(C)[C@H]3CC[C@H]4C(C)(C)[C@H](O)CC[C@@]45C[C@@]35CC[C@]12C)C(C)C
REMARK SMILES IDX 4 1 3 2 2 3 1 4 30 5 31 6 32 7 5 8 6 9 7 10 8 11 28 12 9 13
REMARK SMILES IDX 10 14 27 15 29 16 11 17 12 18 26 19 25 20 13 21 23 22 24 23
REMARK SMILES IDX 14 24 15 25 22 26 16 27 21 28 19 29 17 30 18 31 20 32
REMARK H PARENT 20 33
REMARK Flexibility Score: inf
ROOT
ATOM      1  C   UNL     1     118.106 129.920 131.356  1.00  0.00     0.008 C 
ENDROOT
BRANCH   1   2
ATOM      2  C   UNL     1     119.383 130.499 131.995  1.00  0.00     0.031 C 
BRANCH   2   3
ATOM      3  C   UNL     1     120.401 130.873 130.939  1.00  0.00    -0.075 C 
ATOM      4  C   UNL     1     120.937 129.905 130.170  1.00  0.00     0.008 C 
BRANCH   3   5
ATOM      5  C   UNL     1     120.793 132.332 130.752  1.00  0.00     0.008 C 
ATOM      6  C   UNL     1     119.640 133.144 130.150  1.00  0.00     0.012 C 
ATOM      7  C   UNL     1     122.065 132.465 129.903  1.00  0.00     0.012 C 
ENDBRANCH   3   5
ENDBRANCH   2   3
ENDBRANCH   1   2
BRANCH   1   8
ATOM      8  C   UNL     1     117.731 128.514 131.910  1.00  0.00    -0.010 C 
ATOM      9  C   UNL     1     116.743 128.594 133.085  1.00  0.00     0.008 C 
BRANCH   8  10
ATOM     10  C   UNL     1     117.328 127.419 130.846  1.00  0.00    -0.002 C 
ATOM     11  C   UNL     1     116.376 126.368 131.403  1.00  0.00     0.005 C 
ATOM     12  C   UNL     1     118.380 126.605 130.015  1.00  0.00    -0.024 C 
ATOM     13  C   UNL     1     116.214 125.343 130.299  1.00  0.00     0.008 C 
ATOM     14  C   UNL     1     117.503 125.391 129.419  1.00  0.00    -0.024 C 
ATOM     15  C   UNL     1     119.541 126.079 130.927  1.00  0.00     0.008 C 
ATOM     16  C   UNL     1     119.018 127.500 128.911  1.00  0.00     0.012 C 
ATOM     17  C   UNL     1     117.041 125.652 127.953  1.00  0.00     0.012 C 
ATOM     18  C   UNL     1     118.263 124.014 129.533  1.00  0.00     0.002 C 
ATOM     19  C   UNL     1     120.512 125.104 130.222  1.00  0.00     0.008 C 
ATOM     20  C   UNL     1     119.771 124.185 129.228  1.00  0.00    -0.020 C 
ATOM     21  C   UNL     1     117.543 122.753 128.966  1.00  0.00     0.005 C 
ATOM     22  C   UNL     1     120.505 123.023 128.534  1.00  0.00    -0.020 C 
ATOM     23  C   UNL     1     120.279 124.335 127.780  1.00  0.00     0.015 C 
ATOM     24  C   UNL     1     118.199 122.134 127.738  1.00  0.00     0.005 C 
ATOM     25  C   UNL     1     119.693 121.811 128.002  1.00  0.00     0.004 C 
ATOM     26  C   UNL     1     121.955 122.730 128.988  1.00  0.00     0.010 C 
ATOM     27  C   UNL     1     120.436 121.082 126.802  1.00  0.00    -0.006 C 
ATOM     28  C   UNL     1     122.521 121.481 128.297  1.00  0.00     0.033 C 
ATOM     29  C   UNL     1     121.989 121.352 126.855  1.00  0.00     0.120 C 
ATOM     30  C   UNL     1     119.929 121.565 125.419  1.00  0.00     0.014 C 
ATOM     31  C   UNL     1     120.146 119.562 126.898  1.00  0.00     0.014 C 
BRANCH  29  32
ATOM     32  O   UNL     1     122.721 120.396 126.122  1.00  0.00    -0.393 OA
ATOM     33  H   UNL     1     122.848 119.595 126.695  1.00  0.00     0.210 HD
ENDBRANCH  29  32
ENDBRANCH   8  10
ENDBRANCH   1   8
TORSDOF 6
ENDMDL
MODEL 4
REMARK VINA RESULT:    -7.523      4.462      8.324
REMARK INTER + INTRA:         -10.821
REMARK INTER:                  -9.202
REMARK INTRA:                  -1.619
REMARK UNBOUND:                -0.879
REMARK SMILES C=C(CC[C@@H](C)[C@@H]1CC[C@]2(C)[C@H]3CC[C@H]4C(C)(C)[C@H](O)CC[C@@]45C[C@@]35CC[C@]12C)C(C)C
REMARK SMILES IDX 4 1 3 2 2 3 1 4 30 5 31 6 32 7 5 8 6 9 7 10 8 11 28 12 9 13
REMARK SMILES IDX 10 14 27 15 29 16 11 17 12 18 26 19 25 20 13 21 23 22 24 23
REMARK SMILES IDX 14 24 15 25 22 26 16 27 21 28 19 29 17 30 18 31 20 32
REMARK H PARENT 20 33
REMARK Flexibility Score: inf
ROOT
ATOM      1  C   UNL     1     115.234 124.172 131.656  1.00  0.00     0.008 C 
ENDROOT
BRANCH   1   2
ATOM      2  C   UNL     1     114.209 123.723 130.598  1.00  0.00     0.031 C 
BRANCH   2   3
ATOM      3  C   UNL     1     113.914 122.242 130.717  1.00  0.00    -0.075 C 
ATOM      4  C   UNL     1     113.803 121.690 131.940  1.00  0.00     0.008 C 
BRANCH   3   5
ATOM      5  C   UNL     1     113.736 121.404 129.458  1.00  0.00     0.008 C 
ATOM      6  C   UNL     1     114.382 120.022 129.615  1.00  0.00     0.012 C 
ATOM      7  C   UNL     1     114.279 122.132 128.221  1.00  0.00     0.012 C 
ENDBRANCH   3   5
ENDBRANCH   2   3
ENDBRANCH   1   2
BRANCH   1   8
ATOM      8  C   UNL     1     116.381 125.041 131.062  1.00  0.00    -0.010 C 
ATOM      9  C   UNL     1     116.433 126.444 131.688  1.00  0.00     0.008 C 
BRANCH   8  10
ATOM     10  C   UNL     1     117.803 124.364 130.962  1.00  0.00    -0.002 C 
ATOM     11  C   UNL     1     118.948 125.366 131.030  1.00  0.00     0.005 C 
ATOM     12  C   UNL     1     118.203 123.378 129.810  1.00  0.00    -0.024 C 
ATOM     13  C   UNL     1     120.207 124.560 130.783  1.00  0.00     0.008 C 
ATOM     14  C   UNL     1     119.808 123.310 129.937  1.00  0.00    -0.024 C 
ATOM     15  C   UNL     1     117.761 123.930 128.411  1.00  0.00     0.008 C 
ATOM     16  C   UNL     1     117.513 121.995 130.007  1.00  0.00     0.012 C 
ATOM     17  C   UNL     1     120.291 122.056 130.726  1.00  0.00     0.012 C 
ATOM     18  C   UNL     1     120.508 123.392 128.526  1.00  0.00     0.002 C 
ATOM     19  C   UNL     1     118.291 123.115 127.209  1.00  0.00     0.008 C 
ATOM     20  C   UNL     1     119.717 122.584 127.468  1.00  0.00    -0.020 C 
ATOM     21  C   UNL     1     122.063 123.307 128.495  1.00  0.00     0.005 C 
ATOM     22  C   UNL     1     120.512 121.888 126.347  1.00  0.00    -0.020 C 
ATOM     23  C   UNL     1     119.804 121.046 127.411  1.00  0.00     0.015 C 
ATOM     24  C   UNL     1     122.627 122.050 127.844  1.00  0.00     0.005 C 
ATOM     25  C   UNL     1     122.063 121.857 126.412  1.00  0.00     0.004 C 
ATOM     26  C   UNL     1     119.885 121.881 124.933  1.00  0.00     0.010 C 
ATOM     27  C   UNL     1     122.664 120.617 125.624  1.00  0.00    -0.006 C 
ATOM     28  C   UNL     1     120.832 121.257 123.898  1.00  0.00     0.033 C 
ATOM     29  C   UNL     1     121.659 120.111 124.518  1.00  0.00     0.120 C 
ATOM     30  C   UNL     1     122.965 119.418 126.559  1.00  0.00     0.014 C 
ATOM     31  C   UNL     1     124.006 121.050 124.978  1.00  0.00     0.014 C 
BRANCH  29  32
ATOM     32  O   UNL     1     122.300 119.345 123.524  1.00  0.00    -0.393 OA
ATOM     33  H   UNL     1     122.468 119.931 122.740  1.00  0.00     0.210 HD
ENDBRANCH  29  32
ENDBRANCH   8  10
ENDBRANCH   1   8
TORSDOF 6
ENDMDL
MODEL 5
REMARK VINA RESULT:    -7.377      5.322      9.086
REMARK INTER + INTRA:         -10.628
REMARK INTER:                  -9.083
REMARK INTRA:                  -1.545
REMARK UNBOUND:                -0.879
REMARK SMILES C=C(CC[C@@H](C)[C@@H]1CC[C@]2(C)[C@H]3CC[C@H]4C(C)(C)[C@H](O)CC[C@@]45C[C@@]35CC[C@]12C)C(C)C
REMARK SMILES IDX 4 1 3 2 2 3 1 4 30 5 31 6 32 7 5 8 6 9 7 10 8 11 28 12 9 13
REMARK SMILES IDX 10 14 27 15 29 16 11 17 12 18 26 19 25 20 13 21 23 22 24 23
REMARK SMILES IDX 14 24 15 25 22 26 16 27 21 28 19 29 17 30 18 31 20 32
REMARK H PARENT 20 33
REMARK Flexibility Score: inf
ROOT
ATOM      1  C   UNL     1     114.126 120.196 129.899  1.00  0.00     0.008 C 
ENDROOT
BRANCH   1   2
ATOM      2  C   UNL     1     114.732 120.682 128.569  1.00  0.00     0.031 C 
BRANCH   2   3
ATOM      3  C   UNL     1     114.393 122.136 128.313  1.00  0.00    -0.075 C 
ATOM      4  C   UNL     1     115.375 123.057 128.353  1.00  0.00     0.008 C 
BRANCH   3   5
ATOM      5  C   UNL     1     112.956 122.533 128.001  1.00  0.00     0.008 C 
ATOM      6  C   UNL     1     112.712 122.590 126.488  1.00  0.00     0.012 C 
ATOM      7  C   UNL     1     112.586 123.862 128.672  1.00  0.00     0.012 C 
ENDBRANCH   3   5
ENDBRANCH   2   3
ENDBRANCH   1   2
BRANCH   1   8
ATOM      8  C   UNL     1     114.541 121.077 131.115  1.00  0.00    -0.010 C 
ATOM      9  C   UNL     1     113.357 121.380 132.047  1.00  0.00     0.008 C 
BRANCH   8  10
ATOM     10  C   UNL     1     115.838 120.634 131.900  1.00  0.00    -0.002 C 
ATOM     11  C   UNL     1     115.702 120.786 133.410  1.00  0.00     0.005 C 
ATOM     12  C   UNL     1     117.268 121.185 131.569  1.00  0.00    -0.024 C 
ATOM     13  C   UNL     1     117.068 120.450 133.974  1.00  0.00     0.008 C 
ATOM     14  C   UNL     1     118.124 120.760 132.866  1.00  0.00    -0.024 C 
ATOM     15  C   UNL     1     117.248 122.741 131.381  1.00  0.00     0.008 C 
ATOM     16  C   UNL     1     117.806 120.559 130.247  1.00  0.00     0.012 C 
ATOM     17  C   UNL     1     118.940 119.451 132.640  1.00  0.00     0.012 C 
ATOM     18  C   UNL     1     119.062 121.930 133.355  1.00  0.00     0.002 C 
ATOM     19  C   UNL     1     118.647 123.384 131.248  1.00  0.00     0.008 C 
ATOM     20  C   UNL     1     119.683 122.681 132.152  1.00  0.00    -0.020 C 
ATOM     21  C   UNL     1     119.973 121.647 134.587  1.00  0.00     0.005 C 
ATOM     22  C   UNL     1     121.104 123.253 132.312  1.00  0.00    -0.020 C 
ATOM     23  C   UNL     1     120.861 122.081 131.359  1.00  0.00     0.015 C 
ATOM     24  C   UNL     1     121.467 121.609 134.289  1.00  0.00     0.005 C 
ATOM     25  C   UNL     1     121.931 122.908 133.580  1.00  0.00     0.004 C 
ATOM     26  C   UNL     1     121.393 124.624 131.657  1.00  0.00     0.010 C 
ATOM     27  C   UNL     1     123.494 122.993 133.308  1.00  0.00    -0.006 C 
ATOM     28  C   UNL     1     122.806 125.124 131.991  1.00  0.00     0.033 C 
ATOM     29  C   UNL     1     123.802 123.950 132.092  1.00  0.00     0.120 C 
ATOM     30  C   UNL     1     124.107 121.609 132.976  1.00  0.00     0.014 C 
ATOM     31  C   UNL     1     124.187 123.512 134.595  1.00  0.00     0.014 C 
BRANCH  29  32
ATOM     32  O   UNL     1     125.135 124.408 132.098  1.00  0.00    -0.393 OA
ATOM     33  H   UNL     1     125.730 123.639 131.896  1.00  0.00     0.210 HD
ENDBRANCH  29  32
ENDBRANCH   8  10
ENDBRANCH   1   8
TORSDOF 6
ENDMDL
MODEL 6
REMARK VINA RESULT:    -7.367      5.088      6.959
REMARK INTER + INTRA:         -10.615
REMARK INTER:                  -8.413
REMARK INTRA:                  -2.202
REMARK UNBOUND:                -0.879
REMARK SMILES C=C(CC[C@@H](C)[C@@H]1CC[C@]2(C)[C@H]3CC[C@H]4C(C)(C)[C@H](O)CC[C@@]45C[C@@]35CC[C@]12C)C(C)C
REMARK SMILES IDX 4 1 3 2 2 3 1 4 30 5 31 6 32 7 5 8 6 9 7 10 8 11 28 12 9 13
REMARK SMILES IDX 10 14 27 15 29 16 11 17 12 18 26 19 25 20 13 21 23 22 24 23
REMARK SMILES IDX 14 24 15 25 22 26 16 27 21 28 19 29 17 30 18 31 20 32
REMARK H PARENT 20 33
REMARK Flexibility Score: inf
ROOT
ATOM      1  C   UNL     1     124.981 122.512 131.938  1.00  0.00     0.008 C 
ENDROOT
BRANCH   1   2
ATOM      2  C   UNL     1     124.748 121.676 130.666  1.00  0.00     0.031 C 
BRANCH   2   3
ATOM      3  C   UNL     1     124.952 122.511 129.418  1.00  0.00    -0.075 C 
ATOM      4  C   UNL     1     125.944 123.422 129.393  1.00  0.00     0.008 C 
BRANCH   3   5
ATOM      5  C   UNL     1     124.048 122.300 128.212  1.00  0.00     0.008 C 
ATOM      6  C   UNL     1     123.195 123.544 127.934  1.00  0.00     0.012 C 
ATOM      7  C   UNL     1     123.168 121.054 128.384  1.00  0.00     0.012 C 
ENDBRANCH   3   5
ENDBRANCH   2   3
ENDBRANCH   1   2
BRANCH   1   8
ATOM      8  C   UNL     1     123.663 123.074 132.548  1.00  0.00    -0.010 C 
ATOM      9  C   UNL     1     123.878 124.416 133.265  1.00  0.00     0.008 C 
BRANCH   8  10
ATOM     10  C   UNL     1     122.395 123.081 131.607  1.00  0.00    -0.002 C 
ATOM     11  C   UNL     1     121.885 124.484 131.302  1.00  0.00     0.005 C 
ATOM     12  C   UNL     1     121.103 122.243 131.905  1.00  0.00    -0.024 C 
ATOM     13  C   UNL     1     120.606 124.288 130.515  1.00  0.00     0.008 C 
ATOM     14  C   UNL     1     120.014 122.900 130.916  1.00  0.00    -0.024 C 
ATOM     15  C   UNL     1     120.671 122.379 133.405  1.00  0.00     0.008 C 
ATOM     16  C   UNL     1     121.353 120.731 131.624  1.00  0.00     0.012 C 
ATOM     17  C   UNL     1     119.836 122.086 129.599  1.00  0.00     0.012 C 
ATOM     18  C   UNL     1     118.627 123.115 131.637  1.00  0.00     0.002 C 
ATOM     19  C   UNL     1     119.300 121.744 133.733  1.00  0.00     0.008 C 
ATOM     20  C   UNL     1     118.299 121.926 132.572  1.00  0.00    -0.020 C 
ATOM     21  C   UNL     1     117.468 123.717 130.788  1.00  0.00     0.005 C 
ATOM     22  C   UNL     1     116.822 121.522 132.737  1.00  0.00    -0.020 C 
ATOM     23  C   UNL     1     117.787 120.585 132.007  1.00  0.00     0.015 C 
ATOM     24  C   UNL     1     116.307 122.768 130.518  1.00  0.00     0.005 C 
ATOM     25  C   UNL     1     115.741 122.182 131.838  1.00  0.00     0.004 C 
ATOM     26  C   UNL     1     116.363 121.076 134.146  1.00  0.00     0.010 C 
ATOM     27  C   UNL     1     114.470 121.247 131.658  1.00  0.00    -0.006 C 
ATOM     28  C   UNL     1     114.850 120.814 134.190  1.00  0.00     0.033 C 
ATOM     29  C   UNL     1     114.347 120.227 132.855  1.00  0.00     0.120 C 
ATOM     30  C   UNL     1     114.532 120.419 130.349  1.00  0.00     0.014 C 
ATOM     31  C   UNL     1     113.208 122.146 131.580  1.00  0.00     0.014 C 
BRANCH  29  32
ATOM     32  O   UNL     1     113.042 119.709 132.983  1.00  0.00    -0.393 OA
ATOM     33  H   UNL     1     112.848 119.154 132.183  1.00  0.00     0.210 HD
ENDBRANCH  29  32
ENDBRANCH   8  10
ENDBRANCH   1   8
TORSDOF 6
ENDMDL
MODEL 7
REMARK VINA RESULT:    -7.118      4.112      9.693
REMARK INTER + INTRA:         -10.285
REMARK INTER:                  -8.451
REMARK INTRA:                  -1.834
REMARK UNBOUND:                -0.879
REMARK SMILES C=C(CC[C@@H](C)[C@@H]1CC[C@]2(C)[C@H]3CC[C@H]4C(C)(C)[C@H](O)CC[C@@]45C[C@@]35CC[C@]12C)C(C)C
REMARK SMILES IDX 4 1 3 2 2 3 1 4 30 5 31 6 32 7 5 8 6 9 7 10 8 11 28 12 9 13
REMARK SMILES IDX 10 14 27 15 29 16 11 17 12 18 26 19 25 20 13 21 23 22 24 23
REMARK SMILES IDX 14 24 15 25 22 26 16 27 21 28 19 29 17 30 18 31 20 32
REMARK H PARENT 20 33
REMARK Flexibility Score: inf
ROOT
ATOM      1  C   UNL     1     119.120 116.561 128.707  1.00  0.00     0.008 C 
ENDROOT
BRANCH   1   2
ATOM      2  C   UNL     1     120.388 116.605 127.832  1.00  0.00     0.031 C 
BRANCH   2   3
ATOM      3  C   UNL     1     121.341 117.683 128.305  1.00  0.00    -0.075 C 
ATOM      4  C   UNL     1     121.718 117.706 129.598  1.00  0.00     0.008 C 
BRANCH   3   5
ATOM      5  C   UNL     1     121.868 118.712 127.315  1.00  0.00     0.008 C 
ATOM      6  C   UNL     1     121.925 120.109 127.945  1.00  0.00     0.012 C 
ATOM      7  C   UNL     1     121.037 118.722 126.024  1.00  0.00     0.012 C 
ENDBRANCH   3   5
ENDBRANCH   2   3
ENDBRANCH   1   2
BRANCH   1   8
ATOM      8  C   UNL     1     117.845 117.045 127.955  1.00  0.00    -0.010 C 
ATOM      9  C   UNL     1     117.009 115.875 127.413  1.00  0.00     0.008 C 
BRANCH   8  10
ATOM     10  C   UNL     1     116.967 118.138 128.682  1.00  0.00    -0.002 C 
ATOM     11  C   UNL     1     115.609 118.347 128.023  1.00  0.00     0.005 C 
ATOM     12  C   UNL     1     117.487 119.584 128.995  1.00  0.00    -0.024 C 
ATOM     13  C   UNL     1     114.976 119.509 128.762  1.00  0.00     0.008 C 
ATOM     14  C   UNL     1     116.132 120.384 129.342  1.00  0.00    -0.024 C 
ATOM     15  C   UNL     1     118.218 120.206 127.755  1.00  0.00     0.008 C 
ATOM     16  C   UNL     1     118.504 119.559 130.175  1.00  0.00     0.012 C 
ATOM     17  C   UNL     1     115.885 120.500 130.877  1.00  0.00     0.012 C 
ATOM     18  C   UNL     1     116.102 121.805 128.658  1.00  0.00     0.002 C 
ATOM     19  C   UNL     1     118.585 121.699 127.916  1.00  0.00     0.008 C 
ATOM     20  C   UNL     1     117.500 122.469 128.700  1.00  0.00    -0.020 C 
ATOM     21  C   UNL     1     114.860 122.704 128.933  1.00  0.00     0.005 C 
ATOM     22  C   UNL     1     117.569 124.001 128.838  1.00  0.00    -0.020 C 
ATOM     23  C   UNL     1     118.039 123.114 129.993  1.00  0.00     0.015 C 
ATOM     24  C   UNL     1     115.140 123.957 129.754  1.00  0.00     0.005 C 
ATOM     25  C   UNL     1     116.270 124.805 129.115  1.00  0.00     0.004 C 
ATOM     26  C   UNL     1     118.673 124.735 128.041  1.00  0.00     0.010 C 
ATOM     27  C   UNL     1     116.570 126.177 129.857  1.00  0.00    -0.006 C 
ATOM     28  C   UNL     1     118.553 126.260 128.182  1.00  0.00     0.033 C 
ATOM     29  C   UNL     1     118.051 126.651 129.587  1.00  0.00     0.120 C 
ATOM     30  C   UNL     1     116.393 126.063 131.393  1.00  0.00     0.014 C 
ATOM     31  C   UNL     1     115.560 127.239 129.350  1.00  0.00     0.014 C 
BRANCH  29  32
ATOM     32  O   UNL     1     118.221 128.030 129.827  1.00  0.00    -0.393 OA
ATOM     33  H   UNL     1     117.386 128.380 130.234  1.00  0.00     0.210 HD
ENDBRANCH  29  32
ENDBRANCH   8  10
ENDBRANCH   1   8
TORSDOF 6
ENDMDL
MODEL 8
REMARK VINA RESULT:    -7.071      6.027      9.507
REMARK INTER + INTRA:         -10.224
REMARK INTER:                  -9.365
REMARK INTRA:                  -0.859
REMARK UNBOUND:                -0.879
REMARK SMILES C=C(CC[C@@H](C)[C@@H]1CC[C@]2(C)[C@H]3CC[C@H]4C(C)(C)[C@H](O)CC[C@@]45C[C@@]35CC[C@]12C)C(C)C
REMARK SMILES IDX 4 1 3 2 2 3 1 4 30 5 31 6 32 7 5 8 6 9 7 10 8 11 28 12 9 13
REMARK SMILES IDX 10 14 27 15 29 16 11 17 12 18 26 19 25 20 13 21 23 22 24 23
REMARK SMILES IDX 14 24 15 25 22 26 16 27 21 28 19 29 17 30 18 31 20 32
REMARK H PARENT 20 33
REMARK Flexibility Score: inf
ROOT
ATOM      1  C   UNL     1     123.719 120.684 124.116  1.00  0.00     0.008 C 
ENDROOT
BRANCH   1   2
ATOM      2  C   UNL     1     123.902 119.992 122.753  1.00  0.00     0.031 C 
BRANCH   2   3
ATOM      3  C   UNL     1     124.634 120.889 121.777  1.00  0.00    -0.075 C 
ATOM      4  C   UNL     1     125.785 121.475 122.160  1.00  0.00     0.008 C 
BRANCH   3   5
ATOM      5  C   UNL     1     124.071 121.105 120.380  1.00  0.00     0.008 C 
ATOM      6  C   UNL     1     123.069 120.004 120.010  1.00  0.00     0.012 C 
ATOM      7  C   UNL     1     125.191 121.208 119.335  1.00  0.00     0.012 C 
ENDBRANCH   3   5
ENDBRANCH   2   3
ENDBRANCH   1   2
BRANCH   1   8
ATOM      8  C   UNL     1     122.250 121.125 124.383  1.00  0.00    -0.010 C 
ATOM      9  C   UNL     1     121.368 121.005 123.131  1.00  0.00     0.008 C 
BRANCH   8  10
ATOM     10  C   UNL     1     121.559 120.538 125.676  1.00  0.00    -0.002 C 
ATOM     11  C   UNL     1     120.642 119.358 125.379  1.00  0.00     0.005 C 
ATOM     12  C   UNL     1     120.755 121.421 126.693  1.00  0.00    -0.024 C 
ATOM     13  C   UNL     1     119.973 119.023 126.696  1.00  0.00     0.008 C 
ATOM     14  C   UNL     1     119.945 120.327 127.555  1.00  0.00    -0.024 C 
ATOM     15  C   UNL     1     119.784 122.401 125.952  1.00  0.00     0.008 C 
ATOM     16  C   UNL     1     121.725 122.284 127.555  1.00  0.00     0.012 C 
ATOM     17  C   UNL     1     120.645 119.994 128.907  1.00  0.00     0.012 C 
ATOM     18  C   UNL     1     118.448 120.763 127.789  1.00  0.00     0.002 C 
ATOM     19  C   UNL     1     118.816 123.165 126.884  1.00  0.00     0.008 C 
ATOM     20  C   UNL     1     118.349 122.283 128.063  1.00  0.00    -0.020 C 
ATOM     21  C   UNL     1     117.551 119.810 128.636  1.00  0.00     0.005 C 
ATOM     22  C   UNL     1     117.254 122.775 129.028  1.00  0.00    -0.020 C 
ATOM     23  C   UNL     1     118.725 122.872 129.438  1.00  0.00     0.015 C 
ATOM     24  C   UNL     1     117.115 120.366 129.986  1.00  0.00     0.005 C 
ATOM     25  C   UNL     1     116.416 121.742 129.828  1.00  0.00     0.004 C 
ATOM     26  C   UNL     1     116.549 124.107 128.677  1.00  0.00     0.010 C 
ATOM     27  C   UNL     1     115.850 122.357 131.178  1.00  0.00    -0.006 C 
ATOM     28  C   UNL     1     115.408 124.416 129.658  1.00  0.00     0.033 C 
ATOM     29  C   UNL     1     115.749 123.929 131.082  1.00  0.00     0.120 C 
ATOM     30  C   UNL     1     116.750 122.025 132.395  1.00  0.00     0.014 C 
ATOM     31  C   UNL     1     114.454 121.740 131.450  1.00  0.00     0.014 C 
BRANCH  29  32
ATOM     32  O   UNL     1     114.859 124.465 132.034  1.00  0.00    -0.393 OA
ATOM     33  H   UNL     1     114.420 123.712 132.509  1.00  0.00     0.210 HD
ENDBRANCH  29  32
ENDBRANCH   8  10
ENDBRANCH   1   8
TORSDOF 6
ENDMDL
MODEL 9
REMARK VINA RESULT:    -7.038      4.895      8.280
REMARK INTER + INTRA:         -10.180
REMARK INTER:                  -9.021
REMARK INTRA:                  -1.160
REMARK UNBOUND:                -0.879
REMARK SMILES C=C(CC[C@@H](C)[C@@H]1CC[C@]2(C)[C@H]3CC[C@H]4C(C)(C)[C@H](O)CC[C@@]45C[C@@]35CC[C@]12C)C(C)C
REMARK SMILES IDX 4 1 3 2 2 3 1 4 30 5 31 6 32 7 5 8 6 9 7 10 8 11 28 12 9 13
REMARK SMILES IDX 10 14 27 15 29 16 11 17 12 18 26 19 25 20 13 21 23 22 24 23
REMARK SMILES IDX 14 24 15 25 22 26 16 27 21 28 19 29 17 30 18 31 20 32
REMARK H PARENT 20 33
REMARK Flexibility Score: inf
ROOT
ATOM      1  C   UNL     1     114.878 123.837 130.022  1.00  0.00     0.008 C 
ENDROOT
BRANCH   1   2
ATOM      2  C   UNL     1     114.390 123.535 131.452  1.00  0.00     0.031 C 
BRANCH   2   3
ATOM      3  C   UNL     1     114.784 122.137 131.880  1.00  0.00    -0.075 C 
ATOM      4  C   UNL     1     115.946 121.953 132.535  1.00  0.00     0.008 C 
BRANCH   3   5
ATOM      5  C   UNL     1     113.858 120.966 131.578  1.00  0.00     0.008 C 
ATOM      6  C   UNL     1     113.638 120.098 132.822  1.00  0.00     0.012 C 
ATOM      7  C   UNL     1     114.383 120.128 130.404  1.00  0.00     0.012 C 
ENDBRANCH   3   5
ENDBRANCH   2   3
ENDBRANCH   1   2
BRANCH   1   8
ATOM      8  C   UNL     1     115.838 125.061 129.952  1.00  0.00    -0.010 C 
ATOM      9  C   UNL     1     116.039 125.724 131.325  1.00  0.00     0.008 C 
BRANCH   8  10
ATOM     10  C   UNL     1     117.194 124.853 129.170  1.00  0.00    -0.002 C 
ATOM     11  C   UNL     1     117.100 125.240 127.700  1.00  0.00     0.005 C 
ATOM     12  C   UNL     1     117.987 123.500 129.177  1.00  0.00    -0.024 C 
ATOM     13  C   UNL     1     118.432 124.848 127.092  1.00  0.00     0.008 C 
ATOM     14  C   UNL     1     119.016 123.682 127.950  1.00  0.00    -0.024 C 
ATOM     15  C   UNL     1     117.031 122.279 128.948  1.00  0.00     0.008 C 
ATOM     16  C   UNL     1     118.699 123.288 130.547  1.00  0.00     0.012 C 
ATOM     17  C   UNL     1     120.432 124.131 128.420  1.00  0.00     0.012 C 
ATOM     18  C   UNL     1     119.103 122.379 127.066  1.00  0.00     0.002 C 
ATOM     19  C   UNL     1     117.759 120.931 128.745  1.00  0.00     0.008 C 
ATOM     20  C   UNL     1     119.069 121.107 127.947  1.00  0.00    -0.020 C 
ATOM     21  C   UNL     1     120.086 122.402 125.856  1.00  0.00     0.005 C 
ATOM     22  C   UNL     1     119.876 119.881 127.480  1.00  0.00    -0.020 C 
ATOM     23  C   UNL     1     120.315 120.646 128.731  1.00  0.00     0.015 C 
ATOM     24  C   UNL     1     121.283 121.468 125.982  1.00  0.00     0.005 C 
ATOM     25  C   UNL     1     120.831 120.010 126.263  1.00  0.00     0.004 C 
ATOM     26  C   UNL     1     119.245 118.488 127.711  1.00  0.00     0.010 C 
ATOM     27  C   UNL     1     122.012 118.950 126.322  1.00  0.00    -0.006 C 
ATOM     28  C   UNL     1     120.102 117.371 127.098  1.00  0.00     0.033 C 
ATOM     29  C   UNL     1     121.605 117.703 127.199  1.00  0.00     0.120 C 
ATOM     30  C   UNL     1     123.304 119.546 126.937  1.00  0.00     0.014 C 
ATOM     31  C   UNL     1     122.348 118.509 124.874  1.00  0.00     0.014 C 
BRANCH  29  32
ATOM     32  O   UNL     1     122.399 116.572 126.918  1.00  0.00    -0.393 OA
ATOM     33  H   UNL     1     122.624 116.582 125.951  1.00  0.00     0.210 HD
ENDBRANCH  29  32
ENDBRANCH   8  10
ENDBRANCH   1   8
TORSDOF 6
ENDMDL
