MODEL 1
REMARK VINA RESULT:    -5.891      0.000      0.000
REMARK INTER + INTRA:          -6.063
REMARK INTER:                  -6.063
REMARK INTRA:                   0.000
REMARK UNBOUND:                 0.000
REMARK SMILES O=c1ccc2ccc(O)cc2o1
REMARK SMILES IDX 6 1 7 2 8 3 10 4 11 5 5 6 4 7 3 8 2 9 1 10 12 11 9 12
REMARK H PARENT 9 13
REMARK Flexibility Score: inf
ROOT
ATOM      1  C   UNL     1       4.223  44.695  11.793  1.00  0.00     0.016 A 
ATOM      2  C   UNL     1       3.203  43.928  12.364  1.00  0.00     0.047 A 
ATOM      3  C   UNL     1       1.897  43.996  11.857  1.00  0.00     0.119 A 
ATOM      4  C   UNL     1       1.612  44.835  10.774  1.00  0.00     0.094 A 
ATOM      5  C   UNL     1       2.626  45.606  10.195  1.00  0.00     0.142 A 
ATOM      6  C   UNL     1       3.939  45.536  10.708  1.00  0.00     0.018 A 
ATOM      7  C   UNL     1       4.932  46.318  10.109  1.00  0.00     0.019 A 
ATOM      8  C   UNL     1       4.598  47.139   9.032  1.00  0.00     0.094 A 
ATOM      9  C   UNL     1       3.276  47.158   8.578  1.00  0.00     0.336 A 
ATOM     10  O   UNL     1       2.956  47.892   7.606  1.00  0.00    -0.246 OA
ATOM     11  O   UNL     1       2.351  46.404   9.165  1.00  0.00    -0.423 OA
ENDROOT
BRANCH   3  12
ATOM     12  O   UNL     1       0.876  43.234  12.423  1.00  0.00    -0.508 OA
ATOM     13  H   UNL     1       0.326  42.591  11.867  1.00  0.00     0.293 HD
ENDBRANCH   3  12
TORSDOF 1
ENDMDL
MODEL 2
REMARK VINA RESULT:    -5.769      1.868      4.953
REMARK INTER + INTRA:          -5.938
REMARK INTER:                  -5.938
REMARK INTRA:                   0.000
REMARK UNBOUND:                 0.000
REMARK SMILES O=c1ccc2ccc(O)cc2o1
REMARK SMILES IDX 6 1 7 2 8 3 10 4 11 5 5 6 4 7 3 8 2 9 1 10 12 11 9 12
REMARK H PARENT 9 13
REMARK Flexibility Score: inf
ROOT
ATOM      1  C   UNL     1       3.108  47.299   8.410  1.00  0.00     0.016 A 
ATOM      2  C   UNL     1       4.173  48.104   7.992  1.00  0.00     0.047 A 
ATOM      3  C   UNL     1       5.422  48.009   8.623  1.00  0.00     0.119 A 
ATOM      4  C   UNL     1       5.606  47.105   9.675  1.00  0.00     0.094 A 
ATOM      5  C   UNL     1       4.547  46.294  10.100  1.00  0.00     0.142 A 
ATOM      6  C   UNL     1       3.291  46.392   9.463  1.00  0.00     0.018 A 
ATOM      7  C   UNL     1       2.251  45.570   9.909  1.00  0.00     0.019 A 
ATOM      8  C   UNL     1       2.484  44.684  10.962  1.00  0.00     0.094 A 
ATOM      9  C   UNL     1       3.754  44.642  11.544  1.00  0.00     0.336 A 
ATOM     10  O   UNL     1       3.983  43.848  12.495  1.00  0.00    -0.246 OA
ATOM     11  O   UNL     1       4.726  45.435  11.101  1.00  0.00    -0.423 OA
ENDROOT
BRANCH   3  12
ATOM     12  O   UNL     1       6.487  48.809   8.211  1.00  0.00    -0.508 OA
ATOM     13  H   UNL     1       6.928  48.679   7.309  1.00  0.00     0.293 HD
ENDBRANCH   3  12
TORSDOF 1
ENDMDL
MODEL 3
REMARK VINA RESULT:    -5.625      0.820      4.266
REMARK INTER + INTRA:          -5.790
REMARK INTER:                  -5.790
REMARK INTRA:                   0.000
REMARK UNBOUND:                 0.000
REMARK SMILES O=c1ccc2ccc(O)cc2o1
REMARK SMILES IDX 6 1 7 2 8 3 10 4 11 5 5 6 4 7 3 8 2 9 1 10 12 11 9 12
REMARK H PARENT 9 13
REMARK Flexibility Score: inf
ROOT
ATOM      1  C   UNL     1       5.254  46.629   9.886  1.00  0.00     0.016 A 
ATOM      2  C   UNL     1       5.013  47.575   8.885  1.00  0.00     0.047 A 
ATOM      3  C   UNL     1       3.712  47.774   8.397  1.00  0.00     0.119 A 
ATOM      4  C   UNL     1       2.651  47.023   8.913  1.00  0.00     0.094 A 
ATOM      5  C   UNL     1       2.881  46.074   9.915  1.00  0.00     0.142 A 
ATOM      6  C   UNL     1       4.191  45.875  10.404  1.00  0.00     0.018 A 
ATOM      7  C   UNL     1       4.392  44.920  11.406  1.00  0.00     0.019 A 
ATOM      8  C   UNL     1       3.301  44.197  11.888  1.00  0.00     0.094 A 
ATOM      9  C   UNL     1       2.032  44.446  11.356  1.00  0.00     0.336 A 
ATOM     10  O   UNL     1       1.036  43.803  11.779  1.00  0.00    -0.246 OA
ATOM     11  O   UNL     1       1.869  45.361  10.404  1.00  0.00    -0.423 OA
ENDROOT
BRANCH   3  12
ATOM     12  O   UNL     1       3.466  48.715   7.399  1.00  0.00    -0.508 OA
ATOM     13  H   UNL     1       2.929  48.481   6.572  1.00  0.00     0.293 HD
ENDBRANCH   3  12
TORSDOF 1
ENDMDL
MODEL 4
REMARK VINA RESULT:    -5.517      1.612      2.297
REMARK INTER + INTRA:          -5.679
REMARK INTER:                  -5.679
REMARK INTRA:                   0.000
REMARK UNBOUND:                 0.000
REMARK SMILES O=c1ccc2ccc(O)cc2o1
REMARK SMILES IDX 6 1 7 2 8 3 10 4 11 5 5 6 4 7 3 8 2 9 1 10 12 11 9 12
REMARK H PARENT 9 13
REMARK Flexibility Score: inf
ROOT
ATOM      1  C   UNL     1       1.506  44.281  11.197  1.00  0.00     0.016 A 
ATOM      2  C   UNL     1       2.215  43.150  11.615  1.00  0.00     0.047 A 
ATOM      3  C   UNL     1       3.546  42.961  11.215  1.00  0.00     0.119 A 
ATOM      4  C   UNL     1       4.169  43.907  10.394  1.00  0.00     0.094 A 
ATOM      5  C   UNL     1       3.469  45.043   9.972  1.00  0.00     0.142 A 
ATOM      6  C   UNL     1       2.129  45.230  10.376  1.00  0.00     0.018 A 
ATOM      7  C   UNL     1       1.454  46.374   9.938  1.00  0.00     0.019 A 
ATOM      8  C   UNL     1       2.119  47.289   9.121  1.00  0.00     0.094 A 
ATOM      9  C   UNL     1       3.446  47.037   8.760  1.00  0.00     0.336 A 
ATOM     10  O   UNL     1       4.063  47.852   8.024  1.00  0.00    -0.246 OA
ATOM     11  O   UNL     1       4.065  45.941   9.191  1.00  0.00    -0.423 OA
ENDROOT
BRANCH   3  12
ATOM     12  O   UNL     1       4.257  41.835  11.627  1.00  0.00    -0.508 OA
ATOM     13  H   UNL     1       4.793  41.834  12.486  1.00  0.00     0.293 HD
ENDBRANCH   3  12
TORSDOF 1
ENDMDL
MODEL 5
REMARK VINA RESULT:    -5.465      2.590      4.316
REMARK INTER + INTRA:          -5.625
REMARK INTER:                  -5.625
REMARK INTRA:                   0.000
REMARK UNBOUND:                 0.000
REMARK SMILES O=c1ccc2ccc(O)cc2o1
REMARK SMILES IDX 6 1 7 2 8 3 10 4 11 5 5 6 4 7 3 8 2 9 1 10 12 11 9 12
REMARK H PARENT 9 13
REMARK Flexibility Score: inf
ROOT
ATOM      1  C   UNL     1       4.320  46.337  10.175  1.00  0.00     0.016 A 
ATOM      2  C   UNL     1       5.508  46.986   9.822  1.00  0.00     0.047 A 
ATOM      3  C   UNL     1       5.539  47.855   8.721  1.00  0.00     0.119 A 
ATOM      4  C   UNL     1       4.377  48.074   7.972  1.00  0.00     0.094 A 
ATOM      5  C   UNL     1       3.184  47.430   8.317  1.00  0.00     0.142 A 
ATOM      6  C   UNL     1       3.156  46.555   9.426  1.00  0.00     0.018 A 
ATOM      7  C   UNL     1       1.950  45.925   9.748  1.00  0.00     0.019 A 
ATOM      8  C   UNL     1       0.819  46.176   8.970  1.00  0.00     0.094 A 
ATOM      9  C   UNL     1       0.922  47.053   7.887  1.00  0.00     0.336 A 
ATOM     10  O   UNL     1      -0.088  47.292   7.174  1.00  0.00    -0.246 OA
ATOM     11  O   UNL     1       2.081  47.640   7.602  1.00  0.00    -0.423 OA
ENDROOT
BRANCH   3  12
ATOM     12  O   UNL     1       6.719  48.505   8.364  1.00  0.00    -0.508 OA
ATOM     13  H   UNL     1       6.840  48.913   7.445  1.00  0.00     0.293 HD
ENDBRANCH   3  12
TORSDOF 1
ENDMDL
MODEL 6
REMARK VINA RESULT:    -5.460      1.545      4.227
REMARK INTER + INTRA:          -5.620
REMARK INTER:                  -5.620
REMARK INTRA:                   0.000
REMARK UNBOUND:                 0.000
REMARK SMILES O=c1ccc2ccc(O)cc2o1
REMARK SMILES IDX 6 1 7 2 8 3 10 4 11 5 5 6 4 7 3 8 2 9 1 10 12 11 9 12
REMARK H PARENT 9 13
REMARK Flexibility Score: inf
ROOT
ATOM      1  C   UNL     1       3.911  47.540   8.351  1.00  0.00     0.016 A 
ATOM      2  C   UNL     1       2.843  48.047   7.605  1.00  0.00     0.047 A 
ATOM      3  C   UNL     1       1.531  47.628   7.873  1.00  0.00     0.119 A 
ATOM      4  C   UNL     1       1.289  46.698   8.890  1.00  0.00     0.094 A 
ATOM      5  C   UNL     1       2.352  46.186   9.643  1.00  0.00     0.142 A 
ATOM      6  C   UNL     1       3.671  46.609   9.371  1.00  0.00     0.018 A 
ATOM      7  C   UNL     1       4.713  46.079  10.138  1.00  0.00     0.019 A 
ATOM      8  C   UNL     1       4.421  45.156  11.142  1.00  0.00     0.094 A 
ATOM      9  C   UNL     1       3.091  44.782  11.354  1.00  0.00     0.336 A 
ATOM     10  O   UNL     1       2.808  43.950  12.256  1.00  0.00    -0.246 OA
ATOM     11  O   UNL     1       2.118  45.301  10.609  1.00  0.00    -0.423 OA
ENDROOT
BRANCH   3  12
ATOM     12  O   UNL     1       0.462  48.129   7.132  1.00  0.00    -0.508 OA
ATOM     13  H   UNL     1       0.166  47.693   6.268  1.00  0.00     0.293 HD
ENDBRANCH   3  12
TORSDOF 1
ENDMDL
MODEL 7
REMARK VINA RESULT:    -5.358      1.608      2.367
REMARK INTER + INTRA:          -5.514
REMARK INTER:                  -5.514
REMARK INTRA:                   0.000
REMARK UNBOUND:                 0.000
REMARK SMILES O=c1ccc2ccc(O)cc2o1
REMARK SMILES IDX 6 1 7 2 8 3 10 4 11 5 5 6 4 7 3 8 2 9 1 10 12 11 9 12
REMARK H PARENT 9 13
REMARK Flexibility Score: inf
ROOT
ATOM      1  C   UNL     1       1.309  45.730   9.692  1.00  0.00     0.016 A 
ATOM      2  C   UNL     1       0.929  44.798  10.663  1.00  0.00     0.047 A 
ATOM      3  C   UNL     1       1.872  44.301  11.574  1.00  0.00     0.119 A 
ATOM      4  C   UNL     1       3.200  44.738  11.513  1.00  0.00     0.094 A 
ATOM      5  C   UNL     1       3.590  45.671  10.546  1.00  0.00     0.142 A 
ATOM      6  C   UNL     1       2.638  46.169   9.629  1.00  0.00     0.018 A 
ATOM      7  C   UNL     1       3.057  47.100   8.673  1.00  0.00     0.019 A 
ATOM      8  C   UNL     1       4.392  47.505   8.652  1.00  0.00     0.094 A 
ATOM      9  C   UNL     1       5.278  46.969   9.591  1.00  0.00     0.336 A 
ATOM     10  O   UNL     1       6.487  47.323   9.588  1.00  0.00    -0.246 OA
ATOM     11  O   UNL     1       4.854  46.084  10.490  1.00  0.00    -0.423 OA
ENDROOT
BRANCH   3  12
ATOM     12  O   UNL     1       1.499  43.371  12.544  1.00  0.00    -0.508 OA
ATOM     13  H   UNL     1       2.103  42.598  12.795  1.00  0.00     0.293 HD
ENDBRANCH   3  12
TORSDOF 1
ENDMDL
MODEL 8
REMARK VINA RESULT:    -5.313      2.720      3.852
REMARK INTER + INTRA:          -5.468
REMARK INTER:                  -5.468
REMARK INTRA:                   0.000
REMARK UNBOUND:                 0.000
REMARK SMILES O=c1ccc2ccc(O)cc2o1
REMARK SMILES IDX 6 1 7 2 8 3 10 4 11 5 5 6 4 7 3 8 2 9 1 10 12 11 9 12
REMARK H PARENT 9 13
REMARK Flexibility Score: inf
ROOT
ATOM      1  C   UNL     1       1.591  46.033   9.701  1.00  0.00     0.016 A 
ATOM      2  C   UNL     1       0.564  46.456   8.850  1.00  0.00     0.047 A 
ATOM      3  C   UNL     1       0.835  47.347   7.801  1.00  0.00     0.119 A 
ATOM      4  C   UNL     1       2.139  47.815   7.603  1.00  0.00     0.094 A 
ATOM      5  C   UNL     1       3.174  47.398   8.448  1.00  0.00     0.142 A 
ATOM      6  C   UNL     1       2.897  46.501   9.503  1.00  0.00     0.018 A 
ATOM      7  C   UNL     1       3.951  46.101  10.332  1.00  0.00     0.019 A 
ATOM      8  C   UNL     1       5.233  46.597  10.093  1.00  0.00     0.094 A 
ATOM      9  C   UNL     1       5.432  47.482   9.030  1.00  0.00     0.336 A 
ATOM     10  O   UNL     1       6.582  47.939   8.799  1.00  0.00    -0.246 OA
ATOM     11  O   UNL     1       4.412  47.846   8.257  1.00  0.00    -0.423 OA
ENDROOT
BRANCH   3  12
ATOM     12  O   UNL     1      -0.184  47.772   6.951  1.00  0.00    -0.508 OA
ATOM     13  H   UNL     1      -0.106  47.681   5.946  1.00  0.00     0.293 HD
ENDBRANCH   3  12
TORSDOF 1
ENDMDL
