MODEL 1
REMARK VINA RESULT:    -4.440      0.000      0.000
REMARK INTER + INTRA:          -8.763
REMARK INTER:                  -8.203
REMARK INTRA:                  -0.560
REMARK UNBOUND:                -0.560
REMARK SMILES CCCCCCCCCCCCCCCCO
REMARK SMILES IDX 9 1 8 2 7 3 6 4 5 5 4 6 3 7 2 8 1 9 10 10 11 11 12 12 13 13
REMARK SMILES IDX 14 14 15 15 16 16 17 17
REMARK H PARENT 17 18
REMARK Flexibility Score: inf
ROOT
ATOM      1  C   UNL     1      22.184 -18.447 -17.703  1.00  0.00     0.000 C 
ENDROOT
BRANCH   1   2
ATOM      2  C   UNL     1      21.103 -19.535 -17.832  1.00  0.00    -0.000 C 
BRANCH   2   3
ATOM      3  C   UNL     1      21.193 -20.401 -19.103  1.00  0.00    -0.000 C 
BRANCH   3   4
ATOM      4  C   UNL     1      20.611 -21.809 -18.911  1.00  0.00    -0.000 C 
BRANCH   4   5
ATOM      5  C   UNL     1      19.210 -21.913 -19.528  1.00  0.00    -0.000 C 
BRANCH   5   6
ATOM      6  C   UNL     1      18.547 -23.249 -19.164  1.00  0.00    -0.000 C 
BRANCH   6   7
ATOM      7  C   UNL     1      17.017 -23.142 -19.031  1.00  0.00    -0.000 C 
BRANCH   7   8
ATOM      8  C   UNL     1      16.440 -23.704 -17.719  1.00  0.00    -0.003 C 
ATOM      9  C   UNL     1      15.042 -23.175 -17.404  1.00  0.00     0.004 C 
ENDBRANCH   7   8
ENDBRANCH   6   7
ENDBRANCH   5   6
ENDBRANCH   4   5
ENDBRANCH   3   4
ENDBRANCH   2   3
ENDBRANCH   1   2
BRANCH   1  10
ATOM     10  C   UNL     1      21.653 -17.145 -17.080  1.00  0.00     0.000 C 
BRANCH  10  11
ATOM     11  C   UNL     1      20.217 -17.289 -16.548  1.00  0.00     0.000 C 
BRANCH  11  12
ATOM     12  C   UNL     1      19.597 -15.940 -16.140  1.00  0.00     0.000 C 
BRANCH  12  13
ATOM     13  C   UNL     1      18.653 -16.066 -14.933  1.00  0.00     0.000 C 
BRANCH  13  14
ATOM     14  C   UNL     1      17.180 -15.852 -15.310  1.00  0.00     0.002 C 
BRANCH  14  15
ATOM     15  C   UNL     1      17.048 -14.844 -16.460  1.00  0.00     0.028 C 
BRANCH  15  16
ATOM     16  C   UNL     1      15.811 -15.118 -17.317  1.00  0.00     0.156 C 
BRANCH  16  17
ATOM     17  O   UNL     1      16.054 -14.752 -18.647  1.00  0.00    -0.396 OA
ATOM     18  H   UNL     1      16.511 -13.871 -18.610  1.00  0.00     0.210 HD
ENDBRANCH  16  17
ENDBRANCH  15  16
ENDBRANCH  14  15
ENDBRANCH  13  14
ENDBRANCH  12  13
ENDBRANCH  11  12
ENDBRANCH  10  11
ENDBRANCH   1  10
TORSDOF 15
ENDMDL
MODEL 2
REMARK VINA RESULT:    -4.308      1.213      2.318
REMARK INTER + INTRA:          -8.519
REMARK INTER:                  -7.899
REMARK INTRA:                  -0.620
REMARK UNBOUND:                -0.560
REMARK SMILES CCCCCCCCCCCCCCCCO
REMARK SMILES IDX 9 1 8 2 7 3 6 4 5 5 4 6 3 7 2 8 1 9 10 10 11 11 12 12 13 13
REMARK SMILES IDX 14 14 15 15 16 16 17 17
REMARK H PARENT 17 18
REMARK Flexibility Score: inf
ROOT
ATOM      1  C   UNL     1      21.386 -20.341 -18.721  1.00  0.00     0.000 C 
ENDROOT
BRANCH   1   2
ATOM      2  C   UNL     1      20.298 -21.428 -18.795  1.00  0.00    -0.000 C 
BRANCH   2   3
ATOM      3  C   UNL     1      20.645 -22.643 -19.676  1.00  0.00    -0.000 C 
BRANCH   3   4
ATOM      4  C   UNL     1      19.456 -23.593 -19.882  1.00  0.00    -0.000 C 
BRANCH   4   5
ATOM      5  C   UNL     1      18.147 -22.946 -19.411  1.00  0.00    -0.000 C 
BRANCH   5   6
ATOM      6  C   UNL     1      17.178 -24.003 -18.862  1.00  0.00    -0.000 C 
BRANCH   6   7
ATOM      7  C   UNL     1      16.478 -23.558 -17.565  1.00  0.00    -0.000 C 
BRANCH   7   8
ATOM      8  C   UNL     1      14.971 -23.866 -17.505  1.00  0.00    -0.003 C 
ATOM      9  C   UNL     1      14.357 -24.126 -18.880  1.00  0.00     0.004 C 
ENDBRANCH   7   8
ENDBRANCH   6   7
ENDBRANCH   5   6
ENDBRANCH   4   5
ENDBRANCH   3   4
ENDBRANCH   2   3
ENDBRANCH   1   2
BRANCH   1  10
ATOM     10  C   UNL     1      21.360 -19.556 -17.398  1.00  0.00     0.000 C 
BRANCH  10  11
ATOM     11  C   UNL     1      22.424 -18.448 -17.349  1.00  0.00     0.000 C 
BRANCH  11  12
ATOM     12  C   UNL     1      21.829 -17.068 -17.013  1.00  0.00     0.000 C 
BRANCH  12  13
ATOM     13  C   UNL     1      20.349 -17.146 -16.605  1.00  0.00     0.000 C 
BRANCH  13  14
ATOM     14  C   UNL     1      19.759 -15.772 -16.256  1.00  0.00     0.002 C 
BRANCH  14  15
ATOM     15  C   UNL     1      18.434 -15.922 -15.494  1.00  0.00     0.028 C 
BRANCH  15  16
ATOM     16  C   UNL     1      17.368 -14.957 -16.016  1.00  0.00     0.156 C 
BRANCH  16  17
ATOM     17  O   UNL     1      17.350 -13.792 -15.239  1.00  0.00    -0.396 OA
ATOM     18  H   UNL     1      16.404 -13.656 -14.970  1.00  0.00     0.210 HD
ENDBRANCH  16  17
ENDBRANCH  15  16
ENDBRANCH  14  15
ENDBRANCH  13  14
ENDBRANCH  12  13
ENDBRANCH  11  12
ENDBRANCH  10  11
ENDBRANCH   1  10
TORSDOF 15
ENDMDL
MODEL 3
REMARK VINA RESULT:    -4.264      3.503      5.102
REMARK INTER + INTRA:          -8.438
REMARK INTER:                  -7.227
REMARK INTRA:                  -1.212
REMARK UNBOUND:                -0.560
REMARK SMILES CCCCCCCCCCCCCCCCO
REMARK SMILES IDX 9 1 8 2 7 3 6 4 5 5 4 6 3 7 2 8 1 9 10 10 11 11 12 12 13 13
REMARK SMILES IDX 14 14 15 15 16 16 17 17
REMARK H PARENT 17 18
REMARK Flexibility Score: inf
ROOT
ATOM      1  C   UNL     1      18.730 -21.637 -20.164  1.00  0.00     0.000 C 
ENDROOT
BRANCH   1   2
ATOM      2  C   UNL     1      18.555 -22.762 -19.128  1.00  0.00    -0.000 C 
BRANCH   2   3
ATOM      3  C   UNL     1      17.933 -24.062 -19.671  1.00  0.00    -0.000 C 
BRANCH   3   4
ATOM      4  C   UNL     1      16.585 -24.400 -19.018  1.00  0.00    -0.000 C 
BRANCH   4   5
ATOM      5  C   UNL     1      16.440 -23.699 -17.661  1.00  0.00    -0.000 C 
BRANCH   5   6
ATOM      6  C   UNL     1      15.107 -22.941 -17.573  1.00  0.00    -0.000 C 
BRANCH   6   7
ATOM      7  C   UNL     1      14.250 -23.087 -18.844  1.00  0.00    -0.000 C 
BRANCH   7   8
ATOM      8  C   UNL     1      13.898 -21.761 -19.543  1.00  0.00    -0.003 C 
ATOM      9  C   UNL     1      15.096 -21.112 -20.234  1.00  0.00     0.004 C 
ENDBRANCH   7   8
ENDBRANCH   6   7
ENDBRANCH   5   6
ENDBRANCH   4   5
ENDBRANCH   3   4
ENDBRANCH   2   3
ENDBRANCH   1   2
BRANCH   1  10
ATOM     10  C   UNL     1      20.195 -21.195 -20.328  1.00  0.00     0.000 C 
BRANCH  10  11
ATOM     11  C   UNL     1      20.944 -21.132 -18.988  1.00  0.00     0.000 C 
BRANCH  11  12
ATOM     12  C   UNL     1      21.042 -19.700 -18.428  1.00  0.00     0.000 C 
BRANCH  12  13
ATOM     13  C   UNL     1      21.663 -19.656 -17.023  1.00  0.00     0.000 C 
BRANCH  13  14
ATOM     14  C   UNL     1      22.699 -18.533 -16.870  1.00  0.00     0.002 C 
BRANCH  14  15
ATOM     15  C   UNL     1      22.248 -17.266 -17.611  1.00  0.00     0.028 C 
BRANCH  15  16
ATOM     16  C   UNL     1      23.409 -16.598 -18.351  1.00  0.00     0.156 C 
BRANCH  16  17
ATOM     17  O   UNL     1      23.057 -16.360 -19.686  1.00  0.00    -0.396 OA
ATOM     18  H   UNL     1      22.286 -16.955 -19.876  1.00  0.00     0.210 HD
ENDBRANCH  16  17
ENDBRANCH  15  16
ENDBRANCH  14  15
ENDBRANCH  13  14
ENDBRANCH  12  13
ENDBRANCH  11  12
ENDBRANCH  10  11
ENDBRANCH   1  10
TORSDOF 15
ENDMDL
MODEL 4
REMARK VINA RESULT:    -4.173      3.236      4.445
REMARK INTER + INTRA:          -8.271
REMARK INTER:                  -7.363
REMARK INTRA:                  -0.908
REMARK UNBOUND:                -0.560
REMARK SMILES CCCCCCCCCCCCCCCCO
REMARK SMILES IDX 9 1 8 2 7 3 6 4 5 5 4 6 3 7 2 8 1 9 10 10 11 11 12 12 13 13
REMARK SMILES IDX 14 14 15 15 16 16 17 17
REMARK H PARENT 17 18
REMARK Flexibility Score: inf
ROOT
ATOM      1  C   UNL     1      20.519 -20.042 -19.031  1.00  0.00     0.000 C 
ENDROOT
BRANCH   1   2
ATOM      2  C   UNL     1      19.850 -21.147 -19.869  1.00  0.00    -0.000 C 
BRANCH   2   3
ATOM      3  C   UNL     1      19.661 -22.494 -19.147  1.00  0.00    -0.000 C 
BRANCH   3   4
ATOM      4  C   UNL     1      19.189 -23.616 -20.083  1.00  0.00    -0.000 C 
BRANCH   4   5
ATOM      5  C   UNL     1      17.991 -24.364 -19.484  1.00  0.00    -0.000 C 
BRANCH   5   6
ATOM      6  C   UNL     1      17.341 -23.549 -18.357  1.00  0.00    -0.000 C 
BRANCH   6   7
ATOM      7  C   UNL     1      15.808 -23.477 -18.477  1.00  0.00    -0.000 C 
BRANCH   7   8
ATOM      8  C   UNL     1      15.158 -24.680 -19.185  1.00  0.00    -0.003 C 
ATOM      9  C   UNL     1      13.652 -24.514 -19.386  1.00  0.00     0.004 C 
ENDBRANCH   7   8
ENDBRANCH   6   7
ENDBRANCH   5   6
ENDBRANCH   4   5
ENDBRANCH   3   4
ENDBRANCH   2   3
ENDBRANCH   1   2
BRANCH   1  10
ATOM     10  C   UNL     1      21.315 -20.594 -17.836  1.00  0.00     0.000 C 
BRANCH  10  11
ATOM     11  C   UNL     1      21.556 -19.535 -16.749  1.00  0.00     0.000 C 
BRANCH  11  12
ATOM     12  C   UNL     1      20.909 -18.179 -17.087  1.00  0.00     0.000 C 
BRANCH  12  13
ATOM     13  C   UNL     1      21.940 -17.043 -17.193  1.00  0.00     0.000 C 
BRANCH  13  14
ATOM     14  C   UNL     1      23.366 -17.507 -16.863  1.00  0.00     0.002 C 
BRANCH  14  15
ATOM     15  C   UNL     1      24.244 -17.519 -18.122  1.00  0.00     0.028 C 
BRANCH  15  16
ATOM     16  C   UNL     1      24.259 -16.156 -18.817  1.00  0.00     0.156 C 
BRANCH  16  17
ATOM     17  O   UNL     1      23.500 -16.205 -19.993  1.00  0.00    -0.396 OA
ATOM     18  H   UNL     1      24.006 -15.682 -20.668  1.00  0.00     0.210 HD
ENDBRANCH  16  17
ENDBRANCH  15  16
ENDBRANCH  14  15
ENDBRANCH  13  14
ENDBRANCH  12  13
ENDBRANCH  11  12
ENDBRANCH  10  11
ENDBRANCH   1  10
TORSDOF 15
ENDMDL
MODEL 5
REMARK VINA RESULT:    -4.171     17.250     20.829
REMARK INTER + INTRA:          -8.266
REMARK INTER:                  -6.878
REMARK INTRA:                  -1.388
REMARK UNBOUND:                -0.560
REMARK SMILES CCCCCCCCCCCCCCCCO
REMARK SMILES IDX 9 1 8 2 7 3 6 4 5 5 4 6 3 7 2 8 1 9 10 10 11 11 12 12 13 13
REMARK SMILES IDX 14 14 15 15 16 16 17 17
REMARK H PARENT 17 18
REMARK Flexibility Score: inf
ROOT
ATOM      1  C   UNL     1       7.404  -6.130  -6.714  1.00  0.00     0.000 C 
ENDROOT
BRANCH   1   2
ATOM      2  C   UNL     1       8.187  -4.981  -6.054  1.00  0.00    -0.000 C 
BRANCH   2   3
ATOM      3  C   UNL     1       9.592  -5.352  -5.544  1.00  0.00    -0.000 C 
BRANCH   3   4
ATOM      4  C   UNL     1       9.715  -6.832  -5.152  1.00  0.00    -0.000 C 
BRANCH   4   5
ATOM      5  C   UNL     1      10.439  -6.986  -3.809  1.00  0.00    -0.000 C 
BRANCH   5   6
ATOM      6  C   UNL     1      10.044  -5.863  -2.839  1.00  0.00    -0.000 C 
BRANCH   6   7
ATOM      7  C   UNL     1       8.878  -6.253  -1.913  1.00  0.00    -0.000 C 
BRANCH   7   8
ATOM      8  C   UNL     1       7.501  -5.719  -2.347  1.00  0.00    -0.003 C 
ATOM      9  C   UNL     1       6.643  -6.773  -3.045  1.00  0.00     0.004 C 
ENDBRANCH   7   8
ENDBRANCH   6   7
ENDBRANCH   5   6
ENDBRANCH   4   5
ENDBRANCH   3   4
ENDBRANCH   2   3
ENDBRANCH   1   2
BRANCH   1  10
ATOM     10  C   UNL     1       5.887  -5.878  -6.753  1.00  0.00     0.000 C 
BRANCH  10  11
ATOM     11  C   UNL     1       5.311  -5.968  -8.175  1.00  0.00     0.000 C 
BRANCH  11  12
ATOM     12  C   UNL     1       4.910  -7.403  -8.565  1.00  0.00     0.000 C 
BRANCH  12  13
ATOM     13  C   UNL     1       5.875  -8.030  -9.584  1.00  0.00     0.000 C 
BRANCH  13  14
ATOM     14  C   UNL     1       5.301  -8.046 -11.008  1.00  0.00     0.002 C 
BRANCH  14  15
ATOM     15  C   UNL     1       5.403  -9.448 -11.625  1.00  0.00     0.028 C 
BRANCH  15  16
ATOM     16  C   UNL     1       6.063 -10.442 -10.668  1.00  0.00     0.156 C 
BRANCH  16  17
ATOM     17  O   UNL     1       5.180 -11.490 -10.377  1.00  0.00    -0.396 OA
ATOM     18  H   UNL     1       5.178 -12.077 -11.178  1.00  0.00     0.210 HD
ENDBRANCH  16  17
ENDBRANCH  15  16
ENDBRANCH  14  15
ENDBRANCH  13  14
ENDBRANCH  12  13
ENDBRANCH  11  12
ENDBRANCH  10  11
ENDBRANCH   1  10
TORSDOF 15
ENDMDL
MODEL 6
REMARK VINA RESULT:    -4.158      3.249      7.201
REMARK INTER + INTRA:          -8.241
REMARK INTER:                  -7.246
REMARK INTRA:                  -0.995
REMARK UNBOUND:                -0.560
REMARK SMILES CCCCCCCCCCCCCCCCO
REMARK SMILES IDX 9 1 8 2 7 3 6 4 5 5 4 6 3 7 2 8 1 9 10 10 11 11 12 12 13 13
REMARK SMILES IDX 14 14 15 15 16 16 17 17
REMARK H PARENT 17 18
REMARK Flexibility Score: inf
ROOT
ATOM      1  C   UNL     1      18.358 -23.769 -19.455  1.00  0.00     0.000 C 
ENDROOT
BRANCH   1   2
ATOM      2  C   UNL     1      18.232 -22.275 -19.804  1.00  0.00    -0.000 C 
BRANCH   2   3
ATOM      3  C   UNL     1      19.566 -21.538 -20.023  1.00  0.00    -0.000 C 
BRANCH   3   4
ATOM      4  C   UNL     1      20.536 -21.692 -18.843  1.00  0.00    -0.000 C 
BRANCH   4   5
ATOM      5  C   UNL     1      21.381 -20.425 -18.657  1.00  0.00    -0.000 C 
BRANCH   5   6
ATOM      6  C   UNL     1      21.451 -20.022 -17.177  1.00  0.00    -0.000 C 
BRANCH   6   7
ATOM      7  C   UNL     1      21.314 -18.504 -16.961  1.00  0.00    -0.000 C 
BRANCH   7   8
ATOM      8  C   UNL     1      22.622 -17.707 -17.123  1.00  0.00    -0.003 C 
ATOM      9  C   UNL     1      22.401 -16.196 -17.161  1.00  0.00     0.004 C 
ENDBRANCH   7   8
ENDBRANCH   6   7
ENDBRANCH   5   6
ENDBRANCH   4   5
ENDBRANCH   3   4
ENDBRANCH   2   3
ENDBRANCH   1   2
BRANCH   1  10
ATOM     10  C   UNL     1      17.054 -24.368 -18.902  1.00  0.00     0.000 C 
BRANCH  10  11
ATOM     11  C   UNL     1      16.524 -23.599 -17.681  1.00  0.00     0.000 C 
BRANCH  11  12
ATOM     12  C   UNL     1      14.988 -23.486 -17.671  1.00  0.00     0.000 C 
BRANCH  12  13
ATOM     13  C   UNL     1      14.338 -24.166 -18.887  1.00  0.00     0.000 C 
BRANCH  13  14
ATOM     14  C   UNL     1      13.586 -23.173 -19.786  1.00  0.00     0.002 C 
BRANCH  14  15
ATOM     15  C   UNL     1      14.495 -22.005 -20.194  1.00  0.00     0.028 C 
BRANCH  15  16
ATOM     16  C   UNL     1      13.725 -20.685 -20.263  1.00  0.00     0.156 C 
BRANCH  16  17
ATOM     17  O   UNL     1      12.828 -20.593 -19.192  1.00  0.00    -0.396 OA
ATOM     18  H   UNL     1      12.771 -19.628 -18.964  1.00  0.00     0.210 HD
ENDBRANCH  16  17
ENDBRANCH  15  16
ENDBRANCH  14  15
ENDBRANCH  13  14
ENDBRANCH  12  13
ENDBRANCH  11  12
ENDBRANCH  10  11
ENDBRANCH   1  10
TORSDOF 15
ENDMDL
MODEL 7
REMARK VINA RESULT:    -4.120     12.819     14.523
REMARK INTER + INTRA:          -8.173
REMARK INTER:                  -7.640
REMARK INTRA:                  -0.533
REMARK UNBOUND:                -0.560
REMARK SMILES CCCCCCCCCCCCCCCCO
REMARK SMILES IDX 9 1 8 2 7 3 6 4 5 5 4 6 3 7 2 8 1 9 10 10 11 11 12 12 13 13
REMARK SMILES IDX 14 14 15 15 16 16 17 17
REMARK H PARENT 17 18
REMARK Flexibility Score: inf
ROOT
ATOM      1  C   UNL     1       6.613 -20.750 -14.417  1.00  0.00     0.000 C 
ENDROOT
BRANCH   1   2
ATOM      2  C   UNL     1       5.652 -20.628 -13.221  1.00  0.00    -0.000 C 
BRANCH   2   3
ATOM      3  C   UNL     1       4.938 -21.932 -12.818  1.00  0.00    -0.000 C 
BRANCH   3   4
ATOM      4  C   UNL     1       5.861 -22.921 -12.091  1.00  0.00    -0.000 C 
BRANCH   4   5
ATOM      5  C   UNL     1       5.289 -23.300 -10.719  1.00  0.00    -0.000 C 
BRANCH   5   6
ATOM      6  C   UNL     1       5.592 -22.212  -9.678  1.00  0.00    -0.000 C 
BRANCH   6   7
ATOM      7  C   UNL     1       6.147 -22.782  -8.360  1.00  0.00    -0.000 C 
BRANCH   7   8
ATOM      8  C   UNL     1       5.433 -24.049  -7.852  1.00  0.00    -0.003 C 
ATOM      9  C   UNL     1       5.802 -24.408  -6.413  1.00  0.00     0.004 C 
ENDBRANCH   7   8
ENDBRANCH   6   7
ENDBRANCH   5   6
ENDBRANCH   4   5
ENDBRANCH   3   4
ENDBRANCH   2   3
ENDBRANCH   1   2
BRANCH   1  10
ATOM     10  C   UNL     1       6.192 -19.881 -15.615  1.00  0.00     0.000 C 
BRANCH  10  11
ATOM     11  C   UNL     1       6.519 -18.394 -15.407  1.00  0.00     0.000 C 
BRANCH  11  12
ATOM     12  C   UNL     1       5.410 -17.463 -15.934  1.00  0.00     0.000 C 
BRANCH  12  13
ATOM     13  C   UNL     1       5.321 -17.461 -17.468  1.00  0.00     0.000 C 
BRANCH  13  14
ATOM     14  C   UNL     1       5.371 -16.046 -18.061  1.00  0.00     0.002 C 
BRANCH  14  15
ATOM     15  C   UNL     1       5.563 -16.095 -19.584  1.00  0.00     0.028 C 
BRANCH  15  16
ATOM     16  C   UNL     1       6.757 -15.250 -20.032  1.00  0.00     0.156 C 
BRANCH  16  17
ATOM     17  O   UNL     1       6.411 -13.893 -20.044  1.00  0.00    -0.396 OA
ATOM     18  H   UNL     1       6.667 -13.537 -19.154  1.00  0.00     0.210 HD
ENDBRANCH  16  17
ENDBRANCH  15  16
ENDBRANCH  14  15
ENDBRANCH  13  14
ENDBRANCH  12  13
ENDBRANCH  11  12
ENDBRANCH  10  11
ENDBRANCH   1  10
TORSDOF 15
ENDMDL
MODEL 8
REMARK VINA RESULT:    -4.116      3.332      4.132
REMARK INTER + INTRA:          -8.165
REMARK INTER:                  -7.164
REMARK INTRA:                  -1.001
REMARK UNBOUND:                -0.560
REMARK SMILES CCCCCCCCCCCCCCCCO
REMARK SMILES IDX 9 1 8 2 7 3 6 4 5 5 4 6 3 7 2 8 1 9 10 10 11 11 12 12 13 13
REMARK SMILES IDX 14 14 15 15 16 16 17 17
REMARK H PARENT 17 18
REMARK Flexibility Score: inf
ROOT
ATOM      1  C   UNL     1      20.321 -19.943 -19.116  1.00  0.00     0.000 C 
ENDROOT
BRANCH   1   2
ATOM      2  C   UNL     1      21.206 -21.191 -19.292  1.00  0.00    -0.000 C 
BRANCH   2   3
ATOM      3  C   UNL     1      20.466 -22.538 -19.198  1.00  0.00    -0.000 C 
BRANCH   3   4
ATOM      4  C   UNL     1      18.965 -22.420 -19.501  1.00  0.00    -0.000 C 
BRANCH   4   5
ATOM      5  C   UNL     1      18.443 -23.686 -20.193  1.00  0.00    -0.000 C 
BRANCH   5   6
ATOM      6  C   UNL     1      17.579 -24.519 -19.234  1.00  0.00    -0.000 C 
BRANCH   6   7
ATOM      7  C   UNL     1      16.987 -23.686 -18.083  1.00  0.00    -0.000 C 
BRANCH   7   8
ATOM      8  C   UNL     1      15.465 -23.830 -17.897  1.00  0.00    -0.003 C 
ATOM      9  C   UNL     1      14.915 -22.958 -16.768  1.00  0.00     0.004 C 
ENDBRANCH   7   8
ENDBRANCH   6   7
ENDBRANCH   5   6
ENDBRANCH   4   5
ENDBRANCH   3   4
ENDBRANCH   2   3
ENDBRANCH   1   2
BRANCH   1  10
ATOM     10  C   UNL     1      20.966 -18.872 -18.220  1.00  0.00     0.000 C 
BRANCH  10  11
ATOM     11  C   UNL     1      21.706 -19.478 -17.017  1.00  0.00     0.000 C 
BRANCH  11  12
ATOM     12  C   UNL     1      23.189 -19.066 -16.962  1.00  0.00     0.000 C 
BRANCH  12  13
ATOM     13  C   UNL     1      23.528 -17.947 -17.960  1.00  0.00     0.000 C 
BRANCH  13  14
ATOM     14  C   UNL     1      24.448 -16.876 -17.356  1.00  0.00     0.002 C 
BRANCH  14  15
ATOM     15  C   UNL     1      23.692 -16.015 -16.335  1.00  0.00     0.028 C 
BRANCH  15  16
ATOM     16  C   UNL     1      22.505 -15.290 -16.972  1.00  0.00     0.156 C 
BRANCH  16  17
ATOM     17  O   UNL     1      21.733 -14.667 -15.984  1.00  0.00    -0.396 OA
ATOM     18  H   UNL     1      21.290 -15.398 -15.480  1.00  0.00     0.210 HD
ENDBRANCH  16  17
ENDBRANCH  15  16
ENDBRANCH  14  15
ENDBRANCH  13  14
ENDBRANCH  12  13
ENDBRANCH  11  12
ENDBRANCH  10  11
ENDBRANCH   1  10
TORSDOF 15
ENDMDL
MODEL 9
REMARK VINA RESULT:    -4.101      2.884      4.532
REMARK INTER + INTRA:          -8.137
REMARK INTER:                  -6.737
REMARK INTRA:                  -1.400
REMARK UNBOUND:                -0.560
REMARK SMILES CCCCCCCCCCCCCCCCO
REMARK SMILES IDX 9 1 8 2 7 3 6 4 5 5 4 6 3 7 2 8 1 9 10 10 11 11 12 12 13 13
REMARK SMILES IDX 14 14 15 15 16 16 17 17
REMARK H PARENT 17 18
REMARK Flexibility Score: inf
ROOT
ATOM      1  C   UNL     1      23.528 -15.001 -17.356  1.00  0.00     0.000 C 
ENDROOT
BRANCH   1   2
ATOM      2  C   UNL     1      24.700 -15.994 -17.248  1.00  0.00    -0.000 C 
BRANCH   2   3
ATOM      3  C   UNL     1      24.778 -16.774 -15.923  1.00  0.00    -0.000 C 
BRANCH   3   4
ATOM      4  C   UNL     1      24.809 -18.296 -16.125  1.00  0.00    -0.000 C 
BRANCH   4   5
ATOM      5  C   UNL     1      24.909 -18.652 -17.613  1.00  0.00    -0.000 C 
BRANCH   5   6
ATOM      6  C   UNL     1      23.659 -19.412 -18.082  1.00  0.00    -0.000 C 
BRANCH   6   7
ATOM      7  C   UNL     1      22.608 -19.580 -16.970  1.00  0.00    -0.000 C 
BRANCH   7   8
ATOM      8  C   UNL     1      21.341 -20.349 -17.388  1.00  0.00    -0.003 C 
ATOM      9  C   UNL     1      20.846 -19.973 -18.784  1.00  0.00     0.004 C 
ENDBRANCH   7   8
ENDBRANCH   6   7
ENDBRANCH   5   6
ENDBRANCH   4   5
ENDBRANCH   3   4
ENDBRANCH   2   3
ENDBRANCH   1   2
BRANCH   1  10
ATOM     10  C   UNL     1      22.306 -15.424 -16.523  1.00  0.00     0.000 C 
BRANCH  10  11
ATOM     11  C   UNL     1      21.484 -16.531 -17.203  1.00  0.00     0.000 C 
BRANCH  11  12
ATOM     12  C   UNL     1      20.219 -16.905 -16.408  1.00  0.00     0.000 C 
BRANCH  12  13
ATOM     13  C   UNL     1      19.267 -15.713 -16.218  1.00  0.00     0.000 C 
BRANCH  13  14
ATOM     14  C   UNL     1      18.349 -15.878 -14.998  1.00  0.00     0.002 C 
BRANCH  14  15
ATOM     15  C   UNL     1      17.043 -15.094 -15.185  1.00  0.00     0.028 C 
BRANCH  15  16
ATOM     16  C   UNL     1      16.507 -15.216 -16.612  1.00  0.00     0.156 C 
BRANCH  16  17
ATOM     17  O   UNL     1      15.750 -14.084 -16.942  1.00  0.00    -0.396 OA
ATOM     18  H   UNL     1      16.079 -13.783 -17.829  1.00  0.00     0.210 HD
ENDBRANCH  16  17
ENDBRANCH  15  16
ENDBRANCH  14  15
ENDBRANCH  13  14
ENDBRANCH  12  13
ENDBRANCH  11  12
ENDBRANCH  10  11
ENDBRANCH   1  10
TORSDOF 15
ENDMDL
