MODEL 1
REMARK VINA RESULT:    -5.675      0.000      0.000
REMARK INTER + INTRA:          -8.823
REMARK INTER:                  -7.168
REMARK INTRA:                  -1.655
REMARK UNBOUND:                -1.655
REMARK SMILES O[C@H]1OC[C@@H](Cc2ccc3c(c2)OCO3)[C@@H]1Cc1ccc2c(c1)OCO2
REMARK SMILES IDX 4 1 5 2 16 3 2 4 3 5 6 6 7 7 12 8 8 9 11 10 9 11 10 12 13 13
REMARK SMILES IDX 15 14 14 15 17 16 18 17 23 18 19 19 22 20 20 21 21 22 24 23
REMARK SMILES IDX 26 24 25 25 1 26
REMARK H PARENT 1 27
REMARK Flexibility Score: inf
ROOT
ATOM      1  C   UNL     1     -13.709  -3.299 -38.944  1.00  0.00     0.168 C 
ATOM      2  C   UNL     1     -12.266  -3.256 -38.461  1.00  0.00     0.028 C 
ATOM      3  C   UNL     1     -11.748  -1.998 -39.122  1.00  0.00     0.055 C 
ATOM      4  C   UNL     1     -13.012  -1.146 -39.237  1.00  0.00     0.250 C 
ATOM      5  O   UNL     1     -14.142  -1.990 -39.232  1.00  0.00    -0.352 OA
ENDROOT
BRANCH   2   6
ATOM      6  C   UNL     1     -11.456  -4.512 -38.847  1.00  0.00     0.042 C 
BRANCH   6   7
ATOM      7  C   UNL     1     -10.511  -4.912 -37.744  1.00  0.00    -0.044 A 
ATOM      8  C   UNL     1     -10.946  -4.885 -36.399  1.00  0.00     0.054 A 
ATOM      9  C   UNL     1      -9.199  -5.358 -38.048  1.00  0.00     0.008 A 
ATOM     10  C   UNL     1     -10.046  -5.280 -35.413  1.00  0.00     0.166 A 
ATOM     11  C   UNL     1      -8.323  -5.755 -37.021  1.00  0.00     0.051 A 
ATOM     12  C   UNL     1      -8.790  -5.695 -35.711  1.00  0.00     0.165 A 
ATOM     13  O   UNL     1     -10.235  -5.326 -34.045  1.00  0.00    -0.454 OA
ATOM     14  O   UNL     1      -8.125  -6.024 -34.544  1.00  0.00    -0.454 OA
ATOM     15  C   UNL     1      -9.020  -5.798 -33.446  1.00  0.00     0.468 C 
ENDBRANCH   6   7
ENDBRANCH   2   6
BRANCH   3  16
ATOM     16  C   UNL     1     -10.622  -1.325 -38.305  1.00  0.00     0.044 C 
BRANCH  16  17
ATOM     17  C   UNL     1      -9.340  -1.242 -39.093  1.00  0.00    -0.044 A 
ATOM     18  C   UNL     1      -8.150  -1.792 -38.565  1.00  0.00     0.054 A 
ATOM     19  C   UNL     1      -9.325  -0.638 -40.377  1.00  0.00     0.008 A 
ATOM     20  C   UNL     1      -6.995  -1.714 -39.337  1.00  0.00     0.166 A 
ATOM     21  C   UNL     1      -8.135  -0.576 -41.123  1.00  0.00     0.051 A 
ATOM     22  C   UNL     1      -6.987  -1.129 -40.562  1.00  0.00     0.165 A 
ATOM     23  O   UNL     1      -5.728  -2.179 -39.040  1.00  0.00    -0.454 OA
ATOM     24  O   UNL     1      -5.714  -1.195 -41.094  1.00  0.00    -0.454 OA
ATOM     25  C   UNL     1      -4.871  -1.866 -40.148  1.00  0.00     0.468 C 
ENDBRANCH  16  17
ENDBRANCH   3  16
BRANCH   4  26
ATOM     26  O   UNL     1     -12.994  -0.415 -40.436  1.00  0.00    -0.368 OA
ATOM     27  H   UNL     1     -12.064  -0.436 -40.782  1.00  0.00     0.213 HD
ENDBRANCH   4  26
TORSDOF 5
ENDMDL
MODEL 2
REMARK VINA RESULT:    -5.594      0.819      5.658
REMARK INTER + INTRA:          -8.721
REMARK INTER:                  -6.812
REMARK INTRA:                  -1.908
REMARK UNBOUND:                -1.655
REMARK SMILES O[C@H]1OC[C@@H](Cc2ccc3c(c2)OCO3)[C@@H]1Cc1ccc2c(c1)OCO2
REMARK SMILES IDX 4 1 5 2 16 3 2 4 3 5 6 6 7 7 12 8 8 9 11 10 9 11 10 12 13 13
REMARK SMILES IDX 15 14 14 15 17 16 18 17 23 18 19 19 22 20 20 21 21 22 24 23
REMARK SMILES IDX 26 24 25 25 1 26
REMARK H PARENT 1 27
REMARK Flexibility Score: inf
ROOT
ATOM      1  C   UNL     1     -12.466  -1.160 -39.205  1.00  0.00     0.168 C 
ATOM      2  C   UNL     1     -11.295  -2.080 -38.886  1.00  0.00     0.028 C 
ATOM      3  C   UNL     1     -11.995  -3.374 -38.535  1.00  0.00     0.055 C 
ATOM      4  C   UNL     1     -13.275  -3.288 -39.367  1.00  0.00     0.250 C 
ATOM      5  O   UNL     1     -13.559  -1.934 -39.642  1.00  0.00    -0.352 OA
ENDROOT
BRANCH   2   6
ATOM      6  C   UNL     1     -10.400  -1.554 -37.743  1.00  0.00     0.042 C 
BRANCH   6   7
ATOM      7  C   UNL     1      -8.940  -1.723 -38.071  1.00  0.00    -0.044 A 
ATOM      8  C   UNL     1      -8.453  -1.333 -39.339  1.00  0.00     0.054 A 
ATOM      9  C   UNL     1      -8.040  -2.233 -37.100  1.00  0.00     0.008 A 
ATOM     10  C   UNL     1      -7.093  -1.490 -39.594  1.00  0.00     0.166 A 
ATOM     11  C   UNL     1      -6.671  -2.370 -37.397  1.00  0.00     0.051 A 
ATOM     12  C   UNL     1      -6.240  -1.988 -38.664  1.00  0.00     0.165 A 
ATOM     13  O   UNL     1      -6.395  -1.194 -40.749  1.00  0.00    -0.454 OA
ATOM     14  O   UNL     1      -4.962  -2.030 -39.188  1.00  0.00    -0.454 OA
ATOM     15  C   UNL     1      -5.017  -1.529 -40.532  1.00  0.00     0.468 C 
ENDBRANCH   6   7
ENDBRANCH   2   6
BRANCH   3  16
ATOM     16  C   UNL     1     -11.132  -4.614 -38.857  1.00  0.00     0.044 C 
BRANCH  16  17
ATOM     17  C   UNL     1     -10.324  -5.052 -37.663  1.00  0.00    -0.044 A 
ATOM     18  C   UNL     1     -10.856  -4.914 -36.361  1.00  0.00     0.054 A 
ATOM     19  C   UNL     1      -9.039  -5.630 -37.839  1.00  0.00     0.008 A 
ATOM     20  C   UNL     1     -10.084  -5.354 -35.290  1.00  0.00     0.166 A 
ATOM     21  C   UNL     1      -8.290  -6.057 -36.729  1.00  0.00     0.051 A 
ATOM     22  C   UNL     1      -8.853  -5.900 -35.466  1.00  0.00     0.165 A 
ATOM     23  O   UNL     1     -10.389  -5.329 -33.943  1.00  0.00    -0.454 OA
ATOM     24  O   UNL     1      -8.323  -6.242 -34.237  1.00  0.00    -0.454 OA
ATOM     25  C   UNL     1      -9.280  -5.894 -33.227  1.00  0.00     0.468 C 
ENDBRANCH  16  17
ENDBRANCH   3  16
BRANCH   4  26
ATOM     26  O   UNL     1     -14.351  -3.844 -38.655  1.00  0.00    -0.368 OA
ATOM     27  H   UNL     1     -14.326  -3.467 -37.738  1.00  0.00     0.213 HD
ENDBRANCH   4  26
TORSDOF 5
ENDMDL
MODEL 3
REMARK VINA RESULT:    -5.532     10.285     14.031
REMARK INTER + INTRA:          -8.642
REMARK INTER:                  -7.023
REMARK INTRA:                  -1.620
REMARK UNBOUND:                -1.655
REMARK SMILES O[C@H]1OC[C@@H](Cc2ccc3c(c2)OCO3)[C@@H]1Cc1ccc2c(c1)OCO2
REMARK SMILES IDX 4 1 5 2 16 3 2 4 3 5 6 6 7 7 12 8 8 9 11 10 9 11 10 12 13 13
REMARK SMILES IDX 15 14 14 15 17 16 18 17 23 18 19 19 22 20 20 21 21 22 24 23
REMARK SMILES IDX 26 24 25 25 1 26
REMARK H PARENT 1 27
REMARK Flexibility Score: inf
ROOT
ATOM      1  C   UNL     1     -16.693  -8.631 -25.068  1.00  0.00     0.168 C 
ATOM      2  C   UNL     1     -16.455  -7.138 -25.246  1.00  0.00     0.028 C 
ATOM      3  C   UNL     1     -16.465  -6.992 -26.751  1.00  0.00     0.055 C 
ATOM      4  C   UNL     1     -17.392  -8.130 -27.182  1.00  0.00     0.250 C 
ATOM      5  O   UNL     1     -17.400  -9.125 -26.182  1.00  0.00    -0.352 OA
ENDROOT
BRANCH   2   6
ATOM      6  C   UNL     1     -15.136  -6.651 -24.607  1.00  0.00     0.042 C 
BRANCH   6   7
ATOM      7  C   UNL     1     -15.283  -5.261 -24.045  1.00  0.00    -0.044 A 
ATOM      8  C   UNL     1     -14.133  -4.488 -23.766  1.00  0.00     0.054 A 
ATOM      9  C   UNL     1     -16.571  -4.704 -23.834  1.00  0.00     0.008 A 
ATOM     10  C   UNL     1     -14.315  -3.202 -23.264  1.00  0.00     0.166 A 
ATOM     11  C   UNL     1     -16.710  -3.397 -23.330  1.00  0.00     0.051 A 
ATOM     12  C   UNL     1     -15.549  -2.681 -23.054  1.00  0.00     0.165 A 
ATOM     13  O   UNL     1     -13.355  -2.274 -22.909  1.00  0.00    -0.454 OA
ATOM     14  O   UNL     1     -15.428  -1.398 -22.557  1.00  0.00    -0.454 OA
ATOM     15  C   UNL     1     -14.029  -1.096 -22.445  1.00  0.00     0.468 C 
ENDBRANCH   6   7
ENDBRANCH   2   6
BRANCH   3  16
ATOM     16  C   UNL     1     -16.951  -5.597 -27.203  1.00  0.00     0.044 C 
BRANCH  16  17
ATOM     17  C   UNL     1     -15.938  -4.918 -28.089  1.00  0.00    -0.044 A 
ATOM     18  C   UNL     1     -15.161  -3.850 -27.584  1.00  0.00     0.054 A 
ATOM     19  C   UNL     1     -15.738  -5.363 -29.421  1.00  0.00     0.008 A 
ATOM     20  C   UNL     1     -14.221  -3.269 -28.430  1.00  0.00     0.166 A 
ATOM     21  C   UNL     1     -14.780  -4.745 -30.245  1.00  0.00     0.051 A 
ATOM     22  C   UNL     1     -14.041  -3.696 -29.706  1.00  0.00     0.165 A 
ATOM     23  O   UNL     1     -13.353  -2.228 -28.165  1.00  0.00    -0.454 OA
ATOM     24  O   UNL     1     -13.050  -2.943 -30.306  1.00  0.00    -0.454 OA
ATOM     25  C   UNL     1     -12.577  -1.986 -29.348  1.00  0.00     0.468 C 
ENDBRANCH  16  17
ENDBRANCH   3  16
BRANCH   4  26
ATOM     26  O   UNL     1     -16.935  -8.695 -28.384  1.00  0.00    -0.368 OA
ATOM     27  H   UNL     1     -17.487  -9.499 -28.563  1.00  0.00     0.213 HD
ENDBRANCH   4  26
TORSDOF 5
ENDMDL
MODEL 4
REMARK VINA RESULT:    -5.529      8.503     11.021
REMARK INTER + INTRA:          -8.638
REMARK INTER:                  -6.730
REMARK INTRA:                  -1.908
REMARK UNBOUND:                -1.655
REMARK SMILES O[C@H]1OC[C@@H](Cc2ccc3c(c2)OCO3)[C@@H]1Cc1ccc2c(c1)OCO2
REMARK SMILES IDX 4 1 5 2 16 3 2 4 3 5 6 6 7 7 12 8 8 9 11 10 9 11 10 12 13 13
REMARK SMILES IDX 15 14 14 15 17 16 18 17 23 18 19 19 22 20 20 21 21 22 24 23
REMARK SMILES IDX 26 24 25 25 1 26
REMARK H PARENT 1 27
REMARK Flexibility Score: inf
ROOT
ATOM      1  C   UNL     1     -11.796   7.694 -39.854  1.00  0.00     0.168 C 
ATOM      2  C   UNL     1     -12.095   6.768 -38.683  1.00  0.00     0.028 C 
ATOM      3  C   UNL     1     -13.434   6.185 -39.073  1.00  0.00     0.055 C 
ATOM      4  C   UNL     1     -13.374   6.224 -40.601  1.00  0.00     0.250 C 
ATOM      5  O   UNL     1     -12.458   7.218 -41.003  1.00  0.00    -0.352 OA
ENDROOT
BRANCH   2   6
ATOM      6  C   UNL     1     -12.133   7.498 -37.322  1.00  0.00     0.042 C 
BRANCH   6   7
ATOM      7  C   UNL     1     -11.649   6.605 -36.210  1.00  0.00    -0.044 A 
ATOM      8  C   UNL     1     -10.414   5.928 -36.336  1.00  0.00     0.054 A 
ATOM      9  C   UNL     1     -12.404   6.471 -35.016  1.00  0.00     0.008 A 
ATOM     10  C   UNL     1      -9.997   5.127 -35.277  1.00  0.00     0.166 A 
ATOM     11  C   UNL     1     -11.942   5.655 -33.967  1.00  0.00     0.051 A 
ATOM     12  C   UNL     1     -10.729   4.996 -34.143  1.00  0.00     0.165 A 
ATOM     13  O   UNL     1      -8.846   4.368 -35.174  1.00  0.00    -0.454 OA
ATOM     14  O   UNL     1     -10.076   4.147 -33.270  1.00  0.00    -0.454 OA
ATOM     15  C   UNL     1      -8.859   3.718 -33.896  1.00  0.00     0.468 C 
ENDBRANCH   6   7
ENDBRANCH   2   6
BRANCH   3  16
ATOM     16  C   UNL     1     -13.646   4.765 -38.500  1.00  0.00     0.044 C 
BRANCH  16  17
ATOM     17  C   UNL     1     -14.639   4.768 -37.366  1.00  0.00    -0.044 A 
ATOM     18  C   UNL     1     -15.542   5.846 -37.221  1.00  0.00     0.054 A 
ATOM     19  C   UNL     1     -14.693   3.680 -36.457  1.00  0.00     0.008 A 
ATOM     20  C   UNL     1     -16.457   5.795 -36.174  1.00  0.00     0.166 A 
ATOM     21  C   UNL     1     -15.631   3.670 -35.409  1.00  0.00     0.051 A 
ATOM     22  C   UNL     1     -16.498   4.753 -35.304  1.00  0.00     0.165 A 
ATOM     23  O   UNL     1     -17.430   6.716 -35.836  1.00  0.00    -0.454 OA
ATOM     24  O   UNL     1     -17.498   4.969 -34.376  1.00  0.00    -0.454 OA
ATOM     25  C   UNL     1     -18.126   6.222 -34.682  1.00  0.00     0.468 C 
ENDBRANCH  16  17
ENDBRANCH   3  16
BRANCH   4  26
ATOM     26  O   UNL     1     -14.641   6.531 -41.125  1.00  0.00    -0.368 OA
ATOM     27  H   UNL     1     -15.232   6.751 -40.360  1.00  0.00     0.213 HD
ENDBRANCH   4  26
TORSDOF 5
ENDMDL
MODEL 5
REMARK VINA RESULT:    -5.477      2.542      7.688
REMARK INTER + INTRA:          -8.572
REMARK INTER:                  -6.996
REMARK INTRA:                  -1.576
REMARK UNBOUND:                -1.655
REMARK SMILES O[C@H]1OC[C@@H](Cc2ccc3c(c2)OCO3)[C@@H]1Cc1ccc2c(c1)OCO2
REMARK SMILES IDX 4 1 5 2 16 3 2 4 3 5 6 6 7 7 12 8 8 9 11 10 9 11 10 12 13 13
REMARK SMILES IDX 15 14 14 15 17 16 18 17 23 18 19 19 22 20 20 21 21 22 24 23
REMARK SMILES IDX 26 24 25 25 1 26
REMARK H PARENT 1 27
REMARK Flexibility Score: inf
ROOT
ATOM      1  C   UNL     1      -8.127  -8.549 -36.631  1.00  0.00     0.168 C 
ATOM      2  C   UNL     1      -8.385  -7.076 -36.343  1.00  0.00     0.028 C 
ATOM      3  C   UNL     1      -8.423  -7.050 -34.832  1.00  0.00     0.055 C 
ATOM      4  C   UNL     1      -7.500  -8.213 -34.463  1.00  0.00     0.250 C 
ATOM      5  O   UNL     1      -7.451  -9.125 -35.538  1.00  0.00    -0.352 OA
ENDROOT
BRANCH   2   6
ATOM      6  C   UNL     1      -9.687  -6.548 -36.983  1.00  0.00     0.042 C 
BRANCH   6   7
ATOM      7  C   UNL     1      -9.529  -5.124 -37.448  1.00  0.00    -0.044 A 
ATOM      8  C   UNL     1     -10.664  -4.291 -37.569  1.00  0.00     0.054 A 
ATOM      9  C   UNL     1      -8.240  -4.599 -37.725  1.00  0.00     0.008 A 
ATOM     10  C   UNL     1     -10.470  -2.977 -37.985  1.00  0.00     0.166 A 
ATOM     11  C   UNL     1      -8.087  -3.262 -38.138  1.00  0.00     0.051 A 
ATOM     12  C   UNL     1      -9.236  -2.485 -38.258  1.00  0.00     0.165 A 
ATOM     13  O   UNL     1     -11.416  -1.990 -38.185  1.00  0.00    -0.454 OA
ATOM     14  O   UNL     1      -9.344  -1.162 -38.645  1.00  0.00    -0.454 OA
ATOM     15  C   UNL     1     -10.733  -0.804 -38.613  1.00  0.00     0.468 C 
ENDBRANCH   6   7
ENDBRANCH   2   6
BRANCH   3  16
ATOM     16  C   UNL     1      -7.964  -5.692 -34.255  1.00  0.00     0.044 C 
BRANCH  16  17
ATOM     17  C   UNL     1      -8.986  -5.119 -33.308  1.00  0.00    -0.044 A 
ATOM     18  C   UNL     1      -9.471  -3.805 -33.502  1.00  0.00     0.054 A 
ATOM     19  C   UNL     1      -9.488  -5.901 -32.236  1.00  0.00     0.008 A 
ATOM     20  C   UNL     1     -10.432  -3.325 -32.617  1.00  0.00     0.166 A 
ATOM     21  C   UNL     1     -10.457  -5.376 -31.361  1.00  0.00     0.051 A 
ATOM     22  C   UNL     1     -10.902  -4.077 -31.590  1.00  0.00     0.165 A 
ATOM     23  O   UNL     1     -11.052  -2.091 -32.607  1.00  0.00    -0.454 OA
ATOM     24  O   UNL     1     -11.840  -3.352 -30.882  1.00  0.00    -0.454 OA
ATOM     25  C   UNL     1     -11.969  -2.066 -31.504  1.00  0.00     0.468 C 
ENDBRANCH  16  17
ENDBRANCH   3  16
BRANCH   4  26
ATOM     26  O   UNL     1      -7.989  -8.874 -33.324  1.00  0.00    -0.368 OA
ATOM     27  H   UNL     1      -7.206  -9.150 -32.782  1.00  0.00     0.213 HD
ENDBRANCH   4  26
TORSDOF 5
ENDMDL
MODEL 6
REMARK VINA RESULT:    -5.471      1.017      5.515
REMARK INTER + INTRA:          -8.565
REMARK INTER:                  -6.911
REMARK INTRA:                  -1.654
REMARK UNBOUND:                -1.655
REMARK SMILES O[C@H]1OC[C@@H](Cc2ccc3c(c2)OCO3)[C@@H]1Cc1ccc2c(c1)OCO2
REMARK SMILES IDX 4 1 5 2 16 3 2 4 3 5 6 6 7 7 12 8 8 9 11 10 9 11 10 12 13 13
REMARK SMILES IDX 15 14 14 15 17 16 18 17 23 18 19 19 22 20 20 21 21 22 24 23
REMARK SMILES IDX 26 24 25 25 1 26
REMARK H PARENT 1 27
REMARK Flexibility Score: inf
ROOT
ATOM      1  C   UNL     1     -13.345  -1.301 -40.489  1.00  0.00     0.168 C 
ATOM      2  C   UNL     1     -12.079  -1.970 -39.971  1.00  0.00     0.028 C 
ATOM      3  C   UNL     1     -12.632  -3.166 -39.231  1.00  0.00     0.055 C 
ATOM      4  C   UNL     1     -13.927  -3.452 -39.993  1.00  0.00     0.250 C 
ATOM      5  O   UNL     1     -14.356  -2.270 -40.634  1.00  0.00    -0.352 OA
ENDROOT
BRANCH   2   6
ATOM      6  C   UNL     1     -11.227  -1.049 -39.070  1.00  0.00     0.042 C 
BRANCH   6   7
ATOM      7  C   UNL     1      -9.787  -1.035 -39.510  1.00  0.00    -0.044 A 
ATOM      8  C   UNL     1      -8.813  -1.732 -38.759  1.00  0.00     0.054 A 
ATOM      9  C   UNL     1      -9.406  -0.362 -40.700  1.00  0.00     0.008 A 
ATOM     10  C   UNL     1      -7.497  -1.707 -39.211  1.00  0.00     0.166 A 
ATOM     11  C   UNL     1      -8.064  -0.367 -41.125  1.00  0.00     0.051 A 
ATOM     12  C   UNL     1      -7.138  -1.052 -40.344  1.00  0.00     0.165 A 
ATOM     13  O   UNL     1      -6.382  -2.296 -38.646  1.00  0.00    -0.454 OA
ATOM     14  O   UNL     1      -5.779  -1.197 -40.548  1.00  0.00    -0.454 OA
ATOM     15  C   UNL     1      -5.252  -1.990 -39.475  1.00  0.00     0.468 C 
ENDBRANCH   6   7
ENDBRANCH   2   6
BRANCH   3  16
ATOM     16  C   UNL     1     -11.648  -4.357 -39.219  1.00  0.00     0.044 C 
BRANCH  16  17
ATOM     17  C   UNL     1     -11.021  -4.545 -37.862  1.00  0.00    -0.044 A 
ATOM     18  C   UNL     1      -9.968  -5.473 -37.693  1.00  0.00     0.054 A 
ATOM     19  C   UNL     1     -11.463  -3.775 -36.755  1.00  0.00     0.008 A 
ATOM     20  C   UNL     1      -9.403  -5.597 -36.427  1.00  0.00     0.166 A 
ATOM     21  C   UNL     1     -10.867  -3.934 -35.491  1.00  0.00     0.051 A 
ATOM     22  C   UNL     1      -9.835  -4.861 -35.371  1.00  0.00     0.165 A 
ATOM     23  O   UNL     1      -8.372  -6.422 -36.022  1.00  0.00    -0.454 OA
ATOM     24  O   UNL     1      -9.098  -5.189 -34.250  1.00  0.00    -0.454 OA
ATOM     25  C   UNL     1      -8.142  -6.190 -34.625  1.00  0.00     0.468 C 
ENDBRANCH  16  17
ENDBRANCH   3  16
BRANCH   4  26
ATOM     26  O   UNL     1     -14.926  -3.877 -39.103  1.00  0.00    -0.368 OA
ATOM     27  H   UNL     1     -14.994  -3.196 -38.385  1.00  0.00     0.213 HD
ENDBRANCH   4  26
TORSDOF 5
ENDMDL
MODEL 7
REMARK VINA RESULT:    -5.406      6.930     10.314
REMARK INTER + INTRA:          -8.483
REMARK INTER:                  -6.777
REMARK INTRA:                  -1.706
REMARK UNBOUND:                -1.655
REMARK SMILES O[C@H]1OC[C@@H](Cc2ccc3c(c2)OCO3)[C@@H]1Cc1ccc2c(c1)OCO2
REMARK SMILES IDX 4 1 5 2 16 3 2 4 3 5 6 6 7 7 12 8 8 9 11 10 9 11 10 12 13 13
REMARK SMILES IDX 15 14 14 15 17 16 18 17 23 18 19 19 22 20 20 21 21 22 24 23
REMARK SMILES IDX 26 24 25 25 1 26
REMARK H PARENT 1 27
REMARK Flexibility Score: inf
ROOT
ATOM      1  C   UNL     1     -10.794   7.936 -40.671  1.00  0.00     0.168 C 
ATOM      2  C   UNL     1     -11.498   6.659 -40.233  1.00  0.00     0.028 C 
ATOM      3  C   UNL     1     -12.765   7.194 -39.605  1.00  0.00     0.055 C 
ATOM      4  C   UNL     1     -12.987   8.495 -40.378  1.00  0.00     0.250 C 
ATOM      5  O   UNL     1     -11.754   8.941 -40.899  1.00  0.00    -0.352 OA
ENDROOT
BRANCH   2   6
ATOM      6  C   UNL     1     -10.660   5.805 -39.257  1.00  0.00     0.042 C 
BRANCH   6   7
ATOM      7  C   UNL     1     -11.009   4.344 -39.371  1.00  0.00    -0.044 A 
ATOM      8  C   UNL     1     -11.300   3.596 -38.208  1.00  0.00     0.054 A 
ATOM      9  C   UNL     1     -11.091   3.723 -40.644  1.00  0.00     0.008 A 
ATOM     10  C   UNL     1     -11.635   2.253 -38.361  1.00  0.00     0.166 A 
ATOM     11  C   UNL     1     -11.440   2.364 -40.755  1.00  0.00     0.051 A 
ATOM     12  C   UNL     1     -11.701   1.664 -39.581  1.00  0.00     0.165 A 
ATOM     13  O   UNL     1     -11.945   1.327 -37.383  1.00  0.00    -0.454 OA
ATOM     14  O   UNL     1     -12.055   0.336 -39.431  1.00  0.00    -0.454 OA
ATOM     15  C   UNL     1     -12.220   0.077 -38.030  1.00  0.00     0.468 C 
ENDBRANCH   6   7
ENDBRANCH   2   6
BRANCH   3  16
ATOM     16  C   UNL     1     -13.942   6.200 -39.719  1.00  0.00     0.044 C 
BRANCH  16  17
ATOM     17  C   UNL     1     -14.533   5.885 -38.369  1.00  0.00    -0.044 A 
ATOM     18  C   UNL     1     -15.817   5.300 -38.279  1.00  0.00     0.054 A 
ATOM     19  C   UNL     1     -13.796   6.146 -37.184  1.00  0.00     0.008 A 
ATOM     20  C   UNL     1     -16.313   5.004 -37.012  1.00  0.00     0.166 A 
ATOM     21  C   UNL     1     -14.336   5.835 -35.924  1.00  0.00     0.051 A 
ATOM     22  C   UNL     1     -15.604   5.262 -35.884  1.00  0.00     0.165 A 
ATOM     23  O   UNL     1     -17.524   4.433 -36.676  1.00  0.00    -0.454 OA
ATOM     24  O   UNL     1     -16.336   4.868 -34.782  1.00  0.00    -0.454 OA
ATOM     25  C   UNL     1     -17.580   4.325 -35.246  1.00  0.00     0.468 C 
ENDBRANCH  16  17
ENDBRANCH   3  16
BRANCH   4  26
ATOM     26  O   UNL     1     -13.505   9.481 -39.523  1.00  0.00    -0.368 OA
ATOM     27  H   UNL     1     -13.252  10.363 -39.899  1.00  0.00     0.213 HD
ENDBRANCH   4  26
TORSDOF 5
ENDMDL
MODEL 8
REMARK VINA RESULT:    -5.242      7.460     10.058
REMARK INTER + INTRA:          -8.276
REMARK INTER:                  -6.181
REMARK INTRA:                  -2.095
REMARK UNBOUND:                -1.655
REMARK SMILES O[C@H]1OC[C@@H](Cc2ccc3c(c2)OCO3)[C@@H]1Cc1ccc2c(c1)OCO2
REMARK SMILES IDX 4 1 5 2 16 3 2 4 3 5 6 6 7 7 12 8 8 9 11 10 9 11 10 12 13 13
REMARK SMILES IDX 15 14 14 15 17 16 18 17 23 18 19 19 22 20 20 21 21 22 24 23
REMARK SMILES IDX 26 24 25 25 1 26
REMARK H PARENT 1 27
REMARK Flexibility Score: inf
ROOT
ATOM      1  C   UNL     1     -11.634   9.176 -37.720  1.00  0.00     0.168 C 
ATOM      2  C   UNL     1     -11.887   7.689 -37.512  1.00  0.00     0.028 C 
ATOM      3  C   UNL     1     -12.725   7.338 -38.721  1.00  0.00     0.055 C 
ATOM      4  C   UNL     1     -12.238   8.349 -39.760  1.00  0.00     0.250 C 
ATOM      5  O   UNL     1     -11.696   9.470 -39.096  1.00  0.00    -0.352 OA
ENDROOT
BRANCH   2   6
ATOM      6  C   UNL     1     -12.599   7.373 -36.178  1.00  0.00     0.042 C 
BRANCH   6   7
ATOM      7  C   UNL     1     -12.264   5.985 -35.698  1.00  0.00    -0.044 A 
ATOM      8  C   UNL     1     -13.250   5.208 -35.047  1.00  0.00     0.054 A 
ATOM      9  C   UNL     1     -10.977   5.435 -35.931  1.00  0.00     0.008 A 
ATOM     10  C   UNL     1     -12.903   3.924 -34.635  1.00  0.00     0.166 A 
ATOM     11  C   UNL     1     -10.670   4.130 -35.503  1.00  0.00     0.051 A 
ATOM     12  C   UNL     1     -11.667   3.408 -34.852  1.00  0.00     0.165 A 
ATOM     13  O   UNL     1     -13.683   2.992 -33.977  1.00  0.00    -0.454 OA
ATOM     14  O   UNL     1     -11.608   2.126 -34.342  1.00  0.00    -0.454 OA
ATOM     15  C   UNL     1     -12.886   1.818 -33.766  1.00  0.00     0.468 C 
ENDBRANCH   6   7
ENDBRANCH   2   6
BRANCH   3  16
ATOM     16  C   UNL     1     -12.538   5.867 -39.157  1.00  0.00     0.044 C 
BRANCH  16  17
ATOM     17  C   UNL     1     -13.687   5.005 -38.703  1.00  0.00    -0.044 A 
ATOM     18  C   UNL     1     -13.468   3.645 -38.385  1.00  0.00     0.054 A 
ATOM     19  C   UNL     1     -14.988   5.557 -38.564  1.00  0.00     0.008 A 
ATOM     20  C   UNL     1     -14.553   2.892 -37.947  1.00  0.00     0.166 A 
ATOM     21  C   UNL     1     -16.059   4.759 -38.121  1.00  0.00     0.051 A 
ATOM     22  C   UNL     1     -15.795   3.426 -37.823  1.00  0.00     0.165 A 
ATOM     23  O   UNL     1     -14.584   1.562 -37.577  1.00  0.00    -0.454 OA
ATOM     24  O   UNL     1     -16.668   2.456 -37.371  1.00  0.00    -0.454 OA
ATOM     25  C   UNL     1     -15.930   1.239 -37.197  1.00  0.00     0.468 C 
ENDBRANCH  16  17
ENDBRANCH   3  16
BRANCH   4  26
ATOM     26  O   UNL     1     -13.311   8.769 -40.563  1.00  0.00    -0.368 OA
ATOM     27  H   UNL     1     -14.070   8.154 -40.389  1.00  0.00     0.213 HD
ENDBRANCH   4  26
TORSDOF 5
ENDMDL
MODEL 9
REMARK VINA RESULT:    -5.203      8.670     10.750
REMARK INTER + INTRA:          -8.227
REMARK INTER:                  -6.153
REMARK INTRA:                  -2.073
REMARK UNBOUND:                -1.655
REMARK SMILES O[C@H]1OC[C@@H](Cc2ccc3c(c2)OCO3)[C@@H]1Cc1ccc2c(c1)OCO2
REMARK SMILES IDX 4 1 5 2 16 3 2 4 3 5 6 6 7 7 12 8 8 9 11 10 9 11 10 12 13 13
REMARK SMILES IDX 15 14 14 15 17 16 18 17 23 18 19 19 22 20 20 21 21 22 24 23
REMARK SMILES IDX 26 24 25 25 1 26
REMARK H PARENT 1 27
REMARK Flexibility Score: inf
ROOT
ATOM      1  C   UNL     1     -13.349   7.292 -40.953  1.00  0.00     0.168 C 
ATOM      2  C   UNL     1     -13.371   6.918 -39.477  1.00  0.00     0.028 C 
ATOM      3  C   UNL     1     -12.080   7.527 -38.977  1.00  0.00     0.055 C 
ATOM      4  C   UNL     1     -11.892   8.714 -39.923  1.00  0.00     0.250 C 
ATOM      5  O   UNL     1     -12.586   8.463 -41.125  1.00  0.00    -0.352 OA
ENDROOT
BRANCH   2   6
ATOM      6  C   UNL     1     -13.447   5.395 -39.235  1.00  0.00     0.042 C 
BRANCH   6   7
ATOM      7  C   UNL     1     -14.241   5.080 -37.994  1.00  0.00    -0.044 A 
ATOM      8  C   UNL     1     -15.330   5.902 -37.626  1.00  0.00     0.054 A 
ATOM      9  C   UNL     1     -13.930   3.936 -37.214  1.00  0.00     0.008 A 
ATOM     10  C   UNL     1     -16.048   5.563 -36.482  1.00  0.00     0.166 A 
ATOM     11  C   UNL     1     -14.685   3.626 -36.068  1.00  0.00     0.051 A 
ATOM     12  C   UNL     1     -15.738   4.474 -35.735  1.00  0.00     0.165 A 
ATOM     13  O   UNL     1     -17.132   6.213 -35.923  1.00  0.00    -0.454 OA
ATOM     14  O   UNL     1     -16.612   4.385 -34.668  1.00  0.00    -0.454 OA
ATOM     15  C   UNL     1     -17.526   5.488 -34.750  1.00  0.00     0.468 C 
ENDBRANCH   6   7
ENDBRANCH   2   6
BRANCH   3  16
ATOM     16  C   UNL     1     -12.160   7.932 -37.488  1.00  0.00     0.044 C 
BRANCH  16  17
ATOM     17  C   UNL     1     -11.674   6.827 -36.587  1.00  0.00    -0.044 A 
ATOM     18  C   UNL     1     -12.279   6.626 -35.325  1.00  0.00     0.054 A 
ATOM     19  C   UNL     1     -10.628   5.965 -37.009  1.00  0.00     0.008 A 
ATOM     20  C   UNL     1     -11.813   5.578 -34.536  1.00  0.00     0.166 A 
ATOM     21  C   UNL     1     -10.184   4.920 -36.178  1.00  0.00     0.051 A 
ATOM     22  C   UNL     1     -10.808   4.762 -34.944  1.00  0.00     0.165 A 
ATOM     23  O   UNL     1     -12.246   5.187 -33.284  1.00  0.00    -0.454 OA
ATOM     24  O   UNL     1     -10.558   3.819 -33.967  1.00  0.00    -0.454 OA
ATOM     25  C   UNL     1     -11.463   4.054 -32.880  1.00  0.00     0.468 C 
ENDBRANCH  16  17
ENDBRANCH   3  16
BRANCH   4  26
ATOM     26  O   UNL     1     -10.528   8.889 -40.211  1.00  0.00    -0.368 OA
ATOM     27  H   UNL     1     -10.354   8.463 -41.089  1.00  0.00     0.213 HD
ENDBRANCH   4  26
TORSDOF 5
ENDMDL
