MODEL 1
REMARK VINA RESULT:    -3.989      0.000      0.000
REMARK INTER + INTRA:          -9.545
REMARK INTER:                  -7.253
REMARK INTRA:                  -2.292
REMARK UNBOUND:                -2.292
REMARK SMILES CCCCCCCCCCCCCCCC(=O)[O-]
REMARK SMILES IDX 9 1 10 2 11 3 12 4 13 5 14 6 15 7 16 8 17 9 18 10 8 11 7 12
REMARK SMILES IDX 6 13 5 14 4 15 3 16 2 17 1 18
REMARK H PARENT
REMARK Flexibility Score: inf
ROOT
ATOM      1  C   UNL     1       7.816 -16.936  22.132  1.00  0.00     0.000 C 
ENDROOT
BRANCH   1   2
ATOM      2  C   UNL     1       6.548 -16.809  22.996  1.00  0.00     0.000 C 
BRANCH   2   3
ATOM      3  C   UNL     1       6.455 -17.904  24.071  1.00  0.00     0.000 C 
BRANCH   3   4
ATOM      4  C   UNL     1       7.050 -19.241  23.607  1.00  0.00     0.000 C 
BRANCH   4   5
ATOM      5  C   UNL     1       6.020 -20.048  22.801  1.00  0.00     0.000 C 
BRANCH   5   6
ATOM      6  C   UNL     1       6.625 -20.693  21.544  1.00  0.00     0.006 C 
BRANCH   6   7
ATOM      7  C   UNL     1       8.154 -20.802  21.613  1.00  0.00     0.053 C 
BRANCH   7   8
ATOM      8  C   UNL     1       8.649 -21.814  20.629  1.00  0.00     0.041 C 
ATOM      9  O   UNL     1       8.324 -21.730  19.415  1.00  0.00    -0.550 OA
ATOM     10  O   UNL     1       9.432 -22.878  21.058  1.00  0.00    -0.550 OA
ENDBRANCH   7   8
ENDBRANCH   6   7
ENDBRANCH   5   6
ENDBRANCH   4   5
ENDBRANCH   3   4
ENDBRANCH   2   3
ENDBRANCH   1   2
BRANCH   1  11
ATOM     11  C   UNL     1       8.883 -15.891  22.492  1.00  0.00     0.000 C 
BRANCH  11  12
ATOM     12  C   UNL     1       8.347 -14.798  23.429  1.00  0.00    -0.000 C 
BRANCH  12  13
ATOM     13  C   UNL     1       9.230 -14.661  24.675  1.00  0.00    -0.000 C 
BRANCH  13  14
ATOM     14  C   UNL     1       8.861 -15.711  25.730  1.00  0.00    -0.000 C 
BRANCH  14  15
ATOM     15  C   UNL     1      10.068 -16.598  26.069  1.00  0.00    -0.000 C 
BRANCH  15  16
ATOM     16  C   UNL     1       9.924 -18.035  25.537  1.00  0.00    -0.000 C 
BRANCH  16  17
ATOM     17  C   UNL     1      11.137 -18.558  24.749  1.00  0.00    -0.003 C 
ATOM     18  C   UNL     1      10.788 -18.986  23.324  1.00  0.00     0.004 C 
ENDBRANCH  16  17
ENDBRANCH  15  16
ENDBRANCH  14  15
ENDBRANCH  13  14
ENDBRANCH  12  13
ENDBRANCH  11  12
ENDBRANCH   1  11
TORSDOF 14
ENDMDL
MODEL 2
REMARK VINA RESULT:    -3.939      3.314      6.208
REMARK INTER + INTRA:          -9.456
REMARK INTER:                  -7.369
REMARK INTRA:                  -2.087
REMARK UNBOUND:                -2.292
REMARK SMILES CCCCCCCCCCCCCCCC(=O)[O-]
REMARK SMILES IDX 9 1 10 2 11 3 12 4 13 5 14 6 15 7 16 8 17 9 18 10 8 11 7 12
REMARK SMILES IDX 6 13 5 14 4 15 3 16 2 17 1 18
REMARK H PARENT
REMARK Flexibility Score: inf
ROOT
ATOM      1  C   UNL     1       6.760 -20.075  23.894  1.00  0.00     0.000 C 
ENDROOT
BRANCH   1   2
ATOM      2  C   UNL     1       7.168 -18.685  24.416  1.00  0.00     0.000 C 
BRANCH   2   3
ATOM      3  C   UNL     1       6.222 -17.574  23.935  1.00  0.00     0.000 C 
BRANCH   3   4
ATOM      4  C   UNL     1       6.948 -16.488  23.127  1.00  0.00     0.000 C 
BRANCH   4   5
ATOM      5  C   UNL     1       8.451 -16.791  23.029  1.00  0.00     0.000 C 
BRANCH   5   6
ATOM      6  C   UNL     1       9.320 -15.528  23.145  1.00  0.00     0.006 C 
BRANCH   6   7
ATOM      7  C   UNL     1       9.010 -14.712  24.407  1.00  0.00     0.053 C 
BRANCH   7   8
ATOM      8  C   UNL     1       9.101 -15.579  25.623  1.00  0.00     0.041 C 
ATOM      9  O   UNL     1       8.097 -15.736  26.366  1.00  0.00    -0.550 OA
ATOM     10  O   UNL     1      10.309 -16.174  25.965  1.00  0.00    -0.550 OA
ENDBRANCH   7   8
ENDBRANCH   6   7
ENDBRANCH   5   6
ENDBRANCH   4   5
ENDBRANCH   3   4
ENDBRANCH   2   3
ENDBRANCH   1   2
BRANCH   1  11
ATOM     11  C   UNL     1       6.109 -20.016  22.504  1.00  0.00     0.000 C 
BRANCH  11  12
ATOM     12  C   UNL     1       6.934 -20.744  21.433  1.00  0.00    -0.000 C 
BRANCH  12  13
ATOM     13  C   UNL     1       8.235 -19.988  21.135  1.00  0.00    -0.000 C 
BRANCH  13  14
ATOM     14  C   UNL     1       8.412 -19.768  19.628  1.00  0.00    -0.000 C 
BRANCH  14  15
ATOM     15  C   UNL     1       8.637 -18.283  19.311  1.00  0.00    -0.000 C 
BRANCH  15  16
ATOM     16  C   UNL     1       7.377 -17.426  19.527  1.00  0.00    -0.000 C 
BRANCH  16  17
ATOM     17  C   UNL     1       7.601 -15.907  19.427  1.00  0.00    -0.003 C 
ATOM     18  C   UNL     1       6.415 -15.092  19.939  1.00  0.00     0.004 C 
ENDBRANCH  16  17
ENDBRANCH  15  16
ENDBRANCH  14  15
ENDBRANCH  13  14
ENDBRANCH  12  13
ENDBRANCH  11  12
ENDBRANCH   1  11
TORSDOF 14
ENDMDL
MODEL 3
REMARK VINA RESULT:    -3.935      2.926      6.114
REMARK INTER + INTRA:          -9.448
REMARK INTER:                  -7.450
REMARK INTRA:                  -1.998
REMARK UNBOUND:                -2.292
REMARK SMILES CCCCCCCCCCCCCCCC(=O)[O-]
REMARK SMILES IDX 9 1 10 2 11 3 12 4 13 5 14 6 15 7 16 8 17 9 18 10 8 11 7 12
REMARK SMILES IDX 6 13 5 14 4 15 3 16 2 17 1 18
REMARK H PARENT
REMARK Flexibility Score: inf
ROOT
ATOM      1  C   UNL     1       8.473 -18.282  22.555  1.00  0.00     0.000 C 
ENDROOT
BRANCH   1   2
ATOM      2  C   UNL     1       8.261 -16.987  21.751  1.00  0.00     0.000 C 
BRANCH   2   3
ATOM      3  C   UNL     1       6.870 -16.374  21.976  1.00  0.00     0.000 C 
BRANCH   3   4
ATOM      4  C   UNL     1       6.799 -15.517  23.248  1.00  0.00     0.000 C 
BRANCH   4   5
ATOM      5  C   UNL     1       8.039 -14.619  23.373  1.00  0.00     0.000 C 
BRANCH   5   6
ATOM      6  C   UNL     1       8.762 -14.790  24.718  1.00  0.00     0.006 C 
BRANCH   6   7
ATOM      7  C   UNL     1       8.231 -15.980  25.528  1.00  0.00     0.053 C 
BRANCH   7   8
ATOM      8  C   UNL     1       9.352 -16.896  25.905  1.00  0.00     0.041 C 
ATOM      9  O   UNL     1      10.510 -16.437  26.092  1.00  0.00    -0.550 OA
ATOM     10  O   UNL     1       9.130 -18.264  26.002  1.00  0.00    -0.550 OA
ENDBRANCH   7   8
ENDBRANCH   6   7
ENDBRANCH   5   6
ENDBRANCH   4   5
ENDBRANCH   3   4
ENDBRANCH   2   3
ENDBRANCH   1   2
BRANCH   1  11
ATOM     11  C   UNL     1       7.160 -18.856  23.109  1.00  0.00     0.000 C 
BRANCH  11  12
ATOM     12  C   UNL     1       7.033 -20.369  22.881  1.00  0.00    -0.000 C 
BRANCH  12  13
ATOM     13  C   UNL     1       6.777 -20.681  21.402  1.00  0.00    -0.000 C 
BRANCH  13  14
ATOM     14  C   UNL     1       7.672 -21.829  20.918  1.00  0.00    -0.000 C 
BRANCH  14  15
ATOM     15  C   UNL     1       8.960 -21.291  20.279  1.00  0.00    -0.000 C 
BRANCH  15  16
ATOM     16  C   UNL     1       8.747 -20.774  18.844  1.00  0.00    -0.000 C 
BRANCH  16  17
ATOM     17  C   UNL     1       8.912 -19.254  18.672  1.00  0.00    -0.003 C 
ATOM     18  C   UNL     1       7.585 -18.530  18.447  1.00  0.00     0.004 C 
ENDBRANCH  16  17
ENDBRANCH  15  16
ENDBRANCH  14  15
ENDBRANCH  13  14
ENDBRANCH  12  13
ENDBRANCH  11  12
ENDBRANCH   1  11
TORSDOF 14
ENDMDL
MODEL 4
REMARK VINA RESULT:    -3.923      1.467      3.373
REMARK INTER + INTRA:          -9.426
REMARK INTER:                  -6.858
REMARK INTRA:                  -2.568
REMARK UNBOUND:                -2.292
REMARK SMILES CCCCCCCCCCCCCCCC(=O)[O-]
REMARK SMILES IDX 9 1 10 2 11 3 12 4 13 5 14 6 15 7 16 8 17 9 18 10 8 11 7 12
REMARK SMILES IDX 6 13 5 14 4 15 3 16 2 17 1 18
REMARK H PARENT
REMARK Flexibility Score: inf
ROOT
ATOM      1  C   UNL     1       6.737 -18.030  24.468  1.00  0.00     0.000 C 
ENDROOT
BRANCH   1   2
ATOM      2  C   UNL     1       6.811 -19.441  23.858  1.00  0.00     0.000 C 
BRANCH   2   3
ATOM      3  C   UNL     1       7.363 -19.435  22.423  1.00  0.00     0.000 C 
BRANCH   3   4
ATOM      4  C   UNL     1       8.083 -18.125  22.072  1.00  0.00     0.000 C 
BRANCH   4   5
ATOM      5  C   UNL     1       9.506 -18.402  21.564  1.00  0.00     0.000 C 
BRANCH   5   6
ATOM      6  C   UNL     1      10.278 -19.378  22.466  1.00  0.00     0.006 C 
BRANCH   6   7
ATOM      7  C   UNL     1      11.332 -20.185  21.697  1.00  0.00     0.053 C 
BRANCH   7   8
ATOM      8  C   UNL     1      10.869 -21.595  21.504  1.00  0.00     0.041 C 
ATOM      9  O   UNL     1       9.849 -21.838  20.807  1.00  0.00    -0.550 OA
ATOM     10  O   UNL     1      11.536 -22.639  22.134  1.00  0.00    -0.550 OA
ENDBRANCH   7   8
ENDBRANCH   6   7
ENDBRANCH   5   6
ENDBRANCH   4   5
ENDBRANCH   3   4
ENDBRANCH   2   3
ENDBRANCH   1   2
BRANCH   1  11
ATOM     11  C   UNL     1       7.557 -17.903  25.762  1.00  0.00     0.000 C 
BRANCH  11  12
ATOM     12  C   UNL     1       8.813 -18.787  25.754  1.00  0.00    -0.000 C 
BRANCH  12  13
ATOM     13  C   UNL     1      10.035 -18.006  26.253  1.00  0.00    -0.000 C 
BRANCH  13  14
ATOM     14  C   UNL     1       9.923 -16.519  25.897  1.00  0.00    -0.000 C 
BRANCH  14  15
ATOM     15  C   UNL     1      10.658 -16.210  24.584  1.00  0.00    -0.000 C 
BRANCH  15  16
ATOM     16  C   UNL     1      10.005 -15.067  23.786  1.00  0.00    -0.000 C 
BRANCH  16  17
ATOM     17  C   UNL     1       8.616 -14.637  24.290  1.00  0.00    -0.003 C 
ATOM     18  C   UNL     1       7.558 -14.621  23.188  1.00  0.00     0.004 C 
ENDBRANCH  16  17
ENDBRANCH  15  16
ENDBRANCH  14  15
ENDBRANCH  13  14
ENDBRANCH  12  13
ENDBRANCH  11  12
ENDBRANCH   1  11
TORSDOF 14
ENDMDL
MODEL 5
REMARK VINA RESULT:    -3.921      1.183      2.117
REMARK INTER + INTRA:          -9.422
REMARK INTER:                  -6.818
REMARK INTRA:                  -2.604
REMARK UNBOUND:                -2.292
REMARK SMILES CCCCCCCCCCCCCCCC(=O)[O-]
REMARK SMILES IDX 9 1 10 2 11 3 12 4 13 5 14 6 15 7 16 8 17 9 18 10 8 11 7 12
REMARK SMILES IDX 6 13 5 14 4 15 3 16 2 17 1 18
REMARK H PARENT
REMARK Flexibility Score: inf
ROOT
ATOM      1  C   UNL     1       8.324 -15.159  23.418  1.00  0.00     0.000 C 
ENDROOT
BRANCH   1   2
ATOM      2  C   UNL     1       6.929 -15.787  23.250  1.00  0.00     0.000 C 
BRANCH   2   3
ATOM      3  C   UNL     1       6.981 -17.174  22.591  1.00  0.00     0.000 C 
BRANCH   3   4
ATOM      4  C   UNL     1       6.492 -18.291  23.524  1.00  0.00     0.000 C 
BRANCH   4   5
ATOM      5  C   UNL     1       7.144 -19.634  23.160  1.00  0.00     0.000 C 
BRANCH   5   6
ATOM      6  C   UNL     1       7.866 -19.594  21.804  1.00  0.00     0.006 C 
BRANCH   6   7
ATOM      7  C   UNL     1       8.807 -20.788  21.600  1.00  0.00     0.053 C 
BRANCH   7   8
ATOM      8  C   UNL     1       8.238 -21.735  20.591  1.00  0.00     0.041 C 
ATOM      9  O   UNL     1       7.609 -22.758  20.967  1.00  0.00    -0.550 OA
ATOM     10  O   UNL     1       8.444 -21.512  19.235  1.00  0.00    -0.550 OA
ENDBRANCH   7   8
ENDBRANCH   6   7
ENDBRANCH   5   6
ENDBRANCH   4   5
ENDBRANCH   3   4
ENDBRANCH   2   3
ENDBRANCH   1   2
BRANCH   1  11
ATOM     11  C   UNL     1       8.622 -14.763  24.873  1.00  0.00     0.000 C 
BRANCH  11  12
ATOM     12  C   UNL     1       8.543 -15.955  25.838  1.00  0.00    -0.000 C 
BRANCH  12  13
ATOM     13  C   UNL     1       9.880 -16.703  25.897  1.00  0.00    -0.000 C 
BRANCH  13  14
ATOM     14  C   UNL     1       9.724 -18.150  25.411  1.00  0.00    -0.000 C 
BRANCH  14  15
ATOM     15  C   UNL     1      10.580 -18.407  24.162  1.00  0.00    -0.000 C 
BRANCH  15  16
ATOM     16  C   UNL     1      11.662 -17.333  23.947  1.00  0.00    -0.000 C 
BRANCH  16  17
ATOM     17  C   UNL     1      11.531 -16.536  22.637  1.00  0.00    -0.003 C 
ATOM     18  C   UNL     1      10.762 -17.289  21.552  1.00  0.00     0.004 C 
ENDBRANCH  16  17
ENDBRANCH  15  16
ENDBRANCH  14  15
ENDBRANCH  13  14
ENDBRANCH  12  13
ENDBRANCH  11  12
ENDBRANCH   1  11
TORSDOF 14
ENDMDL
MODEL 6
REMARK VINA RESULT:    -3.887      3.318      6.313
REMARK INTER + INTRA:          -9.361
REMARK INTER:                  -7.304
REMARK INTRA:                  -2.056
REMARK UNBOUND:                -2.292
REMARK SMILES CCCCCCCCCCCCCCCC(=O)[O-]
REMARK SMILES IDX 9 1 10 2 11 3 12 4 13 5 14 6 15 7 16 8 17 9 18 10 8 11 7 12
REMARK SMILES IDX 6 13 5 14 4 15 3 16 2 17 1 18
REMARK H PARENT
REMARK Flexibility Score: inf
ROOT
ATOM      1  C   UNL     1       7.341 -20.409  22.170  1.00  0.00     0.000 C 
ENDROOT
BRANCH   1   2
ATOM      2  C   UNL     1       6.751 -19.782  23.447  1.00  0.00     0.000 C 
BRANCH   2   3
ATOM      3  C   UNL     1       6.434 -18.288  23.279  1.00  0.00     0.000 C 
BRANCH   3   4
ATOM      4  C   UNL     1       6.319 -17.553  24.622  1.00  0.00     0.000 C 
BRANCH   4   5
ATOM      5  C   UNL     1       7.520 -17.873  25.526  1.00  0.00     0.000 C 
BRANCH   5   6
ATOM      6  C   UNL     1       8.784 -17.093  25.130  1.00  0.00     0.006 C 
BRANCH   6   7
ATOM      7  C   UNL     1       8.676 -15.595  25.444  1.00  0.00     0.053 C 
BRANCH   7   8
ATOM      8  C   UNL     1       8.798 -14.790  24.188  1.00  0.00     0.041 C 
ATOM      9  O   UNL     1       9.928 -14.401  23.792  1.00  0.00    -0.550 OA
ATOM     10  O   UNL     1       7.659 -14.428  23.480  1.00  0.00    -0.550 OA
ENDBRANCH   7   8
ENDBRANCH   6   7
ENDBRANCH   5   6
ENDBRANCH   4   5
ENDBRANCH   3   4
ENDBRANCH   2   3
ENDBRANCH   1   2
BRANCH   1  11
ATOM     11  C   UNL     1       8.875 -20.333  22.130  1.00  0.00     0.000 C 
BRANCH  11  12
ATOM     12  C   UNL     1       9.469 -21.045  20.906  1.00  0.00    -0.000 C 
BRANCH  12  13
ATOM     13  C   UNL     1       8.402 -21.265  19.827  1.00  0.00    -0.000 C 
BRANCH  13  14
ATOM     14  C   UNL     1       8.834 -20.649  18.491  1.00  0.00    -0.000 C 
BRANCH  14  15
ATOM     15  C   UNL     1       8.827 -19.116  18.564  1.00  0.00    -0.000 C 
BRANCH  15  16
ATOM     16  C   UNL     1       7.412 -18.529  18.709  1.00  0.00    -0.000 C 
BRANCH  16  17
ATOM     17  C   UNL     1       7.259 -17.473  19.818  1.00  0.00    -0.003 C 
ATOM     18  C   UNL     1       8.595 -17.044  20.424  1.00  0.00     0.004 C 
ENDBRANCH  16  17
ENDBRANCH  15  16
ENDBRANCH  14  15
ENDBRANCH  13  14
ENDBRANCH  12  13
ENDBRANCH  11  12
ENDBRANCH   1  11
TORSDOF 14
ENDMDL
MODEL 7
REMARK VINA RESULT:    -3.886      2.918      5.175
REMARK INTER + INTRA:          -9.359
REMARK INTER:                  -6.997
REMARK INTRA:                  -2.362
REMARK UNBOUND:                -2.292
REMARK SMILES CCCCCCCCCCCCCCCC(=O)[O-]
REMARK SMILES IDX 9 1 10 2 11 3 12 4 13 5 14 6 15 7 16 8 17 9 18 10 8 11 7 12
REMARK SMILES IDX 6 13 5 14 4 15 3 16 2 17 1 18
REMARK H PARENT
REMARK Flexibility Score: inf
ROOT
ATOM      1  C   UNL     1       6.195 -17.503  23.968  1.00  0.00     0.000 C 
ENDROOT
BRANCH   1   2
ATOM      2  C   UNL     1       6.769 -17.647  25.389  1.00  0.00     0.000 C 
BRANCH   2   3
ATOM      3  C   UNL     1       7.798 -18.784  25.497  1.00  0.00     0.000 C 
BRANCH   3   4
ATOM      4  C   UNL     1       9.201 -18.279  25.865  1.00  0.00     0.000 C 
BRANCH   4   5
ATOM      5  C   UNL     1       9.865 -17.584  24.666  1.00  0.00     0.000 C 
BRANCH   5   6
ATOM      6  C   UNL     1      10.484 -16.227  25.036  1.00  0.00     0.006 C 
BRANCH   6   7
ATOM      7  C   UNL     1      10.485 -15.239  23.863  1.00  0.00     0.053 C 
BRANCH   7   8
ATOM      8  C   UNL     1      11.652 -15.498  22.964  1.00  0.00     0.041 C 
ATOM      9  O   UNL     1      11.507 -15.474  21.713  1.00  0.00    -0.550 OA
ATOM     10  O   UNL     1      12.892 -15.815  23.506  1.00  0.00    -0.550 OA
ENDBRANCH   7   8
ENDBRANCH   6   7
ENDBRANCH   5   6
ENDBRANCH   4   5
ENDBRANCH   3   4
ENDBRANCH   2   3
ENDBRANCH   1   2
BRANCH   1  11
ATOM     11  C   UNL     1       6.468 -16.119  23.359  1.00  0.00     0.000 C 
BRANCH  11  12
ATOM     12  C   UNL     1       7.419 -16.181  22.154  1.00  0.00    -0.000 C 
BRANCH  12  13
ATOM     13  C   UNL     1       7.503 -17.606  21.594  1.00  0.00    -0.000 C 
BRANCH  13  14
ATOM     14  C   UNL     1       8.936 -17.947  21.166  1.00  0.00    -0.000 C 
BRANCH  14  15
ATOM     15  C   UNL     1       9.267 -19.414  21.472  1.00  0.00    -0.000 C 
BRANCH  15  16
ATOM     16  C   UNL     1       8.096 -20.169  22.125  1.00  0.00    -0.000 C 
BRANCH  16  17
ATOM     17  C   UNL     1       7.409 -21.207  21.220  1.00  0.00    -0.003 C 
ATOM     18  C   UNL     1       8.276 -22.436  20.953  1.00  0.00     0.004 C 
ENDBRANCH  16  17
ENDBRANCH  15  16
ENDBRANCH  14  15
ENDBRANCH  13  14
ENDBRANCH  12  13
ENDBRANCH  11  12
ENDBRANCH   1  11
TORSDOF 14
ENDMDL
MODEL 8
REMARK VINA RESULT:    -3.853      1.281      3.349
REMARK INTER + INTRA:          -9.298
REMARK INTER:                  -6.674
REMARK INTRA:                  -2.625
REMARK UNBOUND:                -2.292
REMARK SMILES CCCCCCCCCCCCCCCC(=O)[O-]
REMARK SMILES IDX 9 1 10 2 11 3 12 4 13 5 14 6 15 7 16 8 17 9 18 10 8 11 7 12
REMARK SMILES IDX 6 13 5 14 4 15 3 16 2 17 1 18
REMARK H PARENT
REMARK Flexibility Score: inf
ROOT
ATOM      1  C   UNL     1      10.085 -16.249  25.697  1.00  0.00     0.000 C 
ENDROOT
BRANCH   1   2
ATOM      2  C   UNL     1      10.508 -17.729  25.734  1.00  0.00     0.000 C 
BRANCH   2   3
ATOM      3  C   UNL     1      11.029 -18.228  24.377  1.00  0.00     0.000 C 
BRANCH   3   4
ATOM      4  C   UNL     1       9.965 -19.002  23.585  1.00  0.00     0.000 C 
BRANCH   4   5
ATOM      5  C   UNL     1      10.308 -19.028  22.087  1.00  0.00     0.000 C 
BRANCH   5   6
ATOM      6  C   UNL     1       9.077 -18.812  21.193  1.00  0.00     0.006 C 
BRANCH   6   7
ATOM      7  C   UNL     1       8.005 -19.892  21.392  1.00  0.00     0.053 C 
BRANCH   7   8
ATOM      8  C   UNL     1       8.155 -20.969  20.364  1.00  0.00     0.041 C 
ATOM      9  O   UNL     1       8.054 -22.180  20.696  1.00  0.00    -0.550 OA
ATOM     10  O   UNL     1       8.452 -20.639  19.048  1.00  0.00    -0.550 OA
ENDBRANCH   7   8
ENDBRANCH   6   7
ENDBRANCH   5   6
ENDBRANCH   4   5
ENDBRANCH   3   4
ENDBRANCH   2   3
ENDBRANCH   1   2
BRANCH   1  11
ATOM     11  C   UNL     1      10.438 -15.567  24.366  1.00  0.00     0.000 C 
BRANCH  11  12
ATOM     12  C   UNL     1       9.199 -15.057  23.617  1.00  0.00    -0.000 C 
BRANCH  12  13
ATOM     13  C   UNL     1       7.912 -15.598  24.251  1.00  0.00    -0.000 C 
BRANCH  13  14
ATOM     14  C   UNL     1       7.190 -16.560  23.299  1.00  0.00    -0.000 C 
BRANCH  14  15
ATOM     15  C   UNL     1       6.303 -17.542  24.077  1.00  0.00    -0.000 C 
BRANCH  15  16
ATOM     16  C   UNL     1       6.734 -17.704  25.546  1.00  0.00    -0.000 C 
BRANCH  16  17
ATOM     17  C   UNL     1       7.129 -19.135  25.951  1.00  0.00    -0.003 C 
ATOM     18  C   UNL     1       6.758 -20.179  24.899  1.00  0.00     0.004 C 
ENDBRANCH  16  17
ENDBRANCH  15  16
ENDBRANCH  14  15
ENDBRANCH  13  14
ENDBRANCH  12  13
ENDBRANCH  11  12
ENDBRANCH   1  11
TORSDOF 14
ENDMDL
MODEL 9
REMARK VINA RESULT:    -3.844      2.298      4.998
REMARK INTER + INTRA:          -9.282
REMARK INTER:                  -7.090
REMARK INTRA:                  -2.192
REMARK UNBOUND:                -2.292
REMARK SMILES CCCCCCCCCCCCCCCC(=O)[O-]
REMARK SMILES IDX 9 1 10 2 11 3 12 4 13 5 14 6 15 7 16 8 17 9 18 10 8 11 7 12
REMARK SMILES IDX 6 13 5 14 4 15 3 16 2 17 1 18
REMARK H PARENT
REMARK Flexibility Score: inf
ROOT
ATOM      1  C   UNL     1       7.092 -15.835  23.244  1.00  0.00     0.000 C 
ENDROOT
BRANCH   1   2
ATOM      2  C   UNL     1       7.852 -14.536  23.567  1.00  0.00     0.000 C 
BRANCH   2   3
ATOM      3  C   UNL     1       8.892 -14.723  24.683  1.00  0.00     0.000 C 
BRANCH   3   4
ATOM      4  C   UNL     1       8.451 -15.750  25.736  1.00  0.00     0.000 C 
BRANCH   4   5
ATOM      5  C   UNL     1       9.533 -16.821  25.943  1.00  0.00     0.000 C 
BRANCH   5   6
ATOM      6  C   UNL     1      10.671 -16.721  24.914  1.00  0.00     0.006 C 
BRANCH   6   7
ATOM      7  C   UNL     1      10.792 -17.978  24.042  1.00  0.00     0.053 C 
BRANCH   7   8
ATOM      8  C   UNL     1      11.982 -18.785  24.455  1.00  0.00     0.041 C 
ATOM      9  O   UNL     1      12.329 -19.792  23.783  1.00  0.00    -0.550 OA
ATOM     10  O   UNL     1      12.681 -18.455  25.610  1.00  0.00    -0.550 OA
ENDBRANCH   7   8
ENDBRANCH   6   7
ENDBRANCH   5   6
ENDBRANCH   4   5
ENDBRANCH   3   4
ENDBRANCH   2   3
ENDBRANCH   1   2
BRANCH   1  11
ATOM     11  C   UNL     1       7.116 -16.177  21.747  1.00  0.00     0.000 C 
BRANCH  11  12
ATOM     12  C   UNL     1       8.219 -17.185  21.389  1.00  0.00    -0.000 C 
BRANCH  12  13
ATOM     13  C   UNL     1       7.644 -18.372  20.606  1.00  0.00    -0.000 C 
BRANCH  13  14
ATOM     14  C   UNL     1       8.001 -19.702  21.281  1.00  0.00    -0.000 C 
BRANCH  14  15
ATOM     15  C   UNL     1       6.748 -20.385  21.848  1.00  0.00    -0.000 C 
BRANCH  15  16
ATOM     16  C   UNL     1       6.295 -19.785  23.192  1.00  0.00    -0.000 C 
BRANCH  16  17
ATOM     17  C   UNL     1       7.432 -19.488  24.184  1.00  0.00    -0.003 C 
ATOM     18  C   UNL     1       7.011 -19.651  25.644  1.00  0.00     0.004 C 
ENDBRANCH  16  17
ENDBRANCH  15  16
ENDBRANCH  14  15
ENDBRANCH  13  14
ENDBRANCH  12  13
ENDBRANCH  11  12
ENDBRANCH   1  11
TORSDOF 14
ENDMDL
