MODEL 1
REMARK VINA RESULT:    -3.248      0.000      0.000
REMARK INTER + INTRA:          -5.205
REMARK INTER:                  -4.958
REMARK INTRA:                  -0.247
REMARK UNBOUND:                -0.247
REMARK SMILES CC1=CCC[C@H](C)C(=O)C[C@H](C(C)C)C(=O)C1
REMARK SMILES IDX 8 1 9 2 6 3 7 4 5 5 4 6 3 7 2 8 1 9 10 11 11 12 15 13 16 14
REMARK SMILES IDX 17 15 12 17 13 18 14 19
REMARK H PARENT
REMARK Flexibility Score: 70.00
ROOT
ATOM      1  C   UNL     1       7.800  35.744  67.472  1.00  0.00     0.136 C 
ATOM      2  O   UNL     1       8.876  35.497  66.946  1.00  0.00    -0.299 OA
ENDROOT
BRANCH   1   3
ATOM      3  C   UNL     1       7.752  36.328  68.875  1.00  0.00     0.053 C 
ATOM      4  C   UNL     1       9.127  36.828  69.348  1.00  0.00     0.016 C 
BRANCH   3   5
ATOM      5  C   UNL     1       6.682  37.433  68.994  1.00  0.00     0.015 C 
BRANCH   5   6
ATOM      6  C   UNL     1       5.621  37.169  70.088  1.00  0.00     0.028 C 
BRANCH   6   7
ATOM      7  C   UNL     1       4.234  37.473  69.575  1.00  0.00    -0.028 C 
ATOM      8  C   UNL     1       3.361  36.564  69.077  1.00  0.00    -0.070 CG0
ATOM      9  C   UNL     1       1.983  37.047  68.699  1.00  0.00     0.039 C 
ATOM     10  G   UNL     1       3.711  35.100  68.851  1.00  0.00     0.000 G0
ENDBRANCH   6   7
ENDBRANCH   5   6
ENDBRANCH   3   5
ENDBRANCH   1   3
BRANCH   1  11
ATOM     11  C   UNL     1       6.530  35.477  66.697  1.00  0.00     0.087 C 
BRANCH  11  12
ATOM     12  C   UNL     1       5.692  34.290  67.255  1.00  0.00     0.066 C 
BRANCH  12  13
ATOM     13  C   UNL     1       4.250  34.722  67.511  1.00  0.00     0.140 C 
ATOM     14  O   UNL     1       3.482  34.761  66.560  1.00  0.00    -0.299 OA
BRANCH  13  15
ATOM     15  C   UNL     1       3.695  35.091  68.873  1.00  0.00     0.106 CG0
ATOM     16  G   UNL     1       3.352  36.560  69.074  1.00  0.00     0.000 G0
ENDBRANCH  13  15
ENDBRANCH  12  13
BRANCH  12  17
ATOM     17  C   UNL     1       5.725  33.060  66.294  1.00  0.00    -0.006 C 
ATOM     18  C   UNL     1       6.201  31.789  67.024  1.00  0.00     0.008 C 
ATOM     19  C   UNL     1       6.631  33.299  65.073  1.00  0.00     0.008 C 
ENDBRANCH  12  17
ENDBRANCH  11  12
ENDBRANCH   1  11
TORSDOF 1
ENDMDL
MODEL 2
REMARK VINA RESULT:    -3.228      8.021      9.628
REMARK INTER + INTRA:          -5.173
REMARK INTER:                  -5.845
REMARK INTRA:                   0.672
REMARK UNBOUND:                -0.247
REMARK SMILES CC1=CCC[C@H](C)C(=O)C[C@H](C(C)C)C(=O)C1
REMARK SMILES IDX 8 1 9 2 6 3 7 4 5 5 4 6 3 7 2 8 1 9 10 11 11 12 15 13 16 14
REMARK SMILES IDX 17 15 12 17 13 18 14 19
REMARK H PARENT
REMARK Flexibility Score: 70.00
ROOT
ATOM      1  C   UNL     1       9.913  30.834  74.704  1.00  0.00     0.136 C 
ATOM      2  O   UNL     1       8.690  30.833  74.673  1.00  0.00    -0.299 OA
ENDROOT
BRANCH   1   3
ATOM      3  C   UNL     1      10.674  32.150  74.718  1.00  0.00     0.053 C 
ATOM      4  C   UNL     1      11.213  32.500  76.114  1.00  0.00     0.016 C 
BRANCH   3   5
ATOM      5  C   UNL     1      11.799  32.166  73.662  1.00  0.00     0.015 C 
BRANCH   5   6
ATOM      6  C   UNL     1      11.375  32.755  72.296  1.00  0.00     0.028 C 
BRANCH   6   7
ATOM      7  C   UNL     1      10.109  32.101  71.799  1.00  0.00    -0.028 C 
ATOM      8  C   UNL     1       9.997  30.818  71.379  1.00  0.00    -0.070 CG0
ATOM      9  C   UNL     1       8.625  30.318  71.004  1.00  0.00     0.039 C 
ATOM     10  G   UNL     1      11.184  29.876  71.234  1.00  0.00     0.000 G0
ENDBRANCH   6   7
ENDBRANCH   5   6
ENDBRANCH   3   5
ENDBRANCH   1   3
BRANCH   1  11
ATOM     11  C   UNL     1      10.643  29.512  74.747  1.00  0.00     0.087 C 
BRANCH  11  12
ATOM     12  C   UNL     1      10.403  28.622  73.493  1.00  0.00     0.066 C 
BRANCH  12  13
ATOM     13  C   UNL     1      11.430  28.933  72.407  1.00  0.00     0.140 C 
ATOM     14  O   UNL     1      12.524  28.390  72.474  1.00  0.00    -0.299 OA
BRANCH  13  15
ATOM     15  C   UNL     1      11.182  29.860  71.233  1.00  0.00     0.106 CG0
ATOM     16  G   UNL     1      10.007  30.817  71.380  1.00  0.00     0.000 G0
ENDBRANCH  13  15
ENDBRANCH  12  13
BRANCH  12  17
ATOM     17  C   UNL     1      10.438  27.102  73.849  1.00  0.00    -0.006 C 
ATOM     18  C   UNL     1       9.241  26.352  73.235  1.00  0.00     0.008 C 
ATOM     19  C   UNL     1      10.446  26.861  75.369  1.00  0.00     0.008 C 
ENDBRANCH  12  17
ENDBRANCH  11  12
ENDBRANCH   1  11
TORSDOF 1
ENDMDL
MODEL 3
REMARK VINA RESULT:    -3.212      2.061      4.107
REMARK INTER + INTRA:          -5.149
REMARK INTER:                  -4.892
REMARK INTRA:                  -0.258
REMARK UNBOUND:                -0.247
REMARK SMILES CC1=CCC[C@H](C)C(=O)C[C@H](C(C)C)C(=O)C1
REMARK SMILES IDX 8 1 9 2 6 3 7 4 5 5 4 6 3 7 2 8 1 9 10 11 11 12 15 13 16 14
REMARK SMILES IDX 17 15 12 17 13 18 14 19
REMARK H PARENT
REMARK Flexibility Score: 70.00
ROOT
ATOM      1  C   UNL     1       4.997  36.511  69.082  1.00  0.00     0.136 C 
ATOM      2  O   UNL     1       5.869  36.965  69.809  1.00  0.00    -0.299 OA
ENDROOT
BRANCH   1   3
ATOM      3  C   UNL     1       3.561  36.426  69.575  1.00  0.00     0.053 C 
ATOM      4  C   UNL     1       2.974  37.807  69.909  1.00  0.00     0.016 C 
BRANCH   3   5
ATOM      5  C   UNL     1       2.663  35.661  68.580  1.00  0.00     0.015 C 
BRANCH   5   6
ATOM      6  C   UNL     1       2.735  34.122  68.720  1.00  0.00     0.028 C 
BRANCH   6   7
ATOM      7  C   UNL     1       2.714  33.458  67.365  1.00  0.00    -0.028 C 
ATOM      8  C   UNL     1       3.758  32.817  66.785  1.00  0.00    -0.070 CG0
ATOM      9  C   UNL     1       3.517  32.135  65.463  1.00  0.00     0.039 C 
ATOM     10  G   UNL     1       5.158  32.782  67.382  1.00  0.00     0.000 G0
ENDBRANCH   6   7
ENDBRANCH   5   6
ENDBRANCH   3   5
ENDBRANCH   1   3
BRANCH   1  11
ATOM     11  C   UNL     1       5.369  36.057  67.689  1.00  0.00     0.087 C 
BRANCH  11  12
ATOM     12  C   UNL     1       6.556  35.052  67.654  1.00  0.00     0.066 C 
BRANCH  12  13
ATOM     13  C   UNL     1       6.172  33.792  66.882  1.00  0.00     0.140 C 
ATOM     14  O   UNL     1       6.705  33.592  65.799  1.00  0.00    -0.299 OA
BRANCH  13  15
ATOM     15  C   UNL     1       5.182  32.754  67.375  1.00  0.00     0.106 CG0
ATOM     16  G   UNL     1       3.781  32.841  66.787  1.00  0.00     0.000 G0
ENDBRANCH  13  15
ENDBRANCH  12  13
BRANCH  12  17
ATOM     17  C   UNL     1       7.838  35.694  67.034  1.00  0.00    -0.006 C 
ATOM     18  C   UNL     1       8.906  35.966  68.109  1.00  0.00     0.008 C 
ATOM     19  C   UNL     1       7.530  37.010  66.297  1.00  0.00     0.008 C 
ENDBRANCH  12  17
ENDBRANCH  11  12
ENDBRANCH   1  11
TORSDOF 1
ENDMDL
MODEL 4
REMARK VINA RESULT:    -3.199      8.823     11.226
REMARK INTER + INTRA:          -5.129
REMARK INTER:                  -4.778
REMARK INTRA:                  -0.351
REMARK UNBOUND:                -0.247
REMARK SMILES CC1=CCC[C@H](C)C(=O)C[C@H](C(C)C)C(=O)C1
REMARK SMILES IDX 8 1 9 2 6 3 7 4 5 5 4 6 3 7 2 8 1 9 10 11 11 12 15 13 16 14
REMARK SMILES IDX 17 15 12 17 13 18 14 19
REMARK H PARENT
REMARK Flexibility Score: 70.00
ROOT
ATOM      1  C   UNL     1       3.314  25.977  67.779  1.00  0.00     0.136 C 
ATOM      2  O   UNL     1       2.469  26.405  67.006  1.00  0.00    -0.299 OA
ENDROOT
BRANCH   1   3
ATOM      3  C   UNL     1       3.580  26.695  69.092  1.00  0.00     0.053 C 
ATOM      4  C   UNL     1       3.460  28.222  68.960  1.00  0.00     0.016 C 
BRANCH   3   5
ATOM      5  C   UNL     1       2.681  26.158  70.226  1.00  0.00     0.015 C 
BRANCH   5   6
ATOM      6  C   UNL     1       3.099  24.768  70.758  1.00  0.00     0.028 C 
BRANCH   6   7
ATOM      7  C   UNL     1       4.477  24.821  71.373  1.00  0.00    -0.028 C 
ATOM      8  C   UNL     1       5.597  24.270  70.845  1.00  0.00    -0.070 CG0
ATOM      9  C   UNL     1       6.902  24.507  71.562  1.00  0.00     0.039 C 
ATOM     10  G   UNL     1       5.597  23.402  69.595  1.00  0.00     0.000 G0
ENDBRANCH   6   7
ENDBRANCH   5   6
ENDBRANCH   3   5
ENDBRANCH   1   3
BRANCH   1  11
ATOM     11  C   UNL     1       4.068  24.719  67.413  1.00  0.00     0.087 C 
BRANCH  11  12
ATOM     12  C   UNL     1       5.611  24.907  67.358  1.00  0.00     0.066 C 
BRANCH  12  13
ATOM     13  C   UNL     1       6.302  23.995  68.369  1.00  0.00     0.140 C 
ATOM     14  O   UNL     1       7.484  23.732  68.197  1.00  0.00    -0.299 OA
BRANCH  13  15
ATOM     15  C   UNL     1       5.625  23.403  69.590  1.00  0.00     0.106 CG0
ATOM     16  G   UNL     1       5.633  24.272  70.840  1.00  0.00     0.000 G0
ENDBRANCH  13  15
ENDBRANCH  12  13
BRANCH  12  17
ATOM     17  C   UNL     1       6.173  24.645  65.924  1.00  0.00    -0.006 C 
ATOM     18  C   UNL     1       5.977  25.870  65.011  1.00  0.00     0.008 C 
ATOM     19  C   UNL     1       5.519  23.421  65.258  1.00  0.00     0.008 C 
ENDBRANCH  12  17
ENDBRANCH  11  12
ENDBRANCH   1  11
TORSDOF 1
ENDMDL
MODEL 5
REMARK VINA RESULT:    -3.141      3.279      5.229
REMARK INTER + INTRA:          -5.040
REMARK INTER:                  -4.799
REMARK INTRA:                  -0.241
REMARK UNBOUND:                -0.247
REMARK SMILES CC1=CCC[C@H](C)C(=O)C[C@H](C(C)C)C(=O)C1
REMARK SMILES IDX 8 1 9 2 6 3 7 4 5 5 4 6 3 7 2 8 1 9 10 11 11 12 15 13 16 14
REMARK SMILES IDX 17 15 12 17 13 18 14 19
REMARK H PARENT
REMARK Flexibility Score: 70.00
ROOT
ATOM      1  C   UNL     1       9.115  36.236  70.149  1.00  0.00     0.136 C 
ATOM      2  O   UNL     1       9.125  35.199  70.797  1.00  0.00    -0.299 OA
ENDROOT
BRANCH   1   3
ATOM      3  C   UNL     1       9.764  37.491  70.708  1.00  0.00     0.053 C 
ATOM      4  C   UNL     1      10.561  37.217  71.994  1.00  0.00     0.016 C 
BRANCH   3   5
ATOM      5  C   UNL     1      10.636  38.200  69.650  1.00  0.00     0.015 C 
BRANCH   5   6
ATOM      6  C   UNL     1      10.300  39.697  69.454  1.00  0.00     0.028 C 
BRANCH   6   7
ATOM      7  C   UNL     1      10.310  40.063  67.990  1.00  0.00    -0.028 C 
ATOM      8  C   UNL     1       9.223  40.104  67.181  1.00  0.00    -0.070 CG0
ATOM      9  C   UNL     1       9.420  40.582  65.765  1.00  0.00     0.039 C 
ATOM     10  G   UNL     1       7.834  39.659  67.616  1.00  0.00     0.000 G0
ENDBRANCH   6   7
ENDBRANCH   5   6
ENDBRANCH   3   5
ENDBRANCH   1   3
BRANCH   1  11
ATOM     11  C   UNL     1       8.466  36.238  68.784  1.00  0.00     0.087 C 
BRANCH  11  12
ATOM     12  C   UNL     1       7.280  37.236  68.655  1.00  0.00     0.066 C 
BRANCH  12  13
ATOM     13  C   UNL     1       7.501  38.187  67.482  1.00  0.00     0.140 C 
ATOM     14  O   UNL     1       7.405  37.739  66.348  1.00  0.00    -0.299 OA
BRANCH  13  15
ATOM     15  C   UNL     1       7.817  39.664  67.624  1.00  0.00     0.106 CG0
ATOM     16  G   UNL     1       9.211  40.090  67.184  1.00  0.00     0.000 G0
ENDBRANCH  13  15
ENDBRANCH  12  13
BRANCH  12  17
ATOM     17  C   UNL     1       5.915  36.493  68.497  1.00  0.00    -0.006 C 
ATOM     18  C   UNL     1       5.069  36.591  69.780  1.00  0.00     0.008 C 
ATOM     19  C   UNL     1       6.100  35.008  68.137  1.00  0.00     0.008 C 
ENDBRANCH  12  17
ENDBRANCH  11  12
ENDBRANCH   1  11
TORSDOF 1
ENDMDL
MODEL 6
REMARK VINA RESULT:    -3.021      8.381     11.400
REMARK INTER + INTRA:          -4.858
REMARK INTER:                  -4.584
REMARK INTRA:                  -0.273
REMARK UNBOUND:                -0.247
REMARK SMILES CC1=CCC[C@H](C)C(=O)C[C@H](C(C)C)C(=O)C1
REMARK SMILES IDX 8 1 9 2 6 3 7 4 5 5 4 6 3 7 2 8 1 9 10 11 11 12 15 13 16 14
REMARK SMILES IDX 17 15 12 17 13 18 14 19
REMARK H PARENT
REMARK Flexibility Score: 70.00
ROOT
ATOM      1  C   UNL     1       4.579  26.320  69.543  1.00  0.00     0.136 C 
ATOM      2  O   UNL     1       4.837  27.484  69.814  1.00  0.00    -0.299 OA
ENDROOT
BRANCH   1   3
ATOM      3  C   UNL     1       4.900  25.216  70.538  1.00  0.00     0.053 C 
ATOM      4  C   UNL     1       3.666  24.370  70.892  1.00  0.00     0.016 C 
BRANCH   3   5
ATOM      5  C   UNL     1       6.065  24.331  70.048  1.00  0.00     0.015 C 
BRANCH   5   6
ATOM      6  C   UNL     1       5.625  22.954  69.498  1.00  0.00     0.028 C 
BRANCH   6   7
ATOM      7  C   UNL     1       6.427  22.582  68.275  1.00  0.00    -0.028 C 
ATOM      8  C   UNL     1       6.152  22.968  67.005  1.00  0.00    -0.070 CG0
ATOM      9  C   UNL     1       7.125  22.570  65.924  1.00  0.00     0.039 C 
ATOM     10  G   UNL     1       4.903  23.745  66.615  1.00  0.00     0.000 G0
ENDBRANCH   6   7
ENDBRANCH   5   6
ENDBRANCH   3   5
ENDBRANCH   1   3
BRANCH   1  11
ATOM     11  C   UNL     1       3.923  26.007  68.218  1.00  0.00     0.087 C 
BRANCH  11  12
ATOM     12  C   UNL     1       4.787  26.395  66.984  1.00  0.00     0.066 C 
BRANCH  12  13
ATOM     13  C   UNL     1       5.087  25.166  66.129  1.00  0.00     0.140 C 
ATOM     14  O   UNL     1       5.526  25.340  65.001  1.00  0.00    -0.299 OA
BRANCH  13  15
ATOM     15  C   UNL     1       4.895  23.734  66.590  1.00  0.00     0.106 CG0
ATOM     16  G   UNL     1       6.158  22.996  67.009  1.00  0.00     0.000 G0
ENDBRANCH  13  15
ENDBRANCH  12  13
BRANCH  12  17
ATOM     17  C   UNL     1       4.097  27.497  66.120  1.00  0.00    -0.006 C 
ATOM     18  C   UNL     1       4.977  28.756  66.006  1.00  0.00     0.008 C 
ATOM     19  C   UNL     1       2.723  27.903  66.683  1.00  0.00     0.008 C 
ENDBRANCH  12  17
ENDBRANCH  11  12
ENDBRANCH   1  11
TORSDOF 1
ENDMDL
MODEL 7
REMARK VINA RESULT:    -2.896      1.799      4.251
REMARK INTER + INTRA:          -4.666
REMARK INTER:                  -4.351
REMARK INTRA:                  -0.315
REMARK UNBOUND:                -0.247
REMARK SMILES CC1=CCC[C@H](C)C(=O)C[C@H](C(C)C)C(=O)C1
REMARK SMILES IDX 8 1 9 2 6 3 7 4 5 5 4 6 3 7 2 8 1 9 10 11 11 12 15 13 16 14
REMARK SMILES IDX 17 15 12 17 13 18 14 19
REMARK H PARENT
REMARK Flexibility Score: 70.00
ROOT
ATOM      1  C   UNL     1       7.464  35.140  66.807  1.00  0.00     0.136 C 
ATOM      2  O   UNL     1       8.591  35.573  67.003  1.00  0.00    -0.299 OA
ENDROOT
BRANCH   1   3
ATOM      3  C   UNL     1       7.059  34.668  65.420  1.00  0.00     0.053 C 
ATOM      4  C   UNL     1       8.233  34.686  64.428  1.00  0.00     0.016 C 
BRANCH   3   5
ATOM      5  C   UNL     1       6.386  33.280  65.467  1.00  0.00     0.015 C 
BRANCH   5   6
ATOM      6  C   UNL     1       4.922  33.270  64.971  1.00  0.00     0.028 C 
BRANCH   6   7
ATOM      7  C   UNL     1       4.039  32.492  65.916  1.00  0.00    -0.028 C 
ATOM      8  C   UNL     1       3.175  33.030  66.811  1.00  0.00    -0.070 CG0
ATOM      9  C   UNL     1       2.309  32.087  67.606  1.00  0.00     0.039 C 
ATOM     10  G   UNL     1       3.063  34.525  67.075  1.00  0.00     0.000 G0
ENDBRANCH   6   7
ENDBRANCH   5   6
ENDBRANCH   3   5
ENDBRANCH   1   3
BRANCH   1  11
ATOM     11  C   UNL     1       6.498  35.068  67.967  1.00  0.00     0.087 C 
BRANCH  11  12
ATOM     12  C   UNL     1       5.221  35.935  67.774  1.00  0.00     0.066 C 
BRANCH  12  13
ATOM     13  C   UNL     1       3.968  35.130  68.109  1.00  0.00     0.140 C 
ATOM     14  O   UNL     1       3.685  34.963  69.287  1.00  0.00    -0.299 OA
BRANCH  13  15
ATOM     15  C   UNL     1       3.031  34.533  67.075  1.00  0.00     0.106 CG0
ATOM     16  G   UNL     1       3.188  33.041  66.821  1.00  0.00     0.000 G0
ENDBRANCH  13  15
ENDBRANCH  12  13
BRANCH  12  17
ATOM     17  C   UNL     1       5.271  37.237  68.635  1.00  0.00    -0.006 C 
ATOM     18  C   UNL     1       5.780  38.435  67.813  1.00  0.00     0.008 C 
ATOM     19  C   UNL     1       6.161  37.076  69.880  1.00  0.00     0.008 C 
ENDBRANCH  12  17
ENDBRANCH  11  12
ENDBRANCH   1  11
TORSDOF 1
ENDMDL
MODEL 8
REMARK VINA RESULT:    -2.824      1.744      4.214
REMARK INTER + INTRA:          -4.557
REMARK INTER:                  -4.165
REMARK INTRA:                  -0.393
REMARK UNBOUND:                -0.247
REMARK SMILES CC1=CCC[C@H](C)C(=O)C[C@H](C(C)C)C(=O)C1
REMARK SMILES IDX 8 1 9 2 6 3 7 4 5 5 4 6 3 7 2 8 1 9 10 11 11 12 15 13 16 14
REMARK SMILES IDX 17 15 12 17 13 18 14 19
REMARK H PARENT
REMARK Flexibility Score: 70.00
ROOT
ATOM      1  C   UNL     1       7.384  36.941  69.311  1.00  0.00     0.136 C 
ATOM      2  O   UNL     1       8.168  37.138  70.229  1.00  0.00    -0.299 OA
ENDROOT
BRANCH   1   3
ATOM      3  C   UNL     1       7.857  37.037  67.870  1.00  0.00     0.053 C 
ATOM      4  C   UNL     1       9.001  38.049  67.694  1.00  0.00     0.016 C 
BRANCH   3   5
ATOM      5  C   UNL     1       8.241  35.653  67.304  1.00  0.00     0.015 C 
BRANCH   5   6
ATOM      6  C   UNL     1       7.385  35.205  66.097  1.00  0.00     0.028 C 
BRANCH   6   7
ATOM      7  C   UNL     1       6.607  33.953  66.424  1.00  0.00    -0.028 C 
ATOM      8  C   UNL     1       5.270  33.889  66.635  1.00  0.00    -0.070 CG0
ATOM      9  C   UNL     1       4.658  32.530  66.861  1.00  0.00     0.039 C 
ATOM     10  G   UNL     1       4.369  35.115  66.691  1.00  0.00     0.000 G0
ENDBRANCH   6   7
ENDBRANCH   5   6
ENDBRANCH   3   5
ENDBRANCH   1   3
BRANCH   1  11
ATOM     11  C   UNL     1       5.952  36.584  69.638  1.00  0.00     0.087 C 
BRANCH  11  12
ATOM     12  C   UNL     1       4.936  36.987  68.530  1.00  0.00     0.066 C 
BRANCH  12  13
ATOM     13  C   UNL     1       4.162  35.766  68.039  1.00  0.00     0.140 C 
ATOM     14  O   UNL     1       3.325  35.274  68.783  1.00  0.00    -0.299 OA
BRANCH  13  15
ATOM     15  C   UNL     1       4.348  35.125  66.677  1.00  0.00     0.106 CG0
ATOM     16  G   UNL     1       5.257  33.905  66.636  1.00  0.00     0.000 G0
ENDBRANCH  13  15
ENDBRANCH  12  13
BRANCH  12  17
ATOM     17  C   UNL     1       3.947  38.088  69.027  1.00  0.00    -0.006 C 
ATOM     18  C   UNL     1       2.962  38.501  67.918  1.00  0.00     0.008 C 
ATOM     19  C   UNL     1       4.681  39.344  69.531  1.00  0.00     0.008 C 
ENDBRANCH  12  17
ENDBRANCH  11  12
ENDBRANCH   1  11
TORSDOF 1
ENDMDL
MODEL 9
REMARK VINA RESULT:    -2.769      9.316     12.341
REMARK INTER + INTRA:          -4.473
REMARK INTER:                  -4.727
REMARK INTRA:                   0.254
REMARK UNBOUND:                -0.247
REMARK SMILES CC1=CCC[C@H](C)C(=O)C[C@H](C(C)C)C(=O)C1
REMARK SMILES IDX 8 1 9 2 6 3 7 4 5 5 4 6 3 7 2 8 1 9 10 11 11 12 15 13 16 14
REMARK SMILES IDX 17 15 12 17 13 18 14 19
REMARK H PARENT
REMARK Flexibility Score: 70.00
ROOT
ATOM      1  C   UNL     1       5.872  24.437  71.181  1.00  0.00     0.136 C 
ATOM      2  O   UNL     1       6.551  25.301  71.718  1.00  0.00    -0.299 OA
ENDROOT
BRANCH   1   3
ATOM      3  C   UNL     1       6.268  22.974  71.295  1.00  0.00     0.053 C 
ATOM      4  C   UNL     1       7.323  22.736  72.388  1.00  0.00     0.016 C 
BRANCH   3   5
ATOM      5  C   UNL     1       5.036  22.067  71.498  1.00  0.00     0.015 C 
BRANCH   5   6
ATOM      6  C   UNL     1       4.285  21.721  70.191  1.00  0.00     0.028 C 
BRANCH   6   7
ATOM      7  C   UNL     1       5.252  21.549  69.045  1.00  0.00    -0.028 C 
ATOM      8  C   UNL     1       5.372  22.382  67.982  1.00  0.00    -0.070 CG0
ATOM      9  C   UNL     1       6.461  22.092  66.982  1.00  0.00     0.039 C 
ATOM     10  G   UNL     1       4.446  23.564  67.734  1.00  0.00     0.000 G0
ENDBRANCH   6   7
ENDBRANCH   5   6
ENDBRANCH   3   5
ENDBRANCH   1   3
BRANCH   1  11
ATOM     11  C   UNL     1       4.631  24.851  70.423  1.00  0.00     0.087 C 
BRANCH  11  12
ATOM     12  C   UNL     1       4.919  25.775  69.205  1.00  0.00     0.066 C 
BRANCH  12  13
ATOM     13  C   UNL     1       5.041  24.955  67.923  1.00  0.00     0.140 C 
ATOM     14  O   UNL     1       5.674  25.429  66.991  1.00  0.00    -0.299 OA
BRANCH  13  15
ATOM     15  C   UNL     1       4.442  23.574  67.730  1.00  0.00     0.106 CG0
ATOM     16  G   UNL     1       5.383  22.403  67.972  1.00  0.00     0.000 G0
ENDBRANCH  13  15
ENDBRANCH  12  13
BRANCH  12  17
ATOM     17  C   UNL     1       3.820  26.872  69.041  1.00  0.00    -0.006 C 
ATOM     18  C   UNL     1       4.391  28.281  69.286  1.00  0.00     0.008 C 
ATOM     19  C   UNL     1       2.629  26.648  69.989  1.00  0.00     0.008 C 
ENDBRANCH  12  17
ENDBRANCH  11  12
ENDBRANCH   1  11
TORSDOF 1
ENDMDL
