MODEL 1
REMARK VINA RESULT:    -5.495      0.000      0.000
REMARK INTER + INTRA:          -7.715
REMARK INTER:                  -7.423
REMARK INTRA:                  -0.292
REMARK UNBOUND:                -0.292
REMARK SMILES CCCCCCC=CC(=O)[O-]
REMARK SMILES IDX 5 1 6 2 7 3 8 4 9 5 10 6 11 7 4 8 3 9 2 10 1 11
REMARK H PARENT
REMARK Flexibility Score: inf
ROOT
ATOM      1  C   UNL     1      17.741 126.019  16.519  1.00  0.00     0.004 C 
ENDROOT
BRANCH   1   2
ATOM      2  C   UNL     1      18.147 124.557  16.782  1.00  0.00     0.027 C 
BRANCH   2   3
ATOM      3  C   UNL     1      18.486 123.812  15.517  1.00  0.00    -0.025 C 
ATOM      4  C   UNL     1      18.076 122.574  15.195  1.00  0.00     0.020 C 
BRANCH   4   5
ATOM      5  C   UNL     1      17.166 121.713  15.979  1.00  0.00     0.064 C 
ATOM      6  O   UNL     1      16.091 121.267  15.501  1.00  0.00    -0.545 OA
ATOM      7  O   UNL     1      17.527 121.359  17.273  1.00  0.00    -0.545 OA
ENDBRANCH   4   5
ENDBRANCH   2   3
ENDBRANCH   1   2
BRANCH   1   8
ATOM      8  C   UNL     1      18.606 127.059  17.257  1.00  0.00     0.000 C 
BRANCH   8   9
ATOM      9  C   UNL     1      19.376 127.982  16.297  1.00  0.00    -0.000 C 
BRANCH   9  10
ATOM     10  C   UNL     1      20.268 127.200  15.318  1.00  0.00    -0.003 C 
ATOM     11  C   UNL     1      20.905 128.092  14.253  1.00  0.00     0.004 C 
ENDBRANCH   9  10
ENDBRANCH   8   9
ENDBRANCH   1   8
TORSDOF 6
ENDMDL
MODEL 2
REMARK VINA RESULT:    -5.440      3.110      6.306
REMARK INTER + INTRA:          -7.640
REMARK INTER:                  -7.479
REMARK INTRA:                  -0.161
REMARK UNBOUND:                -0.292
REMARK SMILES CCCCCCC=CC(=O)[O-]
REMARK SMILES IDX 5 1 6 2 7 3 8 4 9 5 10 6 11 7 4 8 3 9 2 10 1 11
REMARK H PARENT
REMARK Flexibility Score: inf
ROOT
ATOM      1  C   UNL     1      17.948 122.700  15.885  1.00  0.00     0.004 C 
ENDROOT
BRANCH   1   2
ATOM      2  C   UNL     1      17.997 124.124  16.467  1.00  0.00     0.027 C 
BRANCH   2   3
ATOM      3  C   UNL     1      19.250 124.867  16.081  1.00  0.00    -0.025 C 
ATOM      4  C   UNL     1      19.565 126.124  16.436  1.00  0.00     0.020 C 
BRANCH   4   5
ATOM      5  C   UNL     1      18.784 127.015  17.319  1.00  0.00     0.064 C 
ATOM      6  O   UNL     1      18.538 126.720  18.517  1.00  0.00    -0.545 OA
ATOM      7  O   UNL     1      18.334 128.230  16.818  1.00  0.00    -0.545 OA
ENDBRANCH   4   5
ENDBRANCH   2   3
ENDBRANCH   1   2
BRANCH   1   8
ATOM      8  C   UNL     1      17.515 121.619  16.893  1.00  0.00     0.000 C 
BRANCH   8   9
ATOM      9  C   UNL     1      16.736 120.467  16.234  1.00  0.00    -0.000 C 
BRANCH   9  10
ATOM     10  C   UNL     1      16.215 119.447  17.259  1.00  0.00    -0.003 C 
ATOM     11  C   UNL     1      16.744 119.700  18.670  1.00  0.00     0.004 C 
ENDBRANCH   9  10
ENDBRANCH   8   9
ENDBRANCH   1   8
TORSDOF 6
ENDMDL
MODEL 3
REMARK VINA RESULT:    -5.406      1.313      2.116
REMARK INTER + INTRA:          -7.594
REMARK INTER:                  -7.306
REMARK INTRA:                  -0.288
REMARK UNBOUND:                -0.292
REMARK SMILES CCCCCCC=CC(=O)[O-]
REMARK SMILES IDX 5 1 6 2 7 3 8 4 9 5 10 6 11 7 4 8 3 9 2 10 1 11
REMARK H PARENT
REMARK Flexibility Score: inf
ROOT
ATOM      1  C   UNL     1      18.470 125.294  15.174  1.00  0.00     0.004 C 
ENDROOT
BRANCH   1   2
ATOM      2  C   UNL     1      18.345 123.761  15.219  1.00  0.00     0.027 C 
BRANCH   2   3
ATOM      3  C   UNL     1      18.269 123.225  16.626  1.00  0.00    -0.025 C 
ATOM      4  C   UNL     1      17.648 122.097  17.011  1.00  0.00     0.020 C 
BRANCH   4   5
ATOM      5  C   UNL     1      16.965 121.122  16.135  1.00  0.00     0.064 C 
ATOM      6  O   UNL     1      15.735 120.880  16.237  1.00  0.00    -0.545 OA
ATOM      7  O   UNL     1      17.701 120.477  15.149  1.00  0.00    -0.545 OA
ENDBRANCH   4   5
ENDBRANCH   2   3
ENDBRANCH   1   2
BRANCH   1   8
ATOM      8  C   UNL     1      19.562 125.868  16.096  1.00  0.00     0.000 C 
BRANCH   8   9
ATOM      9  C   UNL     1      19.744 127.387  15.932  1.00  0.00    -0.000 C 
BRANCH   9  10
ATOM     10  C   UNL     1      19.133 128.181  17.097  1.00  0.00    -0.003 C 
ATOM     11  C   UNL     1      18.595 127.284  18.211  1.00  0.00     0.004 C 
ENDBRANCH   9  10
ENDBRANCH   8   9
ENDBRANCH   1   8
TORSDOF 6
ENDMDL
MODEL 4
REMARK VINA RESULT:    -5.390      2.958      5.324
REMARK INTER + INTRA:          -7.573
REMARK INTER:                  -7.082
REMARK INTRA:                  -0.491
REMARK UNBOUND:                -0.292
REMARK SMILES CCCCCCC=CC(=O)[O-]
REMARK SMILES IDX 5 1 6 2 7 3 8 4 9 5 10 6 11 7 4 8 3 9 2 10 1 11
REMARK H PARENT
REMARK Flexibility Score: inf
ROOT
ATOM      1  C   UNL     1      18.237 122.773  17.046  1.00  0.00     0.004 C 
ENDROOT
BRANCH   1   2
ATOM      2  C   UNL     1      17.979 124.119  16.345  1.00  0.00     0.027 C 
BRANCH   2   3
ATOM      3  C   UNL     1      19.248 124.883  16.068  1.00  0.00    -0.025 C 
ATOM      4  C   UNL     1      19.517 126.138  16.464  1.00  0.00     0.020 C 
BRANCH   4   5
ATOM      5  C   UNL     1      18.658 127.005  17.297  1.00  0.00     0.064 C 
ATOM      6  O   UNL     1      18.151 128.068  16.854  1.00  0.00    -0.545 OA
ATOM      7  O   UNL     1      18.376 126.617  18.601  1.00  0.00    -0.545 OA
ENDBRANCH   4   5
ENDBRANCH   2   3
ENDBRANCH   1   2
BRANCH   1   8
ATOM      8  C   UNL     1      17.259 121.653  16.646  1.00  0.00     0.000 C 
BRANCH   8   9
ATOM      9  C   UNL     1      16.869 121.704  15.159  1.00  0.00    -0.000 C 
BRANCH   9  10
ATOM     10  C   UNL     1      17.900 121.008  14.257  1.00  0.00    -0.003 C 
ATOM     11  C   UNL     1      18.571 121.966  13.272  1.00  0.00     0.004 C 
ENDBRANCH   9  10
ENDBRANCH   8   9
ENDBRANCH   1   8
TORSDOF 6
ENDMDL
MODEL 5
REMARK VINA RESULT:    -5.377      1.456      2.462
REMARK INTER + INTRA:          -7.555
REMARK INTER:                  -7.279
REMARK INTRA:                  -0.275
REMARK UNBOUND:                -0.292
REMARK SMILES CCCCCCC=CC(=O)[O-]
REMARK SMILES IDX 5 1 6 2 7 3 8 4 9 5 10 6 11 7 4 8 3 9 2 10 1 11
REMARK H PARENT
REMARK Flexibility Score: inf
ROOT
ATOM      1  C   UNL     1      18.283 123.930  16.934  1.00  0.00     0.004 C 
ENDROOT
BRANCH   1   2
ATOM      2  C   UNL     1      17.888 122.442  16.940  1.00  0.00     0.027 C 
BRANCH   2   3
ATOM      3  C   UNL     1      17.302 121.991  15.626  1.00  0.00    -0.025 C 
ATOM      4  C   UNL     1      16.463 120.957  15.448  1.00  0.00     0.020 C 
BRANCH   4   5
ATOM      5  C   UNL     1      15.896 120.089  16.500  1.00  0.00     0.064 C 
ATOM      6  O   UNL     1      16.607 119.288  17.161  1.00  0.00    -0.545 OA
ATOM      7  O   UNL     1      14.540 120.183  16.789  1.00  0.00    -0.545 OA
ENDBRANCH   4   5
ENDBRANCH   2   3
ENDBRANCH   1   2
BRANCH   1   8
ATOM      8  C   UNL     1      18.552 124.508  15.531  1.00  0.00     0.000 C 
BRANCH   8   9
ATOM      9  C   UNL     1      18.354 126.032  15.466  1.00  0.00    -0.000 C 
BRANCH   9  10
ATOM     10  C   UNL     1      19.586 126.806  15.962  1.00  0.00    -0.003 C 
ATOM     11  C   UNL     1      19.220 128.046  16.777  1.00  0.00     0.004 C 
ENDBRANCH   9  10
ENDBRANCH   8   9
ENDBRANCH   1   8
TORSDOF 6
ENDMDL
MODEL 6
REMARK VINA RESULT:    -5.376      1.089      1.980
REMARK INTER + INTRA:          -7.554
REMARK INTER:                  -7.382
REMARK INTRA:                  -0.173
REMARK UNBOUND:                -0.292
REMARK SMILES CCCCCCC=CC(=O)[O-]
REMARK SMILES IDX 5 1 6 2 7 3 8 4 9 5 10 6 11 7 4 8 3 9 2 10 1 11
REMARK H PARENT
REMARK Flexibility Score: inf
ROOT
ATOM      1  C   UNL     1      18.615 124.402  16.127  1.00  0.00     0.004 C 
ENDROOT
BRANCH   1   2
ATOM      2  C   UNL     1      17.960 123.083  16.575  1.00  0.00     0.027 C 
BRANCH   2   3
ATOM      3  C   UNL     1      17.859 122.076  15.458  1.00  0.00    -0.025 C 
ATOM      4  C   UNL     1      17.203 120.904  15.507  1.00  0.00     0.020 C 
BRANCH   4   5
ATOM      5  C   UNL     1      16.401 120.387  16.635  1.00  0.00     0.064 C 
ATOM      6  O   UNL     1      16.931 119.988  17.705  1.00  0.00    -0.545 OA
ATOM      7  O   UNL     1      15.017 120.370  16.522  1.00  0.00    -0.545 OA
ENDBRANCH   4   5
ENDBRANCH   2   3
ENDBRANCH   1   2
BRANCH   1   8
ATOM      8  C   UNL     1      17.892 125.668  16.625  1.00  0.00     0.000 C 
BRANCH   8   9
ATOM      9  C   UNL     1      18.811 126.599  17.435  1.00  0.00    -0.000 C 
BRANCH   9  10
ATOM     10  C   UNL     1      19.139 127.899  16.685  1.00  0.00    -0.003 C 
ATOM     11  C   UNL     1      19.890 127.657  15.376  1.00  0.00     0.004 C 
ENDBRANCH   9  10
ENDBRANCH   8   9
ENDBRANCH   1   8
TORSDOF 6
ENDMDL
MODEL 7
REMARK VINA RESULT:    -5.111      2.866      5.552
REMARK INTER + INTRA:          -7.196
REMARK INTER:                  -7.297
REMARK INTRA:                   0.101
REMARK UNBOUND:                -0.292
REMARK SMILES CCCCCCC=CC(=O)[O-]
REMARK SMILES IDX 5 1 6 2 7 3 8 4 9 5 10 6 11 7 4 8 3 9 2 10 1 11
REMARK H PARENT
REMARK Flexibility Score: inf
ROOT
ATOM      1  C   UNL     1      18.384 124.747  15.345  1.00  0.00     0.004 C 
ENDROOT
BRANCH   1   2
ATOM      2  C   UNL     1      19.610 125.379  16.029  1.00  0.00     0.027 C 
BRANCH   2   3
ATOM      3  C   UNL     1      19.624 126.882  15.921  1.00  0.00    -0.025 C 
ATOM      4  C   UNL     1      19.111 127.744  16.814  1.00  0.00     0.020 C 
BRANCH   4   5
ATOM      5  C   UNL     1      18.482 127.405  18.108  1.00  0.00     0.064 C 
ATOM      6  O   UNL     1      18.147 126.228  18.400  1.00  0.00    -0.545 OA
ATOM      7  O   UNL     1      18.284 128.414  19.042  1.00  0.00    -0.545 OA
ENDBRANCH   4   5
ENDBRANCH   2   3
ENDBRANCH   1   2
BRANCH   1   8
ATOM      8  C   UNL     1      18.337 123.209  15.427  1.00  0.00     0.000 C 
BRANCH   8   9
ATOM      9  C   UNL     1      18.192 122.694  16.870  1.00  0.00    -0.000 C 
BRANCH   9  10
ATOM     10  C   UNL     1      17.293 121.450  16.962  1.00  0.00    -0.003 C 
ATOM     11  C   UNL     1      16.482 121.207  15.689  1.00  0.00     0.004 C 
ENDBRANCH   9  10
ENDBRANCH   8   9
ENDBRANCH   1   8
TORSDOF 6
ENDMDL
MODEL 8
REMARK VINA RESULT:    -5.106      1.956      2.580
REMARK INTER + INTRA:          -7.189
REMARK INTER:                  -6.909
REMARK INTRA:                  -0.280
REMARK UNBOUND:                -0.292
REMARK SMILES CCCCCCC=CC(=O)[O-]
REMARK SMILES IDX 5 1 6 2 7 3 8 4 9 5 10 6 11 7 4 8 3 9 2 10 1 11
REMARK H PARENT
REMARK Flexibility Score: inf
ROOT
ATOM      1  C   UNL     1      18.061 124.317  16.080  1.00  0.00     0.004 C 
ENDROOT
BRANCH   1   2
ATOM      2  C   UNL     1      18.216 122.868  16.578  1.00  0.00     0.027 C 
BRANCH   2   3
ATOM      3  C   UNL     1      17.077 121.981  16.146  1.00  0.00    -0.025 C 
ATOM      4  C   UNL     1      16.984 121.326  14.977  1.00  0.00     0.020 C 
BRANCH   4   5
ATOM      5  C   UNL     1      17.997 121.291  13.901  1.00  0.00     0.064 C 
ATOM      6  O   UNL     1      18.256 122.299  13.195  1.00  0.00    -0.545 OA
ATOM      7  O   UNL     1      18.706 120.116  13.686  1.00  0.00    -0.545 OA
ENDBRANCH   4   5
ENDBRANCH   2   3
ENDBRANCH   1   2
BRANCH   1   8
ATOM      8  C   UNL     1      19.170 125.273  16.561  1.00  0.00     0.000 C 
BRANCH   8   9
ATOM      9  C   UNL     1      19.351 126.488  15.636  1.00  0.00    -0.000 C 
BRANCH   9  10
ATOM     10  C   UNL     1      19.291 127.821  16.398  1.00  0.00    -0.003 C 
ATOM     11  C   UNL     1      18.854 127.655  17.853  1.00  0.00     0.004 C 
ENDBRANCH   9  10
ENDBRANCH   8   9
ENDBRANCH   1   8
TORSDOF 6
ENDMDL
MODEL 9
REMARK VINA RESULT:    -5.056      2.322      3.777
REMARK INTER + INTRA:          -7.121
REMARK INTER:                  -6.859
REMARK INTRA:                  -0.262
REMARK UNBOUND:                -0.292
REMARK SMILES CCCCCCC=CC(=O)[O-]
REMARK SMILES IDX 5 1 6 2 7 3 8 4 9 5 10 6 11 7 4 8 3 9 2 10 1 11
REMARK H PARENT
REMARK Flexibility Score: inf
ROOT
ATOM      1  C   UNL     1      17.501 122.327  15.439  1.00  0.00     0.004 C 
ENDROOT
BRANCH   1   2
ATOM      2  C   UNL     1      16.478 121.229  15.781  1.00  0.00     0.027 C 
BRANCH   2   3
ATOM      3  C   UNL     1      16.813 120.500  17.057  1.00  0.00    -0.025 C 
ATOM      4  C   UNL     1      16.039 119.595  17.678  1.00  0.00     0.020 C 
BRANCH   4   5
ATOM      5  C   UNL     1      14.732 119.084  17.214  1.00  0.00     0.064 C 
ATOM      6  O   UNL     1      13.649 119.429  17.755  1.00  0.00    -0.545 OA
ATOM      7  O   UNL     1      14.697 118.221  16.126  1.00  0.00    -0.545 OA
ENDBRANCH   4   5
ENDBRANCH   2   3
ENDBRANCH   1   2
BRANCH   1   8
ATOM      8  C   UNL     1      18.121 123.020  16.667  1.00  0.00     0.000 C 
BRANCH   8   9
ATOM      9  C   UNL     1      18.088 124.555  16.566  1.00  0.00    -0.000 C 
BRANCH   9  10
ATOM     10  C   UNL     1      19.442 125.144  16.138  1.00  0.00    -0.003 C 
ATOM     11  C   UNL     1      19.485 126.669  16.240  1.00  0.00     0.004 C 
ENDBRANCH   9  10
ENDBRANCH   8   9
ENDBRANCH   1   8
TORSDOF 6
ENDMDL
