MODEL 1
REMARK VINA RESULT:    -3.232      0.000      0.000
REMARK INTER + INTRA:          -3.238
REMARK INTER:                  -3.988
REMARK INTRA:                   0.750
REMARK UNBOUND:                 0.750
REMARK SMILES CC1=CC=CC(C)(C)CC1=O
REMARK SMILES IDX 1 1 2 2 3 3 10 4 11 5 9 6 4 8 5 9 6 10 7 11 8 12
REMARK H PARENT
REMARK Flexibility Score: 80.00
ROOT
ATOM      1  C   UNL     1      -2.363  29.666  50.107  1.00  0.00     0.048 C 
ATOM      2  C   UNL     1      -1.673  28.738  51.080  1.00  0.00    -0.008 C 
ATOM      3  C   UNL     1      -1.902  27.414  50.951  1.00  0.00     0.007 C 
ENDROOT
BRANCH   2   4
ATOM      4  C   UNL     1      -0.858  29.367  52.149  1.00  0.00     0.159 C 
ATOM      5  O   UNL     1      -0.930  30.615  52.316  1.00  0.00    -0.295 OA
BRANCH   4   6
ATOM      6  C   UNL     1       0.069  28.598  53.040  1.00  0.00     0.091 CG0
ATOM      7  G   UNL     1      -0.649  27.513  53.874  1.00  0.00     0.000 G0
ENDBRANCH   4   6
ENDBRANCH   2   4
BRANCH   3   8
ATOM      8  C   UNL     1      -1.397  26.278  51.758  1.00  0.00    -0.003 C 
ATOM      9  C   UNL     1      -0.871  26.286  52.990  1.00  0.00    -0.020 C 
BRANCH   9  10
ATOM     10  C   UNL     1      -0.638  27.499  53.859  1.00  0.00    -0.010 CG0
ATOM     11  C   UNL     1      -1.975  27.968  54.480  1.00  0.00     0.016 C 
ATOM     12  C   UNL     1       0.308  27.095  55.012  1.00  0.00     0.016 C 
ATOM     13  G   UNL     1       0.055  28.607  53.033  1.00  0.00     0.000 G0
ENDBRANCH   9  10
ENDBRANCH   3   8
TORSDOF 0
ENDMDL
MODEL 2
REMARK VINA RESULT:    -3.144      1.999      4.113
REMARK INTER + INTRA:          -3.129
REMARK INTER:                  -3.888
REMARK INTRA:                   0.759
REMARK UNBOUND:                 0.750
REMARK SMILES CC1=CC=CC(C)(C)CC1=O
REMARK SMILES IDX 1 1 2 2 3 3 10 4 11 5 9 6 4 8 5 9 6 10 7 11 8 12
REMARK H PARENT
REMARK Flexibility Score: 80.00
ROOT
ATOM      1  C   UNL     1       0.511  25.088  56.268  1.00  0.00     0.048 C 
ATOM      2  C   UNL     1       0.087  26.343  55.541  1.00  0.00    -0.008 C 
ATOM      3  C   UNL     1      -1.000  26.997  56.005  1.00  0.00     0.007 C 
ENDROOT
BRANCH   2   4
ATOM      4  C   UNL     1       0.858  26.713  54.328  1.00  0.00     0.159 C 
ATOM      5  O   UNL     1       1.672  25.880  53.846  1.00  0.00    -0.295 OA
BRANCH   4   6
ATOM      6  C   UNL     1       0.735  28.041  53.645  1.00  0.00     0.091 CG0
ATOM      7  G   UNL     1      -0.696  28.335  53.138  1.00  0.00     0.000 G0
ENDBRANCH   4   6
ENDBRANCH   2   4
BRANCH   3   8
ATOM      8  C   UNL     1      -1.661  28.222  55.496  1.00  0.00    -0.003 C 
ATOM      9  C   UNL     1      -1.560  28.797  54.291  1.00  0.00    -0.020 C 
BRANCH   9  10
ATOM     10  C   UNL     1      -0.696  28.331  53.143  1.00  0.00    -0.010 CG0
ATOM     11  C   UNL     1      -1.344  27.106  52.458  1.00  0.00     0.016 C 
ATOM     12  C   UNL     1      -0.614  29.471  52.103  1.00  0.00     0.016 C 
ATOM     13  G   UNL     1       0.735  28.040  53.652  1.00  0.00     0.000 G0
ENDBRANCH   9  10
ENDBRANCH   3   8
TORSDOF 0
ENDMDL
MODEL 3
REMARK VINA RESULT:    -2.952      1.480      3.520
REMARK INTER + INTRA:          -2.893
REMARK INTER:                  -3.647
REMARK INTRA:                   0.754
REMARK UNBOUND:                 0.750
REMARK SMILES CC1=CC=CC(C)(C)CC1=O
REMARK SMILES IDX 1 1 2 2 3 3 10 4 11 5 9 6 4 8 5 9 6 10 7 11 8 12
REMARK H PARENT
REMARK Flexibility Score: 80.00
ROOT
ATOM      1  C   UNL     1       0.009  26.790  55.160  1.00  0.00     0.048 C 
ATOM      2  C   UNL     1      -0.813  27.109  53.934  1.00  0.00    -0.008 C 
ATOM      3  C   UNL     1      -0.722  26.265  52.883  1.00  0.00     0.007 C 
ENDROOT
BRANCH   2   4
ATOM      4  C   UNL     1      -1.598  28.368  53.956  1.00  0.00     0.159 C 
ATOM      5  O   UNL     1      -1.407  29.188  54.895  1.00  0.00    -0.295 OA
BRANCH   4   6
ATOM      6  C   UNL     1      -2.626  28.719  52.924  1.00  0.00     0.091 CG0
ATOM      7  G   UNL     1      -2.057  28.760  51.487  1.00  0.00     0.000 G0
ENDBRANCH   4   6
ENDBRANCH   2   4
BRANCH   3   8
ATOM      8  C   UNL     1      -1.376  26.326  51.555  1.00  0.00    -0.003 C 
ATOM      9  C   UNL     1      -1.940  27.373  50.939  1.00  0.00    -0.020 C 
BRANCH   9  10
ATOM     10  C   UNL     1      -2.069  28.774  51.487  1.00  0.00    -0.010 CG0
ATOM     11  C   UNL     1      -0.709  29.505  51.397  1.00  0.00     0.016 C 
ATOM     12  C   UNL     1      -3.084  29.546  50.614  1.00  0.00     0.016 C 
ATOM     13  G   UNL     1      -2.620  28.721  52.931  1.00  0.00     0.000 G0
ENDBRANCH   9  10
ENDBRANCH   3   8
TORSDOF 0
ENDMDL
MODEL 4
REMARK VINA RESULT:    -2.949      1.564      3.413
REMARK INTER + INTRA:          -2.889
REMARK INTER:                  -3.653
REMARK INTRA:                   0.764
REMARK UNBOUND:                 0.750
REMARK SMILES CC1=CC=CC(C)(C)CC1=O
REMARK SMILES IDX 1 1 2 2 3 3 10 4 11 5 9 6 4 8 5 9 6 10 7 11 8 12
REMARK H PARENT
REMARK Flexibility Score: 80.00
ROOT
ATOM      1  C   UNL     1       0.832  26.303  53.646  1.00  0.00     0.048 C 
ATOM      2  C   UNL     1      -0.460  26.861  53.097  1.00  0.00    -0.008 C 
ATOM      3  C   UNL     1      -1.366  25.983  52.615  1.00  0.00     0.007 C 
ENDROOT
BRANCH   2   4
ATOM      4  C   UNL     1      -0.596  28.339  53.062  1.00  0.00     0.159 C 
ATOM      5  O   UNL     1       0.425  29.050  53.272  1.00  0.00    -0.295 OA
BRANCH   4   6
ATOM      6  C   UNL     1      -1.893  29.043  52.805  1.00  0.00     0.091 CG0
ATOM      7  G   UNL     1      -2.506  28.707  51.426  1.00  0.00     0.000 G0
ENDBRANCH   4   6
ENDBRANCH   2   4
BRANCH   3   8
ATOM      8  C   UNL     1      -2.691  26.226  52.000  1.00  0.00    -0.003 C 
ATOM      9  C   UNL     1      -3.187  27.357  51.481  1.00  0.00    -0.020 C 
BRANCH   9  10
ATOM     10  C   UNL     1      -2.496  28.699  51.429  1.00  0.00    -0.010 CG0
ATOM     11  C   UNL     1      -1.432  28.702  50.307  1.00  0.00     0.016 C 
ATOM     12  C   UNL     1      -3.551  29.776  51.089  1.00  0.00     0.016 C 
ATOM     13  G   UNL     1      -1.898  29.032  52.816  1.00  0.00     0.000 G0
ENDBRANCH   9  10
ENDBRANCH   3   8
TORSDOF 0
ENDMDL
MODEL 5
REMARK VINA RESULT:    -2.918      1.774      2.859
REMARK INTER + INTRA:          -2.851
REMARK INTER:                  -3.610
REMARK INTRA:                   0.759
REMARK UNBOUND:                 0.750
REMARK SMILES CC1=CC=CC(C)(C)CC1=O
REMARK SMILES IDX 1 1 2 2 3 3 10 4 11 5 9 6 4 8 5 9 6 10 7 11 8 12
REMARK H PARENT
REMARK Flexibility Score: 80.00
ROOT
ATOM      1  C   UNL     1      -1.868  25.356  51.095  1.00  0.00     0.048 C 
ATOM      2  C   UNL     1      -1.572  26.542  51.982  1.00  0.00    -0.008 C 
ATOM      3  C   UNL     1      -0.701  26.361  52.999  1.00  0.00     0.007 C 
ENDROOT
BRANCH   2   4
ATOM      4  C   UNL     1      -2.322  27.794  51.709  1.00  0.00     0.159 C 
ATOM      5  O   UNL     1      -3.291  27.759  50.902  1.00  0.00    -0.295 OA
BRANCH   4   6
ATOM      6  C   UNL     1      -1.981  29.113  52.331  1.00  0.00     0.091 CG0
ATOM      7  G   UNL     1      -2.066  29.099  53.874  1.00  0.00     0.000 G0
ENDBRANCH   4   6
ENDBRANCH   2   4
BRANCH   3   8
ATOM      8  C   UNL     1      -0.239  27.314  54.035  1.00  0.00    -0.003 C 
ATOM      9  C   UNL     1      -0.794  28.466  54.431  1.00  0.00    -0.020 C 
BRANCH   9  10
ATOM     10  C   UNL     1      -2.048  29.097  53.874  1.00  0.00    -0.010 CG0
ATOM     11  C   UNL     1      -3.295  28.357  54.411  1.00  0.00     0.016 C 
ATOM     12  C   UNL     1      -2.114  30.561  54.364  1.00  0.00     0.016 C 
ATOM     13  G   UNL     1      -1.983  29.109  52.329  1.00  0.00     0.000 G0
ENDBRANCH   9  10
ENDBRANCH   3   8
TORSDOF 0
ENDMDL
MODEL 6
REMARK VINA RESULT:    -2.818      9.003     10.276
REMARK INTER + INTRA:          -2.727
REMARK INTER:                  -3.471
REMARK INTRA:                   0.744
REMARK UNBOUND:                 0.750
REMARK SMILES CC1=CC=CC(C)(C)CC1=O
REMARK SMILES IDX 1 1 2 2 3 3 10 4 11 5 9 6 4 8 5 9 6 10 7 11 8 12
REMARK H PARENT
REMARK Flexibility Score: 80.00
ROOT
ATOM      1  C   UNL     1      -0.177  36.032  59.045  1.00  0.00     0.048 C 
ATOM      2  C   UNL     1      -0.611  35.093  60.145  1.00  0.00    -0.008 C 
ATOM      3  C   UNL     1       0.246  34.891  61.169  1.00  0.00     0.007 C 
ENDROOT
BRANCH   2   4
ATOM      4  C   UNL     1      -1.916  34.408  59.973  1.00  0.00     0.159 C 
ATOM      5  O   UNL     1      -2.495  34.473  58.854  1.00  0.00    -0.295 OA
BRANCH   4   6
ATOM      6  C   UNL     1      -2.602  33.649  61.067  1.00  0.00     0.091 CG0
ATOM      7  G   UNL     1      -1.753  32.482  61.623  1.00  0.00     0.000 G0
ENDBRANCH   4   6
ENDBRANCH   2   4
BRANCH   3   8
ATOM      8  C   UNL     1       0.115  34.021  62.362  1.00  0.00    -0.003 C 
ATOM      9  C   UNL     1      -0.713  32.989  62.567  1.00  0.00    -0.020 C 
BRANCH   9  10
ATOM     10  C   UNL     1      -1.760  32.474  61.608  1.00  0.00    -0.010 CG0
ATOM     11  C   UNL     1      -1.089  31.644  60.489  1.00  0.00     0.016 C 
ATOM     12  C   UNL     1      -2.714  31.540  62.387  1.00  0.00     0.016 C 
ATOM     13  G   UNL     1      -2.589  33.657  61.056  1.00  0.00     0.000 G0
ENDBRANCH   9  10
ENDBRANCH   3   8
TORSDOF 0
ENDMDL
MODEL 7
REMARK VINA RESULT:    -2.741      7.682      9.189
REMARK INTER + INTRA:          -2.632
REMARK INTER:                  -3.388
REMARK INTRA:                   0.756
REMARK UNBOUND:                 0.750
REMARK SMILES CC1=CC=CC(C)(C)CC1=O
REMARK SMILES IDX 1 1 2 2 3 3 10 4 11 5 9 6 4 8 5 9 6 10 7 11 8 12
REMARK H PARENT
REMARK Flexibility Score: 80.00
ROOT
ATOM      1  C   UNL     1       0.460  34.518  61.831  1.00  0.00     0.048 C 
ATOM      2  C   UNL     1      -0.459  33.586  61.076  1.00  0.00    -0.008 C 
ATOM      3  C   UNL     1      -0.152  32.271  61.075  1.00  0.00     0.007 C 
ENDROOT
BRANCH   2   4
ATOM      4  C   UNL     1      -1.584  34.204  60.332  1.00  0.00     0.159 C 
ATOM      5  O   UNL     1      -1.606  35.457  60.190  1.00  0.00    -0.295 OA
BRANCH   4   6
ATOM      6  C   UNL     1      -2.718  33.419  59.746  1.00  0.00     0.091 CG0
ATOM      7  G   UNL     1      -2.259  32.366  58.712  1.00  0.00     0.000 G0
ENDBRANCH   4   6
ENDBRANCH   2   4
BRANCH   3   8
ATOM      8  C   UNL     1      -0.837  31.135  60.413  1.00  0.00    -0.003 C 
ATOM      9  C   UNL     1      -1.718  31.153  59.404  1.00  0.00    -0.020 C 
BRANCH   9  10
ATOM     10  C   UNL     1      -2.256  32.377  58.703  1.00  0.00    -0.010 CG0
ATOM     11  C   UNL     1      -1.193  32.938  57.730  1.00  0.00     0.016 C 
ATOM     12  C   UNL     1      -3.490  31.958  57.873  1.00  0.00     0.016 C 
ATOM     13  G   UNL     1      -2.712  33.419  59.750  1.00  0.00     0.000 G0
ENDBRANCH   9  10
ENDBRANCH   3   8
TORSDOF 0
ENDMDL
MODEL 8
REMARK VINA RESULT:    -2.688      1.543      2.431
REMARK INTER + INTRA:          -2.566
REMARK INTER:                  -3.329
REMARK INTRA:                   0.763
REMARK UNBOUND:                 0.750
REMARK SMILES CC1=CC=CC(C)(C)CC1=O
REMARK SMILES IDX 1 1 2 2 3 3 10 4 11 5 9 6 4 8 5 9 6 10 7 11 8 12
REMARK H PARENT
REMARK Flexibility Score: 80.00
ROOT
ATOM      1  C   UNL     1      -3.849  29.152  51.630  1.00  0.00     0.048 C 
ATOM      2  C   UNL     1      -2.899  28.391  52.524  1.00  0.00    -0.008 C 
ATOM      3  C   UNL     1      -3.010  28.577  53.857  1.00  0.00     0.007 C 
ENDROOT
BRANCH   2   4
ATOM      4  C   UNL     1      -1.868  27.556  51.858  1.00  0.00     0.159 C 
ATOM      5  O   UNL     1      -1.708  27.664  50.612  1.00  0.00    -0.295 OA
BRANCH   4   6
ATOM      6  C   UNL     1      -1.006  26.571  52.587  1.00  0.00     0.091 CG0
ATOM      7  G   UNL     1      -0.145  27.217  53.696  1.00  0.00     0.000 G0
ENDBRANCH   4   6
ENDBRANCH   2   4
BRANCH   3   8
ATOM      8  C   UNL     1      -2.217  27.999  54.967  1.00  0.00    -0.003 C 
ATOM      9  C   UNL     1      -1.004  27.430  54.932  1.00  0.00    -0.020 C 
BRANCH   9  10
ATOM     10  C   UNL     1      -0.150  27.214  53.706  1.00  0.00    -0.010 CG0
ATOM     11  C   UNL     1       0.501  28.548  53.274  1.00  0.00     0.016 C 
ATOM     12  C   UNL     1       0.982  26.227  54.071  1.00  0.00     0.016 C 
ATOM     13  G   UNL     1      -1.000  26.576  52.584  1.00  0.00     0.000 G0
ENDBRANCH   9  10
ENDBRANCH   3   8
TORSDOF 0
ENDMDL
MODEL 9
REMARK VINA RESULT:    -2.642      1.763      3.334
REMARK INTER + INTRA:          -2.511
REMARK INTER:                  -3.268
REMARK INTRA:                   0.758
REMARK UNBOUND:                 0.750
REMARK SMILES CC1=CC=CC(C)(C)CC1=O
REMARK SMILES IDX 1 1 2 2 3 3 10 4 11 5 9 6 4 8 5 9 6 10 7 11 8 12
REMARK H PARENT
REMARK Flexibility Score: 80.00
ROOT
ATOM      1  C   UNL     1      -1.825  25.783  51.849  1.00  0.00     0.048 C 
ATOM      2  C   UNL     1      -1.899  27.279  52.040  1.00  0.00    -0.008 C 
ATOM      3  C   UNL     1      -2.817  27.958  51.319  1.00  0.00     0.007 C 
ENDROOT
BRANCH   2   4
ATOM      4  C   UNL     1      -0.902  27.893  52.953  1.00  0.00     0.159 C 
ATOM      5  O   UNL     1       0.059  27.189  53.368  1.00  0.00    -0.295 OA
BRANCH   4   6
ATOM      6  C   UNL     1      -0.980  29.312  53.427  1.00  0.00     0.091 CG0
ATOM      7  G   UNL     1      -0.961  30.341  52.274  1.00  0.00     0.000 G0
ENDBRANCH   4   6
ENDBRANCH   2   4
BRANCH   3   8
ATOM      8  C   UNL     1      -3.105  29.410  51.272  1.00  0.00    -0.003 C 
ATOM      9  C   UNL     1      -2.336  30.437  51.657  1.00  0.00    -0.020 C 
BRANCH   9  10
ATOM     10  C   UNL     1      -0.962  30.346  52.276  1.00  0.00    -0.010 CG0
ATOM     11  C   UNL     1       0.087  30.018  51.187  1.00  0.00     0.016 C 
ATOM     12  C   UNL     1      -0.608  31.724  52.879  1.00  0.00     0.016 C 
ATOM     13  G   UNL     1      -0.973  29.308  53.421  1.00  0.00     0.000 G0
ENDBRANCH   9  10
ENDBRANCH   3   8
TORSDOF 0
ENDMDL
