MODEL 1
REMARK VINA RESULT:    -2.839      0.000      0.000
REMARK INTER + INTRA:          -3.123
REMARK INTER:                  -3.088
REMARK INTRA:                  -0.034
REMARK UNBOUND:                -0.034
REMARK SMILES O=C([O-])c1ccc(O)cc1
REMARK SMILES IDX 4 1 5 2 10 3 6 4 9 5 7 6 2 7 1 8 3 9 8 10
REMARK H PARENT 8 11
REMARK Flexibility Score: inf
ROOT
ATOM      1  C   UNL     1     -95.977  26.239 -37.423  1.00  0.00    -0.003 A 
ATOM      2  C   UNL     1     -94.804  26.175 -38.198  1.00  0.00     0.014 A 
ATOM      3  C   UNL     1     -96.898  27.274 -37.666  1.00  0.00     0.014 A 
ATOM      4  C   UNL     1     -94.559  27.126 -39.193  1.00  0.00     0.047 A 
ATOM      5  C   UNL     1     -96.650  28.224 -38.663  1.00  0.00     0.047 A 
ATOM      6  C   UNL     1     -95.482  28.153 -39.427  1.00  0.00     0.115 A 
ENDROOT
BRANCH   1   7
ATOM      7  C   UNL     1     -96.242  25.236 -36.369  1.00  0.00     0.071 C 
ATOM      8  O   UNL     1     -97.422  25.002 -35.991  1.00  0.00    -0.545 OA
ATOM      9  O   UNL     1     -95.195  24.537 -35.781  1.00  0.00    -0.545 OA
ENDBRANCH   1   7
BRANCH   6  10
ATOM     10  O   UNL     1     -95.249  29.106 -40.417  1.00  0.00    -0.508 OA
ATOM     11  H   UNL     1     -95.340  28.881 -41.400  1.00  0.00     0.293 HD
ENDBRANCH   6  10
TORSDOF 2
ENDMDL
MODEL 2
REMARK VINA RESULT:    -2.815      0.448      1.873
REMARK INTER + INTRA:          -3.096
REMARK INTER:                  -3.060
REMARK INTRA:                  -0.036
REMARK UNBOUND:                -0.034
REMARK SMILES O=C([O-])c1ccc(O)cc1
REMARK SMILES IDX 4 1 5 2 10 3 6 4 9 5 7 6 2 7 1 8 3 9 8 10
REMARK H PARENT 8 11
REMARK Flexibility Score: inf
ROOT
ATOM      1  C   UNL     1     -96.227  26.184 -37.682  1.00  0.00    -0.003 A 
ATOM      2  C   UNL     1     -97.097  27.271 -37.881  1.00  0.00     0.014 A 
ATOM      3  C   UNL     1     -95.005  26.154 -38.379  1.00  0.00     0.014 A 
ATOM      4  C   UNL     1     -96.753  28.304 -38.758  1.00  0.00     0.047 A 
ATOM      5  C   UNL     1     -94.663  27.189 -39.256  1.00  0.00     0.047 A 
ATOM      6  C   UNL     1     -95.534  28.265 -39.448  1.00  0.00     0.115 A 
ENDROOT
BRANCH   1   7
ATOM      7  C   UNL     1     -96.585  25.088 -36.756  1.00  0.00     0.071 C 
ATOM      8  O   UNL     1     -95.797  24.121 -36.574  1.00  0.00    -0.545 OA
ATOM      9  O   UNL     1     -97.794  25.110 -36.071  1.00  0.00    -0.545 OA
ENDBRANCH   1   7
BRANCH   6  10
ATOM     10  O   UNL     1     -95.181  29.289 -40.323  1.00  0.00    -0.508 OA
ATOM     11  H   UNL     1     -94.386  29.203 -40.946  1.00  0.00     0.293 HD
ENDBRANCH   6  10
TORSDOF 2
ENDMDL
MODEL 3
REMARK VINA RESULT:    -2.776      2.832      3.481
REMARK INTER + INTRA:          -3.054
REMARK INTER:                  -3.027
REMARK INTRA:                  -0.027
REMARK UNBOUND:                -0.034
REMARK SMILES O=C([O-])c1ccc(O)cc1
REMARK SMILES IDX 4 1 5 2 10 3 6 4 9 5 7 6 2 7 1 8 3 9 8 10
REMARK H PARENT 8 11
REMARK Flexibility Score: inf
ROOT
ATOM      1  C   UNL     1     -98.282  26.748 -39.393  1.00  0.00    -0.003 A 
ATOM      2  C   UNL     1     -97.336  25.887 -39.978  1.00  0.00     0.014 A 
ATOM      3  C   UNL     1     -97.844  27.959 -38.828  1.00  0.00     0.014 A 
ATOM      4  C   UNL     1     -95.981  26.231 -39.996  1.00  0.00     0.047 A 
ATOM      5  C   UNL     1     -96.487  28.301 -38.848  1.00  0.00     0.047 A 
ATOM      6  C   UNL     1     -95.554  27.439 -39.431  1.00  0.00     0.115 A 
ENDROOT
BRANCH   1   7
ATOM      7  C   UNL     1     -99.717  26.391 -39.370  1.00  0.00     0.071 C 
ATOM      8  O   UNL     1    -100.215  25.800 -38.374  1.00  0.00    -0.545 OA
ATOM      9  O   UNL     1    -100.539  26.703 -40.448  1.00  0.00    -0.545 OA
ENDBRANCH   1   7
BRANCH   6  10
ATOM     10  O   UNL     1     -94.206  27.792 -39.444  1.00  0.00    -0.508 OA
ATOM     11  H   UNL     1     -93.777  28.273 -38.663  1.00  0.00     0.293 HD
ENDBRANCH   6  10
TORSDOF 2
ENDMDL
MODEL 4
REMARK VINA RESULT:    -2.728      8.195     10.356
REMARK INTER + INTRA:          -3.002
REMARK INTER:                  -2.966
REMARK INTRA:                  -0.036
REMARK UNBOUND:                -0.034
REMARK SMILES O=C([O-])c1ccc(O)cc1
REMARK SMILES IDX 4 1 5 2 10 3 6 4 9 5 7 6 2 7 1 8 3 9 8 10
REMARK H PARENT 8 11
REMARK Flexibility Score: inf
ROOT
ATOM      1  C   UNL     1     -97.808  24.361 -29.503  1.00  0.00    -0.003 A 
ATOM      2  C   UNL     1     -98.871  23.438 -29.503  1.00  0.00     0.014 A 
ATOM      3  C   UNL     1     -96.640  24.055 -28.782  1.00  0.00     0.014 A 
ATOM      4  C   UNL     1     -98.766  22.237 -28.795  1.00  0.00     0.047 A 
ATOM      5  C   UNL     1     -96.538  22.852 -28.076  1.00  0.00     0.047 A 
ATOM      6  C   UNL     1     -97.598  21.941 -28.080  1.00  0.00     0.115 A 
ENDROOT
BRANCH   1   7
ATOM      7  C   UNL     1     -97.912  25.634 -30.250  1.00  0.00     0.071 C 
ATOM      8  O   UNL     1     -99.022  26.018 -30.708  1.00  0.00    -0.545 OA
ATOM      9  O   UNL     1     -96.788  26.425 -30.455  1.00  0.00    -0.545 OA
ENDBRANCH   1   7
BRANCH   6  10
ATOM     10  O   UNL     1     -97.483  20.747 -27.372  1.00  0.00    -0.508 OA
ATOM     11  H   UNL     1     -97.924  19.895 -27.696  1.00  0.00     0.293 HD
ENDBRANCH   6  10
TORSDOF 2
ENDMDL
MODEL 5
REMARK VINA RESULT:    -2.661      2.358      4.481
REMARK INTER + INTRA:          -2.929
REMARK INTER:                  -2.901
REMARK INTRA:                  -0.028
REMARK UNBOUND:                -0.034
REMARK SMILES O=C([O-])c1ccc(O)cc1
REMARK SMILES IDX 4 1 5 2 10 3 6 4 9 5 7 6 2 7 1 8 3 9 8 10
REMARK H PARENT 8 11
REMARK Flexibility Score: inf
ROOT
ATOM      1  C   UNL     1     -96.987  27.957 -38.521  1.00  0.00    -0.003 A 
ATOM      2  C   UNL     1     -96.826  27.402 -37.238  1.00  0.00     0.014 A 
ATOM      3  C   UNL     1     -98.276  28.009 -39.083  1.00  0.00     0.014 A 
ATOM      4  C   UNL     1     -97.929  26.911 -36.534  1.00  0.00     0.047 A 
ATOM      5  C   UNL     1     -99.378  27.516 -38.376  1.00  0.00     0.047 A 
ATOM      6  C   UNL     1     -99.208  26.967 -37.102  1.00  0.00     0.115 A 
ENDROOT
BRANCH   1   7
ATOM      7  C   UNL     1     -95.825  28.479 -39.271  1.00  0.00     0.071 C 
ATOM      8  O   UNL     1     -94.899  27.706 -39.638  1.00  0.00    -0.545 OA
ATOM      9  O   UNL     1     -95.736  29.831 -39.582  1.00  0.00    -0.545 OA
ENDBRANCH   1   7
BRANCH   6  10
ATOM     10  O   UNL     1    -100.315  26.480 -36.409  1.00  0.00    -0.508 OA
ATOM     11  H   UNL     1    -100.512  25.488 -36.356  1.00  0.00     0.293 HD
ENDBRANCH   6  10
TORSDOF 2
ENDMDL
MODEL 6
REMARK VINA RESULT:    -2.574      2.618      4.364
REMARK INTER + INTRA:          -2.834
REMARK INTER:                  -2.802
REMARK INTRA:                  -0.033
REMARK UNBOUND:                -0.034
REMARK SMILES O=C([O-])c1ccc(O)cc1
REMARK SMILES IDX 4 1 5 2 10 3 6 4 9 5 7 6 2 7 1 8 3 9 8 10
REMARK H PARENT 8 11
REMARK Flexibility Score: inf
ROOT
ATOM      1  C   UNL     1     -96.797  27.309 -39.335  1.00  0.00    -0.003 A 
ATOM      2  C   UNL     1     -97.861  28.082 -38.833  1.00  0.00     0.014 A 
ATOM      3  C   UNL     1     -97.054  25.993 -39.759  1.00  0.00     0.014 A 
ATOM      4  C   UNL     1     -99.151  27.549 -38.757  1.00  0.00     0.047 A 
ATOM      5  C   UNL     1     -98.346  25.463 -39.682  1.00  0.00     0.047 A 
ATOM      6  C   UNL     1     -99.396  26.238 -39.182  1.00  0.00     0.115 A 
ENDROOT
BRANCH   1   7
ATOM      7  C   UNL     1     -95.430  27.867 -39.419  1.00  0.00     0.071 C 
ATOM      8  O   UNL     1     -95.251  29.082 -39.703  1.00  0.00    -0.545 OA
ATOM      9  O   UNL     1     -94.324  27.060 -39.183  1.00  0.00    -0.545 OA
ENDBRANCH   1   7
BRANCH   6  10
ATOM     10  O   UNL     1    -100.678  25.697 -39.111  1.00  0.00    -0.508 OA
ATOM     11  H   UNL     1    -100.829  24.696 -39.075  1.00  0.00     0.293 HD
ENDBRANCH   6  10
TORSDOF 2
ENDMDL
MODEL 7
REMARK VINA RESULT:    -2.563      2.412      2.937
REMARK INTER + INTRA:          -2.823
REMARK INTER:                  -2.794
REMARK INTRA:                  -0.028
REMARK UNBOUND:                -0.034
REMARK SMILES O=C([O-])c1ccc(O)cc1
REMARK SMILES IDX 4 1 5 2 10 3 6 4 9 5 7 6 2 7 1 8 3 9 8 10
REMARK H PARENT 8 11
REMARK Flexibility Score: inf
ROOT
ATOM      1  C   UNL     1     -94.649  24.569 -39.218  1.00  0.00    -0.003 A 
ATOM      2  C   UNL     1     -93.875  25.563 -38.591  1.00  0.00     0.014 A 
ATOM      3  C   UNL     1     -95.666  24.959 -40.108  1.00  0.00     0.014 A 
ATOM      4  C   UNL     1     -94.115  26.916 -38.849  1.00  0.00     0.047 A 
ATOM      5  C   UNL     1     -95.904  26.314 -40.364  1.00  0.00     0.047 A 
ATOM      6  C   UNL     1     -95.130  27.294 -39.736  1.00  0.00     0.115 A 
ENDROOT
BRANCH   1   7
ATOM      7  C   UNL     1     -94.400  23.136 -38.950  1.00  0.00     0.071 C 
ATOM      8  O   UNL     1     -94.567  22.663 -37.794  1.00  0.00    -0.545 OA
ATOM      9  O   UNL     1     -93.980  22.291 -39.970  1.00  0.00    -0.545 OA
ENDBRANCH   1   7
BRANCH   6  10
ATOM     10  O   UNL     1     -95.378  28.639 -40.001  1.00  0.00    -0.508 OA
ATOM     11  H   UNL     1     -96.308  29.032 -39.923  1.00  0.00     0.293 HD
ENDBRANCH   6  10
TORSDOF 2
ENDMDL
MODEL 8
REMARK VINA RESULT:    -2.523     10.542     10.913
REMARK INTER + INTRA:          -2.779
REMARK INTER:                  -2.743
REMARK INTRA:                  -0.036
REMARK UNBOUND:                -0.034
REMARK SMILES O=C([O-])c1ccc(O)cc1
REMARK SMILES IDX 4 1 5 2 10 3 6 4 9 5 7 6 2 7 1 8 3 9 8 10
REMARK H PARENT 8 11
REMARK Flexibility Score: inf
ROOT
ATOM      1  C   UNL     1     -99.553  24.474 -28.375  1.00  0.00    -0.003 A 
ATOM      2  C   UNL     1     -98.392  25.161 -27.976  1.00  0.00     0.014 A 
ATOM      3  C   UNL     1     -99.451  23.119 -28.739  1.00  0.00     0.014 A 
ATOM      4  C   UNL     1     -97.157  24.507 -27.944  1.00  0.00     0.047 A 
ATOM      5  C   UNL     1     -98.214  22.468 -28.706  1.00  0.00     0.047 A 
ATOM      6  C   UNL     1     -97.065  23.158 -28.309  1.00  0.00     0.115 A 
ENDROOT
BRANCH   1   7
ATOM      7  C   UNL     1    -100.863  25.160 -28.410  1.00  0.00     0.071 C 
ATOM      8  O   UNL     1    -101.898  24.544 -28.783  1.00  0.00    -0.545 OA
ATOM      9  O   UNL     1    -100.972  26.493 -28.032  1.00  0.00    -0.545 OA
ENDBRANCH   1   7
BRANCH   6  10
ATOM     10  O   UNL     1     -95.840  22.496 -28.281  1.00  0.00    -0.508 OA
ATOM     11  H   UNL     1     -95.572  21.846 -29.009  1.00  0.00     0.293 HD
ENDBRANCH   6  10
TORSDOF 2
ENDMDL
MODEL 9
REMARK VINA RESULT:    -2.475     10.141     10.697
REMARK INTER + INTRA:          -2.727
REMARK INTER:                  -2.691
REMARK INTRA:                  -0.036
REMARK UNBOUND:                -0.034
REMARK SMILES O=C([O-])c1ccc(O)cc1
REMARK SMILES IDX 4 1 5 2 10 3 6 4 9 5 7 6 2 7 1 8 3 9 8 10
REMARK H PARENT 8 11
REMARK Flexibility Score: inf
ROOT
ATOM      1  C   UNL     1     -97.244  24.119 -28.351  1.00  0.00    -0.003 A 
ATOM      2  C   UNL     1     -98.008  25.230 -27.948  1.00  0.00     0.014 A 
ATOM      3  C   UNL     1     -97.908  22.958 -28.786  1.00  0.00     0.014 A 
ATOM      4  C   UNL     1     -99.405  25.178 -27.978  1.00  0.00     0.047 A 
ATOM      5  C   UNL     1     -99.306  22.909 -28.815  1.00  0.00     0.047 A 
ATOM      6  C   UNL     1    -100.057  24.017 -28.412  1.00  0.00     0.115 A 
ENDROOT
BRANCH   1   7
ATOM      7  C   UNL     1     -95.766  24.167 -28.323  1.00  0.00     0.071 C 
ATOM      8  O   UNL     1     -95.167  25.200 -27.918  1.00  0.00    -0.545 OA
ATOM      9  O   UNL     1     -95.017  23.074 -28.740  1.00  0.00    -0.545 OA
ENDBRANCH   1   7
BRANCH   6  10
ATOM     10  O   UNL     1    -101.448  23.955 -28.446  1.00  0.00    -0.508 OA
ATOM     11  H   UNL     1    -102.019  24.512 -27.822  1.00  0.00     0.293 HD
ENDBRANCH   6  10
TORSDOF 2
ENDMDL
