MODEL 1
REMARK VINA RESULT:    -2.890      0.000      0.000
REMARK INTER + INTRA:          -5.268
REMARK INTER:                  -4.242
REMARK INTRA:                  -1.027
REMARK UNBOUND:                -1.027
REMARK SMILES CCCCCCCCCC=O
REMARK SMILES IDX 6 1 5 2 4 3 3 4 2 5 1 6 7 7 8 8 9 9 10 10 11 11
REMARK H PARENT
REMARK Flexibility Score: inf
ROOT
ATOM      1  C   UNL     1     169.021 167.227 168.344  1.00  0.00     0.000 C 
ENDROOT
BRANCH   1   2
ATOM      2  C   UNL     1     168.555 165.760 168.375  1.00  0.00     0.000 C 
BRANCH   2   3
ATOM      3  C   UNL     1     167.054 165.615 168.677  1.00  0.00    -0.000 C 
BRANCH   3   4
ATOM      4  C   UNL     1     166.194 166.609 167.878  1.00  0.00    -0.000 C 
BRANCH   4   5
ATOM      5  C   UNL     1     165.073 167.235 168.720  1.00  0.00    -0.003 C 
ATOM      6  C   UNL     1     165.350 167.068 170.213  1.00  0.00     0.004 C 
ENDBRANCH   4   5
ENDBRANCH   3   4
ENDBRANCH   2   3
ENDBRANCH   1   2
BRANCH   1   7
ATOM      7  C   UNL     1     169.177 167.894 169.723  1.00  0.00     0.000 C 
BRANCH   7   8
ATOM      8  C   UNL     1     168.356 169.184 169.864  1.00  0.00     0.008 C 
BRANCH   8   9
ATOM      9  C   UNL     1     168.026 169.776 168.490  1.00  0.00     0.072 C 
BRANCH   9  10
ATOM     10  C   UNL     1     167.142 170.981 168.623  1.00  0.00     0.224 C 
ATOM     11  O   UNL     1     167.397 172.007 168.012  1.00  0.00    -0.303 OA
ENDBRANCH   9  10
ENDBRANCH   8   9
ENDBRANCH   7   8
ENDBRANCH   1   7
TORSDOF 8
ENDMDL
MODEL 2
REMARK VINA RESULT:    -2.839      2.592      4.053
REMARK INTER + INTRA:          -5.193
REMARK INTER:                  -4.425
REMARK INTRA:                  -0.768
REMARK UNBOUND:                -1.027
REMARK SMILES CCCCCCCCCC=O
REMARK SMILES IDX 6 1 5 2 4 3 3 4 2 5 1 6 7 7 8 8 9 9 10 10 11 11
REMARK H PARENT
REMARK Flexibility Score: inf
ROOT
ATOM      1  C   UNL     1     169.326 168.850 168.962  1.00  0.00     0.000 C 
ENDROOT
BRANCH   1   2
ATOM      2  C   UNL     1     168.734 170.093 168.273  1.00  0.00     0.000 C 
BRANCH   2   3
ATOM      3  C   UNL     1     167.248 169.926 167.910  1.00  0.00    -0.000 C 
BRANCH   3   4
ATOM      4  C   UNL     1     166.444 169.238 169.025  1.00  0.00    -0.000 C 
BRANCH   4   5
ATOM      5  C   UNL     1     165.354 168.304 168.480  1.00  0.00    -0.003 C 
ATOM      6  C   UNL     1     165.180 167.080 169.377  1.00  0.00     0.004 C 
ENDBRANCH   4   5
ENDBRANCH   3   4
ENDBRANCH   2   3
ENDBRANCH   1   2
BRANCH   1   7
ATOM      7  C   UNL     1     170.232 167.979 168.073  1.00  0.00     0.000 C 
BRANCH   7   8
ATOM      8  C   UNL     1     169.973 166.474 168.241  1.00  0.00     0.008 C 
BRANCH   8   9
ATOM      9  C   UNL     1     168.521 166.127 167.894  1.00  0.00     0.072 C 
BRANCH   9  10
ATOM     10  C   UNL     1     168.124 164.814 168.500  1.00  0.00     0.224 C 
ATOM     11  O   UNL     1     167.073 164.278 168.184  1.00  0.00    -0.303 OA
ENDBRANCH   9  10
ENDBRANCH   8   9
ENDBRANCH   7   8
ENDBRANCH   1   7
TORSDOF 8
ENDMDL
MODEL 3
REMARK VINA RESULT:    -2.818      2.205      4.030
REMARK INTER + INTRA:          -5.162
REMARK INTER:                  -4.205
REMARK INTRA:                  -0.957
REMARK UNBOUND:                -1.027
REMARK SMILES CCCCCCCCCC=O
REMARK SMILES IDX 6 1 5 2 4 3 3 4 2 5 1 6 7 7 8 8 9 9 10 10 11 11
REMARK H PARENT
REMARK Flexibility Score: inf
ROOT
ATOM      1  C   UNL     1     168.430 169.797 167.875  1.00  0.00     0.000 C 
ENDROOT
BRANCH   1   2
ATOM      2  C   UNL     1     169.432 169.669 169.037  1.00  0.00     0.000 C 
BRANCH   2   3
ATOM      3  C   UNL     1     169.994 168.245 169.189  1.00  0.00    -0.000 C 
BRANCH   3   4
ATOM      4  C   UNL     1     169.104 167.353 170.070  1.00  0.00    -0.000 C 
BRANCH   4   5
ATOM      5  C   UNL     1     168.594 166.108 169.330  1.00  0.00    -0.003 C 
ATOM      6  C   UNL     1     169.101 166.080 167.889  1.00  0.00     0.004 C 
ENDBRANCH   4   5
ENDBRANCH   3   4
ENDBRANCH   2   3
ENDBRANCH   1   2
BRANCH   1   7
ATOM      7  C   UNL     1     166.953 169.917 168.295  1.00  0.00     0.000 C 
BRANCH   7   8
ATOM      8  C   UNL     1     166.109 168.704 167.875  1.00  0.00     0.008 C 
BRANCH   8   9
ATOM      9  C   UNL     1     165.473 168.030 169.095  1.00  0.00     0.072 C 
BRANCH   9  10
ATOM     10  C   UNL     1     164.476 166.991 168.675  1.00  0.00     0.224 C 
ATOM     11  O   UNL     1     163.447 167.316 168.103  1.00  0.00    -0.303 OA
ENDBRANCH   9  10
ENDBRANCH   8   9
ENDBRANCH   7   8
ENDBRANCH   1   7
TORSDOF 8
ENDMDL
MODEL 4
REMARK VINA RESULT:    -2.814      1.843      3.663
REMARK INTER + INTRA:          -5.156
REMARK INTER:                  -4.195
REMARK INTRA:                  -0.962
REMARK UNBOUND:                -1.027
REMARK SMILES CCCCCCCCCC=O
REMARK SMILES IDX 6 1 5 2 4 3 3 4 2 5 1 6 7 7 8 8 9 9 10 10 11 11
REMARK H PARENT
REMARK Flexibility Score: inf
ROOT
ATOM      1  C   UNL     1     169.406 167.356 168.663  1.00  0.00     0.000 C 
ENDROOT
BRANCH   1   2
ATOM      2  C   UNL     1     169.519 168.674 167.877  1.00  0.00     0.000 C 
BRANCH   2   3
ATOM      3  C   UNL     1     168.830 169.854 168.585  1.00  0.00    -0.000 C 
BRANCH   3   4
ATOM      4  C   UNL     1     167.350 169.992 168.193  1.00  0.00    -0.000 C 
BRANCH   4   5
ATOM      5  C   UNL     1     166.480 170.524 169.341  1.00  0.00    -0.003 C 
ATOM      6  C   UNL     1     166.812 169.818 170.654  1.00  0.00     0.004 C 
ENDBRANCH   4   5
ENDBRANCH   3   4
ENDBRANCH   2   3
ENDBRANCH   1   2
BRANCH   1   7
ATOM      7  C   UNL     1     168.287 166.408 168.194  1.00  0.00     0.000 C 
BRANCH   7   8
ATOM      8  C   UNL     1     167.093 166.363 169.158  1.00  0.00     0.008 C 
BRANCH   8   9
ATOM      9  C   UNL     1     165.777 166.185 168.394  1.00  0.00     0.072 C 
BRANCH   9  10
ATOM     10  C   UNL     1     164.735 167.142 168.891  1.00  0.00     0.224 C 
ATOM     11  O   UNL     1     164.217 167.944 168.130  1.00  0.00    -0.303 OA
ENDBRANCH   9  10
ENDBRANCH   8   9
ENDBRANCH   7   8
ENDBRANCH   1   7
TORSDOF 8
ENDMDL
MODEL 5
REMARK VINA RESULT:    -2.802      2.295      3.206
REMARK INTER + INTRA:          -5.140
REMARK INTER:                  -4.282
REMARK INTRA:                  -0.858
REMARK UNBOUND:                -1.027
REMARK SMILES CCCCCCCCCC=O
REMARK SMILES IDX 6 1 5 2 4 3 3 4 2 5 1 6 7 7 8 8 9 9 10 10 11 11
REMARK H PARENT
REMARK Flexibility Score: inf
ROOT
ATOM      1  C   UNL     1     167.694 165.718 169.558  1.00  0.00     0.000 C 
ENDROOT
BRANCH   1   2
ATOM      2  C   UNL     1     166.665 165.754 168.413  1.00  0.00     0.000 C 
BRANCH   2   3
ATOM      3  C   UNL     1     165.432 166.613 168.743  1.00  0.00    -0.000 C 
BRANCH   3   4
ATOM      4  C   UNL     1     165.810 167.984 169.328  1.00  0.00    -0.000 C 
BRANCH   4   5
ATOM      5  C   UNL     1     166.220 168.996 168.249  1.00  0.00    -0.003 C 
ATOM      6  C   UNL     1     166.739 170.288 168.877  1.00  0.00     0.004 C 
ENDBRANCH   4   5
ENDBRANCH   3   4
ENDBRANCH   2   3
ENDBRANCH   1   2
BRANCH   1   7
ATOM      7  C   UNL     1     169.114 166.172 169.176  1.00  0.00     0.000 C 
BRANCH   7   8
ATOM      8  C   UNL     1     169.488 167.539 169.768  1.00  0.00     0.008 C 
BRANCH   8   9
ATOM      9  C   UNL     1     170.030 168.476 168.684  1.00  0.00     0.072 C 
BRANCH   9  10
ATOM     10  C   UNL     1     171.524 168.583 168.763  1.00  0.00     0.224 C 
ATOM     11  O   UNL     1     172.230 167.992 167.960  1.00  0.00    -0.303 OA
ENDBRANCH   9  10
ENDBRANCH   8   9
ENDBRANCH   7   8
ENDBRANCH   1   7
TORSDOF 8
ENDMDL
MODEL 6
REMARK VINA RESULT:    -2.802      3.030      5.143
REMARK INTER + INTRA:          -5.140
REMARK INTER:                  -4.297
REMARK INTRA:                  -0.843
REMARK UNBOUND:                -1.027
REMARK SMILES CCCCCCCCCC=O
REMARK SMILES IDX 6 1 5 2 4 3 3 4 2 5 1 6 7 7 8 8 9 9 10 10 11 11
REMARK H PARENT
REMARK Flexibility Score: inf
ROOT
ATOM      1  C   UNL     1     165.537 167.740 168.457  1.00  0.00     0.000 C 
ENDROOT
BRANCH   1   2
ATOM      2  C   UNL     1     166.089 169.142 168.773  1.00  0.00     0.000 C 
BRANCH   2   3
ATOM      3  C   UNL     1     167.587 169.130 169.126  1.00  0.00    -0.000 C 
BRANCH   3   4
ATOM      4  C   UNL     1     168.485 169.170 167.879  1.00  0.00    -0.000 C 
BRANCH   4   5
ATOM      5  C   UNL     1     169.843 168.489 168.105  1.00  0.00    -0.003 C 
ATOM      6  C   UNL     1     169.948 167.931 169.522  1.00  0.00     0.004 C 
ENDBRANCH   4   5
ENDBRANCH   3   4
ENDBRANCH   2   3
ENDBRANCH   1   2
BRANCH   1   7
ATOM      7  C   UNL     1     166.244 166.580 169.180  1.00  0.00     0.000 C 
BRANCH   7   8
ATOM      8  C   UNL     1     166.489 165.365 168.272  1.00  0.00     0.008 C 
BRANCH   8   9
ATOM      9  C   UNL     1     167.985 165.179 167.997  1.00  0.00     0.072 C 
BRANCH   9  10
ATOM     10  C   UNL     1     168.491 163.912 168.620  1.00  0.00     0.224 C 
ATOM     11  O   UNL     1     168.073 162.828 168.245  1.00  0.00    -0.303 OA
ENDBRANCH   9  10
ENDBRANCH   8   9
ENDBRANCH   7   8
ENDBRANCH   1   7
TORSDOF 8
ENDMDL
MODEL 7
REMARK VINA RESULT:    -2.748      1.133      2.415
REMARK INTER + INTRA:          -5.060
REMARK INTER:                  -4.228
REMARK INTRA:                  -0.832
REMARK UNBOUND:                -1.027
REMARK SMILES CCCCCCCCCC=O
REMARK SMILES IDX 6 1 5 2 4 3 3 4 2 5 1 6 7 7 8 8 9 9 10 10 11 11
REMARK H PARENT
REMARK Flexibility Score: inf
ROOT
ATOM      1  C   UNL     1     166.471 168.188 170.603  1.00  0.00     0.000 C 
ENDROOT
BRANCH   1   2
ATOM      2  C   UNL     1     165.636 167.804 169.368  1.00  0.00     0.000 C 
BRANCH   2   3
ATOM      3  C   UNL     1     165.680 166.298 169.061  1.00  0.00    -0.000 C 
BRANCH   3   4
ATOM      4  C   UNL     1     166.867 165.915 168.161  1.00  0.00    -0.000 C 
BRANCH   4   5
ATOM      5  C   UNL     1     167.747 164.818 168.777  1.00  0.00    -0.003 C 
ATOM      6  C   UNL     1     168.772 165.412 169.740  1.00  0.00     0.004 C 
ENDBRANCH   4   5
ENDBRANCH   3   4
ENDBRANCH   2   3
ENDBRANCH   1   2
BRANCH   1   7
ATOM      7  C   UNL     1     167.432 169.375 170.401  1.00  0.00     0.000 C 
BRANCH   7   8
ATOM      8  C   UNL     1     168.381 169.183 169.208  1.00  0.00     0.008 C 
BRANCH   8   9
ATOM      9  C   UNL     1     168.068 170.186 168.092  1.00  0.00     0.072 C 
BRANCH   9  10
ATOM     10  C   UNL     1     167.146 171.263 168.581  1.00  0.00     0.224 C 
ATOM     11  O   UNL     1     167.291 172.418 168.211  1.00  0.00    -0.303 OA
ENDBRANCH   9  10
ENDBRANCH   8   9
ENDBRANCH   7   8
ENDBRANCH   1   7
TORSDOF 8
ENDMDL
MODEL 8
REMARK VINA RESULT:    -2.702      2.878      4.610
REMARK INTER + INTRA:          -4.992
REMARK INTER:                  -4.020
REMARK INTRA:                  -0.972
REMARK UNBOUND:                -1.027
REMARK SMILES CCCCCCCCCC=O
REMARK SMILES IDX 6 1 5 2 4 3 3 4 2 5 1 6 7 7 8 8 9 9 10 10 11 11
REMARK H PARENT
REMARK Flexibility Score: inf
ROOT
ATOM      1  C   UNL     1     165.715 166.587 168.659  1.00  0.00     0.000 C 
ENDROOT
BRANCH   1   2
ATOM      2  C   UNL     1     165.121 167.993 168.452  1.00  0.00     0.000 C 
BRANCH   2   3
ATOM      3  C   UNL     1     166.154 169.008 167.934  1.00  0.00    -0.000 C 
BRANCH   3   4
ATOM      4  C   UNL     1     166.373 170.177 168.909  1.00  0.00    -0.000 C 
BRANCH   4   5
ATOM      5  C   UNL     1     167.479 169.894 169.935  1.00  0.00    -0.003 C 
ATOM      6  C   UNL     1     166.905 169.781 171.346  1.00  0.00     0.004 C 
ENDBRANCH   4   5
ENDBRANCH   3   4
ENDBRANCH   2   3
ENDBRANCH   1   2
BRANCH   1   7
ATOM      7  C   UNL     1     166.284 166.317 170.063  1.00  0.00     0.000 C 
BRANCH   7   8
ATOM      8  C   UNL     1     167.818 166.254 170.088  1.00  0.00     0.008 C 
BRANCH   8   9
ATOM      9  C   UNL     1     168.371 165.805 168.731  1.00  0.00     0.072 C 
BRANCH   9  10
ATOM     10  C   UNL     1     168.602 164.324 168.709  1.00  0.00     0.224 C 
ATOM     11  O   UNL     1     167.813 163.582 168.143  1.00  0.00    -0.303 OA
ENDBRANCH   9  10
ENDBRANCH   8   9
ENDBRANCH   7   8
ENDBRANCH   1   7
TORSDOF 8
ENDMDL
MODEL 9
REMARK VINA RESULT:    -2.619      3.213      4.749
REMARK INTER + INTRA:          -4.871
REMARK INTER:                  -3.895
REMARK INTRA:                  -0.976
REMARK UNBOUND:                -1.027
REMARK SMILES CCCCCCCCCC=O
REMARK SMILES IDX 6 1 5 2 4 3 3 4 2 5 1 6 7 7 8 8 9 9 10 10 11 11
REMARK H PARENT
REMARK Flexibility Score: inf
ROOT
ATOM      1  C   UNL     1     169.956 166.492 168.291  1.00  0.00     0.000 C 
ENDROOT
BRANCH   1   2
ATOM      2  C   UNL     1     170.101 167.988 167.960  1.00  0.00     0.000 C 
BRANCH   2   3
ATOM      3  C   UNL     1     168.769 168.753 168.047  1.00  0.00    -0.000 C 
BRANCH   3   4
ATOM      4  C   UNL     1     168.410 169.148 169.489  1.00  0.00    -0.000 C 
BRANCH   4   5
ATOM      5  C   UNL     1     166.894 169.196 169.730  1.00  0.00    -0.003 C 
ATOM      6  C   UNL     1     166.134 168.544 168.578  1.00  0.00     0.004 C 
ENDBRANCH   4   5
ENDBRANCH   3   4
ENDBRANCH   2   3
ENDBRANCH   1   2
BRANCH   1   7
ATOM      7  C   UNL     1     168.616 165.857 167.875  1.00  0.00     0.000 C 
BRANCH   7   8
ATOM      8  C   UNL     1     167.859 165.224 169.052  1.00  0.00     0.008 C 
BRANCH   8   9
ATOM      9  C   UNL     1     168.742 165.165 170.303  1.00  0.00     0.072 C 
BRANCH   9  10
ATOM     10  C   UNL     1     169.125 163.750 170.623  1.00  0.00     0.224 C 
ATOM     11  O   UNL     1     169.534 163.006 169.745  1.00  0.00    -0.303 OA
ENDBRANCH   9  10
ENDBRANCH   8   9
ENDBRANCH   7   8
ENDBRANCH   1   7
TORSDOF 8
ENDMDL
