MODEL 1
REMARK VINA RESULT:    -3.539      0.000      0.000
REMARK INTER + INTRA:          -4.191
REMARK INTER:                  -4.160
REMARK INTRA:                  -0.031
REMARK UNBOUND:                -0.031
REMARK SMILES O=C([O-])CCC(=O)[O-]
REMARK SMILES IDX 4 1 2 2 1 3 3 4 5 5 6 6 7 7 8 8
REMARK H PARENT
REMARK Flexibility Score: inf
ROOT
ATOM      1  C   UNL     1      37.233  34.133  -9.788  1.00  0.00     0.059 C 
ENDROOT
BRANCH   1   2
ATOM      2  C   UNL     1      36.049  33.221  -9.894  1.00  0.00     0.042 C 
ATOM      3  O   UNL     1      35.088  33.332  -9.090  1.00  0.00    -0.550 OA
ATOM      4  O   UNL     1      36.027  32.222 -10.860  1.00  0.00    -0.550 OA
ENDBRANCH   1   2
BRANCH   1   5
ATOM      5  C   UNL     1      38.551  33.357  -9.880  1.00  0.00     0.059 C 
BRANCH   5   6
ATOM      6  C   UNL     1      39.554  33.851  -8.881  1.00  0.00     0.042 C 
ATOM      7  O   UNL     1      40.288  33.036  -8.263  1.00  0.00    -0.550 OA
ATOM      8  O   UNL     1      39.648  35.209  -8.605  1.00  0.00    -0.550 OA
ENDBRANCH   5   6
ENDBRANCH   1   5
TORSDOF 3
ENDMDL
MODEL 2
REMARK VINA RESULT:    -3.472      1.080      1.687
REMARK INTER + INTRA:          -4.111
REMARK INTER:                  -4.070
REMARK INTRA:                  -0.042
REMARK UNBOUND:                -0.031
REMARK SMILES O=C([O-])CCC(=O)[O-]
REMARK SMILES IDX 4 1 2 2 1 3 3 4 5 5 6 6 7 7 8 8
REMARK H PARENT
REMARK Flexibility Score: inf
ROOT
ATOM      1  C   UNL     1      38.584  33.186  -9.883  1.00  0.00     0.059 C 
ENDROOT
BRANCH   1   2
ATOM      2  C   UNL     1      37.196  33.022 -10.425  1.00  0.00     0.042 C 
ATOM      3  O   UNL     1      37.011  32.461 -11.536  1.00  0.00    -0.550 OA
ATOM      4  O   UNL     1      36.111  33.525  -9.718  1.00  0.00    -0.550 OA
ENDBRANCH   1   2
BRANCH   1   5
ATOM      5  C   UNL     1      38.825  34.611  -9.377  1.00  0.00     0.059 C 
BRANCH   5   6
ATOM      6  C   UNL     1      39.936  34.659  -8.371  1.00  0.00     0.042 C 
ATOM      7  O   UNL     1      40.372  33.596  -7.858  1.00  0.00    -0.550 OA
ATOM      8  O   UNL     1      40.460  35.882  -7.973  1.00  0.00    -0.550 OA
ENDBRANCH   5   6
ENDBRANCH   1   5
TORSDOF 3
ENDMDL
MODEL 3
REMARK VINA RESULT:    -3.470      1.011      4.180
REMARK INTER + INTRA:          -4.109
REMARK INTER:                  -4.064
REMARK INTRA:                  -0.045
REMARK UNBOUND:                -0.031
REMARK SMILES O=C([O-])CCC(=O)[O-]
REMARK SMILES IDX 4 1 2 2 1 3 3 4 5 5 6 6 7 7 8 8
REMARK H PARENT
REMARK Flexibility Score: inf
ROOT
ATOM      1  C   UNL     1      38.772  34.644  -9.377  1.00  0.00     0.059 C 
ENDROOT
BRANCH   1   2
ATOM      2  C   UNL     1      39.904  34.650  -8.395  1.00  0.00     0.042 C 
ATOM      3  O   UNL     1      40.343  33.567  -7.926  1.00  0.00    -0.550 OA
ATOM      4  O   UNL     1      40.449  35.855  -7.970  1.00  0.00    -0.550 OA
ENDBRANCH   1   2
BRANCH   1   5
ATOM      5  C   UNL     1      38.521  33.241  -9.938  1.00  0.00     0.059 C 
BRANCH   5   6
ATOM      6  C   UNL     1      37.101  33.072 -10.387  1.00  0.00     0.042 C 
ATOM      7  O   UNL     1      36.843  32.454 -11.454  1.00  0.00    -0.550 OA
ATOM      8  O   UNL     1      36.067  33.632  -9.649  1.00  0.00    -0.550 OA
ENDBRANCH   5   6
ENDBRANCH   1   5
TORSDOF 3
ENDMDL
MODEL 4
REMARK VINA RESULT:    -3.449      0.742      4.064
REMARK INTER + INTRA:          -4.084
REMARK INTER:                  -4.016
REMARK INTRA:                  -0.068
REMARK UNBOUND:                -0.031
REMARK SMILES O=C([O-])CCC(=O)[O-]
REMARK SMILES IDX 4 1 2 2 1 3 3 4 5 5 6 6 7 7 8 8
REMARK H PARENT
REMARK Flexibility Score: inf
ROOT
ATOM      1  C   UNL     1      38.520  34.469  -9.732  1.00  0.00     0.059 C 
ENDROOT
BRANCH   1   2
ATOM      2  C   UNL     1      39.569  34.299  -8.677  1.00  0.00     0.042 C 
ATOM      3  O   UNL     1      39.970  35.291  -8.014  1.00  0.00    -0.550 OA
ATOM      4  O   UNL     1      40.132  33.048  -8.452  1.00  0.00    -0.550 OA
ENDBRANCH   1   2
BRANCH   1   5
ATOM      5  C   UNL     1      38.030  33.117 -10.262  1.00  0.00     0.059 C 
BRANCH   5   6
ATOM      6  C   UNL     1      36.537  33.007 -10.198  1.00  0.00     0.042 C 
ATOM      7  O   UNL     1      35.876  33.778  -9.454  1.00  0.00    -0.550 OA
ATOM      8  O   UNL     1      35.881  32.026 -10.930  1.00  0.00    -0.550 OA
ENDBRANCH   5   6
ENDBRANCH   1   5
TORSDOF 3
ENDMDL
MODEL 5
REMARK VINA RESULT:    -3.348     15.854     16.572
REMARK INTER + INTRA:          -3.966
REMARK INTER:                  -3.911
REMARK INTRA:                  -0.055
REMARK UNBOUND:                -0.031
REMARK SMILES O=C([O-])CCC(=O)[O-]
REMARK SMILES IDX 4 1 2 2 1 3 3 4 5 5 6 6 7 7 8 8
REMARK H PARENT
REMARK Flexibility Score: inf
ROOT
ATOM      1  C   UNL     1      40.522  44.542   3.447  1.00  0.00     0.059 C 
ENDROOT
BRANCH   1   2
ATOM      2  C   UNL     1      39.473  43.474   3.502  1.00  0.00     0.042 C 
ATOM      3  O   UNL     1      39.442  42.569   2.627  1.00  0.00    -0.550 OA
ATOM      4  O   UNL     1      38.505  43.501   4.499  1.00  0.00    -0.550 OA
ENDBRANCH   1   2
BRANCH   1   5
ATOM      5  C   UNL     1      41.121  44.670   2.042  1.00  0.00     0.059 C 
BRANCH   5   6
ATOM      6  C   UNL     1      40.447  45.751   1.252  1.00  0.00     0.042 C 
ATOM      7  O   UNL     1      41.125  46.690   0.756  1.00  0.00    -0.550 OA
ATOM      8  O   UNL     1      39.067  45.742   1.097  1.00  0.00    -0.550 OA
ENDBRANCH   5   6
ENDBRANCH   1   5
TORSDOF 3
ENDMDL
MODEL 6
REMARK VINA RESULT:    -3.345     15.766     16.589
REMARK INTER + INTRA:          -3.962
REMARK INTER:                  -3.917
REMARK INTRA:                  -0.045
REMARK UNBOUND:                -0.031
REMARK SMILES O=C([O-])CCC(=O)[O-]
REMARK SMILES IDX 4 1 2 2 1 3 3 4 5 5 6 6 7 7 8 8
REMARK H PARENT
REMARK Flexibility Score: inf
ROOT
ATOM      1  C   UNL     1      41.124  44.626   1.942  1.00  0.00     0.059 C 
ENDROOT
BRANCH   1   2
ATOM      2  C   UNL     1      40.404  45.756   1.271  1.00  0.00     0.042 C 
ATOM      3  O   UNL     1      39.151  45.728   1.150  1.00  0.00    -0.550 OA
ATOM      4  O   UNL     1      41.123  46.821   0.744  1.00  0.00    -0.550 OA
ENDBRANCH   1   2
BRANCH   1   5
ATOM      5  C   UNL     1      40.625  44.414   3.375  1.00  0.00     0.059 C 
BRANCH   5   6
ATOM      6  C   UNL     1      39.552  43.369   3.437  1.00  0.00     0.042 C 
ATOM      7  O   UNL     1      39.579  42.385   2.652  1.00  0.00    -0.550 OA
ATOM      8  O   UNL     1      38.502  43.504   4.335  1.00  0.00    -0.550 OA
ENDBRANCH   5   6
ENDBRANCH   1   5
TORSDOF 3
ENDMDL
MODEL 7
REMARK VINA RESULT:    -3.341     15.887     16.686
REMARK INTER + INTRA:          -3.957
REMARK INTER:                  -3.911
REMARK INTRA:                  -0.046
REMARK UNBOUND:                -0.031
REMARK SMILES O=C([O-])CCC(=O)[O-]
REMARK SMILES IDX 4 1 2 2 1 3 3 4 5 5 6 6 7 7 8 8
REMARK H PARENT
REMARK Flexibility Score: inf
ROOT
ATOM      1  C   UNL     1      41.110  44.741   2.177  1.00  0.00     0.059 C 
ENDROOT
BRANCH   1   2
ATOM      2  C   UNL     1      40.441  45.752   1.296  1.00  0.00     0.042 C 
ATOM      3  O   UNL     1      41.125  46.622   0.696  1.00  0.00    -0.550 OA
ATOM      4  O   UNL     1      39.058  45.755   1.169  1.00  0.00    -0.550 OA
ENDBRANCH   1   2
BRANCH   1   5
ATOM      5  C   UNL     1      40.408  44.625   3.533  1.00  0.00     0.059 C 
BRANCH   5   6
ATOM      6  C   UNL     1      39.440  43.481   3.558  1.00  0.00     0.042 C 
ATOM      7  O   UNL     1      38.508  43.458   4.404  1.00  0.00    -0.550 OA
ATOM      8  O   UNL     1      39.593  42.422   2.673  1.00  0.00    -0.550 OA
ENDBRANCH   5   6
ENDBRANCH   1   5
TORSDOF 3
ENDMDL
MODEL 8
REMARK VINA RESULT:    -2.013     15.157     16.543
REMARK INTER + INTRA:          -2.396
REMARK INTER:                  -2.425
REMARK INTRA:                   0.029
REMARK UNBOUND:                -0.031
REMARK SMILES O=C([O-])CCC(=O)[O-]
REMARK SMILES IDX 4 1 2 2 1 3 3 4 5 5 6 6 7 7 8 8
REMARK H PARENT
REMARK Flexibility Score: inf
ROOT
ATOM      1  C   UNL     1      40.183  44.475   2.310  1.00  0.00     0.059 C 
ENDROOT
BRANCH   1   2
ATOM      2  C   UNL     1      40.326  43.053   1.859  1.00  0.00     0.042 C 
ATOM      3  O   UNL     1      41.125  42.759   0.931  1.00  0.00    -0.550 OA
ATOM      4  O   UNL     1      39.548  42.059   2.438  1.00  0.00    -0.550 OA
ENDBRANCH   1   2
BRANCH   1   5
ATOM      5  C   UNL     1      39.978  44.566   3.825  1.00  0.00     0.059 C 
BRANCH   5   6
ATOM      6  C   UNL     1      38.525  44.513   4.189  1.00  0.00     0.042 C 
ATOM      7  O   UNL     1      37.728  45.380   3.743  1.00  0.00    -0.550 OA
ATOM      8  O   UNL     1      38.060  43.531   5.054  1.00  0.00    -0.550 OA
ENDBRANCH   5   6
ENDBRANCH   1   5
TORSDOF 3
ENDMDL
MODEL 9
REMARK VINA RESULT:    -1.934     15.159     16.450
REMARK INTER + INTRA:          -2.304
REMARK INTER:                  -2.266
REMARK INTRA:                  -0.038
REMARK UNBOUND:                -0.031
REMARK SMILES O=C([O-])CCC(=O)[O-]
REMARK SMILES IDX 4 1 2 2 1 3 3 4 5 5 6 6 7 7 8 8
REMARK H PARENT
REMARK Flexibility Score: inf
ROOT
ATOM      1  C   UNL     1      40.210  44.183   4.182  1.00  0.00     0.059 C 
ENDROOT
BRANCH   1   2
ATOM      2  C   UNL     1      38.718  44.215   4.324  1.00  0.00     0.042 C 
ATOM      3  O   UNL     1      38.051  45.147   3.804  1.00  0.00    -0.550 OA
ATOM      4  O   UNL     1      38.070  43.233   5.063  1.00  0.00    -0.550 OA
ENDBRANCH   1   2
BRANCH   1   5
ATOM      5  C   UNL     1      40.659  43.090   3.207  1.00  0.00     0.059 C 
BRANCH   5   6
ATOM      6  C   UNL     1      40.082  43.299   1.840  1.00  0.00     0.042 C 
ATOM      7  O   UNL     1      39.669  42.316   1.170  1.00  0.00    -0.550 OA
ATOM      8  O   UNL     1      40.037  44.574   1.291  1.00  0.00    -0.550 OA
ENDBRANCH   5   6
ENDBRANCH   1   5
TORSDOF 3
ENDMDL
