MODEL 1
REMARK VINA RESULT:    -4.024      0.000      0.000
REMARK INTER + INTRA:          -5.243
REMARK INTER:                  -4.847
REMARK INTRA:                  -0.396
REMARK UNBOUND:                -0.396
REMARK SMILES NC(=O)C[C@H]([NH3+])C(=O)[O-]
REMARK SMILES IDX 4 1 5 2 6 3 7 7 8 8 9 9 2 10 3 11 1 12
REMARK H PARENT 6 4 6 5 6 6 1 13 1 14
REMARK Flexibility Score: inf
ROOT
ATOM      1  C   UNL     1       2.211   2.612 -39.546  1.00  0.00     0.171 C 
ENDROOT
BRANCH   1   2
ATOM      2  C   UNL     1       1.240   1.790 -38.674  1.00  0.00     0.237 C 
BRANCH   2   3
ATOM      3  N   UNL     1       0.661   2.608 -37.599  1.00  0.00    -0.350 N 
ATOM      4  H   UNL     1       0.639   2.060 -36.709  1.00  0.00     0.345 HD
ATOM      5  H   UNL     1       1.222   3.479 -37.452  1.00  0.00     0.345 HD
ATOM      6  H   UNL     1      -0.323   2.870 -37.838  1.00  0.00     0.345 HD
ENDBRANCH   2   3
BRANCH   2   7
ATOM      7  C   UNL     1       1.964   0.607 -38.089  1.00  0.00     0.100 C 
ATOM      8  O   UNL     1       1.776  -0.546 -38.559  1.00  0.00    -0.544 OA
ATOM      9  O   UNL     1       2.857   0.781 -37.038  1.00  0.00    -0.544 OA
ENDBRANCH   2   7
ENDBRANCH   1   2
BRANCH   1  10
ATOM     10  C   UNL     1       3.060   3.530 -38.717  1.00  0.00     0.223 C 
ATOM     11  O   UNL     1       2.645   4.686 -38.436  1.00  0.00    -0.275 OA
ATOM     12  N   UNL     1       4.350   3.113 -38.269  1.00  0.00    -0.369 N 
ATOM     13  H   UNL     1       4.713   2.163 -38.502  1.00  0.00     0.159 HD
ATOM     14  H   UNL     1       4.945   3.757 -37.702  1.00  0.00     0.159 HD
ENDBRANCH   1  10
TORSDOF 4
ENDMDL
MODEL 2
REMARK VINA RESULT:    -3.978      1.796      3.529
REMARK INTER + INTRA:          -5.188
REMARK INTER:                  -4.761
REMARK INTRA:                  -0.428
REMARK UNBOUND:                -0.396
REMARK SMILES NC(=O)C[C@H]([NH3+])C(=O)[O-]
REMARK SMILES IDX 4 1 5 2 6 3 7 7 8 8 9 9 2 10 3 11 1 12
REMARK H PARENT 6 4 6 5 6 6 1 13 1 14
REMARK Flexibility Score: inf
ROOT
ATOM      1  C   UNL     1       1.206   1.584 -38.130  1.00  0.00     0.171 C 
ENDROOT
BRANCH   1   2
ATOM      2  C   UNL     1       1.739   2.497 -39.252  1.00  0.00     0.237 C 
BRANCH   2   3
ATOM      3  N   UNL     1       2.157   1.718 -40.425  1.00  0.00    -0.350 N 
ATOM      4  H   UNL     1       2.573   2.354 -41.144  1.00  0.00     0.345 HD
ATOM      5  H   UNL     1       2.865   0.995 -40.157  1.00  0.00     0.345 HD
ATOM      6  H   UNL     1       1.330   1.245 -40.856  1.00  0.00     0.345 HD
ENDBRANCH   2   3
BRANCH   2   7
ATOM      7  C   UNL     1       2.894   3.312 -38.735  1.00  0.00     0.100 C 
ATOM      8  O   UNL     1       2.721   4.512 -38.396  1.00  0.00    -0.544 OA
ATOM      9  O   UNL     1       4.156   2.741 -38.612  1.00  0.00    -0.544 OA
ENDBRANCH   2   7
ENDBRANCH   1   2
BRANCH   1  10
ATOM     10  C   UNL     1       2.008   0.321 -38.014  1.00  0.00     0.223 C 
ATOM     11  O   UNL     1       1.664  -0.702 -38.664  1.00  0.00    -0.275 OA
ATOM     12  N   UNL     1       3.141   0.262 -37.148  1.00  0.00    -0.369 N 
ATOM     13  H   UNL     1       3.432   1.097 -36.594  1.00  0.00     0.159 HD
ATOM     14  H   UNL     1       3.691  -0.622 -37.059  1.00  0.00     0.159 HD
ENDBRANCH   1  10
TORSDOF 4
ENDMDL
MODEL 3
REMARK VINA RESULT:    -3.796      2.183      3.524
REMARK INTER + INTRA:          -4.969
REMARK INTER:                  -5.090
REMARK INTRA:                   0.122
REMARK UNBOUND:                -0.396
REMARK SMILES NC(=O)C[C@H]([NH3+])C(=O)[O-]
REMARK SMILES IDX 4 1 5 2 6 3 7 7 8 8 9 9 2 10 3 11 1 12
REMARK H PARENT 6 4 6 5 6 6 1 13 1 14
REMARK Flexibility Score: inf
ROOT
ATOM      1  C   UNL     1       2.745   1.441 -37.523  1.00  0.00     0.171 C 
ENDROOT
BRANCH   1   2
ATOM      2  C   UNL     1       2.856   2.332 -38.776  1.00  0.00     0.237 C 
BRANCH   2   3
ATOM      3  N   UNL     1       3.087   3.738 -38.416  1.00  0.00    -0.350 N 
ATOM      4  H   UNL     1       2.177   4.253 -38.395  1.00  0.00     0.345 HD
ATOM      5  H   UNL     1       3.543   3.810 -37.476  1.00  0.00     0.345 HD
ATOM      6  H   UNL     1       3.699   4.196 -39.129  1.00  0.00     0.345 HD
ENDBRANCH   2   3
BRANCH   2   7
ATOM      7  C   UNL     1       1.601   2.209 -39.597  1.00  0.00     0.100 C 
ATOM      8  O   UNL     1       1.671   1.931 -40.823  1.00  0.00    -0.544 OA
ATOM      9  O   UNL     1       0.355   2.385 -39.005  1.00  0.00    -0.544 OA
ENDBRANCH   2   7
ENDBRANCH   1   2
BRANCH   1  10
ATOM     10  C   UNL     1       2.633  -0.012 -37.882  1.00  0.00     0.223 C 
ATOM     11  O   UNL     1       3.522  -0.821 -37.507  1.00  0.00    -0.275 OA
ATOM     12  N   UNL     1       1.540  -0.477 -38.673  1.00  0.00    -0.369 N 
ATOM     13  H   UNL     1       0.800   0.183 -39.001  1.00  0.00     0.159 HD
ATOM     14  H   UNL     1       1.469  -1.487 -38.933  1.00  0.00     0.159 HD
ENDBRANCH   1  10
TORSDOF 4
ENDMDL
MODEL 4
REMARK VINA RESULT:    -3.776      1.863      3.571
REMARK INTER + INTRA:          -4.944
REMARK INTER:                  -5.189
REMARK INTRA:                   0.245
REMARK UNBOUND:                -0.396
REMARK SMILES NC(=O)C[C@H]([NH3+])C(=O)[O-]
REMARK SMILES IDX 4 1 5 2 6 3 7 7 8 8 9 9 2 10 3 11 1 12
REMARK H PARENT 6 4 6 5 6 6 1 13 1 14
REMARK Flexibility Score: inf
ROOT
ATOM      1  C   UNL     1       1.246   1.654 -38.047  1.00  0.00     0.171 C 
ENDROOT
BRANCH   1   2
ATOM      2  C   UNL     1       1.764   2.538 -39.200  1.00  0.00     0.237 C 
BRANCH   2   3
ATOM      3  N   UNL     1       2.179   1.727 -40.353  1.00  0.00    -0.350 N 
ATOM      4  H   UNL     1       3.060   2.117 -40.761  1.00  0.00     0.345 HD
ATOM      5  H   UNL     1       2.344   0.733 -40.067  1.00  0.00     0.345 HD
ATOM      6  H   UNL     1       1.443   1.753 -41.094  1.00  0.00     0.345 HD
ENDBRANCH   2   3
BRANCH   2   7
ATOM      7  C   UNL     1       2.916   3.376 -38.716  1.00  0.00     0.100 C 
ATOM      8  O   UNL     1       2.722   4.560 -38.333  1.00  0.00    -0.544 OA
ATOM      9  O   UNL     1       4.200   2.844 -38.671  1.00  0.00    -0.544 OA
ENDBRANCH   2   7
ENDBRANCH   1   2
BRANCH   1  10
ATOM     10  C   UNL     1       2.049   0.394 -37.910  1.00  0.00     0.223 C 
ATOM     11  O   UNL     1       3.059   0.374 -37.157  1.00  0.00    -0.275 OA
ATOM     12  N   UNL     1       1.694  -0.774 -38.650  1.00  0.00    -0.369 N 
ATOM     13  H   UNL     1       0.867  -0.770 -39.286  1.00  0.00     0.159 HD
ATOM     14  H   UNL     1       2.262  -1.646 -38.563  1.00  0.00     0.159 HD
ENDBRANCH   1  10
TORSDOF 4
ENDMDL
MODEL 5
REMARK VINA RESULT:    -3.660      2.265      2.612
REMARK INTER + INTRA:          -4.805
REMARK INTER:                  -4.748
REMARK INTRA:                  -0.057
REMARK UNBOUND:                -0.396
REMARK SMILES NC(=O)C[C@H]([NH3+])C(=O)[O-]
REMARK SMILES IDX 4 1 5 2 6 3 7 7 8 8 9 9 2 10 3 11 1 12
REMARK H PARENT 6 4 6 5 6 6 1 13 1 14
REMARK Flexibility Score: inf
ROOT
ATOM      1  C   UNL     1       2.951   1.715 -37.470  1.00  0.00     0.171 C 
ENDROOT
BRANCH   1   2
ATOM      2  C   UNL     1       1.617   1.027 -37.825  1.00  0.00     0.237 C 
BRANCH   2   3
ATOM      3  N   UNL     1       1.807  -0.022 -38.837  1.00  0.00    -0.350 N 
ATOM      4  H   UNL     1       1.768   0.398 -39.794  1.00  0.00     0.345 HD
ATOM      5  H   UNL     1       2.731  -0.498 -38.709  1.00  0.00     0.345 HD
ATOM      6  H   UNL     1       1.044  -0.731 -38.766  1.00  0.00     0.345 HD
ENDBRANCH   2   3
BRANCH   2   7
ATOM      7  C   UNL     1       0.636   2.053 -38.324  1.00  0.00     0.100 C 
ATOM      8  O   UNL     1      -0.015   2.757 -37.506  1.00  0.00    -0.544 OA
ATOM      9  O   UNL     1       0.453   2.244 -39.688  1.00  0.00    -0.544 OA
ENDBRANCH   2   7
ENDBRANCH   1   2
BRANCH   1  10
ATOM     10  C   UNL     1       3.358   2.710 -38.517  1.00  0.00     0.223 C 
ATOM     11  O   UNL     1       3.573   2.325 -39.698  1.00  0.00    -0.275 OA
ATOM     12  N   UNL     1       3.535   4.085 -38.178  1.00  0.00    -0.369 N 
ATOM     13  H   UNL     1       3.372   4.417 -37.202  1.00  0.00     0.159 HD
ATOM     14  H   UNL     1       3.830   4.774 -38.905  1.00  0.00     0.159 HD
ENDBRANCH   1  10
TORSDOF 4
ENDMDL
MODEL 6
REMARK VINA RESULT:    -3.193      2.233      3.109
REMARK INTER + INTRA:          -4.242
REMARK INTER:                  -4.123
REMARK INTRA:                  -0.119
REMARK UNBOUND:                -0.396
REMARK SMILES NC(=O)C[C@H]([NH3+])C(=O)[O-]
REMARK SMILES IDX 4 1 5 2 6 3 7 7 8 8 9 9 2 10 3 11 1 12
REMARK H PARENT 6 4 6 5 6 6 1 13 1 14
REMARK Flexibility Score: inf
ROOT
ATOM      1  C   UNL     1       2.303   1.857 -40.190  1.00  0.00     0.171 C 
ENDROOT
BRANCH   1   2
ATOM      2  C   UNL     1       2.464   2.732 -38.931  1.00  0.00     0.237 C 
BRANCH   2   3
ATOM      3  N   UNL     1       3.880   2.916 -38.583  1.00  0.00    -0.350 N 
ATOM      4  H   UNL     1       4.016   3.849 -38.131  1.00  0.00     0.345 HD
ATOM      5  H   UNL     1       4.200   2.167 -37.925  1.00  0.00     0.345 HD
ATOM      6  H   UNL     1       4.468   2.888 -39.446  1.00  0.00     0.345 HD
ENDBRANCH   2   3
BRANCH   2   7
ATOM      7  C   UNL     1       1.726   2.104 -37.780  1.00  0.00     0.100 C 
ATOM      8  O   UNL     1       0.593   2.537 -37.441  1.00  0.00    -0.544 OA
ATOM      9  O   UNL     1       2.281   1.030 -37.093  1.00  0.00    -0.544 OA
ENDBRANCH   2   7
ENDBRANCH   1   2
BRANCH   1  10
ATOM     10  C   UNL     1       1.110   2.267 -41.003  1.00  0.00     0.223 C 
ATOM     11  O   UNL     1       1.238   2.487 -42.237  1.00  0.00    -0.275 OA
ATOM     12  N   UNL     1      -0.163   2.441 -40.382  1.00  0.00    -0.369 N 
ATOM     13  H   UNL     1      -0.283   2.274 -39.358  1.00  0.00     0.159 HD
ATOM     14  H   UNL     1      -0.989   2.739 -40.947  1.00  0.00     0.159 HD
ENDBRANCH   1  10
TORSDOF 4
ENDMDL
MODEL 7
REMARK VINA RESULT:    -3.188      2.523      3.473
REMARK INTER + INTRA:          -4.236
REMARK INTER:                  -4.159
REMARK INTRA:                  -0.078
REMARK UNBOUND:                -0.396
REMARK SMILES NC(=O)C[C@H]([NH3+])C(=O)[O-]
REMARK SMILES IDX 4 1 5 2 6 3 7 7 8 8 9 9 2 10 3 11 1 12
REMARK H PARENT 6 4 6 5 6 6 1 13 1 14
REMARK Flexibility Score: inf
ROOT
ATOM      1  C   UNL     1       1.023   2.267 -37.468  1.00  0.00     0.171 C 
ENDROOT
BRANCH   1   2
ATOM      2  C   UNL     1       1.804   1.199 -38.259  1.00  0.00     0.237 C 
BRANCH   2   3
ATOM      3  N   UNL     1       2.766   0.493 -37.402  1.00  0.00    -0.350 N 
ATOM      4  H   UNL     1       3.029   1.099 -36.590  1.00  0.00     0.345 HD
ATOM      5  H   UNL     1       2.358  -0.401 -37.043  1.00  0.00     0.345 HD
ATOM      6  H   UNL     1       3.638   0.281 -37.938  1.00  0.00     0.345 HD
ENDBRANCH   2   3
BRANCH   2   7
ATOM      7  C   UNL     1       2.520   1.847 -39.413  1.00  0.00     0.100 C 
ATOM      8  O   UNL     1       3.601   2.465 -39.222  1.00  0.00    -0.544 OA
ATOM      9  O   UNL     1       2.003   1.756 -40.700  1.00  0.00    -0.544 OA
ENDBRANCH   2   7
ENDBRANCH   1   2
BRANCH   1  10
ATOM     10  C   UNL     1      -0.364   2.456 -38.010  1.00  0.00     0.223 C 
ATOM     11  O   UNL     1      -1.340   2.544 -37.217  1.00  0.00    -0.275 OA
ATOM     12  N   UNL     1      -0.589   2.504 -39.418  1.00  0.00    -0.369 N 
ATOM     13  H   UNL     1       0.208   2.421 -40.088  1.00  0.00     0.159 HD
ATOM     14  H   UNL     1      -1.556   2.623 -39.794  1.00  0.00     0.159 HD
ENDBRANCH   1  10
TORSDOF 4
ENDMDL
MODEL 8
REMARK VINA RESULT:    -3.069      2.142      3.103
REMARK INTER + INTRA:          -4.092
REMARK INTER:                  -3.706
REMARK INTRA:                  -0.386
REMARK UNBOUND:                -0.396
REMARK SMILES NC(=O)C[C@H]([NH3+])C(=O)[O-]
REMARK SMILES IDX 4 1 5 2 6 3 7 7 8 8 9 9 2 10 3 11 1 12
REMARK H PARENT 6 4 6 5 6 6 1 13 1 14
REMARK Flexibility Score: inf
ROOT
ATOM      1  C   UNL     1       1.636   1.166 -38.868  1.00  0.00     0.171 C 
ENDROOT
BRANCH   1   2
ATOM      2  C   UNL     1       1.850   2.244 -37.787  1.00  0.00     0.237 C 
BRANCH   2   3
ATOM      3  N   UNL     1       0.594   2.935 -37.463  1.00  0.00    -0.350 N 
ATOM      4  H   UNL     1       0.434   3.715 -38.141  1.00  0.00     0.345 HD
ATOM      5  H   UNL     1      -0.215   2.272 -37.506  1.00  0.00     0.345 HD
ATOM      6  H   UNL     1       0.648   3.348 -36.505  1.00  0.00     0.345 HD
ENDBRANCH   2   3
BRANCH   2   7
ATOM      7  C   UNL     1       2.878   3.237 -38.259  1.00  0.00     0.100 C 
ATOM      8  O   UNL     1       2.582   4.457 -38.360  1.00  0.00    -0.544 OA
ATOM      9  O   UNL     1       4.166   2.818 -38.572  1.00  0.00    -0.544 OA
ENDBRANCH   2   7
ENDBRANCH   1   2
BRANCH   1  10
ATOM     10  C   UNL     1       1.221   1.768 -40.179  1.00  0.00     0.223 C 
ATOM     11  O   UNL     1       0.103   2.339 -40.280  1.00  0.00    -0.275 OA
ATOM     12  N   UNL     1       2.072   1.671 -41.320  1.00  0.00    -0.369 N 
ATOM     13  H   UNL     1       2.997   1.191 -41.256  1.00  0.00     0.159 HD
ATOM     14  H   UNL     1       1.777   2.080 -42.235  1.00  0.00     0.159 HD
ENDBRANCH   1  10
TORSDOF 4
ENDMDL
MODEL 9
REMARK VINA RESULT:    -3.052      1.856      2.858
REMARK INTER + INTRA:          -4.073
REMARK INTER:                  -3.779
REMARK INTRA:                  -0.294
REMARK UNBOUND:                -0.396
REMARK SMILES NC(=O)C[C@H]([NH3+])C(=O)[O-]
REMARK SMILES IDX 4 1 5 2 6 3 7 7 8 8 9 9 2 10 3 11 1 12
REMARK H PARENT 6 4 6 5 6 6 1 13 1 14
REMARK Flexibility Score: inf
ROOT
ATOM      1  C   UNL     1       1.797   3.023 -38.281  1.00  0.00     0.171 C 
ENDROOT
BRANCH   1   2
ATOM      2  C   UNL     1       2.708   1.888 -38.790  1.00  0.00     0.237 C 
BRANCH   2   3
ATOM      3  N   UNL     1       2.474   1.611 -40.214  1.00  0.00    -0.350 N 
ATOM      4  H   UNL     1       3.212   0.963 -40.575  1.00  0.00     0.345 HD
ATOM      5  H   UNL     1       1.534   1.174 -40.358  1.00  0.00     0.345 HD
ATOM      6  H   UNL     1       2.528   2.497 -40.766  1.00  0.00     0.345 HD
ENDBRANCH   2   3
BRANCH   2   7
ATOM      7  C   UNL     1       2.469   0.645 -37.976  1.00  0.00     0.100 C 
ATOM      8  O   UNL     1       2.814   0.605 -36.766  1.00  0.00    -0.544 OA
ATOM      9  O   UNL     1       1.853  -0.461 -38.549  1.00  0.00    -0.544 OA
ENDBRANCH   2   7
ENDBRANCH   1   2
BRANCH   1  10
ATOM     10  C   UNL     1       0.344   2.674 -38.420  1.00  0.00     0.223 C 
ATOM     11  O   UNL     1      -0.108   2.305 -39.537  1.00  0.00    -0.275 OA
ATOM     12  N   UNL     1      -0.536   2.786 -37.302  1.00  0.00    -0.369 N 
ATOM     13  H   UNL     1      -0.180   3.100 -36.373  1.00  0.00     0.159 HD
ATOM     14  H   UNL     1      -1.550   2.553 -37.404  1.00  0.00     0.159 HD
ENDBRANCH   1  10
TORSDOF 4
ENDMDL
