MODEL 1
REMARK VINA RESULT:    -5.169      0.000      0.000
REMARK INTER + INTRA:         -10.787
REMARK INTER:                  -9.097
REMARK INTRA:                  -1.690
REMARK UNBOUND:                -1.690
REMARK SMILES CCCCCCCCCCCCCCC(=O)[O-]
REMARK SMILES IDX 9 1 10 2 11 3 12 4 13 5 14 6 15 7 16 8 17 9 8 10 7 11 6 12
REMARK SMILES IDX 5 13 4 14 3 15 2 16 1 17
REMARK H PARENT
REMARK Flexibility Score: inf
ROOT
ATOM      1  C   UNL     1      13.522  16.676 163.830  1.00  0.00     0.000 C 
ENDROOT
BRANCH   1   2
ATOM      2  C   UNL     1      12.347  16.116 164.647  1.00  0.00     0.000 C 
BRANCH   2   3
ATOM      3  C   UNL     1      11.015  16.345 163.916  1.00  0.00     0.000 C 
BRANCH   3   4
ATOM      4  C   UNL     1      10.806  17.813 163.510  1.00  0.00     0.000 C 
BRANCH   4   5
ATOM      5  C   UNL     1      10.972  18.040 162.001  1.00  0.00     0.006 C 
BRANCH   5   6
ATOM      6  C   UNL     1      10.863  16.717 161.234  1.00  0.00     0.053 C 
BRANCH   6   7
ATOM      7  C   UNL     1      11.609  16.798 159.940  1.00  0.00     0.041 C 
ATOM      8  O   UNL     1      11.440  17.781 159.172  1.00  0.00    -0.550 OA
ATOM      9  O   UNL     1      12.454  15.764 159.560  1.00  0.00    -0.550 OA
ENDBRANCH   6   7
ENDBRANCH   5   6
ENDBRANCH   4   5
ENDBRANCH   3   4
ENDBRANCH   2   3
ENDBRANCH   1   2
BRANCH   1  10
ATOM     10  C   UNL     1      14.027  15.691 162.763  1.00  0.00     0.000 C 
BRANCH  10  11
ATOM     11  C   UNL     1      14.627  14.414 163.377  1.00  0.00    -0.000 C 
BRANCH  11  12
ATOM     12  C   UNL     1      13.909  13.132 162.916  1.00  0.00    -0.000 C 
BRANCH  12  13
ATOM     13  C   UNL     1      12.608  13.355 162.122  1.00  0.00    -0.000 C 
BRANCH  13  14
ATOM     14  C   UNL     1      11.353  12.899 162.885  1.00  0.00    -0.000 C 
BRANCH  14  15
ATOM     15  C   UNL     1      10.110  12.825 161.983  1.00  0.00    -0.000 C 
BRANCH  15  16
ATOM     16  C   UNL     1      10.154  11.637 161.009  1.00  0.00    -0.003 C 
ATOM     17  C   UNL     1       9.637  10.364 161.673  1.00  0.00     0.004 C 
ENDBRANCH  15  16
ENDBRANCH  14  15
ENDBRANCH  13  14
ENDBRANCH  12  13
ENDBRANCH  11  12
ENDBRANCH  10  11
ENDBRANCH   1  10
TORSDOF 13
ENDMDL
MODEL 2
REMARK VINA RESULT:    -5.089      2.385      3.912
REMARK INTER + INTRA:         -10.646
REMARK INTER:                  -8.615
REMARK INTRA:                  -2.032
REMARK UNBOUND:                -1.690
REMARK SMILES CCCCCCCCCCCCCCC(=O)[O-]
REMARK SMILES IDX 9 1 10 2 11 3 12 4 13 5 14 6 15 7 16 8 17 9 8 10 7 11 6 12
REMARK SMILES IDX 5 13 4 14 3 15 2 16 1 17
REMARK H PARENT
REMARK Flexibility Score: inf
ROOT
ATOM      1  C   UNL     1      11.674  17.665 161.791  1.00  0.00     0.000 C 
ENDROOT
BRANCH   1   2
ATOM      2  C   UNL     1      10.959  17.063 160.571  1.00  0.00     0.000 C 
BRANCH   2   3
ATOM      3  C   UNL     1      11.345  15.587 160.386  1.00  0.00     0.000 C 
BRANCH   3   4
ATOM      4  C   UNL     1      12.864  15.382 160.264  1.00  0.00     0.000 C 
BRANCH   4   5
ATOM      5  C   UNL     1      13.430  14.480 161.370  1.00  0.00     0.006 C 
BRANCH   5   6
ATOM      6  C   UNL     1      14.344  15.274 162.310  1.00  0.00     0.053 C 
BRANCH   6   7
ATOM      7  C   UNL     1      15.339  14.367 162.963  1.00  0.00     0.041 C 
ATOM      8  O   UNL     1      14.970  13.562 163.857  1.00  0.00    -0.550 OA
ATOM      9  O   UNL     1      16.682  14.448 162.619  1.00  0.00    -0.550 OA
ENDBRANCH   6   7
ENDBRANCH   5   6
ENDBRANCH   4   5
ENDBRANCH   3   4
ENDBRANCH   2   3
ENDBRANCH   1   2
BRANCH   1  10
ATOM     10  C   UNL     1      10.819  17.611 163.067  1.00  0.00     0.000 C 
BRANCH  10  11
ATOM     11  C   UNL     1      11.345  16.587 164.088  1.00  0.00    -0.000 C 
BRANCH  11  12
ATOM     12  C   UNL     1      10.679  15.205 163.949  1.00  0.00    -0.000 C 
BRANCH  12  13
ATOM     13  C   UNL     1      11.544  14.011 164.392  1.00  0.00    -0.000 C 
BRANCH  13  14
ATOM     14  C   UNL     1      11.270  12.735 163.577  1.00  0.00    -0.000 C 
BRANCH  14  15
ATOM     15  C   UNL     1      10.268  12.970 162.435  1.00  0.00    -0.000 C 
BRANCH  15  16
ATOM     16  C   UNL     1      10.427  11.959 161.290  1.00  0.00    -0.003 C 
ATOM     17  C   UNL     1       9.716  10.648 161.613  1.00  0.00     0.004 C 
ENDBRANCH  15  16
ENDBRANCH  14  15
ENDBRANCH  13  14
ENDBRANCH  12  13
ENDBRANCH  11  12
ENDBRANCH  10  11
ENDBRANCH   1  10
TORSDOF 13
ENDMDL
MODEL 3
REMARK VINA RESULT:    -5.069      2.031      5.117
REMARK INTER + INTRA:         -10.612
REMARK INTER:                  -8.604
REMARK INTRA:                  -2.008
REMARK UNBOUND:                -1.690
REMARK SMILES CCCCCCCCCCCCCCC(=O)[O-]
REMARK SMILES IDX 9 1 10 2 11 3 12 4 13 5 14 6 15 7 16 8 17 9 8 10 7 11 6 12
REMARK SMILES IDX 5 13 4 14 3 15 2 16 1 17
REMARK H PARENT
REMARK Flexibility Score: inf
ROOT
ATOM      1  C   UNL     1       9.746  14.862 161.773  1.00  0.00     0.000 C 
ENDROOT
BRANCH   1   2
ATOM      2  C   UNL     1       9.719  13.329 161.879  1.00  0.00     0.000 C 
BRANCH   2   3
ATOM      3  C   UNL     1      10.887  12.707 161.098  1.00  0.00     0.000 C 
BRANCH   3   4
ATOM      4  C   UNL     1      12.114  12.435 161.984  1.00  0.00     0.000 C 
BRANCH   4   5
ATOM      5  C   UNL     1      13.179  13.536 161.875  1.00  0.00     0.006 C 
BRANCH   5   6
ATOM      6  C   UNL     1      14.213  13.410 162.999  1.00  0.00     0.053 C 
BRANCH   6   7
ATOM      7  C   UNL     1      15.177  14.552 162.954  1.00  0.00     0.041 C 
ATOM      8  O   UNL     1      16.417  14.335 162.947  1.00  0.00    -0.550 OA
ATOM      9  O   UNL     1      14.707  15.859 162.971  1.00  0.00    -0.550 OA
ENDBRANCH   6   7
ENDBRANCH   5   6
ENDBRANCH   4   5
ENDBRANCH   3   4
ENDBRANCH   2   3
ENDBRANCH   1   2
BRANCH   1  10
ATOM     10  C   UNL     1      10.394  15.356 160.469  1.00  0.00     0.000 C 
BRANCH  10  11
ATOM     11  C   UNL     1      11.547  16.343 160.720  1.00  0.00    -0.000 C 
BRANCH  11  12
ATOM     12  C   UNL     1      11.098  17.612 161.470  1.00  0.00    -0.000 C 
BRANCH  12  13
ATOM     13  C   UNL     1      11.572  17.715 162.931  1.00  0.00    -0.000 C 
BRANCH  13  14
ATOM     14  C   UNL     1      10.409  17.774 163.937  1.00  0.00    -0.000 C 
BRANCH  14  15
ATOM     15  C   UNL     1      10.400  16.574 164.898  1.00  0.00    -0.000 C 
BRANCH  15  16
ATOM     16  C   UNL     1      11.678  15.727 164.800  1.00  0.00    -0.003 C 
ATOM     17  C   UNL     1      11.400  14.271 165.162  1.00  0.00     0.004 C 
ENDBRANCH  15  16
ENDBRANCH  14  15
ENDBRANCH  13  14
ENDBRANCH  12  13
ENDBRANCH  11  12
ENDBRANCH  10  11
ENDBRANCH   1  10
TORSDOF 13
ENDMDL
MODEL 4
REMARK VINA RESULT:    -5.010      1.379      3.529
REMARK INTER + INTRA:         -10.507
REMARK INTER:                  -8.241
REMARK INTRA:                  -2.266
REMARK UNBOUND:                -1.690
REMARK SMILES CCCCCCCCCCCCCCC(=O)[O-]
REMARK SMILES IDX 9 1 10 2 11 3 12 4 13 5 14 6 15 7 16 8 17 9 8 10 7 11 6 12
REMARK SMILES IDX 5 13 4 14 3 15 2 16 1 17
REMARK H PARENT
REMARK Flexibility Score: inf
ROOT
ATOM      1  C   UNL     1      11.606  13.653 165.092  1.00  0.00     0.000 C 
ENDROOT
BRANCH   1   2
ATOM      2  C   UNL     1      10.973  15.011 164.751  1.00  0.00     0.000 C 
BRANCH   2   3
ATOM      3  C   UNL     1      12.003  16.143 164.883  1.00  0.00     0.000 C 
BRANCH   3   4
ATOM      4  C   UNL     1      11.715  17.321 163.938  1.00  0.00     0.000 C 
BRANCH   4   5
ATOM      5  C   UNL     1      10.917  16.901 162.695  1.00  0.00     0.006 C 
BRANCH   5   6
ATOM      6  C   UNL     1      11.169  17.866 161.531  1.00  0.00     0.053 C 
BRANCH   6   7
ATOM      7  C   UNL     1      11.055  17.150 160.223  1.00  0.00     0.041 C 
ATOM      8  O   UNL     1      11.599  17.625 159.192  1.00  0.00    -0.550 OA
ATOM      9  O   UNL     1      10.306  15.984 160.132  1.00  0.00    -0.550 OA
ENDBRANCH   6   7
ENDBRANCH   5   6
ENDBRANCH   4   5
ENDBRANCH   3   4
ENDBRANCH   2   3
ENDBRANCH   1   2
BRANCH   1  10
ATOM     10  C   UNL     1      11.342  12.587 164.016  1.00  0.00     0.000 C 
BRANCH  10  11
ATOM     11  C   UNL     1      10.704  13.176 162.746  1.00  0.00    -0.000 C 
BRANCH  11  12
ATOM     12  C   UNL     1      11.604  13.041 161.504  1.00  0.00    -0.000 C 
BRANCH  12  13
ATOM     13  C   UNL     1      13.103  13.300 161.746  1.00  0.00    -0.000 C 
BRANCH  13  14
ATOM     14  C   UNL     1      13.525  14.742 161.415  1.00  0.00    -0.000 C 
BRANCH  14  15
ATOM     15  C   UNL     1      14.468  15.337 162.473  1.00  0.00    -0.000 C 
BRANCH  15  16
ATOM     16  C   UNL     1      15.247  14.261 163.245  1.00  0.00    -0.003 C 
ATOM     17  C   UNL     1      16.679  14.147 162.733  1.00  0.00     0.004 C 
ENDBRANCH  15  16
ENDBRANCH  14  15
ENDBRANCH  13  14
ENDBRANCH  12  13
ENDBRANCH  11  12
ENDBRANCH  10  11
ENDBRANCH   1  10
TORSDOF 13
ENDMDL
MODEL 5
REMARK VINA RESULT:    -4.971      2.214      4.629
REMARK INTER + INTRA:         -10.438
REMARK INTER:                  -8.176
REMARK INTRA:                  -2.262
REMARK UNBOUND:                -1.690
REMARK SMILES CCCCCCCCCCCCCCC(=O)[O-]
REMARK SMILES IDX 9 1 10 2 11 3 12 4 13 5 14 6 15 7 16 8 17 9 8 10 7 11 6 12
REMARK SMILES IDX 5 13 4 14 3 15 2 16 1 17
REMARK H PARENT
REMARK Flexibility Score: inf
ROOT
ATOM      1  C   UNL     1      10.438  16.744 164.411  1.00  0.00     0.000 C 
ENDROOT
BRANCH   1   2
ATOM      2  C   UNL     1      10.877  15.714 165.463  1.00  0.00     0.000 C 
BRANCH   2   3
ATOM      3  C   UNL     1      11.946  14.770 164.891  1.00  0.00     0.000 C 
BRANCH   3   4
ATOM      4  C   UNL     1      11.424  13.337 164.690  1.00  0.00     0.000 C 
BRANCH   4   5
ATOM      5  C   UNL     1      11.482  12.887 163.223  1.00  0.00     0.006 C 
BRANCH   5   6
ATOM      6  C   UNL     1      10.072  12.687 162.656  1.00  0.00     0.053 C 
BRANCH   6   7
ATOM      7  C   UNL     1      10.087  11.666 161.563  1.00  0.00     0.041 C 
ATOM      8  O   UNL     1      10.658  11.916 160.470  1.00  0.00    -0.550 OA
ATOM      9  O   UNL     1       9.426  10.456 161.735  1.00  0.00    -0.550 OA
ENDBRANCH   6   7
ENDBRANCH   5   6
ENDBRANCH   4   5
ENDBRANCH   3   4
ENDBRANCH   2   3
ENDBRANCH   1   2
BRANCH   1  10
ATOM     10  C   UNL     1      11.618  17.299 163.595  1.00  0.00     0.000 C 
BRANCH  10  11
ATOM     11  C   UNL     1      11.311  17.371 162.089  1.00  0.00    -0.000 C 
BRANCH  11  12
ATOM     12  C   UNL     1      10.487  16.170 161.586  1.00  0.00    -0.000 C 
BRANCH  12  13
ATOM     13  C   UNL     1      11.170  15.310 160.506  1.00  0.00    -0.000 C 
BRANCH  13  14
ATOM     14  C   UNL     1      12.649  15.677 160.292  1.00  0.00    -0.000 C 
BRANCH  14  15
ATOM     15  C   UNL     1      13.606  14.638 160.898  1.00  0.00    -0.000 C 
BRANCH  15  16
ATOM     16  C   UNL     1      14.317  15.152 162.160  1.00  0.00    -0.003 C 
ATOM     17  C   UNL     1      14.903  13.998 162.967  1.00  0.00     0.004 C 
ENDBRANCH  15  16
ENDBRANCH  14  15
ENDBRANCH  13  14
ENDBRANCH  12  13
ENDBRANCH  11  12
ENDBRANCH  10  11
ENDBRANCH   1  10
TORSDOF 13
ENDMDL
MODEL 6
REMARK VINA RESULT:    -4.966      2.698      4.677
REMARK INTER + INTRA:         -10.430
REMARK INTER:                  -8.462
REMARK INTRA:                  -1.968
REMARK UNBOUND:                -1.690
REMARK SMILES CCCCCCCCCCCCCCC(=O)[O-]
REMARK SMILES IDX 9 1 10 2 11 3 12 4 13 5 14 6 15 7 16 8 17 9 8 10 7 11 6 12
REMARK SMILES IDX 5 13 4 14 3 15 2 16 1 17
REMARK H PARENT
REMARK Flexibility Score: inf
ROOT
ATOM      1  C   UNL     1      10.614  15.467 160.506  1.00  0.00     0.000 C 
ENDROOT
BRANCH   1   2
ATOM      2  C   UNL     1      10.950  16.952 160.715  1.00  0.00     0.000 C 
BRANCH   2   3
ATOM      3  C   UNL     1      11.650  17.168 162.065  1.00  0.00     0.000 C 
BRANCH   3   4
ATOM      4  C   UNL     1      10.826  18.040 163.027  1.00  0.00     0.000 C 
BRANCH   4   5
ATOM      5  C   UNL     1      10.491  17.318 164.340  1.00  0.00     0.006 C 
BRANCH   5   6
ATOM      6  C   UNL     1      11.503  16.202 164.625  1.00  0.00     0.053 C 
BRANCH   6   7
ATOM      7  C   UNL     1      10.984  15.282 165.684  1.00  0.00     0.041 C 
ATOM      8  O   UNL     1      11.294  14.062 165.671  1.00  0.00    -0.550 OA
ATOM      9  O   UNL     1      10.117  15.762 166.658  1.00  0.00    -0.550 OA
ENDBRANCH   6   7
ENDBRANCH   5   6
ENDBRANCH   4   5
ENDBRANCH   3   4
ENDBRANCH   2   3
ENDBRANCH   1   2
BRANCH   1  10
ATOM     10  C   UNL     1       9.624  14.930 161.553  1.00  0.00     0.000 C 
BRANCH  10  11
ATOM     11  C   UNL     1      10.147  13.671 162.267  1.00  0.00    -0.000 C 
BRANCH  11  12
ATOM     12  C   UNL     1      10.884  12.705 161.320  1.00  0.00    -0.000 C 
BRANCH  12  13
ATOM     13  C   UNL     1      12.342  12.392 161.704  1.00  0.00    -0.000 C 
BRANCH  13  14
ATOM     14  C   UNL     1      12.960  13.451 162.633  1.00  0.00    -0.000 C 
BRANCH  14  15
ATOM     15  C   UNL     1      13.811  14.479 161.869  1.00  0.00    -0.000 C 
BRANCH  15  16
ATOM     16  C   UNL     1      15.165  14.745 162.543  1.00  0.00    -0.003 C 
ATOM     17  C   UNL     1      15.385  13.802 163.722  1.00  0.00     0.004 C 
ENDBRANCH  15  16
ENDBRANCH  14  15
ENDBRANCH  13  14
ENDBRANCH  12  13
ENDBRANCH  11  12
ENDBRANCH  10  11
ENDBRANCH   1  10
TORSDOF 13
ENDMDL
MODEL 7
REMARK VINA RESULT:    -4.956      1.212      3.950
REMARK INTER + INTRA:         -10.412
REMARK INTER:                  -8.458
REMARK INTRA:                  -1.954
REMARK UNBOUND:                -1.690
REMARK SMILES CCCCCCCCCCCCCCC(=O)[O-]
REMARK SMILES IDX 9 1 10 2 11 3 12 4 13 5 14 6 15 7 16 8 17 9 8 10 7 11 6 12
REMARK SMILES IDX 5 13 4 14 3 15 2 16 1 17
REMARK H PARENT
REMARK Flexibility Score: inf
ROOT
ATOM      1  C   UNL     1      12.378  12.790 162.786  1.00  0.00     0.000 C 
ENDROOT
BRANCH   1   2
ATOM      2  C   UNL     1      11.567  12.408 161.538  1.00  0.00     0.000 C 
BRANCH   2   3
ATOM      3  C   UNL     1      10.066  12.645 161.769  1.00  0.00     0.000 C 
BRANCH   3   4
ATOM      4  C   UNL     1       9.755  14.083 162.215  1.00  0.00     0.000 C 
BRANCH   4   5
ATOM      5  C   UNL     1       9.734  15.075 161.043  1.00  0.00     0.006 C 
BRANCH   5   6
ATOM      6  C   UNL     1      10.720  16.223 161.279  1.00  0.00     0.053 C 
BRANCH   6   7
ATOM      7  C   UNL     1      11.639  16.374 160.109  1.00  0.00     0.041 C 
ATOM      8  O   UNL     1      12.520  15.505 159.878  1.00  0.00    -0.550 OA
ATOM      9  O   UNL     1      11.555  17.501 159.300  1.00  0.00    -0.550 OA
ENDBRANCH   6   7
ENDBRANCH   5   6
ENDBRANCH   4   5
ENDBRANCH   3   4
ENDBRANCH   2   3
ENDBRANCH   1   2
BRANCH   1  10
ATOM     10  C   UNL     1      13.782  13.315 162.443  1.00  0.00     0.000 C 
BRANCH  10  11
ATOM     11  C   UNL     1      14.288  14.353 163.460  1.00  0.00    -0.000 C 
BRANCH  11  12
ATOM     12  C   UNL     1      13.760  15.773 163.182  1.00  0.00    -0.000 C 
BRANCH  12  13
ATOM     13  C   UNL     1      12.850  16.362 164.275  1.00  0.00    -0.000 C 
BRANCH  13  14
ATOM     14  C   UNL     1      12.159  15.284 165.127  1.00  0.00    -0.000 C 
BRANCH  14  15
ATOM     15  C   UNL     1      10.827  15.768 165.724  1.00  0.00    -0.000 C 
BRANCH  15  16
ATOM     16  C   UNL     1      10.089  16.751 164.803  1.00  0.00    -0.003 C 
ATOM     17  C   UNL     1       8.847  17.315 165.487  1.00  0.00     0.004 C 
ENDBRANCH  15  16
ENDBRANCH  14  15
ENDBRANCH  13  14
ENDBRANCH  12  13
ENDBRANCH  11  12
ENDBRANCH  10  11
ENDBRANCH   1  10
TORSDOF 13
ENDMDL
MODEL 8
REMARK VINA RESULT:    -4.844      2.957      4.831
REMARK INTER + INTRA:         -10.216
REMARK INTER:                  -8.283
REMARK INTRA:                  -1.933
REMARK UNBOUND:                -1.690
REMARK SMILES CCCCCCCCCCCCCCC(=O)[O-]
REMARK SMILES IDX 9 1 10 2 11 3 12 4 13 5 14 6 15 7 16 8 17 9 8 10 7 11 6 12
REMARK SMILES IDX 5 13 4 14 3 15 2 16 1 17
REMARK H PARENT
REMARK Flexibility Score: inf
ROOT
ATOM      1  C   UNL     1      11.433  16.136 160.866  1.00  0.00     0.000 C 
ENDROOT
BRANCH   1   2
ATOM      2  C   UNL     1      11.240  17.650 161.046  1.00  0.00     0.000 C 
BRANCH   2   3
ATOM      3  C   UNL     1      11.103  18.009 162.534  1.00  0.00     0.000 C 
BRANCH   3   4
ATOM      4  C   UNL     1      11.999  17.146 163.438  1.00  0.00     0.000 C 
BRANCH   4   5
ATOM      5  C   UNL     1      11.213  16.452 164.560  1.00  0.00     0.006 C 
BRANCH   5   6
ATOM      6  C   UNL     1       9.873  17.153 164.804  1.00  0.00     0.053 C 
BRANCH   6   7
ATOM      7  C   UNL     1       9.218  16.618 166.038  1.00  0.00     0.041 C 
ATOM      8  O   UNL     1       8.079  17.029 166.380  1.00  0.00    -0.550 OA
ATOM      9  O   UNL     1       9.889  15.701 166.838  1.00  0.00    -0.550 OA
ENDBRANCH   6   7
ENDBRANCH   5   6
ENDBRANCH   4   5
ENDBRANCH   3   4
ENDBRANCH   2   3
ENDBRANCH   1   2
BRANCH   1  10
ATOM     10  C   UNL     1      10.106  15.388 160.660  1.00  0.00     0.000 C 
BRANCH  10  11
ATOM     11  C   UNL     1       9.669  14.606 161.911  1.00  0.00    -0.000 C 
BRANCH  11  12
ATOM     12  C   UNL     1      10.165  13.148 161.911  1.00  0.00    -0.000 C 
BRANCH  12  13
ATOM     13  C   UNL     1      11.284  12.834 162.921  1.00  0.00    -0.000 C 
BRANCH  13  14
ATOM     14  C   UNL     1      12.694  13.034 162.338  1.00  0.00    -0.000 C 
BRANCH  14  15
ATOM     15  C   UNL     1      13.607  13.845 163.272  1.00  0.00    -0.000 C 
BRANCH  15  16
ATOM     16  C   UNL     1      14.621  14.708 162.506  1.00  0.00    -0.003 C 
ATOM     17  C   UNL     1      16.052  14.285 162.824  1.00  0.00     0.004 C 
ENDBRANCH  15  16
ENDBRANCH  14  15
ENDBRANCH  13  14
ENDBRANCH  12  13
ENDBRANCH  11  12
ENDBRANCH  10  11
ENDBRANCH   1  10
TORSDOF 13
ENDMDL
MODEL 9
REMARK VINA RESULT:    -4.826      3.876      4.851
REMARK INTER + INTRA:         -10.183
REMARK INTER:                  -8.223
REMARK INTRA:                  -1.960
REMARK UNBOUND:                -1.690
REMARK SMILES CCCCCCCCCCCCCCC(=O)[O-]
REMARK SMILES IDX 9 1 10 2 11 3 12 4 13 5 14 6 15 7 16 8 17 9 8 10 7 11 6 12
REMARK SMILES IDX 5 13 4 14 3 15 2 16 1 17
REMARK H PARENT
REMARK Flexibility Score: inf
ROOT
ATOM      1  C   UNL     1      12.910  16.712 164.023  1.00  0.00     0.000 C 
ENDROOT
BRANCH   1   2
ATOM      2  C   UNL     1      11.577  17.311 163.548  1.00  0.00     0.000 C 
BRANCH   2   3
ATOM      3  C   UNL     1      10.417  16.831 164.433  1.00  0.00     0.000 C 
BRANCH   3   4
ATOM      4  C   UNL     1      10.837  15.721 165.411  1.00  0.00     0.000 C 
BRANCH   4   5
ATOM      5  C   UNL     1       9.964  15.683 166.674  1.00  0.00     0.006 C 
BRANCH   5   6
ATOM      6  C   UNL     1       8.867  16.750 166.613  1.00  0.00     0.053 C 
BRANCH   6   7
ATOM      7  C   UNL     1       7.848  16.517 167.683  1.00  0.00     0.041 C 
ATOM      8  O   UNL     1       7.817  15.420 168.299  1.00  0.00    -0.550 OA
ATOM      9  O   UNL     1       6.900  17.492 167.965  1.00  0.00    -0.550 OA
ENDBRANCH   6   7
ENDBRANCH   5   6
ENDBRANCH   4   5
ENDBRANCH   3   4
ENDBRANCH   2   3
ENDBRANCH   1   2
BRANCH   1  10
ATOM     10  C   UNL     1      13.770  16.181 162.864  1.00  0.00     0.000 C 
BRANCH  10  11
ATOM     11  C   UNL     1      14.245  14.736 163.095  1.00  0.00    -0.000 C 
BRANCH  11  12
ATOM     12  C   UNL     1      13.269  13.686 162.533  1.00  0.00    -0.000 C 
BRANCH  12  13
ATOM     13  C   UNL     1      12.276  13.098 163.553  1.00  0.00    -0.000 C 
BRANCH  13  14
ATOM     14  C   UNL     1      10.881  12.845 162.956  1.00  0.00    -0.000 C 
BRANCH  14  15
ATOM     15  C   UNL     1      10.725  13.444 161.549  1.00  0.00    -0.000 C 
BRANCH  15  16
ATOM     16  C   UNL     1       9.816  14.682 161.528  1.00  0.00    -0.003 C 
ATOM     17  C   UNL     1      10.396  15.774 160.636  1.00  0.00     0.004 C 
ENDBRANCH  15  16
ENDBRANCH  14  15
ENDBRANCH  13  14
ENDBRANCH  12  13
ENDBRANCH  11  12
ENDBRANCH  10  11
ENDBRANCH   1  10
TORSDOF 13
ENDMDL
