MODEL 1
REMARK VINA RESULT:    -3.973      0.000      0.000
REMARK INTER + INTRA:          -4.485
REMARK INTER:                  -4.438
REMARK INTRA:                  -0.047
REMARK UNBOUND:                -0.047
REMARK SMILES CCCC(=O)[O-]
REMARK SMILES IDX 3 1 4 2 5 3 6 4 2 5 1 6
REMARK H PARENT
REMARK Flexibility Score: inf
ROOT
ATOM      1  C   UNL     1     -15.700  -8.592 -21.165  1.00  0.00     0.052 C 
ENDROOT
BRANCH   1   2
ATOM      2  C   UNL     1     -15.992  -9.089 -22.547  1.00  0.00     0.041 C 
ATOM      3  O   UNL     1     -15.050  -9.315 -23.352  1.00  0.00    -0.550 OA
ATOM      4  O   UNL     1     -17.302  -9.335 -22.936  1.00  0.00    -0.550 OA
ENDBRANCH   1   2
BRANCH   1   5
ATOM      5  C   UNL     1     -16.245  -7.175 -20.945  1.00  0.00     0.003 C 
ATOM      6  C   UNL     1     -15.840  -6.217 -22.064  1.00  0.00     0.004 C 
ENDBRANCH   1   5
TORSDOF 2
ENDMDL
MODEL 2
REMARK VINA RESULT:    -3.849      1.098      2.218
REMARK INTER + INTRA:          -4.346
REMARK INTER:                  -4.280
REMARK INTRA:                  -0.066
REMARK UNBOUND:                -0.047
REMARK SMILES CCCC(=O)[O-]
REMARK SMILES IDX 3 1 4 2 5 3 6 4 2 5 1 6
REMARK H PARENT
REMARK Flexibility Score: inf
ROOT
ATOM      1  C   UNL     1     -15.858  -6.670 -22.379  1.00  0.00     0.052 C 
ENDROOT
BRANCH   1   2
ATOM      2  C   UNL     1     -16.178  -7.705 -23.414  1.00  0.00     0.041 C 
ATOM      3  O   UNL     1     -17.376  -8.007 -23.660  1.00  0.00    -0.550 OA
ATOM      4  O   UNL     1     -15.155  -8.313 -24.129  1.00  0.00    -0.550 OA
ENDBRANCH   1   2
BRANCH   1   5
ATOM      5  C   UNL     1     -16.223  -7.147 -20.968  1.00  0.00     0.003 C 
ATOM      6  C   UNL     1     -15.583  -8.492 -20.626  1.00  0.00     0.004 C 
ENDBRANCH   1   5
TORSDOF 2
ENDMDL
MODEL 3
REMARK VINA RESULT:    -3.801      1.367      1.692
REMARK INTER + INTRA:          -4.293
REMARK INTER:                  -4.221
REMARK INTRA:                  -0.071
REMARK UNBOUND:                -0.047
REMARK SMILES CCCC(=O)[O-]
REMARK SMILES IDX 3 1 4 2 5 3 6 4 2 5 1 6
REMARK H PARENT
REMARK Flexibility Score: inf
ROOT
ATOM      1  C   UNL     1     -15.653  -8.920 -22.555  1.00  0.00     0.052 C 
ENDROOT
BRANCH   1   2
ATOM      2  C   UNL     1     -16.984  -8.729 -23.214  1.00  0.00     0.041 C 
ATOM      3  O   UNL     1     -17.138  -7.834 -24.087  1.00  0.00    -0.550 OA
ATOM      4  O   UNL     1     -18.047  -9.562 -22.889  1.00  0.00    -0.550 OA
ENDBRANCH   1   2
BRANCH   1   5
ATOM      5  C   UNL     1     -15.737  -8.716 -21.038  1.00  0.00     0.003 C 
ATOM      6  C   UNL     1     -16.167  -7.299 -20.664  1.00  0.00     0.004 C 
ENDBRANCH   1   5
TORSDOF 2
ENDMDL
MODEL 4
REMARK VINA RESULT:    -3.642      2.012      2.527
REMARK INTER + INTRA:          -4.115
REMARK INTER:                  -4.082
REMARK INTRA:                  -0.034
REMARK UNBOUND:                -0.047
REMARK SMILES CCCC(=O)[O-]
REMARK SMILES IDX 3 1 4 2 5 3 6 4 2 5 1 6
REMARK H PARENT
REMARK Flexibility Score: inf
ROOT
ATOM      1  C   UNL     1     -15.501  -8.994 -22.861  1.00  0.00     0.052 C 
ENDROOT
BRANCH   1   2
ATOM      2  C   UNL     1     -16.043  -9.008 -21.465  1.00  0.00     0.041 C 
ATOM      3  O   UNL     1     -15.354  -8.555 -20.513  1.00  0.00    -0.550 OA
ATOM      4  O   UNL     1     -17.321  -9.492 -21.220  1.00  0.00    -0.550 OA
ENDBRANCH   1   2
BRANCH   1   5
ATOM      5  C   UNL     1     -16.621  -9.082 -23.905  1.00  0.00     0.003 C 
ATOM      6  C   UNL     1     -16.881  -7.744 -24.595  1.00  0.00     0.004 C 
ENDBRANCH   1   5
TORSDOF 2
ENDMDL
MODEL 5
REMARK VINA RESULT:    -3.607      1.781      2.388
REMARK INTER + INTRA:          -4.076
REMARK INTER:                  -4.018
REMARK INTRA:                  -0.058
REMARK UNBOUND:                -0.047
REMARK SMILES CCCC(=O)[O-]
REMARK SMILES IDX 3 1 4 2 5 3 6 4 2 5 1 6
REMARK H PARENT
REMARK Flexibility Score: inf
ROOT
ATOM      1  C   UNL     1     -15.817  -7.226 -22.110  1.00  0.00     0.052 C 
ENDROOT
BRANCH   1   2
ATOM      2  C   UNL     1     -16.021  -8.437 -21.253  1.00  0.00     0.041 C 
ATOM      3  O   UNL     1     -15.111  -8.822 -20.472  1.00  0.00    -0.550 OA
ATOM      4  O   UNL     1     -17.229  -9.121 -21.293  1.00  0.00    -0.550 OA
ENDBRANCH   1   2
BRANCH   1   5
ATOM      5  C   UNL     1     -15.951  -7.558 -23.602  1.00  0.00     0.003 C 
ATOM      6  C   UNL     1     -15.074  -8.739 -24.015  1.00  0.00     0.004 C 
ENDBRANCH   1   5
TORSDOF 2
ENDMDL
MODEL 6
REMARK VINA RESULT:    -3.527      2.138      2.880
REMARK INTER + INTRA:          -3.987
REMARK INTER:                  -3.918
REMARK INTRA:                  -0.069
REMARK UNBOUND:                -0.047
REMARK SMILES CCCC(=O)[O-]
REMARK SMILES IDX 3 1 4 2 5 3 6 4 2 5 1 6
REMARK H PARENT
REMARK Flexibility Score: inf
ROOT
ATOM      1  C   UNL     1     -15.812  -7.686 -22.671  1.00  0.00     0.052 C 
ENDROOT
BRANCH   1   2
ATOM      2  C   UNL     1     -15.856  -7.865 -21.185  1.00  0.00     0.041 C 
ATOM      3  O   UNL     1     -15.249  -8.827 -20.644  1.00  0.00    -0.550 OA
ATOM      4  O   UNL     1     -16.542  -6.952 -20.395  1.00  0.00    -0.550 OA
ENDBRANCH   1   2
BRANCH   1   5
ATOM      5  C   UNL     1     -16.345  -8.921 -23.408  1.00  0.00     0.003 C 
ATOM      6  C   UNL     1     -17.816  -9.192 -23.099  1.00  0.00     0.004 C 
ENDBRANCH   1   5
TORSDOF 2
ENDMDL
MODEL 7
REMARK VINA RESULT:    -3.412      1.970      2.493
REMARK INTER + INTRA:          -3.858
REMARK INTER:                  -3.862
REMARK INTRA:                   0.005
REMARK UNBOUND:                -0.047
REMARK SMILES CCCC(=O)[O-]
REMARK SMILES IDX 3 1 4 2 5 3 6 4 2 5 1 6
REMARK H PARENT
REMARK Flexibility Score: inf
ROOT
ATOM      1  C   UNL     1     -15.936  -8.948 -21.898  1.00  0.00     0.052 C 
ENDROOT
BRANCH   1   2
ATOM      2  C   UNL     1     -15.656  -7.717 -22.704  1.00  0.00     0.041 C 
ATOM      3  O   UNL     1     -15.290  -7.815 -23.905  1.00  0.00    -0.550 OA
ATOM      4  O   UNL     1     -15.831  -6.461 -22.139  1.00  0.00    -0.550 OA
ENDBRANCH   1   2
BRANCH   1   5
ATOM      5  C   UNL     1     -17.441  -9.165 -21.699  1.00  0.00     0.003 C 
ATOM      6  C   UNL     1     -18.215  -9.108 -23.014  1.00  0.00     0.004 C 
ENDBRANCH   1   5
TORSDOF 2
ENDMDL
MODEL 8
REMARK VINA RESULT:    -2.723     19.639     20.552
REMARK INTER + INTRA:          -3.088
REMARK INTER:                  -3.065
REMARK INTRA:                  -0.023
REMARK UNBOUND:                -0.047
REMARK SMILES CCCC(=O)[O-]
REMARK SMILES IDX 3 1 4 2 5 3 6 4 2 5 1 6
REMARK H PARENT
REMARK Flexibility Score: inf
ROOT
ATOM      1  C   UNL     1      -0.931   5.718 -23.662  1.00  0.00     0.052 C 
ENDROOT
BRANCH   1   2
ATOM      2  C   UNL     1      -1.467   6.623 -22.595  1.00  0.00     0.041 C 
ATOM      3  O   UNL     1      -2.370   7.458 -22.867  1.00  0.00    -0.550 OA
ATOM      4  O   UNL     1      -0.993   6.520 -21.294  1.00  0.00    -0.550 OA
ENDBRANCH   1   2
BRANCH   1   5
ATOM      5  C   UNL     1      -1.892   5.614 -24.853  1.00  0.00     0.003 C 
ATOM      6  C   UNL     1      -2.327   4.175 -25.124  1.00  0.00     0.004 C 
ENDBRANCH   1   5
TORSDOF 2
ENDMDL
MODEL 9
REMARK VINA RESULT:    -2.577     17.581     18.121
REMARK INTER + INTRA:          -2.925
REMARK INTER:                  -2.887
REMARK INTRA:                  -0.038
REMARK UNBOUND:                -0.047
REMARK SMILES CCCC(=O)[O-]
REMARK SMILES IDX 3 1 4 2 5 3 6 4 2 5 1 6
REMARK H PARENT
REMARK Flexibility Score: inf
ROOT
ATOM      1  C   UNL     1      -4.635  -9.227  -8.480  1.00  0.00     0.052 C 
ENDROOT
BRANCH   1   2
ATOM      2  C   UNL     1      -5.786  -9.610  -7.601  1.00  0.00     0.041 C 
ATOM      3  O   UNL     1      -6.145  -8.853  -6.661  1.00  0.00    -0.550 OA
ATOM      4  O   UNL     1      -6.482 -10.788  -7.840  1.00  0.00    -0.550 OA
ENDBRANCH   1   2
BRANCH   1   5
ATOM      5  C   UNL     1      -4.199 -10.389  -9.382  1.00  0.00     0.003 C 
ATOM      6  C   UNL     1      -2.951 -11.095  -8.857  1.00  0.00     0.004 C 
ENDBRANCH   1   5
TORSDOF 2
ENDMDL
