MODEL 1
REMARK VINA RESULT:     0.000      0.000      0.000
REMARK INTER + INTRA:          -0.300
REMARK INTER:                   0.000
REMARK INTRA:                  -0.300
REMARK UNBOUND:                -0.300
REMARK SMILES O=c1c(O)c(-c2ccc(O)cc2)oc2cc(O)cc(O)c12
REMARK SMILES IDX 5 1 3 2 2 3 1 4 21 5 19 6 18 7 16 8 15 9 14 10 13 11 6 12
REMARK SMILES IDX 7 13 8 14 9 15 12 16 11 17 10 18 4 20 20 22 17 24
REMARK H PARENT 10 19 4 21 20 23 17 25
REMARK Flexibility Score: inf
ROOT
ATOM      1  C   UNL     1     127.195 125.725 141.763  1.00  0.00     0.180 A 
ATOM      2  C   UNL     1     127.534 124.732 140.828  1.00  0.00     0.208 A 
ATOM      3  C   UNL     1     128.888 124.511 140.530  1.00  0.00     0.238 A 
ATOM      4  O   UNL     1     129.189 123.584 139.733  1.00  0.00    -0.285 OA
ATOM      5  C   UNL     1     129.885 125.298 141.157  1.00  0.00     0.111 A 
ATOM      6  C   UNL     1     131.285 125.188 140.901  1.00  0.00     0.134 A 
ATOM      7  C   UNL     1     132.189 125.926 141.675  1.00  0.00     0.093 A 
ATOM      8  C   UNL     1     131.742 126.817 142.650  1.00  0.00     0.123 A 
ATOM      9  C   UNL     1     130.373 126.976 142.869  1.00  0.00     0.094 A 
ATOM     10  C   UNL     1     129.449 126.227 142.137  1.00  0.00     0.146 A 
ATOM     11  O   UNL     1     128.155 126.401 142.383  1.00  0.00    -0.452 OA
ENDROOT
BRANCH   1  12
ATOM     12  C   UNL     1     125.788 126.033 142.110  1.00  0.00     0.021 A 
ATOM     13  C   UNL     1     125.197 125.406 143.220  1.00  0.00     0.016 A 
ATOM     14  C   UNL     1     123.877 125.699 143.579  1.00  0.00     0.047 A 
ATOM     15  C   UNL     1     123.138 126.630 142.843  1.00  0.00     0.115 A 
ATOM     16  C   UNL     1     125.046 126.984 141.386  1.00  0.00     0.016 A 
ATOM     17  C   UNL     1     123.727 127.274 141.748  1.00  0.00     0.047 A 
BRANCH  15  18
ATOM     18  O   UNL     1     121.825 126.911 143.212  1.00  0.00    -0.508 OA
ATOM     19  H   UNL     1     121.613 127.522 143.993  1.00  0.00     0.293 HD
ENDBRANCH  15  18
ENDBRANCH   1  12
BRANCH   2  20
ATOM     20  O   UNL     1     126.536 123.953 140.236  1.00  0.00    -0.502 OA
ATOM     21  H   UNL     1     126.135 123.144 140.695  1.00  0.00     0.293 HD
ENDBRANCH   2  20
BRANCH   6  22
ATOM     22  O   UNL     1     131.832 124.396 139.888  1.00  0.00    -0.507 OA
ATOM     23  H   UNL     1     131.369 124.169 139.021  1.00  0.00     0.293 HD
ENDBRANCH   6  22
BRANCH   8  24
ATOM     24  O   UNL     1     132.669 127.546 143.391  1.00  0.00    -0.508 OA
ATOM     25  H   UNL     1     132.451 127.893 144.318  1.00  0.00     0.293 HD
ENDBRANCH   8  24
TORSDOF 5
ENDMDL
MODEL 2
REMARK VINA RESULT:     0.000      5.800      7.694
REMARK INTER + INTRA:          -0.300
REMARK INTER:                   0.000
REMARK INTRA:                  -0.300
REMARK UNBOUND:                -0.300
REMARK SMILES O=c1c(O)c(-c2ccc(O)cc2)oc2cc(O)cc(O)c12
REMARK SMILES IDX 5 1 3 2 2 3 1 4 21 5 19 6 18 7 16 8 15 9 14 10 13 11 6 12
REMARK SMILES IDX 7 13 8 14 9 15 12 16 11 17 10 18 4 20 20 22 17 24
REMARK H PARENT 10 19 4 21 20 23 17 25
REMARK Flexibility Score: inf
ROOT
ATOM      1  C   UNL     1     129.804 124.017 147.192  1.00  0.00     0.180 A 
ATOM      2  C   UNL     1     129.920 122.759 147.809  1.00  0.00     0.208 A 
ATOM      3  C   UNL     1     129.568 121.609 147.084  1.00  0.00     0.238 A 
ATOM      4  O   UNL     1     129.726 120.483 147.623  1.00  0.00    -0.285 OA
ATOM      5  C   UNL     1     129.088 121.733 145.757  1.00  0.00     0.111 A 
ATOM      6  C   UNL     1     128.665 120.639 144.944  1.00  0.00     0.134 A 
ATOM      7  C   UNL     1     128.333 120.864 143.602  1.00  0.00     0.093 A 
ATOM      8  C   UNL     1     128.346 122.150 143.063  1.00  0.00     0.123 A 
ATOM      9  C   UNL     1     128.702 123.234 143.866  1.00  0.00     0.094 A 
ATOM     10  C   UNL     1     129.072 123.036 145.198  1.00  0.00     0.146 A 
ATOM     11  O   UNL     1     129.414 124.094 145.925  1.00  0.00    -0.452 OA
ENDROOT
BRANCH   1  12
ATOM     12  C   UNL     1     130.132 125.275 147.900  1.00  0.00     0.021 A 
ATOM     13  C   UNL     1     131.420 125.823 147.775  1.00  0.00     0.016 A 
ATOM     14  C   UNL     1     131.745 127.023 148.417  1.00  0.00     0.047 A 
ATOM     15  C   UNL     1     130.784 127.695 149.178  1.00  0.00     0.115 A 
ATOM     16  C   UNL     1     129.164 125.968 148.650  1.00  0.00     0.016 A 
ATOM     17  C   UNL     1     129.492 127.167 149.290  1.00  0.00     0.047 A 
BRANCH  15  18
ATOM     18  O   UNL     1     131.121 128.889 149.812  1.00  0.00    -0.508 OA
ATOM     19  H   UNL     1     132.081 129.211 149.859  1.00  0.00     0.293 HD
ENDBRANCH  15  18
ENDBRANCH   1  12
BRANCH   2  20
ATOM     20  O   UNL     1     130.416 122.659 149.111  1.00  0.00    -0.502 OA
ATOM     21  H   UNL     1     130.204 123.343 149.828  1.00  0.00     0.293 HD
ENDBRANCH   2  20
BRANCH   6  22
ATOM     22  O   UNL     1     128.528 119.328 145.409  1.00  0.00    -0.507 OA
ATOM     23  H   UNL     1     128.235 119.076 146.341  1.00  0.00     0.293 HD
ENDBRANCH   6  22
BRANCH   8  24
ATOM     24  O   UNL     1     127.995 122.338 141.728  1.00  0.00    -0.508 OA
ATOM     25  H   UNL     1     127.842 123.264 141.347  1.00  0.00     0.293 HD
ENDBRANCH   8  24
TORSDOF 5
ENDMDL
MODEL 3
REMARK VINA RESULT:     0.000      5.632      8.117
REMARK INTER + INTRA:          -0.300
REMARK INTER:                   0.000
REMARK INTRA:                  -0.300
REMARK UNBOUND:                -0.300
REMARK SMILES O=c1c(O)c(-c2ccc(O)cc2)oc2cc(O)cc(O)c12
REMARK SMILES IDX 5 1 3 2 2 3 1 4 21 5 19 6 18 7 16 8 15 9 14 10 13 11 6 12
REMARK SMILES IDX 7 13 8 14 9 15 12 16 11 17 10 18 4 20 20 22 17 24
REMARK H PARENT 10 19 4 21 20 23 17 25
REMARK Flexibility Score: inf
ROOT
ATOM      1  C   UNL     1     130.599 125.624 147.789  1.00  0.00     0.180 A 
ATOM      2  C   UNL     1     131.029 124.392 147.268  1.00  0.00     0.208 A 
ATOM      3  C   UNL     1     130.406 123.885 146.116  1.00  0.00     0.238 A 
ATOM      4  O   UNL     1     130.833 122.808 145.623  1.00  0.00    -0.285 OA
ATOM      5  C   UNL     1     129.349 124.607 145.510  1.00  0.00     0.111 A 
ATOM      6  C   UNL     1     128.620 124.167 144.365  1.00  0.00     0.134 A 
ATOM      7  C   UNL     1     127.683 125.024 143.773  1.00  0.00     0.093 A 
ATOM      8  C   UNL     1     127.402 126.274 144.322  1.00  0.00     0.123 A 
ATOM      9  C   UNL     1     128.067 126.689 145.476  1.00  0.00     0.094 A 
ATOM     10  C   UNL     1     129.033 125.872 146.069  1.00  0.00     0.146 A 
ATOM     11  O   UNL     1     129.650 126.309 147.160  1.00  0.00    -0.452 OA
ENDROOT
BRANCH   1  12
ATOM     12  C   UNL     1     131.189 126.212 149.013  1.00  0.00     0.021 A 
ATOM     13  C   UNL     1     132.246 127.130 148.899  1.00  0.00     0.016 A 
ATOM     14  C   UNL     1     132.805 127.714 150.041  1.00  0.00     0.047 A 
ATOM     15  C   UNL     1     132.304 127.399 151.307  1.00  0.00     0.115 A 
ATOM     16  C   UNL     1     130.677 125.914 150.290  1.00  0.00     0.016 A 
ATOM     17  C   UNL     1     131.237 126.501 151.429  1.00  0.00     0.047 A 
BRANCH  15  18
ATOM     18  O   UNL     1     132.870 127.987 152.436  1.00  0.00    -0.508 OA
ATOM     19  H   UNL     1     133.727 128.525 152.380  1.00  0.00     0.293 HD
ENDBRANCH  15  18
ENDBRANCH   1  12
BRANCH   2  20
ATOM     20  O   UNL     1     132.088 123.707 147.868  1.00  0.00    -0.502 OA
ATOM     21  H   UNL     1     132.697 124.139 148.554  1.00  0.00     0.293 HD
ENDBRANCH   2  20
BRANCH   6  22
ATOM     22  O   UNL     1     128.758 122.901 143.791  1.00  0.00    -0.507 OA
ATOM     23  H   UNL     1     128.951 122.054 144.305  1.00  0.00     0.293 HD
ENDBRANCH   6  22
BRANCH   8  24
ATOM     24  O   UNL     1     126.453 127.093 143.715  1.00  0.00    -0.508 OA
ATOM     25  H   UNL     1     126.111 127.933 144.168  1.00  0.00     0.293 HD
ENDBRANCH   8  24
TORSDOF 5
ENDMDL
MODEL 4
REMARK VINA RESULT:     0.000      6.797      9.141
REMARK INTER + INTRA:          -0.300
REMARK INTER:                   0.000
REMARK INTRA:                  -0.300
REMARK UNBOUND:                -0.300
REMARK SMILES O=c1c(O)c(-c2ccc(O)cc2)oc2cc(O)cc(O)c12
REMARK SMILES IDX 5 1 3 2 2 3 1 4 21 5 19 6 18 7 16 8 15 9 14 10 13 11 6 12
REMARK SMILES IDX 7 13 8 14 9 15 12 16 11 17 10 18 4 20 20 22 17 24
REMARK H PARENT 10 19 4 21 20 23 17 25
REMARK Flexibility Score: inf
ROOT
ATOM      1  C   UNL     1     131.793 125.011 148.962  1.00  0.00     0.180 A 
ATOM      2  C   UNL     1     132.538 123.844 148.721  1.00  0.00     0.208 A 
ATOM      3  C   UNL     1     132.272 123.093 147.565  1.00  0.00     0.238 A 
ATOM      4  O   UNL     1     132.979 122.079 147.326  1.00  0.00    -0.285 OA
ATOM      5  C   UNL     1     131.254 123.509 146.673  1.00  0.00     0.111 A 
ATOM      6  C   UNL     1     130.873 122.803 145.492  1.00  0.00     0.134 A 
ATOM      7  C   UNL     1     129.943 123.376 144.615  1.00  0.00     0.093 A 
ATOM      8  C   UNL     1     129.333 124.595 144.908  1.00  0.00     0.123 A 
ATOM      9  C   UNL     1     129.655 125.265 146.089  1.00  0.00     0.094 A 
ATOM     10  C   UNL     1     130.605 124.737 146.965  1.00  0.00     0.146 A 
ATOM     11  O   UNL     1     130.890 125.411 148.073  1.00  0.00    -0.452 OA
ENDROOT
BRANCH   1  12
ATOM     12  C   UNL     1     131.998 125.841 150.171  1.00  0.00     0.021 A 
ATOM     13  C   UNL     1     132.873 126.939 150.116  1.00  0.00     0.016 A 
ATOM     14  C   UNL     1     133.065 127.749 151.240  1.00  0.00     0.047 A 
ATOM     15  C   UNL     1     132.374 127.482 152.425  1.00  0.00     0.115 A 
ATOM     16  C   UNL     1     131.291 125.590 151.362  1.00  0.00     0.016 A 
ATOM     17  C   UNL     1     131.484 126.402 152.482  1.00  0.00     0.047 A 
BRANCH  15  18
ATOM     18  O   UNL     1     132.575 128.297 153.537  1.00  0.00    -0.508 OA
ATOM     19  H   UNL     1     133.313 128.991 153.559  1.00  0.00     0.293 HD
ENDBRANCH  15  18
ENDBRANCH   1  12
BRANCH   2  20
ATOM     20  O   UNL     1     133.553 123.463 149.603  1.00  0.00    -0.502 OA
ATOM     21  H   UNL     1     133.883 124.068 150.345  1.00  0.00     0.293 HD
ENDBRANCH   2  20
BRANCH   6  22
ATOM     22  O   UNL     1     131.354 121.536 145.151  1.00  0.00    -0.507 OA
ATOM     23  H   UNL     1     132.277 121.349 144.791  1.00  0.00     0.293 HD
ENDBRANCH   6  22
BRANCH   8  24
ATOM     24  O   UNL     1     128.401 125.128 144.020  1.00  0.00    -0.508 OA
ATOM     25  H   UNL     1     128.115 126.098 144.072  1.00  0.00     0.293 HD
ENDBRANCH   8  24
TORSDOF 5
ENDMDL
MODEL 5
REMARK VINA RESULT:     0.000      5.005      7.422
REMARK INTER + INTRA:          -0.300
REMARK INTER:                   0.000
REMARK INTRA:                  -0.300
REMARK UNBOUND:                -0.300
REMARK SMILES O=c1c(O)c(-c2ccc(O)cc2)oc2cc(O)cc(O)c12
REMARK SMILES IDX 5 1 3 2 2 3 1 4 21 5 19 6 18 7 16 8 15 9 14 10 13 11 6 12
REMARK SMILES IDX 7 13 8 14 9 15 12 16 11 17 10 18 4 20 20 22 17 24
REMARK H PARENT 10 19 4 21 20 23 17 25
REMARK Flexibility Score: inf
ROOT
ATOM      1  C   UNL     1     124.987 128.809 144.697  1.00  0.00     0.180 A 
ATOM      2  C   UNL     1     126.328 129.124 144.974  1.00  0.00     0.208 A 
ATOM      3  C   UNL     1     126.739 129.239 146.312  1.00  0.00     0.238 A 
ATOM      4  O   UNL     1     127.952 129.466 146.554  1.00  0.00    -0.285 OA
ATOM      5  C   UNL     1     125.799 129.054 147.355  1.00  0.00     0.111 A 
ATOM      6  C   UNL     1     126.095 129.186 148.745  1.00  0.00     0.134 A 
ATOM      7  C   UNL     1     125.120 128.852 149.694  1.00  0.00     0.093 A 
ATOM      8  C   UNL     1     123.842 128.455 149.304  1.00  0.00     0.123 A 
ATOM      9  C   UNL     1     123.524 128.380 147.947  1.00  0.00     0.094 A 
ATOM     10  C   UNL     1     124.486 128.672 146.978  1.00  0.00     0.146 A 
ATOM     11  O   UNL     1     124.145 128.578 145.697  1.00  0.00    -0.452 OA
ENDROOT
BRANCH   1  12
ATOM     12  C   UNL     1     124.474 128.696 143.312  1.00  0.00     0.021 A 
ATOM     13  C   UNL     1     124.438 127.438 142.689  1.00  0.00     0.016 A 
ATOM     14  C   UNL     1     123.937 127.304 141.389  1.00  0.00     0.047 A 
ATOM     15  C   UNL     1     123.453 128.422 140.705  1.00  0.00     0.115 A 
ATOM     16  C   UNL     1     123.966 129.814 142.625  1.00  0.00     0.016 A 
ATOM     17  C   UNL     1     123.465 129.677 141.327  1.00  0.00     0.047 A 
BRANCH  15  18
ATOM     18  O   UNL     1     122.957 128.275 139.411  1.00  0.00    -0.508 OA
ATOM     19  H   UNL     1     122.966 129.043 138.749  1.00  0.00     0.293 HD
ENDBRANCH  15  18
ENDBRANCH   1  12
BRANCH   2  20
ATOM     20  O   UNL     1     127.243 129.280 143.930  1.00  0.00    -0.502 OA
ATOM     21  H   UNL     1     128.237 129.125 144.050  1.00  0.00     0.293 HD
ENDBRANCH   2  20
BRANCH   6  22
ATOM     22  O   UNL     1     127.312 129.662 149.242  1.00  0.00    -0.507 OA
ATOM     23  H   UNL     1     128.217 129.280 149.011  1.00  0.00     0.293 HD
ENDBRANCH   6  22
BRANCH   8  24
ATOM     24  O   UNL     1     122.893 128.146 150.275  1.00  0.00    -0.508 OA
ATOM     25  H   UNL     1     123.163 127.875 151.213  1.00  0.00     0.293 HD
ENDBRANCH   8  24
TORSDOF 5
ENDMDL
MODEL 6
REMARK VINA RESULT:     0.000      5.396      6.902
REMARK INTER + INTRA:          -0.300
REMARK INTER:                   0.000
REMARK INTRA:                  -0.300
REMARK UNBOUND:                -0.300
REMARK SMILES O=c1c(O)c(-c2ccc(O)cc2)oc2cc(O)cc(O)c12
REMARK SMILES IDX 5 1 3 2 2 3 1 4 21 5 19 6 18 7 16 8 15 9 14 10 13 11 6 12
REMARK SMILES IDX 7 13 8 14 9 15 12 16 11 17 10 18 4 20 20 22 17 24
REMARK H PARENT 10 19 4 21 20 23 17 25
REMARK Flexibility Score: inf
ROOT
ATOM      1  C   UNL     1     122.390 121.536 140.721  1.00  0.00     0.180 A 
ATOM      2  C   UNL     1     123.550 120.789 140.452  1.00  0.00     0.208 A 
ATOM      3  C   UNL     1     124.793 121.284 140.877  1.00  0.00     0.238 A 
ATOM      4  O   UNL     1     125.821 120.585 140.681  1.00  0.00    -0.285 OA
ATOM      5  C   UNL     1     124.863 122.528 141.550  1.00  0.00     0.111 A 
ATOM      6  C   UNL     1     126.073 123.145 141.989  1.00  0.00     0.134 A 
ATOM      7  C   UNL     1     126.013 124.313 142.760  1.00  0.00     0.093 A 
ATOM      8  C   UNL     1     124.793 124.921 143.052  1.00  0.00     0.123 A 
ATOM      9  C   UNL     1     123.607 124.358 142.578  1.00  0.00     0.094 A 
ATOM     10  C   UNL     1     123.633 123.175 141.836  1.00  0.00     0.146 A 
ATOM     11  O   UNL     1     122.482 122.667 141.412  1.00  0.00    -0.452 OA
ENDROOT
BRANCH   1  12
ATOM     12  C   UNL     1     121.047 121.092 140.283  1.00  0.00     0.021 A 
ATOM     13  C   UNL     1     120.243 120.350 141.165  1.00  0.00     0.016 A 
ATOM     14  C   UNL     1     118.962 119.939 140.780  1.00  0.00     0.047 A 
ATOM     15  C   UNL     1     118.466 120.276 139.518  1.00  0.00     0.115 A 
ATOM     16  C   UNL     1     120.533 121.444 139.022  1.00  0.00     0.016 A 
ATOM     17  C   UNL     1     119.253 121.033 138.641  1.00  0.00     0.047 A 
BRANCH  15  18
ATOM     18  O   UNL     1     117.189 119.860 139.148  1.00  0.00    -0.508 OA
ATOM     19  H   UNL     1     116.484 120.520 138.842  1.00  0.00     0.293 HD
ENDBRANCH  15  18
ENDBRANCH   1  12
BRANCH   2  20
ATOM     20  O   UNL     1     123.456 119.554 139.806  1.00  0.00    -0.502 OA
ATOM     21  H   UNL     1     124.132 119.248 139.116  1.00  0.00     0.293 HD
ENDBRANCH   2  20
BRANCH   6  22
ATOM     22  O   UNL     1     127.350 122.670 141.675  1.00  0.00    -0.507 OA
ATOM     23  H   UNL     1     127.626 121.700 141.705  1.00  0.00     0.293 HD
ENDBRANCH   6  22
BRANCH   8  24
ATOM     24  O   UNL     1     124.771 126.090 143.809  1.00  0.00    -0.508 OA
ATOM     25  H   UNL     1     123.960 126.351 144.357  1.00  0.00     0.293 HD
ENDBRANCH   8  24
TORSDOF 5
ENDMDL
MODEL 7
REMARK VINA RESULT:     0.000      7.346      8.845
REMARK INTER + INTRA:          -0.300
REMARK INTER:                   0.000
REMARK INTRA:                  -0.300
REMARK UNBOUND:                -0.300
REMARK SMILES O=c1c(O)c(-c2ccc(O)cc2)oc2cc(O)cc(O)c12
REMARK SMILES IDX 5 1 3 2 2 3 1 4 21 5 19 6 18 7 16 8 15 9 14 10 13 11 6 12
REMARK SMILES IDX 7 13 8 14 9 15 12 16 11 17 10 18 4 20 20 22 17 24
REMARK H PARENT 10 19 4 21 20 23 17 25
REMARK Flexibility Score: inf
ROOT
ATOM      1  C   UNL     1     126.096 127.947 148.990  1.00  0.00     0.180 A 
ATOM      2  C   UNL     1     127.110 128.239 148.062  1.00  0.00     0.208 A 
ATOM      3  C   UNL     1     128.053 129.232 148.372  1.00  0.00     0.238 A 
ATOM      4  O   UNL     1     128.990 129.450 147.561  1.00  0.00    -0.285 OA
ATOM      5  C   UNL     1     127.960 129.933 149.599  1.00  0.00     0.111 A 
ATOM      6  C   UNL     1     128.836 130.986 149.999  1.00  0.00     0.134 A 
ATOM      7  C   UNL     1     128.731 131.519 151.290  1.00  0.00     0.093 A 
ATOM      8  C   UNL     1     127.741 131.084 152.171  1.00  0.00     0.123 A 
ATOM      9  C   UNL     1     126.842 130.096 151.768  1.00  0.00     0.094 A 
ATOM     10  C   UNL     1     126.944 129.520 150.500  1.00  0.00     0.146 A 
ATOM     11  O   UNL     1     126.074 128.576 150.160  1.00  0.00    -0.452 OA
ENDROOT
BRANCH   1  12
ATOM     12  C   UNL     1     125.052 126.932 148.724  1.00  0.00     0.021 A 
ATOM     13  C   UNL     1     125.237 125.615 149.177  1.00  0.00     0.016 A 
ATOM     14  C   UNL     1     124.254 124.644 148.955  1.00  0.00     0.047 A 
ATOM     15  C   UNL     1     123.070 124.982 148.293  1.00  0.00     0.115 A 
ATOM     16  C   UNL     1     123.849 127.269 148.076  1.00  0.00     0.016 A 
ATOM     17  C   UNL     1     122.868 126.297 147.857  1.00  0.00     0.047 A 
BRANCH  15  18
ATOM     18  O   UNL     1     122.099 124.005 148.079  1.00  0.00    -0.508 OA
ATOM     19  H   UNL     1     121.994 123.217 148.707  1.00  0.00     0.293 HD
ENDBRANCH  15  18
ENDBRANCH   1  12
BRANCH   2  20
ATOM     20  O   UNL     1     127.196 127.520 146.867  1.00  0.00    -0.502 OA
ATOM     21  H   UNL     1     127.980 127.612 146.231  1.00  0.00     0.293 HD
ENDBRANCH   2  20
BRANCH   6  22
ATOM     22  O   UNL     1     129.801 131.557 149.165  1.00  0.00    -0.507 OA
ATOM     23  H   UNL     1     129.611 131.968 148.263  1.00  0.00     0.293 HD
ENDBRANCH   6  22
BRANCH   8  24
ATOM     24  O   UNL     1     127.657 131.647 153.442  1.00  0.00    -0.508 OA
ATOM     25  H   UNL     1     128.125 131.231 154.238  1.00  0.00     0.293 HD
ENDBRANCH   8  24
TORSDOF 5
ENDMDL
MODEL 8
REMARK VINA RESULT:     0.000      6.889      8.217
REMARK INTER + INTRA:          -0.300
REMARK INTER:                   0.000
REMARK INTRA:                  -0.300
REMARK UNBOUND:                -0.300
REMARK SMILES O=c1c(O)c(-c2ccc(O)cc2)oc2cc(O)cc(O)c12
REMARK SMILES IDX 5 1 3 2 2 3 1 4 21 5 19 6 18 7 16 8 15 9 14 10 13 11 6 12
REMARK SMILES IDX 7 13 8 14 9 15 12 16 11 17 10 18 4 20 20 22 17 24
REMARK H PARENT 10 19 4 21 20 23 17 25
REMARK Flexibility Score: inf
ROOT
ATOM      1  C   UNL     1     126.096 127.947 148.990  1.00  0.00     0.180 A 
ATOM      2  C   UNL     1     126.967 128.001 147.888  1.00  0.00     0.208 A 
ATOM      3  C   UNL     1     128.332 128.244 148.109  1.00  0.00     0.238 A 
ATOM      4  O   UNL     1     129.114 128.236 147.124  1.00  0.00    -0.285 OA
ATOM      5  C   UNL     1     128.806 128.447 149.428  1.00  0.00     0.111 A 
ATOM      6  C   UNL     1     130.162 128.740 149.764  1.00  0.00     0.134 A 
ATOM      7  C   UNL     1     130.543 128.793 151.112  1.00  0.00     0.093 A 
ATOM      8  C   UNL     1     129.607 128.628 152.132  1.00  0.00     0.123 A 
ATOM      9  C   UNL     1     128.268 128.399 151.813  1.00  0.00     0.094 A 
ATOM     10  C   UNL     1     127.864 128.306 150.479  1.00  0.00     0.146 A 
ATOM     11  O   UNL     1     126.582 128.077 150.219  1.00  0.00    -0.452 OA
ENDROOT
BRANCH   1  12
ATOM     12  C   UNL     1     124.641 127.721 148.835  1.00  0.00     0.021 A 
ATOM     13  C   UNL     1     124.131 126.415 148.928  1.00  0.00     0.016 A 
ATOM     14  C   UNL     1     122.757 126.181 148.807  1.00  0.00     0.047 A 
ATOM     15  C   UNL     1     121.877 127.248 148.606  1.00  0.00     0.115 A 
ATOM     16  C   UNL     1     123.747 128.792 148.652  1.00  0.00     0.016 A 
ATOM     17  C   UNL     1     122.375 128.554 148.533  1.00  0.00     0.047 A 
BRANCH  15  18
ATOM     18  O   UNL     1     120.511 127.000 148.486  1.00  0.00    -0.508 OA
ATOM     19  H   UNL     1     120.076 126.204 148.938  1.00  0.00     0.293 HD
ENDBRANCH  15  18
ENDBRANCH   1  12
BRANCH   2  20
ATOM     20  O   UNL     1     126.481 127.775 146.597  1.00  0.00    -0.502 OA
ATOM     21  H   UNL     1     127.092 127.682 145.795  1.00  0.00     0.293 HD
ENDBRANCH   2  20
BRANCH   6  22
ATOM     22  O   UNL     1     131.158 129.013 148.823  1.00  0.00    -0.507 OA
ATOM     23  H   UNL     1     131.561 129.923 148.659  1.00  0.00     0.293 HD
ENDBRANCH   6  22
BRANCH   8  24
ATOM     24  O   UNL     1     130.019 128.701 153.460  1.00  0.00    -0.508 OA
ATOM     25  H   UNL     1     129.402 128.442 154.221  1.00  0.00     0.293 HD
ENDBRANCH   8  24
TORSDOF 5
ENDMDL
MODEL 9
REMARK VINA RESULT:     0.000      6.164      8.143
REMARK INTER + INTRA:          -0.300
REMARK INTER:                   0.000
REMARK INTRA:                  -0.300
REMARK UNBOUND:                -0.300
REMARK SMILES O=c1c(O)c(-c2ccc(O)cc2)oc2cc(O)cc(O)c12
REMARK SMILES IDX 5 1 3 2 2 3 1 4 21 5 19 6 18 7 16 8 15 9 14 10 13 11 6 12
REMARK SMILES IDX 7 13 8 14 9 15 12 16 11 17 10 18 4 20 20 22 17 24
REMARK H PARENT 10 19 4 21 20 23 17 25
REMARK Flexibility Score: inf
ROOT
ATOM      1  C   UNL     1     124.466 122.764 146.158  1.00  0.00     0.180 A 
ATOM      2  C   UNL     1     123.607 123.813 145.787  1.00  0.00     0.208 A 
ATOM      3  C   UNL     1     123.167 123.895 144.456  1.00  0.00     0.238 A 
ATOM      4  O   UNL     1     122.355 124.804 144.142  1.00  0.00    -0.285 OA
ATOM      5  C   UNL     1     123.605 122.938 143.509  1.00  0.00     0.111 A 
ATOM      6  C   UNL     1     123.255 122.948 142.125  1.00  0.00     0.134 A 
ATOM      7  C   UNL     1     123.640 121.877 141.308  1.00  0.00     0.093 A 
ATOM      8  C   UNL     1     124.416 120.832 141.807  1.00  0.00     0.123 A 
ATOM      9  C   UNL     1     124.813 120.842 143.145  1.00  0.00     0.094 A 
ATOM     10  C   UNL     1     124.415 121.878 143.993  1.00  0.00     0.146 A 
ATOM     11  O   UNL     1     124.806 121.844 145.262  1.00  0.00    -0.452 OA
ENDROOT
BRANCH   1  12
ATOM     12  C   UNL     1     124.991 122.626 147.535  1.00  0.00     0.021 A 
ATOM     13  C   UNL     1     124.314 121.808 148.455  1.00  0.00     0.016 A 
ATOM     14  C   UNL     1     124.804 121.645 149.755  1.00  0.00     0.047 A 
ATOM     15  C   UNL     1     125.984 122.285 150.146  1.00  0.00     0.115 A 
ATOM     16  C   UNL     1     126.189 123.250 147.929  1.00  0.00     0.016 A 
ATOM     17  C   UNL     1     126.677 123.085 149.229  1.00  0.00     0.047 A 
BRANCH  15  18
ATOM     18  O   UNL     1     126.461 122.114 151.443  1.00  0.00    -0.508 OA
ATOM     19  H   UNL     1     125.886 122.321 152.251  1.00  0.00     0.293 HD
ENDBRANCH  15  18
ENDBRANCH   1  12
BRANCH   2  20
ATOM     20  O   UNL     1     123.170 124.734 146.742  1.00  0.00    -0.502 OA
ATOM     21  H   UNL     1     122.637 125.561 146.497  1.00  0.00     0.293 HD
ENDBRANCH   2  20
BRANCH   6  22
ATOM     22  O   UNL     1     122.560 123.989 141.504  1.00  0.00    -0.507 OA
ATOM     23  H   UNL     1     121.702 124.393 141.847  1.00  0.00     0.293 HD
ENDBRANCH   6  22
BRANCH   8  24
ATOM     24  O   UNL     1     124.793 119.791 140.962  1.00  0.00    -0.508 OA
ATOM     25  H   UNL     1     125.088 119.964 140.008  1.00  0.00     0.293 HD
ENDBRANCH   8  24
TORSDOF 5
ENDMDL
