MODEL 1
REMARK VINA RESULT:    -5.527      0.000      0.000
REMARK INTER + INTRA:          -6.604
REMARK INTER:                  -6.335
REMARK INTRA:                  -0.269
REMARK UNBOUND:                -0.269
REMARK SMILES O=C([O-])C=Cc1ccc(O)cc1
REMARK SMILES IDX 6 1 7 2 12 3 8 4 11 5 9 6 5 7 4 8 2 9 1 10 3 11 10 12
REMARK H PARENT 10 13
REMARK Flexibility Score: inf
ROOT
ATOM      1  C   UNL     1      22.419   4.357 103.031  1.00  0.00    -0.025 A 
ATOM      2  C   UNL     1      21.605   4.986 102.077  1.00  0.00     0.012 A 
ATOM      3  C   UNL     1      23.817   4.451 102.910  1.00  0.00     0.012 A 
ATOM      4  C   UNL     1      22.176   5.743 101.050  1.00  0.00     0.047 A 
ATOM      5  C   UNL     1      24.386   5.208 101.882  1.00  0.00     0.047 A 
ATOM      6  C   UNL     1      23.568   5.859 100.951  1.00  0.00     0.115 A 
ENDROOT
BRANCH   1   7
ATOM      7  C   UNL     1      21.795   3.519 104.076  1.00  0.00     0.010 C 
ATOM      8  C   UNL     1      21.557   2.203 103.976  1.00  0.00     0.025 C 
BRANCH   8   9
ATOM      9  C   UNL     1      22.040   1.326 102.893  1.00  0.00     0.064 C 
ATOM     10  O   UNL     1      21.312   1.134 101.884  1.00  0.00    -0.545 OA
ATOM     11  O   UNL     1      23.249   0.647 102.993  1.00  0.00    -0.545 OA
ENDBRANCH   8   9
ENDBRANCH   1   7
BRANCH   6  12
ATOM     12  O   UNL     1      24.150   6.611  99.932  1.00  0.00    -0.508 OA
ATOM     13  H   UNL     1      23.981   7.607  99.848  1.00  0.00     0.293 HD
ENDBRANCH   6  12
TORSDOF 3
ENDMDL
MODEL 2
REMARK VINA RESULT:    -5.378      2.445      4.832
REMARK INTER + INTRA:          -6.433
REMARK INTER:                  -6.147
REMARK INTRA:                  -0.285
REMARK UNBOUND:                -0.269
REMARK SMILES O=C([O-])C=Cc1ccc(O)cc1
REMARK SMILES IDX 6 1 7 2 12 3 8 4 11 5 9 6 5 7 4 8 2 9 1 10 3 11 10 12
REMARK H PARENT 10 13
REMARK Flexibility Score: inf
ROOT
ATOM      1  C   UNL     1      22.127   3.953 103.315  1.00  0.00    -0.025 A 
ATOM      2  C   UNL     1      21.941   2.564 103.335  1.00  0.00     0.012 A 
ATOM      3  C   UNL     1      21.515   4.743 104.305  1.00  0.00     0.012 A 
ATOM      4  C   UNL     1      21.199   1.965 104.357  1.00  0.00     0.047 A 
ATOM      5  C   UNL     1      20.774   4.143 105.326  1.00  0.00     0.047 A 
ATOM      6  C   UNL     1      20.616   2.753 105.358  1.00  0.00     0.115 A 
ENDROOT
BRANCH   1   7
ATOM      7  C   UNL     1      22.870   4.569 102.196  1.00  0.00     0.010 C 
ATOM      8  C   UNL     1      24.176   4.873 102.205  1.00  0.00     0.025 C 
BRANCH   8   9
ATOM      9  C   UNL     1      25.139   4.480 103.251  1.00  0.00     0.064 C 
ATOM     10  O   UNL     1      25.315   5.237 104.242  1.00  0.00    -0.545 OA
ATOM     11  O   UNL     1      25.911   3.331 103.132  1.00  0.00    -0.545 OA
ENDBRANCH   8   9
ENDBRANCH   1   7
BRANCH   6  12
ATOM     12  O   UNL     1      19.875   2.168 106.383  1.00  0.00    -0.508 OA
ATOM     13  H   UNL     1      20.241   2.098 107.326  1.00  0.00     0.293 HD
ENDBRANCH   6  12
TORSDOF 3
ENDMDL
MODEL 3
REMARK VINA RESULT:    -5.365      2.206      2.530
REMARK INTER + INTRA:          -6.418
REMARK INTER:                  -6.317
REMARK INTRA:                  -0.100
REMARK UNBOUND:                -0.269
REMARK SMILES O=C([O-])C=Cc1ccc(O)cc1
REMARK SMILES IDX 6 1 7 2 12 3 8 4 11 5 9 6 5 7 4 8 2 9 1 10 3 11 10 12
REMARK H PARENT 10 13
REMARK Flexibility Score: inf
ROOT
ATOM      1  C   UNL     1      22.467   4.080 102.303  1.00  0.00    -0.025 A 
ATOM      2  C   UNL     1      21.516   4.662 101.453  1.00  0.00     0.012 A 
ATOM      3  C   UNL     1      23.780   4.584 102.312  1.00  0.00     0.012 A 
ATOM      4  C   UNL     1      21.854   5.765 100.664  1.00  0.00     0.047 A 
ATOM      5  C   UNL     1      24.117   5.687 101.522  1.00  0.00     0.047 A 
ATOM      6  C   UNL     1      23.156   6.283 100.698  1.00  0.00     0.115 A 
ENDROOT
BRANCH   1   7
ATOM      7  C   UNL     1      22.101   2.883 103.087  1.00  0.00     0.010 C 
ATOM      8  C   UNL     1      21.658   2.890 104.353  1.00  0.00     0.025 C 
BRANCH   8   9
ATOM      9  C   UNL     1      21.278   4.091 105.120  1.00  0.00     0.064 C 
ATOM     10  O   UNL     1      22.141   4.981 105.339  1.00  0.00    -0.545 OA
ATOM     11  O   UNL     1      20.009   4.230 105.670  1.00  0.00    -0.545 OA
ENDBRANCH   8   9
ENDBRANCH   1   7
BRANCH   6  12
ATOM     12  O   UNL     1      23.506   7.383  99.918  1.00  0.00    -0.508 OA
ATOM     13  H   UNL     1      23.829   8.247 100.337  1.00  0.00     0.293 HD
ENDBRANCH   6  12
TORSDOF 3
ENDMDL
MODEL 4
REMARK VINA RESULT:    -5.309      2.292      4.872
REMARK INTER + INTRA:          -6.354
REMARK INTER:                  -6.232
REMARK INTRA:                  -0.122
REMARK UNBOUND:                -0.269
REMARK SMILES O=C([O-])C=Cc1ccc(O)cc1
REMARK SMILES IDX 6 1 7 2 12 3 8 4 11 5 9 6 5 7 4 8 2 9 1 10 3 11 10 12
REMARK H PARENT 10 13
REMARK Flexibility Score: inf
ROOT
ATOM      1  C   UNL     1      21.512   4.759 102.074  1.00  0.00    -0.025 A 
ATOM      2  C   UNL     1      22.052   3.515 102.432  1.00  0.00     0.012 A 
ATOM      3  C   UNL     1      20.939   5.571 103.068  1.00  0.00     0.012 A 
ATOM      4  C   UNL     1      22.068   3.111 103.771  1.00  0.00     0.047 A 
ATOM      5  C   UNL     1      20.955   5.166 104.405  1.00  0.00     0.047 A 
ATOM      6  C   UNL     1      21.522   3.937 104.762  1.00  0.00     0.115 A 
ENDROOT
BRANCH   1   7
ATOM      7  C   UNL     1      21.458   5.141 100.648  1.00  0.00     0.010 C 
ATOM      8  C   UNL     1      22.300   5.989 100.038  1.00  0.00     0.025 C 
BRANCH   8   9
ATOM      9  C   UNL     1      23.533   6.542 100.629  1.00  0.00     0.064 C 
ATOM     10  O   UNL     1      23.782   7.770 100.500  1.00  0.00    -0.545 OA
ATOM     11  O   UNL     1      24.465   5.727 101.261  1.00  0.00    -0.545 OA
ENDBRANCH   8   9
ENDBRANCH   1   7
BRANCH   6  12
ATOM     12  O   UNL     1      21.533   3.547 106.099  1.00  0.00    -0.508 OA
ATOM     13  H   UNL     1      22.248   3.873 106.739  1.00  0.00     0.293 HD
ENDBRANCH   6  12
TORSDOF 3
ENDMDL
MODEL 5
REMARK VINA RESULT:    -5.289      2.039      4.794
REMARK INTER + INTRA:          -6.331
REMARK INTER:                  -6.280
REMARK INTRA:                  -0.050
REMARK UNBOUND:                -0.269
REMARK SMILES O=C([O-])C=Cc1ccc(O)cc1
REMARK SMILES IDX 6 1 7 2 12 3 8 4 11 5 9 6 5 7 4 8 2 9 1 10 3 11 10 12
REMARK H PARENT 10 13
REMARK Flexibility Score: inf
ROOT
ATOM      1  C   UNL     1      22.660   3.983 103.573  1.00  0.00    -0.025 A 
ATOM      2  C   UNL     1      22.124   4.754 104.614  1.00  0.00     0.012 A 
ATOM      3  C   UNL     1      22.243   2.649 103.421  1.00  0.00     0.012 A 
ATOM      4  C   UNL     1      21.147   4.220 105.459  1.00  0.00     0.047 A 
ATOM      5  C   UNL     1      21.266   2.115 104.267  1.00  0.00     0.047 A 
ATOM      6  C   UNL     1      20.713   2.899 105.285  1.00  0.00     0.115 A 
ENDROOT
BRANCH   1   7
ATOM      7  C   UNL     1      23.729   4.552 102.727  1.00  0.00     0.010 C 
ATOM      8  C   UNL     1      23.547   5.137 101.533  1.00  0.00     0.025 C 
BRANCH   8   9
ATOM      9  C   UNL     1      22.241   5.486 100.943  1.00  0.00     0.064 C 
ATOM     10  O   UNL     1      22.024   6.674 100.586  1.00  0.00    -0.545 OA
ATOM     11  O   UNL     1      21.219   4.552 100.838  1.00  0.00    -0.545 OA
ENDBRANCH   8   9
ENDBRANCH   1   7
BRANCH   6  12
ATOM     12  O   UNL     1      19.739   2.354 106.119  1.00  0.00    -0.508 OA
ATOM     13  H   UNL     1      18.831   2.792 106.229  1.00  0.00     0.293 HD
ENDBRANCH   6  12
TORSDOF 3
ENDMDL
MODEL 6
REMARK VINA RESULT:    -5.149      2.079      2.736
REMARK INTER + INTRA:          -6.170
REMARK INTER:                  -6.173
REMARK INTRA:                   0.003
REMARK UNBOUND:                -0.269
REMARK SMILES O=C([O-])C=Cc1ccc(O)cc1
REMARK SMILES IDX 6 1 7 2 12 3 8 4 11 5 9 6 5 7 4 8 2 9 1 10 3 11 10 12
REMARK H PARENT 10 13
REMARK Flexibility Score: inf
ROOT
ATOM      1  C   UNL     1      21.722   4.834 104.113  1.00  0.00    -0.025 A 
ATOM      2  C   UNL     1      22.977   4.396 103.669  1.00  0.00     0.012 A 
ATOM      3  C   UNL     1      20.849   5.456 103.203  1.00  0.00     0.012 A 
ATOM      4  C   UNL     1      23.336   4.526 102.324  1.00  0.00     0.047 A 
ATOM      5  C   UNL     1      21.209   5.586 101.858  1.00  0.00     0.047 A 
ATOM      6  C   UNL     1      22.451   5.119 101.414  1.00  0.00     0.115 A 
ENDROOT
BRANCH   1   7
ATOM      7  C   UNL     1      21.386   4.734 105.549  1.00  0.00     0.010 C 
ATOM      8  C   UNL     1      20.630   3.775 106.104  1.00  0.00     0.025 C 
BRANCH   8   9
ATOM      9  C   UNL     1      20.160   2.554 105.423  1.00  0.00     0.064 C 
ATOM     10  O   UNL     1      19.020   2.095 105.698  1.00  0.00    -0.545 OA
ATOM     11  O   UNL     1      20.975   1.856 104.540  1.00  0.00    -0.545 OA
ENDBRANCH   8   9
ENDBRANCH   1   7
BRANCH   6  12
ATOM     12  O   UNL     1      22.796   5.254 100.071  1.00  0.00    -0.508 OA
ATOM     13  H   UNL     1      22.104   5.165  99.336  1.00  0.00     0.293 HD
ENDBRANCH   6  12
TORSDOF 3
ENDMDL
MODEL 7
REMARK VINA RESULT:    -4.686      2.824      3.702
REMARK INTER + INTRA:          -5.640
REMARK INTER:                  -5.370
REMARK INTRA:                  -0.270
REMARK UNBOUND:                -0.269
REMARK SMILES O=C([O-])C=Cc1ccc(O)cc1
REMARK SMILES IDX 6 1 7 2 12 3 8 4 11 5 9 6 5 7 4 8 2 9 1 10 3 11 10 12
REMARK H PARENT 10 13
REMARK Flexibility Score: inf
ROOT
ATOM      1  C   UNL     1      21.801   2.048 103.188  1.00  0.00    -0.025 A 
ATOM      2  C   UNL     1      21.062   2.004 104.378  1.00  0.00     0.012 A 
ATOM      3  C   UNL     1      22.417   3.253 102.806  1.00  0.00     0.012 A 
ATOM      4  C   UNL     1      20.981   3.130 105.203  1.00  0.00     0.047 A 
ATOM      5  C   UNL     1      22.335   4.379 103.632  1.00  0.00     0.047 A 
ATOM      6  C   UNL     1      21.621   4.320 104.833  1.00  0.00     0.115 A 
ENDROOT
BRANCH   1   7
ATOM      7  C   UNL     1      21.828   0.863 102.306  1.00  0.00     0.010 C 
ATOM      8  C   UNL     1      22.854   0.007 102.186  1.00  0.00     0.025 C 
BRANCH   8   9
ATOM      9  C   UNL     1      24.055  -0.014 103.043  1.00  0.00     0.064 C 
ATOM     10  O   UNL     1      24.107  -0.817 104.011  1.00  0.00    -0.545 OA
ATOM     11  O   UNL     1      25.099   0.882 102.851  1.00  0.00    -0.545 OA
ENDBRANCH   8   9
ENDBRANCH   1   7
BRANCH   6  12
ATOM     12  O   UNL     1      21.550   5.449 105.646  1.00  0.00    -0.508 OA
ATOM     13  H   UNL     1      22.384   5.950 105.930  1.00  0.00     0.293 HD
ENDBRANCH   6  12
TORSDOF 3
ENDMDL
MODEL 8
REMARK VINA RESULT:    -4.655      2.259      3.368
REMARK INTER + INTRA:          -5.604
REMARK INTER:                  -5.341
REMARK INTRA:                  -0.263
REMARK UNBOUND:                -0.269
REMARK SMILES O=C([O-])C=Cc1ccc(O)cc1
REMARK SMILES IDX 6 1 7 2 12 3 8 4 11 5 9 6 5 7 4 8 2 9 1 10 3 11 10 12
REMARK H PARENT 10 13
REMARK Flexibility Score: inf
ROOT
ATOM      1  C   UNL     1      24.061   4.821 102.609  1.00  0.00    -0.025 A 
ATOM      2  C   UNL     1      24.074   5.643 101.473  1.00  0.00     0.012 A 
ATOM      3  C   UNL     1      22.899   4.092 102.916  1.00  0.00     0.012 A 
ATOM      4  C   UNL     1      22.963   5.695 100.626  1.00  0.00     0.047 A 
ATOM      5  C   UNL     1      21.788   4.146 102.068  1.00  0.00     0.047 A 
ATOM      6  C   UNL     1      21.818   4.944 100.919  1.00  0.00     0.115 A 
ENDROOT
BRANCH   1   7
ATOM      7  C   UNL     1      25.226   4.822 103.517  1.00  0.00     0.010 C 
ATOM      8  C   UNL     1      26.134   3.839 103.618  1.00  0.00     0.025 C 
BRANCH   8   9
ATOM      9  C   UNL     1      26.239   2.677 102.716  1.00  0.00     0.064 C 
ATOM     10  O   UNL     1      27.046   2.718 101.750  1.00  0.00    -0.545 OA
ATOM     11  O   UNL     1      25.417   1.566 102.862  1.00  0.00    -0.545 OA
ENDBRANCH   8   9
ENDBRANCH   1   7
BRANCH   6  12
ATOM     12  O   UNL     1      20.704   4.987 100.083  1.00  0.00    -0.508 OA
ATOM     13  H   UNL     1      20.136   5.822 100.002  1.00  0.00     0.293 HD
ENDBRANCH   6  12
TORSDOF 3
ENDMDL
MODEL 9
REMARK VINA RESULT:    -4.440      8.984     10.974
REMARK INTER + INTRA:          -5.358
REMARK INTER:                  -5.082
REMARK INTRA:                  -0.276
REMARK UNBOUND:                -0.269
REMARK SMILES O=C([O-])C=Cc1ccc(O)cc1
REMARK SMILES IDX 6 1 7 2 12 3 8 4 11 5 9 6 5 7 4 8 2 9 1 10 3 11 10 12
REMARK H PARENT 10 13
REMARK Flexibility Score: inf
ROOT
ATOM      1  C   UNL     1      22.606  -6.681 104.538  1.00  0.00    -0.025 A 
ATOM      2  C   UNL     1      23.658  -6.349 105.405  1.00  0.00     0.012 A 
ATOM      3  C   UNL     1      21.288  -6.685 105.027  1.00  0.00     0.012 A 
ATOM      4  C   UNL     1      23.394  -5.975 106.725  1.00  0.00     0.047 A 
ATOM      5  C   UNL     1      21.026  -6.310 106.348  1.00  0.00     0.047 A 
ATOM      6  C   UNL     1      22.076  -5.951 107.200  1.00  0.00     0.115 A 
ENDROOT
BRANCH   1   7
ATOM      7  C   UNL     1      22.914  -7.125 103.163  1.00  0.00     0.010 C 
ATOM      8  C   UNL     1      22.744  -6.390 102.053  1.00  0.00     0.025 C 
BRANCH   8   9
ATOM      9  C   UNL     1      22.403  -4.955 102.022  1.00  0.00     0.064 C 
ATOM     10  O   UNL     1      23.309  -4.102 102.214  1.00  0.00    -0.545 OA
ATOM     11  O   UNL     1      21.093  -4.523 101.858  1.00  0.00    -0.545 OA
ENDBRANCH   8   9
ENDBRANCH   1   7
BRANCH   6  12
ATOM     12  O   UNL     1      21.799  -5.579 108.514  1.00  0.00    -0.508 OA
ATOM     13  H   UNL     1      22.034  -4.656 108.863  1.00  0.00     0.293 HD
ENDBRANCH   6  12
TORSDOF 3
ENDMDL
