MODEL 1
REMARK VINA RESULT:    -1.185      0.000      0.000
REMARK INTER + INTRA:          -1.409
REMARK INTER:                  -1.323
REMARK INTRA:                  -0.086
REMARK UNBOUND:                -0.086
REMARK SMILES CCc1ccc(O)cc1O
REMARK SMILES IDX 3 1 9 2 8 3 6 4 5 5 4 6 2 7 1 8 10 9 7 11
REMARK H PARENT 10 10 7 12
REMARK Flexibility Score: inf
ROOT
ATOM      1  C   UNL     1     139.851 130.482 127.865  1.00  0.00    -0.006 A 
ATOM      2  C   UNL     1     139.404 129.254 127.336  1.00  0.00     0.122 A 
ATOM      3  C   UNL     1     138.251 128.649 127.857  1.00  0.00     0.092 A 
ATOM      4  C   UNL     1     137.548 129.250 128.909  1.00  0.00     0.119 A 
ATOM      5  C   UNL     1     138.000 130.459 129.443  1.00  0.00     0.047 A 
ATOM      6  C   UNL     1     139.146 131.070 128.929  1.00  0.00     0.011 A 
ENDROOT
BRANCH   1   7
ATOM      7  C   UNL     1     141.104 131.141 127.345  1.00  0.00     0.036 C 
ATOM      8  C   UNL     1     141.544 132.272 128.269  1.00  0.00     0.009 C 
ENDBRANCH   1   7
BRANCH   2   9
ATOM      9  O   UNL     1     140.104 128.641 126.297  1.00  0.00    -0.508 OA
ATOM     10  H   UNL     1     140.667 127.813 126.453  1.00  0.00     0.293 HD
ENDBRANCH   2   9
BRANCH   4  11
ATOM     11  O   UNL     1     136.403 128.653 129.431  1.00  0.00    -0.508 OA
ATOM     12  H   UNL     1     135.476 128.993 129.202  1.00  0.00     0.293 HD
ENDBRANCH   4  11
TORSDOF 3
ENDMDL
MODEL 2
REMARK VINA RESULT:    -0.635      1.598      2.854
REMARK INTER + INTRA:          -0.795
REMARK INTER:                  -0.710
REMARK INTRA:                  -0.085
REMARK UNBOUND:                -0.086
REMARK SMILES CCc1ccc(O)cc1O
REMARK SMILES IDX 3 1 9 2 8 3 6 4 5 5 4 6 2 7 1 8 10 9 7 11
REMARK H PARENT 10 10 7 12
REMARK Flexibility Score: inf
ROOT
ATOM      1  C   UNL     1     139.496 129.351 127.323  1.00  0.00    -0.006 A 
ATOM      2  C   UNL     1     139.912 130.548 127.941  1.00  0.00     0.122 A 
ATOM      3  C   UNL     1     139.313 130.959 129.141  1.00  0.00     0.092 A 
ATOM      4  C   UNL     1     138.293 130.193 129.722  1.00  0.00     0.119 A 
ATOM      5  C   UNL     1     137.871 129.015 129.100  1.00  0.00     0.047 A 
ATOM      6  C   UNL     1     138.464 128.598 127.907  1.00  0.00     0.011 A 
ENDROOT
BRANCH   1   7
ATOM      7  C   UNL     1     140.103 128.901 126.017  1.00  0.00     0.036 C 
ATOM      8  C   UNL     1     139.738 127.450 125.723  1.00  0.00     0.009 C 
ENDBRANCH   1   7
BRANCH   2   9
ATOM      9  O   UNL     1     140.917 131.323 127.364  1.00  0.00    -0.508 OA
ATOM     10  H   UNL     1     141.181 131.214 126.391  1.00  0.00     0.293 HD
ENDBRANCH   2   9
BRANCH   4  11
ATOM     11  O   UNL     1     137.692 130.596 130.912  1.00  0.00    -0.508 OA
ATOM     12  H   UNL     1     137.196 131.477 130.983  1.00  0.00     0.293 HD
ENDBRANCH   4  11
TORSDOF 3
ENDMDL
MODEL 3
REMARK VINA RESULT:    -0.618      1.938      3.422
REMARK INTER + INTRA:          -0.777
REMARK INTER:                  -0.691
REMARK INTRA:                  -0.086
REMARK UNBOUND:                -0.086
REMARK SMILES CCc1ccc(O)cc1O
REMARK SMILES IDX 3 1 9 2 8 3 6 4 5 5 4 6 2 7 1 8 10 9 7 11
REMARK H PARENT 10 10 7 12
REMARK Flexibility Score: inf
ROOT
ATOM      1  C   UNL     1     139.135 128.954 127.392  1.00  0.00    -0.006 A 
ATOM      2  C   UNL     1     138.264 129.173 128.479  1.00  0.00     0.122 A 
ATOM      3  C   UNL     1     138.354 130.364 129.216  1.00  0.00     0.092 A 
ATOM      4  C   UNL     1     139.313 131.330 128.887  1.00  0.00     0.119 A 
ATOM      5  C   UNL     1     140.186 131.106 127.819  1.00  0.00     0.047 A 
ATOM      6  C   UNL     1     140.102 129.924 127.079  1.00  0.00     0.011 A 
ENDROOT
BRANCH   1   7
ATOM      7  C   UNL     1     139.081 127.671 126.601  1.00  0.00     0.036 C 
ATOM      8  C   UNL     1     140.203 127.624 125.570  1.00  0.00     0.009 C 
ENDBRANCH   1   7
BRANCH   2   9
ATOM      9  O   UNL     1     137.315 128.212 128.823  1.00  0.00    -0.508 OA
ATOM     10  H   UNL     1     136.822 128.244 129.708  1.00  0.00     0.293 HD
ENDBRANCH   2   9
BRANCH   4  11
ATOM     11  O   UNL     1     139.408 132.514 129.616  1.00  0.00    -0.508 OA
ATOM     12  H   UNL     1     138.837 133.321 129.392  1.00  0.00     0.293 HD
ENDBRANCH   4  11
TORSDOF 3
ENDMDL
MODEL 4
REMARK VINA RESULT:    -0.415      1.485      2.189
REMARK INTER + INTRA:          -0.550
REMARK INTER:                  -1.205
REMARK INTRA:                   0.655
REMARK UNBOUND:                -0.086
REMARK SMILES CCc1ccc(O)cc1O
REMARK SMILES IDX 3 1 9 2 8 3 6 4 5 5 4 6 2 7 1 8 10 9 7 11
REMARK H PARENT 10 10 7 12
REMARK Flexibility Score: inf
ROOT
ATOM      1  C   UNL     1     139.838 130.558 127.737  1.00  0.00    -0.006 A 
ATOM      2  C   UNL     1     138.980 130.990 128.769  1.00  0.00     0.122 A 
ATOM      3  C   UNL     1     137.952 130.148 129.219  1.00  0.00     0.092 A 
ATOM      4  C   UNL     1     137.765 128.886 128.641  1.00  0.00     0.119 A 
ATOM      5  C   UNL     1     138.606 128.465 127.608  1.00  0.00     0.047 A 
ATOM      6  C   UNL     1     139.633 129.296 127.155  1.00  0.00     0.011 A 
ENDROOT
BRANCH   1   7
ATOM      7  C   UNL     1     140.932 131.453 127.212  1.00  0.00     0.036 C 
ATOM      8  C   UNL     1     141.627 132.185 128.355  1.00  0.00     0.009 C 
ENDBRANCH   1   7
BRANCH   2   9
ATOM      9  O   UNL     1     139.150 132.250 129.341  1.00  0.00    -0.508 OA
ATOM     10  H   UNL     1     140.004 132.781 129.214  1.00  0.00     0.293 HD
ENDBRANCH   2   9
BRANCH   4  11
ATOM     11  O   UNL     1     136.745 128.046 129.084  1.00  0.00    -0.508 OA
ATOM     12  H   UNL     1     135.964 128.401 129.624  1.00  0.00     0.293 HD
ENDBRANCH   4  11
TORSDOF 3
ENDMDL
MODEL 5
REMARK VINA RESULT:    -0.192      1.629      3.677
REMARK INTER + INTRA:          -0.301
REMARK INTER:                  -0.214
REMARK INTRA:                  -0.086
REMARK UNBOUND:                -0.086
REMARK SMILES CCc1ccc(O)cc1O
REMARK SMILES IDX 3 1 9 2 8 3 6 4 5 5 4 6 2 7 1 8 10 9 7 11
REMARK H PARENT 10 10 7 12
REMARK Flexibility Score: inf
ROOT
ATOM      1  C   UNL     1     138.593 129.595 128.373  1.00  0.00    -0.006 A 
ATOM      2  C   UNL     1     139.578 129.425 127.378  1.00  0.00     0.122 A 
ATOM      3  C   UNL     1     140.621 130.356 127.263  1.00  0.00     0.092 A 
ATOM      4  C   UNL     1     140.684 131.460 128.122  1.00  0.00     0.119 A 
ATOM      5  C   UNL     1     139.699 131.636 129.098  1.00  0.00     0.047 A 
ATOM      6  C   UNL     1     138.658 130.713 129.221  1.00  0.00     0.011 A 
ENDROOT
BRANCH   1   7
ATOM      7  C   UNL     1     137.444 128.626 128.500  1.00  0.00     0.036 C 
ATOM      8  C   UNL     1     136.283 129.262 129.257  1.00  0.00     0.009 C 
ENDBRANCH   1   7
BRANCH   2   9
ATOM      9  O   UNL     1     139.517 128.336 126.509  1.00  0.00    -0.508 OA
ATOM     10  H   UNL     1     140.264 127.653 126.460  1.00  0.00     0.293 HD
ENDBRANCH   2   9
BRANCH   4  11
ATOM     11  O   UNL     1     141.716 132.389 128.012  1.00  0.00    -0.508 OA
ATOM     12  H   UNL     1     142.081 132.874 128.824  1.00  0.00     0.293 HD
ENDBRANCH   4  11
TORSDOF 3
ENDMDL
MODEL 6
REMARK VINA RESULT:     0.163      1.994      3.438
REMARK INTER + INTRA:           0.096
REMARK INTER:                   0.198
REMARK INTRA:                  -0.102
REMARK UNBOUND:                -0.086
REMARK SMILES CCc1ccc(O)cc1O
REMARK SMILES IDX 3 1 9 2 8 3 6 4 5 5 4 6 2 7 1 8 10 9 7 11
REMARK H PARENT 10 10 7 12
REMARK Flexibility Score: inf
ROOT
ATOM      1  C   UNL     1     138.812 130.224 128.990  1.00  0.00    -0.006 A 
ATOM      2  C   UNL     1     139.957 130.619 128.268  1.00  0.00     0.122 A 
ATOM      3  C   UNL     1     140.374 129.870 127.158  1.00  0.00     0.092 A 
ATOM      4  C   UNL     1     139.667 128.725 126.769  1.00  0.00     0.119 A 
ATOM      5  C   UNL     1     138.541 128.326 127.493  1.00  0.00     0.047 A 
ATOM      6  C   UNL     1     138.118 129.067 128.599  1.00  0.00     0.011 A 
ENDROOT
BRANCH   1   7
ATOM      7  C   UNL     1     138.358 130.993 130.205  1.00  0.00     0.036 C 
ATOM      8  C   UNL     1     138.543 130.163 131.471  1.00  0.00     0.009 C 
ENDBRANCH   1   7
BRANCH   2   9
ATOM      9  O   UNL     1     140.675 131.750 128.655  1.00  0.00    -0.508 OA
ATOM     10  H   UNL     1     141.651 131.869 128.409  1.00  0.00     0.293 HD
ENDBRANCH   2   9
BRANCH   4  11
ATOM     11  O   UNL     1     140.076 127.976 125.668  1.00  0.00    -0.508 OA
ATOM     12  H   UNL     1     140.565 127.095 125.778  1.00  0.00     0.293 HD
ENDBRANCH   4  11
TORSDOF 3
ENDMDL
MODEL 7
REMARK VINA RESULT:     0.637      1.723      4.294
REMARK INTER + INTRA:           0.625
REMARK INTER:                   0.394
REMARK INTRA:                   0.231
REMARK UNBOUND:                -0.086
REMARK SMILES CCc1ccc(O)cc1O
REMARK SMILES IDX 3 1 9 2 8 3 6 4 5 5 4 6 2 7 1 8 10 9 7 11
REMARK H PARENT 10 10 7 12
REMARK Flexibility Score: inf
ROOT
ATOM      1  C   UNL     1     138.421 129.437 128.520  1.00  0.00    -0.006 A 
ATOM      2  C   UNL     1     138.818 130.501 129.355  1.00  0.00     0.122 A 
ATOM      3  C   UNL     1     139.920 131.293 129.000  1.00  0.00     0.092 A 
ATOM      4  C   UNL     1     140.637 131.024 127.826  1.00  0.00     0.119 A 
ATOM      5  C   UNL     1     140.252 129.960 127.006  1.00  0.00     0.047 A 
ATOM      6  C   UNL     1     139.155 129.168 127.352  1.00  0.00     0.011 A 
ENDROOT
BRANCH   1   7
ATOM      7  C   UNL     1     137.259 128.551 128.892  1.00  0.00     0.036 C 
ATOM      8  C   UNL     1     135.972 129.363 128.998  1.00  0.00     0.009 C 
ENDBRANCH   1   7
BRANCH   2   9
ATOM      9  O   UNL     1     138.120 130.768 130.532  1.00  0.00    -0.508 OA
ATOM     10  H   UNL     1     138.261 131.627 131.051  1.00  0.00     0.293 HD
ENDBRANCH   2   9
BRANCH   4  11
ATOM     11  O   UNL     1     141.733 131.806 127.469  1.00  0.00    -0.508 OA
ATOM     12  H   UNL     1     142.388 132.150 128.162  1.00  0.00     0.293 HD
ENDBRANCH   4  11
TORSDOF 3
ENDMDL
MODEL 8
REMARK VINA RESULT:     0.980      1.156      3.368
REMARK INTER + INTRA:           1.009
REMARK INTER:                   0.954
REMARK INTRA:                   0.054
REMARK UNBOUND:                -0.086
REMARK SMILES CCc1ccc(O)cc1O
REMARK SMILES IDX 3 1 9 2 8 3 6 4 5 5 4 6 2 7 1 8 10 9 7 11
REMARK H PARENT 10 10 7 12
REMARK Flexibility Score: inf
ROOT
ATOM      1  C   UNL     1     138.815 130.134 128.824  1.00  0.00    -0.006 A 
ATOM      2  C   UNL     1     138.099 128.980 128.446  1.00  0.00     0.122 A 
ATOM      3  C   UNL     1     138.533 128.217 127.352  1.00  0.00     0.092 A 
ATOM      4  C   UNL     1     139.666 128.602 126.624  1.00  0.00     0.119 A 
ATOM      5  C   UNL     1     140.367 129.754 126.990  1.00  0.00     0.047 A 
ATOM      6  C   UNL     1     139.943 130.519 128.079  1.00  0.00     0.011 A 
ENDROOT
BRANCH   1   7
ATOM      7  C   UNL     1     138.355 130.990 129.978  1.00  0.00     0.036 C 
ATOM      8  C   UNL     1     138.604 130.285 131.307  1.00  0.00     0.009 C 
ENDBRANCH   1   7
BRANCH   2   9
ATOM      9  O   UNL     1     136.962 128.596 129.157  1.00  0.00    -0.508 OA
ATOM     10  H   UNL     1     136.764 128.962 130.081  1.00  0.00     0.293 HD
ENDBRANCH   2   9
BRANCH   4  11
ATOM     11  O   UNL     1     140.101 127.849 125.536  1.00  0.00    -0.508 OA
ATOM     12  H   UNL     1     140.998 128.021 125.097  1.00  0.00     0.293 HD
ENDBRANCH   4  11
TORSDOF 3
ENDMDL
MODEL 9
REMARK VINA RESULT:     1.735      1.313      2.690
REMARK INTER + INTRA:           1.852
REMARK INTER:                   1.937
REMARK INTRA:                  -0.085
REMARK UNBOUND:                -0.086
REMARK SMILES CCc1ccc(O)cc1O
REMARK SMILES IDX 3 1 9 2 8 3 6 4 5 5 4 6 2 7 1 8 10 9 7 11
REMARK H PARENT 10 10 7 12
REMARK Flexibility Score: inf
ROOT
ATOM      1  C   UNL     1     139.807 130.948 128.356  1.00  0.00    -0.006 A 
ATOM      2  C   UNL     1     138.745 130.172 128.864  1.00  0.00     0.122 A 
ATOM      3  C   UNL     1     138.388 128.975 128.226  1.00  0.00     0.092 A 
ATOM      4  C   UNL     1     139.072 128.551 127.079  1.00  0.00     0.119 A 
ATOM      5  C   UNL     1     140.115 129.328 126.567  1.00  0.00     0.047 A 
ATOM      6  C   UNL     1     140.478 130.521 127.197  1.00  0.00     0.011 A 
ENDROOT
BRANCH   1   7
ATOM      7  C   UNL     1     140.193 132.254 129.003  1.00  0.00     0.036 C 
ATOM      8  C   UNL     1     141.559 132.719 128.511  1.00  0.00     0.009 C 
ENDBRANCH   1   7
BRANCH   2   9
ATOM      9  O   UNL     1     138.050 130.591 129.997  1.00  0.00    -0.508 OA
ATOM     10  H   UNL     1     138.382 130.383 130.932  1.00  0.00     0.293 HD
ENDBRANCH   2   9
BRANCH   4  11
ATOM     11  O   UNL     1     138.722 127.364 126.440  1.00  0.00    -0.508 OA
ATOM     12  H   UNL     1     139.373 126.876 125.836  1.00  0.00     0.293 HD
ENDBRANCH   4  11
TORSDOF 3
ENDMDL
