MODEL 1
REMARK VINA RESULT:    -3.669      0.000      0.000
REMARK INTER + INTRA:          -5.374
REMARK INTER:                  -5.170
REMARK INTRA:                  -0.204
REMARK UNBOUND:                -0.204
REMARK SMILES CC1=CCC(=C(C)C)CCC(C)=CCC1
REMARK SMILES IDX 5 1 6 2 7 3 8 4 9 5 10 6 11 7 12 8 13 9 4 11 3 12 2 13 1 14
REMARK SMILES IDX 15 15 14 16
REMARK H PARENT
REMARK Flexibility Score: 60.00
ROOT
ATOM      1  C   UNL     1       1.869  12.981  14.895  1.00  0.00    -0.067 C 
ATOM      2  C   UNL     1       1.889  12.349  13.674  1.00  0.00    -0.077 C 
ATOM      3  C   UNL     1       2.677  12.913  12.509  1.00  0.00     0.039 C 
ATOM      4  C   UNL     1       1.068  11.107  13.398  1.00  0.00     0.039 C 
ENDROOT
BRANCH   1   5
ATOM      5  C   UNL     1       1.062  12.421  16.073  1.00  0.00     0.035 C 
BRANCH   5   6
ATOM      6  C   UNL     1      -0.290  13.122  16.327  1.00  0.00     0.035 C 
BRANCH   6   7
ATOM      7  C   UNL     1      -0.395  13.799  17.681  1.00  0.00    -0.077 C 
ATOM      8  C   UNL     1      -0.602  12.940  18.902  1.00  0.00     0.039 C 
ATOM      9  C   UNL     1      -0.421  15.144  17.846  1.00  0.00    -0.028 CG0
ATOM     10  G   UNL     1      -0.518  16.167  16.739  1.00  0.00     0.000 G0
ENDBRANCH   6   7
ENDBRANCH   5   6
ENDBRANCH   1   5
BRANCH   1  11
ATOM     11  C   UNL     1       2.404  14.411  15.007  1.00  0.00     0.058 C 
BRANCH  11  12
ATOM     12  C   UNL     1       1.640  15.441  14.219  1.00  0.00    -0.024 C 
ATOM     13  C   UNL     1       1.009  16.506  14.760  1.00  0.00    -0.077 C 
ATOM     14  C   UNL     1       0.426  17.535  13.826  1.00  0.00     0.039 C 
BRANCH  13  15
ATOM     15  C   UNL     1       0.837  16.697  16.256  1.00  0.00     0.034 C 
BRANCH  15  16
ATOM     16  C   UNL     1      -0.528  16.173  16.747  1.00  0.00     0.032 CG0
ATOM     17  G   UNL     1      -0.426  15.143  17.848  1.00  0.00     0.000 G0
ENDBRANCH  15  16
ENDBRANCH  13  15
ENDBRANCH  11  12
ENDBRANCH   1  11
TORSDOF 0
ENDMDL
MODEL 2
REMARK VINA RESULT:    -3.557      2.055      5.086
REMARK INTER + INTRA:          -5.217
REMARK INTER:                  -5.041
REMARK INTRA:                  -0.176
REMARK UNBOUND:                -0.204
REMARK SMILES CC1=CCC(=C(C)C)CCC(C)=CCC1
REMARK SMILES IDX 5 1 6 2 7 3 8 4 9 5 10 6 11 7 12 8 13 9 4 11 3 12 2 13 1 14
REMARK SMILES IDX 15 15 14 16
REMARK H PARENT
REMARK Flexibility Score: 60.00
ROOT
ATOM      1  C   UNL     1       1.065  14.803  16.760  1.00  0.00    -0.067 C 
ATOM      2  C   UNL     1       0.290  14.329  17.791  1.00  0.00    -0.077 C 
ATOM      3  C   UNL     1       0.596  13.004  18.462  1.00  0.00     0.039 C 
ATOM      4  C   UNL     1      -0.952  15.055  18.263  1.00  0.00     0.039 C 
ENDROOT
BRANCH   1   5
ATOM      5  C   UNL     1       0.752  16.137  16.071  1.00  0.00     0.035 C 
BRANCH   5   6
ATOM      6  C   UNL     1       0.278  16.017  14.606  1.00  0.00     0.035 C 
BRANCH   6   7
ATOM      7  C   UNL     1       1.288  16.504  13.583  1.00  0.00    -0.077 C 
ATOM      8  C   UNL     1       1.567  17.983  13.496  1.00  0.00     0.039 C 
ATOM      9  C   UNL     1       1.876  15.697  12.668  1.00  0.00    -0.028 CG0
ATOM     10  G   UNL     1       1.517  14.254  12.403  1.00  0.00     0.000 G0
ENDBRANCH   6   7
ENDBRANCH   5   6
ENDBRANCH   1   5
BRANCH   1  11
ATOM     11  C   UNL     1       2.069  13.865  16.085  1.00  0.00     0.058 C 
BRANCH  11  12
ATOM     12  C   UNL     1       1.462  12.681  15.383  1.00  0.00    -0.024 C 
ATOM     13  C   UNL     1       1.695  12.352  14.094  1.00  0.00    -0.077 C 
ATOM     14  C   UNL     1       1.142  11.046  13.583  1.00  0.00     0.039 C 
BRANCH  13  15
ATOM     15  C   UNL     1       2.462  13.245  13.135  1.00  0.00     0.034 C 
BRANCH  15  16
ATOM     16  C   UNL     1       1.532  14.237  12.408  1.00  0.00     0.032 CG0
ATOM     17  G   UNL     1       1.866  15.687  12.665  1.00  0.00     0.000 G0
ENDBRANCH  15  16
ENDBRANCH  13  15
ENDBRANCH  11  12
ENDBRANCH   1  11
TORSDOF 0
ENDMDL
MODEL 3
REMARK VINA RESULT:    -3.527      1.988      3.748
REMARK INTER + INTRA:          -5.174
REMARK INTER:                  -4.832
REMARK INTRA:                  -0.343
REMARK UNBOUND:                -0.204
REMARK SMILES CC1=CCC(=C(C)C)CCC(C)=CCC1
REMARK SMILES IDX 5 1 6 2 7 3 8 4 9 5 10 6 11 7 12 8 13 9 4 11 3 12 2 13 1 14
REMARK SMILES IDX 15 15 14 16
REMARK H PARENT
REMARK Flexibility Score: 60.00
ROOT
ATOM      1  C   UNL     1       1.178  14.058  15.817  1.00  0.00    -0.067 C 
ATOM      2  C   UNL     1       0.509  12.875  15.612  1.00  0.00    -0.077 C 
ATOM      3  C   UNL     1      -0.882  12.650  16.171  1.00  0.00     0.039 C 
ATOM      4  C   UNL     1       1.145  11.706  14.890  1.00  0.00     0.039 C 
ENDROOT
BRANCH   1   5
ATOM      5  C   UNL     1       2.590  14.285  15.263  1.00  0.00     0.035 C 
BRANCH   5   6
ATOM      6  C   UNL     1       2.647  15.022  13.908  1.00  0.00     0.035 C 
BRANCH   6   7
ATOM      7  C   UNL     1       1.286  15.322  13.305  1.00  0.00    -0.077 C 
ATOM      8  C   UNL     1       0.717  14.357  12.297  1.00  0.00     0.039 C 
ATOM      9  C   UNL     1       0.598  16.465  13.541  1.00  0.00    -0.028 CG0
ATOM     10  G   UNL     1       1.121  17.673  14.282  1.00  0.00     0.000 G0
ENDBRANCH   6   7
ENDBRANCH   5   6
ENDBRANCH   1   5
BRANCH   1  11
ATOM     11  C   UNL     1       0.647  15.049  16.855  1.00  0.00     0.058 C 
BRANCH  11  12
ATOM     12  C   UNL     1       1.597  16.158  17.222  1.00  0.00    -0.024 C 
ATOM     13  C   UNL     1       1.499  17.429  16.774  1.00  0.00    -0.077 C 
ATOM     14  C   UNL     1       2.430  18.460  17.359  1.00  0.00     0.039 C 
BRANCH  13  15
ATOM     15  C   UNL     1       0.520  17.856  15.695  1.00  0.00     0.034 C 
BRANCH  15  16
ATOM     16  C   UNL     1       1.115  17.685  14.282  1.00  0.00     0.032 CG0
ATOM     17  G   UNL     1       0.600  16.469  13.547  1.00  0.00     0.000 G0
ENDBRANCH  15  16
ENDBRANCH  13  15
ENDBRANCH  11  12
ENDBRANCH   1  11
TORSDOF 0
ENDMDL
MODEL 4
REMARK VINA RESULT:    -3.476      1.821      4.004
REMARK INTER + INTRA:          -5.103
REMARK INTER:                  -4.949
REMARK INTRA:                  -0.154
REMARK UNBOUND:                -0.204
REMARK SMILES CC1=CCC(=C(C)C)CCC(C)=CCC1
REMARK SMILES IDX 5 1 6 2 7 3 8 4 9 5 10 6 11 7 12 8 13 9 4 11 3 12 2 13 1 14
REMARK SMILES IDX 15 15 14 16
REMARK H PARENT
REMARK Flexibility Score: 60.00
ROOT
ATOM      1  C   UNL     1       2.314  15.227  13.019  1.00  0.00    -0.067 C 
ATOM      2  C   UNL     1       3.619  14.969  12.669  1.00  0.00    -0.077 C 
ATOM      3  C   UNL     1       4.302  13.678  13.076  1.00  0.00     0.039 C 
ATOM      4  C   UNL     1       4.468  15.982  11.932  1.00  0.00     0.039 C 
ENDROOT
BRANCH   1   5
ATOM      5  C   UNL     1       1.623  16.536  12.621  1.00  0.00     0.035 C 
BRANCH   5   6
ATOM      6  C   UNL     1       1.260  17.466  13.799  1.00  0.00     0.035 C 
BRANCH   6   7
ATOM      7  C   UNL     1      -0.226  17.540  14.098  1.00  0.00    -0.077 C 
ATOM      8  C   UNL     1      -1.122  18.254  13.119  1.00  0.00     0.039 C 
ATOM      9  C   UNL     1      -0.781  17.095  15.251  1.00  0.00    -0.028 CG0
ATOM     10  G   UNL     1      -0.025  16.617  16.468  1.00  0.00     0.000 G0
ENDBRANCH   6   7
ENDBRANCH   5   6
ENDBRANCH   1   5
BRANCH   1  11
ATOM     11  C   UNL     1       1.632  14.345  14.069  1.00  0.00     0.058 C 
BRANCH  11  12
ATOM     12  C   UNL     1       2.244  14.401  15.442  1.00  0.00    -0.024 C 
ATOM     13  C   UNL     1       1.557  14.651  16.578  1.00  0.00    -0.077 C 
ATOM     14  C   UNL     1       2.282  14.511  17.892  1.00  0.00     0.039 C 
BRANCH  13  15
ATOM     15  C   UNL     1       0.103  15.090  16.589  1.00  0.00     0.034 C 
BRANCH  15  16
ATOM     16  C   UNL     1      -0.033  16.621  16.471  1.00  0.00     0.032 CG0
ATOM     17  G   UNL     1      -0.783  17.074  15.240  1.00  0.00     0.000 G0
ENDBRANCH  15  16
ENDBRANCH  13  15
ENDBRANCH  11  12
ENDBRANCH   1  11
TORSDOF 0
ENDMDL
MODEL 5
REMARK VINA RESULT:    -3.335      0.929      3.562
REMARK INTER + INTRA:          -4.903
REMARK INTER:                  -4.683
REMARK INTRA:                  -0.221
REMARK UNBOUND:                -0.204
REMARK SMILES CC1=CCC(=C(C)C)CCC(C)=CCC1
REMARK SMILES IDX 5 1 6 2 7 3 8 4 9 5 10 6 11 7 12 8 13 9 4 11 3 12 2 13 1 14
REMARK SMILES IDX 15 15 14 16
REMARK H PARENT
REMARK Flexibility Score: 60.00
ROOT
ATOM      1  C   UNL     1       0.881  13.374  13.628  1.00  0.00    -0.067 C 
ATOM      2  C   UNL     1       1.549  12.280  13.129  1.00  0.00    -0.077 C 
ATOM      3  C   UNL     1       1.057  10.871  13.391  1.00  0.00     0.039 C 
ATOM      4  C   UNL     1       2.848  12.413  12.362  1.00  0.00     0.039 C 
ENDROOT
BRANCH   1   5
ATOM      5  C   UNL     1       1.382  14.801  13.376  1.00  0.00     0.035 C 
BRANCH   5   6
ATOM      6  C   UNL     1       1.815  15.572  14.642  1.00  0.00     0.035 C 
BRANCH   6   7
ATOM      7  C   UNL     1       0.911  16.738  15.000  1.00  0.00    -0.077 C 
ATOM      8  C   UNL     1       0.888  17.937  14.087  1.00  0.00     0.039 C 
ATOM      9  C   UNL     1       0.203  16.809  16.152  1.00  0.00    -0.028 CG0
ATOM     10  G   UNL     1       0.315  15.855  17.318  1.00  0.00     0.000 G0
ENDBRANCH   6   7
ENDBRANCH   5   6
ENDBRANCH   1   5
BRANCH   1  11
ATOM     11  C   UNL     1      -0.198  13.170  14.695  1.00  0.00     0.058 C 
BRANCH  11  12
ATOM     12  C   UNL     1       0.312  12.725  16.039  1.00  0.00    -0.024 C 
ATOM     13  C   UNL     1       0.035  13.344  17.207  1.00  0.00    -0.077 C 
ATOM     14  C   UNL     1       0.484  12.684  18.485  1.00  0.00     0.039 C 
BRANCH  13  15
ATOM     15  C   UNL     1      -0.680  14.682  17.288  1.00  0.00     0.034 C 
BRANCH  15  16
ATOM     16  C   UNL     1       0.313  15.860  17.331  1.00  0.00     0.032 CG0
ATOM     17  G   UNL     1       0.188  16.807  16.161  1.00  0.00     0.000 G0
ENDBRANCH  15  16
ENDBRANCH  13  15
ENDBRANCH  11  12
ENDBRANCH   1  11
TORSDOF 0
ENDMDL
MODEL 6
REMARK VINA RESULT:    -3.241      2.086      4.345
REMARK INTER + INTRA:          -4.771
REMARK INTER:                  -4.438
REMARK INTRA:                  -0.333
REMARK UNBOUND:                -0.204
REMARK SMILES CC1=CCC(=C(C)C)CCC(C)=CCC1
REMARK SMILES IDX 5 1 6 2 7 3 8 4 9 5 10 6 11 7 12 8 13 9 4 11 3 12 2 13 1 14
REMARK SMILES IDX 15 15 14 16
REMARK H PARENT
REMARK Flexibility Score: 60.00
ROOT
ATOM      1  C   UNL     1       1.500  15.279  15.349  1.00  0.00    -0.067 C 
ATOM      2  C   UNL     1       0.704  16.168  16.033  1.00  0.00    -0.077 C 
ATOM      3  C   UNL     1      -0.010  17.297  15.317  1.00  0.00     0.039 C 
ATOM      4  C   UNL     1       0.559  16.123  17.539  1.00  0.00     0.039 C 
ENDROOT
BRANCH   1   5
ATOM      5  C   UNL     1       2.235  14.144  16.071  1.00  0.00     0.035 C 
BRANCH   5   6
ATOM      6  C   UNL     1       1.499  12.786  16.066  1.00  0.00     0.035 C 
BRANCH   6   7
ATOM      7  C   UNL     1       0.139  12.818  15.393  1.00  0.00    -0.077 C 
ATOM      8  C   UNL     1      -1.086  12.997  16.254  1.00  0.00     0.039 C 
ATOM      9  C   UNL     1      -0.049  12.587  14.071  1.00  0.00    -0.028 CG0
ATOM     10  G   UNL     1       1.005  12.107  13.101  1.00  0.00     0.000 G0
ENDBRANCH   6   7
ENDBRANCH   5   6
ENDBRANCH   1   5
BRANCH   1  11
ATOM     11  C   UNL     1       1.905  15.593  13.906  1.00  0.00     0.058 C 
BRANCH  11  12
ATOM     12  C   UNL     1       3.019  14.742  13.359  1.00  0.00    -0.024 C 
ATOM     13  C   UNL     1       2.847  13.719  12.494  1.00  0.00    -0.077 C 
ATOM     14  C   UNL     1       4.075  13.068  11.912  1.00  0.00     0.039 C 
BRANCH  13  15
ATOM     15  C   UNL     1       1.481  13.179  12.107  1.00  0.00     0.034 C 
BRANCH  15  16
ATOM     16  C   UNL     1       0.994  12.095  13.089  1.00  0.00     0.032 CG0
ATOM     17  G   UNL     1      -0.047  12.583  14.069  1.00  0.00     0.000 G0
ENDBRANCH  15  16
ENDBRANCH  13  15
ENDBRANCH  11  12
ENDBRANCH   1  11
TORSDOF 0
ENDMDL
MODEL 7
REMARK VINA RESULT:    -3.164      1.588      2.162
REMARK INTER + INTRA:          -4.663
REMARK INTER:                  -4.295
REMARK INTRA:                  -0.368
REMARK UNBOUND:                -0.204
REMARK SMILES CC1=CCC(=C(C)C)CCC(C)=CCC1
REMARK SMILES IDX 5 1 6 2 7 3 8 4 9 5 10 6 11 7 12 8 13 9 4 11 3 12 2 13 1 14
REMARK SMILES IDX 15 15 14 16
REMARK H PARENT
REMARK Flexibility Score: 60.00
ROOT
ATOM      1  C   UNL     1       1.665  14.671  13.059  1.00  0.00    -0.067 C 
ATOM      2  C   UNL     1       2.684  13.764  12.886  1.00  0.00    -0.077 C 
ATOM      3  C   UNL     1       4.137  14.196  12.922  1.00  0.00     0.039 C 
ATOM      4  C   UNL     1       2.418  12.306  12.572  1.00  0.00     0.039 C 
ENDROOT
BRANCH   1   5
ATOM      5  C   UNL     1       0.195  14.241  13.011  1.00  0.00     0.035 C 
BRANCH   5   6
ATOM      6  C   UNL     1      -0.526  14.234  14.376  1.00  0.00     0.035 C 
BRANCH   6   7
ATOM      7  C   UNL     1       0.404  14.120  15.570  1.00  0.00    -0.077 C 
ATOM      8  C   UNL     1       0.897  12.753  15.971  1.00  0.00     0.039 C 
ATOM      9  C   UNL     1       0.732  15.166  16.366  1.00  0.00    -0.028 CG0
ATOM     10  G   UNL     1       0.119  16.546  16.308  1.00  0.00     0.000 G0
ENDBRANCH   6   7
ENDBRANCH   5   6
ENDBRANCH   1   5
BRANCH   1  11
ATOM     11  C   UNL     1       1.977  16.168  13.000  1.00  0.00     0.058 C 
BRANCH  11  12
ATOM     12  C   UNL     1       0.773  17.071  13.021  1.00  0.00    -0.024 C 
ATOM     13  C   UNL     1       0.352  17.761  14.103  1.00  0.00    -0.077 C 
ATOM     14  C   UNL     1      -0.773  18.747  13.922  1.00  0.00     0.039 C 
BRANCH  13  15
ATOM     15  C   UNL     1       0.939  17.568  15.490  1.00  0.00     0.034 C 
BRANCH  15  16
ATOM     16  C   UNL     1       0.127  16.553  16.319  1.00  0.00     0.032 CG0
ATOM     17  G   UNL     1       0.729  15.168  16.349  1.00  0.00     0.000 G0
ENDBRANCH  15  16
ENDBRANCH  13  15
ENDBRANCH  11  12
ENDBRANCH   1  11
TORSDOF 0
ENDMDL
MODEL 8
REMARK VINA RESULT:    -3.124      1.732      4.213
REMARK INTER + INTRA:          -4.607
REMARK INTER:                  -4.452
REMARK INTRA:                  -0.155
REMARK UNBOUND:                -0.204
REMARK SMILES CC1=CCC(=C(C)C)CCC(C)=CCC1
REMARK SMILES IDX 5 1 6 2 7 3 8 4 9 5 10 6 11 7 12 8 13 9 4 11 3 12 2 13 1 14
REMARK SMILES IDX 15 15 14 16
REMARK H PARENT
REMARK Flexibility Score: 60.00
ROOT
ATOM      1  C   UNL     1       0.966  16.780  16.195  1.00  0.00    -0.067 C 
ATOM      2  C   UNL     1       1.500  18.037  16.039  1.00  0.00    -0.077 C 
ATOM      3  C   UNL     1       1.472  18.744  14.699  1.00  0.00     0.039 C 
ATOM      4  C   UNL     1       2.215  18.752  17.167  1.00  0.00     0.039 C 
ENDROOT
BRANCH   1   5
ATOM      5  C   UNL     1       1.004  16.056  17.547  1.00  0.00     0.035 C 
BRANCH   5   6
ATOM      6  C   UNL     1       1.531  14.606  17.494  1.00  0.00     0.035 C 
BRANCH   6   7
ATOM      7  C   UNL     1       0.447  13.546  17.564  1.00  0.00    -0.077 C 
ATOM      8  C   UNL     1      -0.403  13.468  18.807  1.00  0.00     0.039 C 
ATOM      9  C   UNL     1       0.268  12.594  16.618  1.00  0.00    -0.028 CG0
ATOM     10  G   UNL     1       1.190  12.324  15.451  1.00  0.00     0.000 G0
ENDBRANCH   6   7
ENDBRANCH   5   6
ENDBRANCH   1   5
BRANCH   1  11
ATOM     11  C   UNL     1       0.597  15.963  14.954  1.00  0.00     0.058 C 
BRANCH  11  12
ATOM     12  C   UNL     1       1.765  15.375  14.210  1.00  0.00    -0.024 C 
ATOM     13  C   UNL     1       1.830  14.098  13.775  1.00  0.00    -0.077 C 
ATOM     14  C   UNL     1       2.995  13.704  12.903  1.00  0.00     0.039 C 
BRANCH  13  15
ATOM     15  C   UNL     1       0.805  13.040  14.145  1.00  0.00     0.034 C 
BRANCH  15  16
ATOM     16  C   UNL     1       1.188  12.302  15.443  1.00  0.00     0.032 CG0
ATOM     17  G   UNL     1       0.272  12.600  16.607  1.00  0.00     0.000 G0
ENDBRANCH  15  16
ENDBRANCH  13  15
ENDBRANCH  11  12
ENDBRANCH   1  11
TORSDOF 0
ENDMDL
MODEL 9
REMARK VINA RESULT:    -3.037      2.288      4.527
REMARK INTER + INTRA:          -4.483
REMARK INTER:                  -4.329
REMARK INTRA:                  -0.154
REMARK UNBOUND:                -0.204
REMARK SMILES CC1=CCC(=C(C)C)CCC(C)=CCC1
REMARK SMILES IDX 5 1 6 2 7 3 8 4 9 5 10 6 11 7 12 8 13 9 4 11 3 12 2 13 1 14
REMARK SMILES IDX 15 15 14 16
REMARK H PARENT
REMARK Flexibility Score: 60.00
ROOT
ATOM      1  C   UNL     1       0.270  13.807  15.757  1.00  0.00    -0.067 C 
ATOM      2  C   UNL     1       0.150  13.905  17.123  1.00  0.00    -0.077 C 
ATOM      3  C   UNL     1      -1.107  14.459  17.764  1.00  0.00     0.039 C 
ATOM      4  C   UNL     1       1.285  13.544  18.058  1.00  0.00     0.039 C 
ENDROOT
BRANCH   1   5
ATOM      5  C   UNL     1       1.545  13.259  15.104  1.00  0.00     0.035 C 
BRANCH   5   6
ATOM      6  C   UNL     1       2.644  14.311  14.839  1.00  0.00     0.035 C 
BRANCH   6   7
ATOM      7  C   UNL     1       3.102  14.381  13.394  1.00  0.00    -0.077 C 
ATOM      8  C   UNL     1       4.142  13.397  12.920  1.00  0.00     0.039 C 
ATOM      9  C   UNL     1       2.710  15.348  12.530  1.00  0.00    -0.028 CG0
ATOM     10  G   UNL     1       1.910  16.579  12.887  1.00  0.00     0.000 G0
ENDBRANCH   6   7
ENDBRANCH   5   6
ENDBRANCH   1   5
BRANCH   1  11
ATOM     11  C   UNL     1      -0.744  14.524  14.862  1.00  0.00     0.058 C 
BRANCH  11  12
ATOM     12  C   UNL     1      -0.749  16.024  14.980  1.00  0.00    -0.024 C 
ATOM     13  C   UNL     1      -0.317  16.870  14.020  1.00  0.00    -0.077 C 
ATOM     14  C   UNL     1      -0.538  18.347  14.222  1.00  0.00     0.039 C 
BRANCH  13  15
ATOM     15  C   UNL     1       0.401  16.404  12.765  1.00  0.00     0.034 C 
BRANCH  15  16
ATOM     16  C   UNL     1       1.927  16.588  12.877  1.00  0.00     0.032 CG0
ATOM     17  G   UNL     1       2.718  15.345  12.542  1.00  0.00     0.000 G0
ENDBRANCH  15  16
ENDBRANCH  13  15
ENDBRANCH  11  12
ENDBRANCH   1  11
TORSDOF 0
ENDMDL
