MODEL 1
REMARK VINA RESULT:    -1.630      0.000      0.000
REMARK INTER + INTRA:          -1.630
REMARK INTER:                  -1.630
REMARK INTRA:                   0.000
REMARK UNBOUND:                 0.000
REMARK SMILES CC(=O)[O-]
REMARK SMILES IDX 1 1 2 2 3 3 4 4
REMARK H PARENT
REMARK Flexibility Score: inf
ROOT
ATOM      1  C   UNL     1       0.236   4.828  -6.788  1.00  0.00     0.063 C 
ATOM      2  C   UNL     1       0.158   6.140  -6.085  1.00  0.00     0.038 C 
ATOM      3  O   UNL     1      -0.868   6.860  -6.201  1.00  0.00    -0.550 OA
ATOM      4  O   UNL     1       1.196   6.550  -5.258  1.00  0.00    -0.550 OA
ENDROOT
TORSDOF 0
ENDMDL
MODEL 2
REMARK VINA RESULT:    -1.603      0.144      1.626
REMARK INTER + INTRA:          -1.603
REMARK INTER:                  -1.603
REMARK INTRA:                   0.000
REMARK UNBOUND:                 0.000
REMARK SMILES CC(=O)[O-]
REMARK SMILES IDX 1 1 2 2 3 3 4 4
REMARK H PARENT
REMARK Flexibility Score: inf
ROOT
ATOM      1  C   UNL     1       0.488   4.871  -6.819  1.00  0.00     0.063 C 
ATOM      2  C   UNL     1       0.266   6.125  -6.044  1.00  0.00     0.038 C 
ATOM      3  O   UNL     1       1.162   6.560  -5.274  1.00  0.00    -0.550 OA
ATOM      4  O   UNL     1      -0.909   6.847  -6.209  1.00  0.00    -0.550 OA
ENDROOT
TORSDOF 0
ENDMDL
MODEL 3
REMARK VINA RESULT:    -1.491      6.637      7.090
REMARK INTER + INTRA:          -1.491
REMARK INTER:                  -1.491
REMARK INTRA:                   0.000
REMARK UNBOUND:                 0.000
REMARK SMILES CC(=O)[O-]
REMARK SMILES IDX 1 1 2 2 3 3 4 4
REMARK H PARENT
REMARK Flexibility Score: inf
ROOT
ATOM      1  C   UNL     1       0.510  11.604  -8.160  1.00  0.00     0.063 C 
ATOM      2  C   UNL     1      -0.474  12.713  -7.995  1.00  0.00     0.038 C 
ATOM      3  O   UNL     1      -0.559  13.324  -6.899  1.00  0.00    -0.550 OA
ATOM      4  O   UNL     1      -1.261  13.110  -9.068  1.00  0.00    -0.550 OA
ENDROOT
TORSDOF 0
ENDMDL
MODEL 4
REMARK VINA RESULT:    -1.477      7.996      8.406
REMARK INTER + INTRA:          -1.477
REMARK INTER:                  -1.477
REMARK INTRA:                   0.000
REMARK UNBOUND:                 0.000
REMARK SMILES CC(=O)[O-]
REMARK SMILES IDX 1 1 2 2 3 3 4 4
REMARK H PARENT
REMARK Flexibility Score: inf
ROOT
ATOM      1  C   UNL     1      -0.037  13.574 -10.847  1.00  0.00     0.063 C 
ATOM      2  C   UNL     1      -1.192  13.364  -9.928  1.00  0.00     0.038 C 
ATOM      3  O   UNL     1      -2.369  13.421 -10.369  1.00  0.00    -0.550 OA
ATOM      4  O   UNL     1      -0.972  13.053  -8.592  1.00  0.00    -0.550 OA
ENDROOT
TORSDOF 0
ENDMDL
MODEL 5
REMARK VINA RESULT:    -1.454      6.432      6.929
REMARK INTER + INTRA:          -1.454
REMARK INTER:                  -1.454
REMARK INTRA:                   0.000
REMARK UNBOUND:                 0.000
REMARK SMILES CC(=O)[O-]
REMARK SMILES IDX 1 1 2 2 3 3 4 4
REMARK H PARENT
REMARK Flexibility Score: inf
ROOT
ATOM      1  C   UNL     1      -0.133  13.301  -6.331  1.00  0.00     0.063 C 
ATOM      2  C   UNL     1      -0.308  12.599  -7.635  1.00  0.00     0.038 C 
ATOM      3  O   UNL     1      -1.119  13.044  -8.488  1.00  0.00    -0.550 OA
ATOM      4  O   UNL     1       0.463  11.484  -7.934  1.00  0.00    -0.550 OA
ENDROOT
TORSDOF 0
ENDMDL
MODEL 6
REMARK VINA RESULT:    -1.447      7.401      7.650
REMARK INTER + INTRA:          -1.447
REMARK INTER:                  -1.447
REMARK INTRA:                   0.000
REMARK UNBOUND:                 0.000
REMARK SMILES CC(=O)[O-]
REMARK SMILES IDX 1 1 2 2 3 3 4 4
REMARK H PARENT
REMARK Flexibility Score: inf
ROOT
ATOM      1  C   UNL     1      -0.166  13.347  -5.136  1.00  0.00     0.063 C 
ATOM      2  C   UNL     1       0.136  13.437  -6.593  1.00  0.00     0.038 C 
ATOM      3  O   UNL     1       1.276  13.805  -6.980  1.00  0.00    -0.550 OA
ATOM      4  O   UNL     1      -0.821  13.066  -7.528  1.00  0.00    -0.550 OA
ENDROOT
TORSDOF 0
ENDMDL
MODEL 7
REMARK VINA RESULT:    -1.385      7.432      7.654
REMARK INTER + INTRA:          -1.385
REMARK INTER:                  -1.385
REMARK INTRA:                   0.000
REMARK UNBOUND:                 0.000
REMARK SMILES CC(=O)[O-]
REMARK SMILES IDX 1 1 2 2 3 3 4 4
REMARK H PARENT
REMARK Flexibility Score: inf
ROOT
ATOM      1  C   UNL     1       1.324  14.235  -5.997  1.00  0.00     0.063 C 
ATOM      2  C   UNL     1       0.001  13.552  -5.924  1.00  0.00     0.038 C 
ATOM      3  O   UNL     1      -0.615  13.253  -6.981  1.00  0.00    -0.550 OA
ATOM      4  O   UNL     1      -0.533  13.195  -4.693  1.00  0.00    -0.550 OA
ENDROOT
TORSDOF 0
ENDMDL
MODEL 8
REMARK VINA RESULT:    -1.295      6.775      7.321
REMARK INTER + INTRA:          -1.295
REMARK INTER:                  -1.295
REMARK INTRA:                   0.000
REMARK UNBOUND:                 0.000
REMARK SMILES CC(=O)[O-]
REMARK SMILES IDX 1 1 2 2 3 3 4 4
REMARK H PARENT
REMARK Flexibility Score: inf
ROOT
ATOM      1  C   UNL     1       0.081   9.706   1.421  1.00  0.00     0.063 C 
ATOM      2  C   UNL     1       0.742   9.296   0.149  1.00  0.00     0.038 C 
ATOM      3  O   UNL     1       0.588   8.128  -0.296  1.00  0.00    -0.550 OA
ATOM      4  O   UNL     1       1.485  10.216  -0.578  1.00  0.00    -0.550 OA
ENDROOT
TORSDOF 0
ENDMDL
MODEL 9
REMARK VINA RESULT:    -1.273      2.394      2.678
REMARK INTER + INTRA:          -1.273
REMARK INTER:                  -1.273
REMARK INTRA:                   0.000
REMARK UNBOUND:                 0.000
REMARK SMILES CC(=O)[O-]
REMARK SMILES IDX 1 1 2 2 3 3 4 4
REMARK H PARENT
REMARK Flexibility Score: inf
ROOT
ATOM      1  C   UNL     1       3.240   5.278  -5.780  1.00  0.00     0.063 C 
ATOM      2  C   UNL     1       2.554   6.419  -5.109  1.00  0.00     0.038 C 
ATOM      3  O   UNL     1       1.301   6.526  -5.167  1.00  0.00    -0.550 OA
ATOM      4  O   UNL     1       3.290   7.339  -4.373  1.00  0.00    -0.550 OA
ENDROOT
TORSDOF 0
ENDMDL
