MODEL 1
REMARK VINA RESULT:    -2.399      0.000      0.000
REMARK INTER + INTRA:          -3.039
REMARK INTER:                  -2.890
REMARK INTRA:                  -0.149
REMARK UNBOUND:                -0.149
REMARK SMILES Oc1cc(O)c2c(c1)O[C@@H](c1ccc(O)c(O)c1)[C@H](O)C2
REMARK SMILES IDX 21 1 19 2 10 3 9 4 7 5 8 6 2 7 3 8 4 9 6 10 20 11 11 13
REMARK SMILES IDX 18 14 12 15 16 16 13 17 14 18 17 19 15 21 5 23 1 25
REMARK H PARENT 20 12 17 20 15 22 5 24 1 26
REMARK Flexibility Score: inf
ROOT
ATOM      1  C   UNL     1      11.478 -14.606   6.566  1.00  0.00     0.079 C 
ATOM      2  C   UNL     1       9.999 -14.879   6.906  1.00  0.00     0.164 C 
ATOM      3  C   UNL     1       9.855 -16.278   7.524  1.00  0.00     0.232 C 
ATOM      4  O   UNL     1      10.692 -16.389   8.675  1.00  0.00    -0.482 OA
ATOM      5  C   UNL     1      11.971 -15.824   8.725  1.00  0.00     0.131 A 
ATOM      6  C   UNL     1      12.806 -16.129   9.803  1.00  0.00     0.093 A 
ATOM      7  C   UNL     1      14.092 -15.593   9.873  1.00  0.00     0.122 A 
ATOM      8  C   UNL     1      14.552 -14.753   8.852  1.00  0.00     0.092 A 
ATOM      9  C   UNL     1      13.730 -14.437   7.764  1.00  0.00     0.126 A 
ATOM     10  C   UNL     1      12.409 -14.943   7.712  1.00  0.00     0.039 A 
ENDROOT
BRANCH   2  11
ATOM     11  O   UNL     1       9.220 -14.791   5.741  1.00  0.00    -0.389 OA
ATOM     12  H   UNL     1       9.852 -14.696   4.981  1.00  0.00     0.211 HD
ENDBRANCH   2  11
BRANCH   3  13
ATOM     13  C   UNL     1       8.422 -16.558   7.912  1.00  0.00    -0.001 A 
ATOM     14  C   UNL     1       7.566 -15.510   8.292  1.00  0.00     0.057 A 
ATOM     15  C   UNL     1       7.915 -17.867   7.853  1.00  0.00     0.012 A 
ATOM     16  C   UNL     1       6.228 -15.768   8.625  1.00  0.00     0.157 A 
ATOM     17  C   UNL     1       6.583 -18.125   8.185  1.00  0.00     0.050 A 
ATOM     18  C   UNL     1       5.736 -17.078   8.573  1.00  0.00     0.157 A 
BRANCH  16  19
ATOM     19  O   UNL     1       5.383 -14.728   9.006  1.00  0.00    -0.504 OA
ATOM     20  H   UNL     1       4.388 -14.758   8.818  1.00  0.00     0.293 HD
ENDBRANCH  16  19
BRANCH  18  21
ATOM     21  O   UNL     1       4.407 -17.332   8.906  1.00  0.00    -0.504 OA
ATOM     22  H   UNL     1       3.920 -18.150   8.558  1.00  0.00     0.293 HD
ENDBRANCH  18  21
ENDBRANCH   3  13
BRANCH   9  23
ATOM     23  O   UNL     1      14.258 -13.630   6.754  1.00  0.00    -0.507 OA
ATOM     24  H   UNL     1      14.132 -13.818   5.769  1.00  0.00     0.293 HD
ENDBRANCH   9  23
BRANCH   7  25
ATOM     25  O   UNL     1      14.910 -15.907  10.956  1.00  0.00    -0.508 OA
ATOM     26  H   UNL     1      15.890 -16.132  10.833  1.00  0.00     0.293 HD
ENDBRANCH   7  25
TORSDOF 6
ENDMDL
MODEL 2
REMARK VINA RESULT:    -2.346      1.972      2.169
REMARK INTER + INTRA:          -2.975
REMARK INTER:                  -3.393
REMARK INTRA:                   0.418
REMARK UNBOUND:                -0.149
REMARK SMILES Oc1cc(O)c2c(c1)O[C@@H](c1ccc(O)c(O)c1)[C@H](O)C2
REMARK SMILES IDX 21 1 19 2 10 3 9 4 7 5 8 6 2 7 3 8 4 9 6 10 20 11 11 13
REMARK SMILES IDX 18 14 12 15 16 16 13 17 14 18 17 19 15 21 5 23 1 25
REMARK H PARENT 20 12 17 20 15 22 5 24 1 26
REMARK Flexibility Score: inf
ROOT
ATOM      1  C   UNL     1      10.975 -17.362   6.254  1.00  0.00     0.079 C 
ATOM      2  C   UNL     1       9.487 -17.413   6.652  1.00  0.00     0.164 C 
ATOM      3  C   UNL     1       9.335 -18.099   8.019  1.00  0.00     0.232 C 
ATOM      4  O   UNL     1      10.120 -17.414   8.995  1.00  0.00    -0.482 OA
ATOM      5  C   UNL     1      11.387 -16.897   8.704  1.00  0.00     0.131 A 
ATOM      6  C   UNL     1      12.177 -16.409   9.749  1.00  0.00     0.093 A 
ATOM      7  C   UNL     1      13.451 -15.902   9.491  1.00  0.00     0.122 A 
ATOM      8  C   UNL     1      13.944 -15.890   8.182  1.00  0.00     0.092 A 
ATOM      9  C   UNL     1      13.168 -16.375   7.123  1.00  0.00     0.126 A 
ATOM     10  C   UNL     1      11.858 -16.851   7.374  1.00  0.00     0.039 A 
ENDROOT
BRANCH   2  11
ATOM     11  O   UNL     1       8.760 -18.122   5.681  1.00  0.00    -0.389 OA
ATOM     12  H   UNL     1       8.696 -19.059   6.001  1.00  0.00     0.211 HD
ENDBRANCH   2  11
BRANCH   3  13
ATOM     13  C   UNL     1       7.890 -18.124   8.459  1.00  0.00    -0.001 A 
ATOM     14  C   UNL     1       7.559 -18.124   9.826  1.00  0.00     0.057 A 
ATOM     15  C   UNL     1       6.859 -18.101   7.505  1.00  0.00     0.012 A 
ATOM     16  C   UNL     1       6.217 -18.119  10.233  1.00  0.00     0.157 A 
ATOM     17  C   UNL     1       5.522 -18.097   7.911  1.00  0.00     0.050 A 
ATOM     18  C   UNL     1       5.196 -18.107   9.274  1.00  0.00     0.157 A 
BRANCH  16  19
ATOM     19  O   UNL     1       5.891 -18.123  11.588  1.00  0.00    -0.504 OA
ATOM     20  H   UNL     1       6.069 -18.931  12.173  1.00  0.00     0.293 HD
ENDBRANCH  16  19
BRANCH  18  21
ATOM     21  O   UNL     1       3.863 -18.103   9.682  1.00  0.00    -0.504 OA
ATOM     22  H   UNL     1       3.107 -18.237   9.021  1.00  0.00     0.293 HD
ENDBRANCH  18  21
ENDBRANCH   3  13
BRANCH   9  23
ATOM     23  O   UNL     1      13.729 -16.380   5.844  1.00  0.00    -0.507 OA
ATOM     24  H   UNL     1      14.575 -15.879   5.607  1.00  0.00     0.293 HD
ENDBRANCH   9  23
BRANCH   7  25
ATOM     25  O   UNL     1      14.223 -15.417  10.545  1.00  0.00    -0.508 OA
ATOM     26  H   UNL     1      15.132 -15.811  10.761  1.00  0.00     0.293 HD
ENDBRANCH   7  25
TORSDOF 6
ENDMDL
MODEL 3
REMARK VINA RESULT:    -2.170      2.006      6.881
REMARK INTER + INTRA:          -2.763
REMARK INTER:                  -2.483
REMARK INTRA:                  -0.280
REMARK UNBOUND:                -0.149
REMARK SMILES Oc1cc(O)c2c(c1)O[C@@H](c1ccc(O)c(O)c1)[C@H](O)C2
REMARK SMILES IDX 21 1 19 2 10 3 9 4 7 5 8 6 2 7 3 8 4 9 6 10 20 11 11 13
REMARK SMILES IDX 18 14 12 15 16 16 13 17 14 18 17 19 15 21 5 23 1 25
REMARK H PARENT 20 12 17 20 15 22 5 24 1 26
REMARK Flexibility Score: inf
ROOT
ATOM      1  C   UNL     1       7.344 -17.480   6.496  1.00  0.00     0.079 C 
ATOM      2  C   UNL     1       8.880 -17.570   6.413  1.00  0.00     0.164 C 
ATOM      3  C   UNL     1       9.516 -16.671   7.485  1.00  0.00     0.232 C 
ATOM      4  O   UNL     1       9.032 -17.043   8.777  1.00  0.00    -0.482 OA
ATOM      5  C   UNL     1       7.703 -17.417   8.997  1.00  0.00     0.131 A 
ATOM      6  C   UNL     1       7.253 -17.584  10.310  1.00  0.00     0.093 A 
ATOM      7  C   UNL     1       5.928 -17.942  10.561  1.00  0.00     0.122 A 
ATOM      8  C   UNL     1       5.042 -18.125   9.493  1.00  0.00     0.092 A 
ATOM      9  C   UNL     1       5.474 -17.962   8.172  1.00  0.00     0.126 A 
ATOM     10  C   UNL     1       6.829 -17.642   7.911  1.00  0.00     0.039 A 
ENDROOT
BRANCH   2  11
ATOM     11  O   UNL     1       9.311 -17.166   5.139  1.00  0.00    -0.389 OA
ATOM     12  H   UNL     1       9.117 -16.196   5.066  1.00  0.00     0.211 HD
ENDBRANCH   2  11
BRANCH   3  13
ATOM     13  C   UNL     1      11.022 -16.773   7.461  1.00  0.00    -0.001 A 
ATOM     14  C   UNL     1      11.820 -15.627   7.623  1.00  0.00     0.057 A 
ATOM     15  C   UNL     1      11.645 -18.025   7.321  1.00  0.00     0.012 A 
ATOM     16  C   UNL     1      13.218 -15.726   7.627  1.00  0.00     0.157 A 
ATOM     17  C   UNL     1      13.038 -18.125   7.325  1.00  0.00     0.050 A 
ATOM     18  C   UNL     1      13.829 -16.978   7.476  1.00  0.00     0.157 A 
BRANCH  16  19
ATOM     19  O   UNL     1      14.007 -14.588   7.784  1.00  0.00    -0.504 OA
ATOM     20  H   UNL     1      15.018 -14.642   7.793  1.00  0.00     0.293 HD
ENDBRANCH  16  19
BRANCH  18  21
ATOM     21  O   UNL     1      15.220 -17.074   7.480  1.00  0.00    -0.504 OA
ATOM     22  H   UNL     1      15.807 -16.260   7.342  1.00  0.00     0.293 HD
ENDBRANCH  18  21
ENDBRANCH   3  13
BRANCH   9  23
ATOM     23  O   UNL     1       4.535 -18.114   7.150  1.00  0.00    -0.507 OA
ATOM     24  H   UNL     1       3.557 -17.880   7.254  1.00  0.00     0.293 HD
ENDBRANCH   9  23
BRANCH   7  25
ATOM     25  O   UNL     1       5.498 -18.106  11.876  1.00  0.00    -0.508 OA
ATOM     26  H   UNL     1       4.856 -17.452  12.309  1.00  0.00     0.293 HD
ENDBRANCH   7  25
TORSDOF 6
ENDMDL
MODEL 4
REMARK VINA RESULT:    -1.434      1.439      2.789
REMARK INTER + INTRA:          -1.876
REMARK INTER:                  -1.670
REMARK INTRA:                  -0.206
REMARK UNBOUND:                -0.149
REMARK SMILES Oc1cc(O)c2c(c1)O[C@@H](c1ccc(O)c(O)c1)[C@H](O)C2
REMARK SMILES IDX 21 1 19 2 10 3 9 4 7 5 8 6 2 7 3 8 4 9 6 10 20 11 11 13
REMARK SMILES IDX 18 14 12 15 16 16 13 17 14 18 17 19 15 21 5 23 1 25
REMARK H PARENT 20 12 17 20 15 22 5 24 1 26
REMARK Flexibility Score: inf
ROOT
ATOM      1  C   UNL     1      12.111 -16.497   8.743  1.00  0.00     0.079 C 
ATOM      2  C   UNL     1      10.720 -17.117   8.509  1.00  0.00     0.164 C 
ATOM      3  C   UNL     1       9.638 -16.032   8.621  1.00  0.00     0.232 C 
ATOM      4  O   UNL     1       9.911 -14.978   7.696  1.00  0.00    -0.482 OA
ATOM      5  C   UNL     1      11.210 -14.527   7.441  1.00  0.00     0.131 A 
ATOM      6  C   UNL     1      11.390 -13.373   6.673  1.00  0.00     0.093 A 
ATOM      7  C   UNL     1      12.673 -12.891   6.414  1.00  0.00     0.122 A 
ATOM      8  C   UNL     1      13.786 -13.560   6.935  1.00  0.00     0.092 A 
ATOM      9  C   UNL     1      13.626 -14.717   7.707  1.00  0.00     0.126 A 
ATOM     10  C   UNL     1      12.328 -15.235   7.934  1.00  0.00     0.039 A 
ENDROOT
BRANCH   2  11
ATOM     11  O   UNL     1      10.483 -18.124   9.458  1.00  0.00    -0.389 OA
ATOM     12  H   UNL     1       9.509 -18.317   9.433  1.00  0.00     0.211 HD
ENDBRANCH   2  11
BRANCH   3  13
ATOM     13  C   UNL     1       8.265 -16.599   8.350  1.00  0.00    -0.001 A 
ATOM     14  C   UNL     1       7.136 -16.087   9.013  1.00  0.00     0.057 A 
ATOM     15  C   UNL     1       8.095 -17.617   7.396  1.00  0.00     0.012 A 
ATOM     16  C   UNL     1       5.858 -16.596   8.740  1.00  0.00     0.157 A 
ATOM     17  C   UNL     1       6.823 -18.124   7.124  1.00  0.00     0.050 A 
ATOM     18  C   UNL     1       5.701 -17.618   7.795  1.00  0.00     0.157 A 
BRANCH  16  19
ATOM     19  O   UNL     1       4.741 -16.091   9.401  1.00  0.00    -0.504 OA
ATOM     20  H   UNL     1       4.320 -15.209   9.133  1.00  0.00     0.293 HD
ENDBRANCH  16  19
BRANCH  18  21
ATOM     21  O   UNL     1       4.430 -18.123   7.526  1.00  0.00    -0.504 OA
ATOM     22  H   UNL     1       4.031 -18.874   8.078  1.00  0.00     0.293 HD
ENDBRANCH  18  21
ENDBRANCH   3  13
BRANCH   9  23
ATOM     23  O   UNL     1      14.770 -15.317   8.237  1.00  0.00    -0.507 OA
ATOM     24  H   UNL     1      14.996 -16.295   8.109  1.00  0.00     0.293 HD
ENDBRANCH   9  23
BRANCH   7  25
ATOM     25  O   UNL     1      12.833 -11.740   5.645  1.00  0.00    -0.508 OA
ATOM     26  H   UNL     1      12.162 -10.982   5.680  1.00  0.00     0.293 HD
ENDBRANCH   7  25
TORSDOF 6
ENDMDL
