MODEL 1
REMARK VINA RESULT:    -5.095      0.000      0.000
REMARK INTER + INTRA:          -5.490
REMARK INTER:                  -5.393
REMARK INTRA:                  -0.096
REMARK UNBOUND:                -0.096
REMARK SMILES C=C(C)[C@H]1CC=C(C)C(=O)C1
REMARK SMILES IDX 8 1 7 2 6 3 5 4 4 5 11 6 9 7 10 8 2 9 1 10 3 11
REMARK H PARENT
REMARK Flexibility Score: inf
ROOT
ATOM      1  C   UNL     1     -11.913   0.527  32.268  1.00  0.00     0.048 C 
ATOM      2  C   UNL     1     -12.544   1.060  31.012  1.00  0.00    -0.012 C 
ATOM      3  C   UNL     1     -13.305   0.260  30.245  1.00  0.00    -0.019 C 
ATOM      4  C   UNL     1     -13.892   0.726  28.939  1.00  0.00     0.036 C 
ATOM      5  C   UNL     1     -14.180   2.238  28.967  1.00  0.00     0.025 C 
ATOM      6  C   UNL     1     -12.908   3.019  29.346  1.00  0.00     0.089 C 
ATOM      7  C   UNL     1     -12.304   2.468  30.609  1.00  0.00     0.158 C 
ATOM      8  O   UNL     1     -11.551   3.204  31.302  1.00  0.00    -0.295 OA
ENDROOT
BRANCH   5   9
ATOM      9  C   UNL     1     -14.753   2.721  27.641  1.00  0.00    -0.077 C 
ATOM     10  C   UNL     1     -13.940   2.931  26.593  1.00  0.00     0.008 C 
ATOM     11  C   UNL     1     -16.231   2.971  27.467  1.00  0.00     0.039 C 
ENDBRANCH   5   9
TORSDOF 1
ENDMDL
MODEL 2
REMARK VINA RESULT:    -4.957      1.545      2.407
REMARK INTER + INTRA:          -5.343
REMARK INTER:                  -5.247
REMARK INTRA:                  -0.096
REMARK UNBOUND:                -0.096
REMARK SMILES C=C(C)[C@H]1CC=C(C)C(=O)C1
REMARK SMILES IDX 8 1 7 2 6 3 5 4 4 5 11 6 9 7 10 8 2 9 1 10 3 11
REMARK H PARENT
REMARK Flexibility Score: inf
ROOT
ATOM      1  C   UNL     1     -11.538   0.928  32.905  1.00  0.00     0.048 C 
ATOM      2  C   UNL     1     -12.206   1.318  31.614  1.00  0.00    -0.012 C 
ATOM      3  C   UNL     1     -12.076   2.567  31.136  1.00  0.00    -0.019 C 
ATOM      4  C   UNL     1     -12.791   3.026  29.892  1.00  0.00     0.036 C 
ATOM      5  C   UNL     1     -12.997   1.860  28.907  1.00  0.00     0.025 C 
ATOM      6  C   UNL     1     -13.725   0.694  29.602  1.00  0.00     0.089 C 
ATOM      7  C   UNL     1     -13.030   0.323  30.884  1.00  0.00     0.158 C 
ATOM      8  O   UNL     1     -13.192  -0.834  31.357  1.00  0.00    -0.295 OA
ENDROOT
BRANCH   5   9
ATOM      9  C   UNL     1     -13.738   2.311  27.656  1.00  0.00    -0.077 C 
ATOM     10  C   UNL     1     -15.034   2.655  27.729  1.00  0.00     0.008 C 
ATOM     11  C   UNL     1     -13.048   2.386  26.317  1.00  0.00     0.039 C 
ENDBRANCH   5   9
TORSDOF 1
ENDMDL
MODEL 3
REMARK VINA RESULT:    -4.789      9.811     11.379
REMARK INTER + INTRA:          -5.165
REMARK INTER:                  -5.076
REMARK INTRA:                  -0.090
REMARK UNBOUND:                -0.096
REMARK SMILES C=C(C)[C@H]1CC=C(C)C(=O)C1
REMARK SMILES IDX 8 1 7 2 6 3 5 4 4 5 11 6 9 7 10 8 2 9 1 10 3 11
REMARK H PARENT
REMARK Flexibility Score: inf
ROOT
ATOM      1  C   UNL     1      -1.004  -0.404  26.578  1.00  0.00     0.048 C 
ATOM      2  C   UNL     1      -1.863  -0.153  27.788  1.00  0.00    -0.012 C 
ATOM      3  C   UNL     1      -3.196  -0.302  27.713  1.00  0.00    -0.019 C 
ATOM      4  C   UNL     1      -4.103   0.015  28.874  1.00  0.00     0.036 C 
ATOM      5  C   UNL     1      -3.391  -0.230  30.218  1.00  0.00     0.025 C 
ATOM      6  C   UNL     1      -2.071   0.560  30.277  1.00  0.00     0.089 C 
ATOM      7  C   UNL     1      -1.232   0.284  29.058  1.00  0.00     0.158 C 
ATOM      8  O   UNL     1       0.013   0.470  29.115  1.00  0.00    -0.295 OA
ENDROOT
BRANCH   5   9
ATOM      9  C   UNL     1      -4.294   0.110  31.396  1.00  0.00    -0.077 C 
ATOM     10  C   UNL     1      -5.228  -0.766  31.802  1.00  0.00     0.008 C 
ATOM     11  C   UNL     1      -4.166   1.420  32.133  1.00  0.00     0.039 C 
ENDBRANCH   5   9
TORSDOF 1
ENDMDL
MODEL 4
REMARK VINA RESULT:    -4.548      1.567      4.269
REMARK INTER + INTRA:          -4.910
REMARK INTER:                  -4.813
REMARK INTRA:                  -0.097
REMARK UNBOUND:                -0.096
REMARK SMILES C=C(C)[C@H]1CC=C(C)C(=O)C1
REMARK SMILES IDX 8 1 7 2 6 3 5 4 4 5 11 6 9 7 10 8 2 9 1 10 3 11
REMARK H PARENT
REMARK Flexibility Score: inf
ROOT
ATOM      1  C   UNL     1     -14.186   3.241  26.234  1.00  0.00     0.048 C 
ATOM      2  C   UNL     1     -13.852   2.669  27.585  1.00  0.00    -0.012 C 
ATOM      3  C   UNL     1     -14.066   1.366  27.839  1.00  0.00    -0.019 C 
ATOM      4  C   UNL     1     -13.823   0.767  29.199  1.00  0.00     0.036 C 
ATOM      5  C   UNL     1     -12.688   1.502  29.936  1.00  0.00     0.025 C 
ATOM      6  C   UNL     1     -12.986   3.011  30.009  1.00  0.00     0.089 C 
ATOM      7  C   UNL     1     -13.309   3.554  28.644  1.00  0.00     0.158 C 
ATOM      8  O   UNL     1     -13.153   4.785  28.421  1.00  0.00    -0.295 OA
ENDROOT
BRANCH   5   9
ATOM      9  C   UNL     1     -12.452   0.914  31.321  1.00  0.00    -0.077 C 
ATOM     10  C   UNL     1     -12.732  -0.376  31.562  1.00  0.00     0.008 C 
ATOM     11  C   UNL     1     -11.901   1.754  32.447  1.00  0.00     0.039 C 
ENDBRANCH   5   9
TORSDOF 1
ENDMDL
MODEL 5
REMARK VINA RESULT:    -4.461      9.416     10.885
REMARK INTER + INTRA:          -4.819
REMARK INTER:                  -4.720
REMARK INTRA:                  -0.098
REMARK UNBOUND:                -0.096
REMARK SMILES C=C(C)[C@H]1CC=C(C)C(=O)C1
REMARK SMILES IDX 8 1 7 2 6 3 5 4 4 5 11 6 9 7 10 8 2 9 1 10 3 11
REMARK H PARENT
REMARK Flexibility Score: inf
ROOT
ATOM      1  C   UNL     1      -5.797   0.264  32.226  1.00  0.00     0.048 C 
ATOM      2  C   UNL     1      -4.609   0.205  31.305  1.00  0.00    -0.012 C 
ATOM      3  C   UNL     1      -4.532  -0.748  30.361  1.00  0.00    -0.019 C 
ATOM      4  C   UNL     1      -3.326  -0.896  29.470  1.00  0.00     0.036 C 
ATOM      5  C   UNL     1      -2.646   0.464  29.225  1.00  0.00     0.025 C 
ATOM      6  C   UNL     1      -2.302   1.140  30.565  1.00  0.00     0.089 C 
ATOM      7  C   UNL     1      -3.510   1.190  31.461  1.00  0.00     0.158 C 
ATOM      8  O   UNL     1      -3.559   2.054  32.377  1.00  0.00    -0.295 OA
ENDROOT
BRANCH   5   9
ATOM      9  C   UNL     1      -1.413   0.320  28.343  1.00  0.00    -0.077 C 
ATOM     10  C   UNL     1      -0.192   0.554  28.849  1.00  0.00     0.008 C 
ATOM     11  C   UNL     1      -1.526  -0.087  26.894  1.00  0.00     0.039 C 
ENDBRANCH   5   9
TORSDOF 1
ENDMDL
MODEL 6
REMARK VINA RESULT:    -4.423      8.002      9.813
REMARK INTER + INTRA:          -4.778
REMARK INTER:                  -4.681
REMARK INTRA:                  -0.096
REMARK UNBOUND:                -0.096
REMARK SMILES C=C(C)[C@H]1CC=C(C)C(=O)C1
REMARK SMILES IDX 8 1 7 2 6 3 5 4 4 5 11 6 9 7 10 8 2 9 1 10 3 11
REMARK H PARENT
REMARK Flexibility Score: inf
ROOT
ATOM      1  C   UNL     1     -14.803  11.973  29.612  1.00  0.00     0.048 C 
ATOM      2  C   UNL     1     -13.564  11.378  30.224  1.00  0.00    -0.012 C 
ATOM      3  C   UNL     1     -12.517  12.163  30.529  1.00  0.00    -0.019 C 
ATOM      4  C   UNL     1     -11.227  11.602  31.068  1.00  0.00     0.036 C 
ATOM      5  C   UNL     1     -11.478  10.327  31.894  1.00  0.00     0.025 C 
ATOM      6  C   UNL     1     -12.260   9.294  31.061  1.00  0.00     0.089 C 
ATOM      7  C   UNL     1     -13.495   9.916  30.468  1.00  0.00     0.158 C 
ATOM      8  O   UNL     1     -14.458   9.173  30.138  1.00  0.00    -0.295 OA
ENDROOT
BRANCH   5   9
ATOM      9  C   UNL     1     -10.176   9.741  32.425  1.00  0.00    -0.077 C 
ATOM     10  C   UNL     1      -9.174   9.455  31.579  1.00  0.00     0.008 C 
ATOM     11  C   UNL     1      -9.977   9.471  33.895  1.00  0.00     0.039 C 
ENDBRANCH   5   9
TORSDOF 1
ENDMDL
MODEL 7
REMARK VINA RESULT:    -4.401      9.584     11.207
REMARK INTER + INTRA:          -4.755
REMARK INTER:                  -4.668
REMARK INTRA:                  -0.087
REMARK UNBOUND:                -0.096
REMARK SMILES C=C(C)[C@H]1CC=C(C)C(=O)C1
REMARK SMILES IDX 8 1 7 2 6 3 5 4 4 5 11 6 9 7 10 8 2 9 1 10 3 11
REMARK H PARENT
REMARK Flexibility Score: inf
ROOT
ATOM      1  C   UNL     1      -0.790   0.076  26.701  1.00  0.00     0.048 C 
ATOM      2  C   UNL     1      -1.698   0.066  27.901  1.00  0.00    -0.012 C 
ATOM      3  C   UNL     1      -1.180   0.028  29.141  1.00  0.00    -0.019 C 
ATOM      4  C   UNL     1      -2.048  -0.064  30.368  1.00  0.00     0.036 C 
ATOM      5  C   UNL     1      -3.407   0.624  30.140  1.00  0.00     0.025 C 
ATOM      6  C   UNL     1      -4.098   0.045  28.892  1.00  0.00     0.089 C 
ATOM      7  C   UNL     1      -3.169   0.075  27.709  1.00  0.00     0.158 C 
ATOM      8  O   UNL     1      -3.656   0.062  26.546  1.00  0.00    -0.295 OA
ENDROOT
BRANCH   5   9
ATOM      9  C   UNL     1      -4.299   0.517  31.370  1.00  0.00    -0.077 C 
ATOM     10  C   UNL     1      -4.362   1.532  32.246  1.00  0.00     0.008 C 
ATOM     11  C   UNL     1      -5.129  -0.716  31.634  1.00  0.00     0.039 C 
ENDBRANCH   5   9
TORSDOF 1
ENDMDL
MODEL 8
REMARK VINA RESULT:    -4.368      9.544     11.131
REMARK INTER + INTRA:          -4.720
REMARK INTER:                  -4.625
REMARK INTRA:                  -0.095
REMARK UNBOUND:                -0.096
REMARK SMILES C=C(C)[C@H]1CC=C(C)C(=O)C1
REMARK SMILES IDX 8 1 7 2 6 3 5 4 4 5 11 6 9 7 10 8 2 9 1 10 3 11
REMARK H PARENT
REMARK Flexibility Score: inf
ROOT
ATOM      1  C   UNL     1      -5.466   0.598  32.442  1.00  0.00     0.048 C 
ATOM      2  C   UNL     1      -4.385   0.629  31.397  1.00  0.00    -0.012 C 
ATOM      3  C   UNL     1      -3.365   1.497  31.505  1.00  0.00    -0.019 C 
ATOM      4  C   UNL     1      -2.303   1.620  30.443  1.00  0.00     0.036 C 
ATOM      5  C   UNL     1      -2.077   0.276  29.726  1.00  0.00     0.025 C 
ATOM      6  C   UNL     1      -3.405  -0.262  29.163  1.00  0.00     0.089 C 
ATOM      7  C   UNL     1      -4.463  -0.287  30.232  1.00  0.00     0.158 C 
ATOM      8  O   UNL     1      -5.445  -1.067  30.105  1.00  0.00    -0.295 OA
ENDROOT
BRANCH   5   9
ATOM      9  C   UNL     1      -1.020   0.397  28.636  1.00  0.00    -0.077 C 
ATOM     10  C   UNL     1       0.125   1.055  28.879  1.00  0.00     0.008 C 
ATOM     11  C   UNL     1      -1.225  -0.210  27.270  1.00  0.00     0.039 C 
ENDBRANCH   5   9
TORSDOF 1
ENDMDL
MODEL 9
REMARK VINA RESULT:    -4.332     11.295     12.580
REMARK INTER + INTRA:          -4.682
REMARK INTER:                  -4.584
REMARK INTRA:                  -0.098
REMARK UNBOUND:                -0.096
REMARK SMILES C=C(C)[C@H]1CC=C(C)C(=O)C1
REMARK SMILES IDX 8 1 7 2 6 3 5 4 4 5 11 6 9 7 10 8 2 9 1 10 3 11
REMARK H PARENT
REMARK Flexibility Score: inf
ROOT
ATOM      1  C   UNL     1      -1.568  -0.747  26.587  1.00  0.00     0.048 C 
ATOM      2  C   UNL     1      -1.439  -0.000  27.887  1.00  0.00    -0.012 C 
ATOM      3  C   UNL     1      -0.362   0.769  28.121  1.00  0.00    -0.019 C 
ATOM      4  C   UNL     1      -0.152   1.471  29.437  1.00  0.00     0.036 C 
ATOM      5  C   UNL     1      -1.496   1.836  30.094  1.00  0.00     0.025 C 
ATOM      6  C   UNL     1      -2.380   0.584  30.236  1.00  0.00     0.089 C 
ATOM      7  C   UNL     1      -2.495  -0.137  28.920  1.00  0.00     0.158 C 
ATOM      8  O   UNL     1      -3.481  -0.896  28.720  1.00  0.00    -0.295 OA
ENDROOT
BRANCH   5   9
ATOM      9  C   UNL     1      -1.291   2.527  31.436  1.00  0.00    -0.077 C 
ATOM     10  C   UNL     1      -0.064   2.929  31.805  1.00  0.00     0.008 C 
ATOM     11  C   UNL     1      -2.444   2.777  32.376  1.00  0.00     0.039 C 
ENDBRANCH   5   9
TORSDOF 1
ENDMDL
