MODEL 1
REMARK VINA RESULT:    -3.213      0.000      0.000
REMARK INTER + INTRA:          -3.864
REMARK INTER:                  -3.777
REMARK INTRA:                  -0.088
REMARK UNBOUND:                -0.088
REMARK SMILES CCCCC(=O)[O-]
REMARK SMILES IDX 4 1 5 2 6 3 7 4 3 5 2 6 1 7
REMARK H PARENT
REMARK Flexibility Score: inf
ROOT
ATOM      1  C   UNL     1      33.710  30.588  47.864  1.00  0.00     0.053 C 
ENDROOT
BRANCH   1   2
ATOM      2  C   UNL     1      34.384  31.341  46.759  1.00  0.00     0.041 C 
ATOM      3  O   UNL     1      35.387  32.061  47.003  1.00  0.00    -0.550 OA
ATOM      4  O   UNL     1      33.885  31.273  45.464  1.00  0.00    -0.550 OA
ENDBRANCH   1   2
BRANCH   1   5
ATOM      5  C   UNL     1      33.492  29.114  47.498  1.00  0.00     0.006 C 
BRANCH   5   6
ATOM      6  C   UNL     1      32.003  28.744  47.437  1.00  0.00    -0.003 C 
ATOM      7  C   UNL     1      31.620  28.228  46.053  1.00  0.00     0.004 C 
ENDBRANCH   5   6
ENDBRANCH   1   5
TORSDOF 3
ENDMDL
MODEL 2
REMARK VINA RESULT:    -3.179     11.813     12.684
REMARK INTER + INTRA:          -3.824
REMARK INTER:                  -3.760
REMARK INTRA:                  -0.065
REMARK UNBOUND:                -0.088
REMARK SMILES CCCCC(=O)[O-]
REMARK SMILES IDX 4 1 5 2 6 3 7 4 3 5 2 6 1 7
REMARK H PARENT
REMARK Flexibility Score: inf
ROOT
ATOM      1  C   UNL     1      27.924  40.839  45.311  1.00  0.00     0.053 C 
ENDROOT
BRANCH   1   2
ATOM      2  C   UNL     1      27.451  42.250  45.476  1.00  0.00     0.041 C 
ATOM      3  O   UNL     1      27.663  43.100  44.572  1.00  0.00    -0.550 OA
ATOM      4  O   UNL     1      26.803  42.635  46.644  1.00  0.00    -0.550 OA
ENDBRANCH   1   2
BRANCH   1   5
ATOM      5  C   UNL     1      28.767  40.666  44.041  1.00  0.00     0.006 C 
BRANCH   5   6
ATOM      6  C   UNL     1      30.070  39.899  44.309  1.00  0.00    -0.003 C 
ATOM      7  C   UNL     1      30.436  39.937  45.790  1.00  0.00     0.004 C 
ENDBRANCH   5   6
ENDBRANCH   1   5
TORSDOF 3
ENDMDL
MODEL 3
REMARK VINA RESULT:    -3.169     13.123     13.976
REMARK INTER + INTRA:          -3.812
REMARK INTER:                  -3.707
REMARK INTRA:                  -0.106
REMARK UNBOUND:                -0.088
REMARK SMILES CCCCC(=O)[O-]
REMARK SMILES IDX 4 1 5 2 6 3 7 4 3 5 2 6 1 7
REMARK H PARENT
REMARK Flexibility Score: inf
ROOT
ATOM      1  C   UNL     1      28.027  42.391  45.994  1.00  0.00     0.053 C 
ENDROOT
BRANCH   1   2
ATOM      2  C   UNL     1      27.774  41.079  45.316  1.00  0.00     0.041 C 
ATOM      3  O   UNL     1      26.792  40.370  45.655  1.00  0.00    -0.550 OA
ATOM      4  O   UNL     1      28.643  40.626  44.330  1.00  0.00    -0.550 OA
ENDBRANCH   1   2
BRANCH   1   5
ATOM      5  C   UNL     1      27.281  43.541  45.305  1.00  0.00     0.006 C 
BRANCH   5   6
ATOM      6  C   UNL     1      25.927  43.834  45.968  1.00  0.00    -0.003 C 
ATOM      7  C   UNL     1      26.012  43.682  47.484  1.00  0.00     0.004 C 
ENDBRANCH   5   6
ENDBRANCH   1   5
TORSDOF 3
ENDMDL
MODEL 4
REMARK VINA RESULT:    -3.151     10.421     11.125
REMARK INTER + INTRA:          -3.792
REMARK INTER:                  -3.719
REMARK INTRA:                  -0.073
REMARK UNBOUND:                -0.088
REMARK SMILES CCCCC(=O)[O-]
REMARK SMILES IDX 4 1 5 2 6 3 7 4 3 5 2 6 1 7
REMARK H PARENT
REMARK Flexibility Score: inf
ROOT
ATOM      1  C   UNL     1      28.711  40.346  44.233  1.00  0.00     0.053 C 
ENDROOT
BRANCH   1   2
ATOM      2  C   UNL     1      27.996  40.932  45.411  1.00  0.00     0.041 C 
ATOM      3  O   UNL     1      26.781  40.672  45.608  1.00  0.00    -0.550 OA
ATOM      4  O   UNL     1      28.665  41.793  46.274  1.00  0.00    -0.550 OA
ENDBRANCH   1   2
BRANCH   1   5
ATOM      5  C   UNL     1      29.755  39.305  44.660  1.00  0.00     0.006 C 
BRANCH   5   6
ATOM      6  C   UNL     1      29.109  38.057  45.280  1.00  0.00    -0.003 C 
ATOM      7  C   UNL     1      29.147  36.879  44.311  1.00  0.00     0.004 C 
ENDBRANCH   5   6
ENDBRANCH   1   5
TORSDOF 3
ENDMDL
MODEL 5
REMARK VINA RESULT:    -2.975     14.664     15.014
REMARK INTER + INTRA:          -3.585
REMARK INTER:                  -3.542
REMARK INTRA:                  -0.042
REMARK UNBOUND:                -0.088
REMARK SMILES CCCCC(=O)[O-]
REMARK SMILES IDX 4 1 5 2 6 3 7 4 3 5 2 6 1 7
REMARK H PARENT
REMARK Flexibility Score: inf
ROOT
ATOM      1  C   UNL     1      18.294  33.084  44.959  1.00  0.00     0.053 C 
ENDROOT
BRANCH   1   2
ATOM      2  C   UNL     1      18.943  34.099  45.851  1.00  0.00     0.041 C 
ATOM      3  O   UNL     1      18.701  34.102  47.086  1.00  0.00    -0.550 OA
ATOM      4  O   UNL     1      19.789  35.060  45.312  1.00  0.00    -0.550 OA
ENDBRANCH   1   2
BRANCH   1   5
ATOM      5  C   UNL     1      19.327  32.321  44.120  1.00  0.00     0.006 C 
BRANCH   5   6
ATOM      6  C   UNL     1      18.913  30.863  43.876  1.00  0.00    -0.003 C 
ATOM      7  C   UNL     1      18.661  30.134  45.194  1.00  0.00     0.004 C 
ENDBRANCH   5   6
ENDBRANCH   1   5
TORSDOF 3
ENDMDL
MODEL 6
REMARK VINA RESULT:    -2.962     11.452     12.388
REMARK INTER + INTRA:          -3.569
REMARK INTER:                  -3.541
REMARK INTRA:                  -0.029
REMARK UNBOUND:                -0.088
REMARK SMILES CCCCC(=O)[O-]
REMARK SMILES IDX 4 1 5 2 6 3 7 4 3 5 2 6 1 7
REMARK H PARENT
REMARK Flexibility Score: inf
ROOT
ATOM      1  C   UNL     1      28.452  40.520  44.233  1.00  0.00     0.053 C 
ENDROOT
BRANCH   1   2
ATOM      2  C   UNL     1      29.469  39.576  44.798  1.00  0.00     0.041 C 
ATOM      3  O   UNL     1      29.297  38.333  44.709  1.00  0.00    -0.550 OA
ATOM      4  O   UNL     1      30.592  40.071  45.450  1.00  0.00    -0.550 OA
ENDBRANCH   1   2
BRANCH   1   5
ATOM      5  C   UNL     1      27.752  41.328  45.334  1.00  0.00     0.006 C 
BRANCH   5   6
ATOM      6  C   UNL     1      27.619  42.813  44.968  1.00  0.00    -0.003 C 
ATOM      7  C   UNL     1      26.512  43.483  45.778  1.00  0.00     0.004 C 
ENDBRANCH   5   6
ENDBRANCH   1   5
TORSDOF 3
ENDMDL
MODEL 7
REMARK VINA RESULT:    -2.951     21.005     21.949
REMARK INTER + INTRA:          -3.556
REMARK INTER:                  -3.492
REMARK INTRA:                  -0.064
REMARK UNBOUND:                -0.088
REMARK SMILES CCCCC(=O)[O-]
REMARK SMILES IDX 4 1 5 2 6 3 7 4 3 5 2 6 1 7
REMARK H PARENT
REMARK Flexibility Score: inf
ROOT
ATOM      1  C   UNL     1      28.507  43.853  62.911  1.00  0.00     0.053 C 
ENDROOT
BRANCH   1   2
ATOM      2  C   UNL     1      28.734  45.334  62.956  1.00  0.00     0.041 C 
ATOM      3  O   UNL     1      29.852  45.814  62.635  1.00  0.00    -0.550 OA
ATOM      4  O   UNL     1      27.718  46.180  63.383  1.00  0.00    -0.550 OA
ENDBRANCH   1   2
BRANCH   1   5
ATOM      5  C   UNL     1      29.123  43.146  64.125  1.00  0.00     0.006 C 
BRANCH   5   6
ATOM      6  C   UNL     1      30.325  42.272  63.740  1.00  0.00    -0.003 C 
ATOM      7  C   UNL     1      30.619  42.368  62.245  1.00  0.00     0.004 C 
ENDBRANCH   5   6
ENDBRANCH   1   5
TORSDOF 3
ENDMDL
MODEL 8
REMARK VINA RESULT:    -2.908     20.698     21.697
REMARK INTER + INTRA:          -3.506
REMARK INTER:                  -3.405
REMARK INTRA:                  -0.101
REMARK UNBOUND:                -0.088
REMARK SMILES CCCCC(=O)[O-]
REMARK SMILES IDX 4 1 5 2 6 3 7 4 3 5 2 6 1 7
REMARK H PARENT
REMARK Flexibility Score: inf
ROOT
ATOM      1  C   UNL     1      29.545  44.282  61.794  1.00  0.00     0.053 C 
ENDROOT
BRANCH   1   2
ATOM      2  C   UNL     1      30.173  43.155  62.555  1.00  0.00     0.041 C 
ATOM      3  O   UNL     1      31.203  42.585  62.109  1.00  0.00    -0.550 OA
ATOM      4  O   UNL     1      29.602  42.713  63.743  1.00  0.00    -0.550 OA
ENDBRANCH   1   2
BRANCH   1   5
ATOM      5  C   UNL     1      29.547  45.586  62.603  1.00  0.00     0.006 C 
BRANCH   5   6
ATOM      6  C   UNL     1      28.164  45.908  63.188  1.00  0.00    -0.003 C 
ATOM      7  C   UNL     1      27.053  45.286  62.347  1.00  0.00     0.004 C 
ENDBRANCH   5   6
ENDBRANCH   1   5
TORSDOF 3
ENDMDL
