MODEL 1
REMARK VINA RESULT:    -2.112      0.000      0.000
REMARK INTER + INTRA:          -2.349
REMARK INTER:                  -2.297
REMARK INTRA:                  -0.052
REMARK UNBOUND:                -0.052
REMARK SMILES CCc1cccc(O)c1
REMARK SMILES IDX 3 1 9 2 7 3 6 4 5 5 4 6 2 7 1 8 8 9
REMARK H PARENT 8 10
REMARK Flexibility Score: inf
ROOT
ATOM      1  C   UNL     1     138.997 128.995 127.449  1.00  0.00    -0.045 A 
ATOM      2  C   UNL     1     140.050 129.923 127.395  1.00  0.00     0.049 A 
ATOM      3  C   UNL     1     140.099 130.992 128.302  1.00  0.00     0.115 A 
ATOM      4  C   UNL     1     139.098 131.129 129.269  1.00  0.00     0.046 A 
ATOM      5  C   UNL     1     138.054 130.202 129.336  1.00  0.00     0.004 A 
ATOM      6  C   UNL     1     138.005 129.136 128.433  1.00  0.00     0.004 A 
ENDROOT
BRANCH   1   7
ATOM      7  C   UNL     1     138.962 127.829 126.497  1.00  0.00     0.032 C 
ATOM      8  C   UNL     1     140.262 127.740 125.705  1.00  0.00     0.009 C 
ENDBRANCH   1   7
BRANCH   3   9
ATOM      9  O   UNL     1     141.137 131.920 128.250  1.00  0.00    -0.508 OA
ATOM     10  H   UNL     1     141.776 132.042 129.026  1.00  0.00     0.293 HD
ENDBRANCH   3   9
TORSDOF 2
ENDMDL
MODEL 2
REMARK VINA RESULT:    -2.076      1.499      2.192
REMARK INTER + INTRA:          -2.310
REMARK INTER:                  -2.235
REMARK INTRA:                  -0.075
REMARK UNBOUND:                -0.052
REMARK SMILES CCc1cccc(O)c1
REMARK SMILES IDX 3 1 9 2 7 3 6 4 5 5 4 6 2 7 1 8 8 9
REMARK H PARENT 8 10
REMARK Flexibility Score: inf
ROOT
ATOM      1  C   UNL     1     139.211 128.955 127.361  1.00  0.00    -0.045 A 
ATOM      2  C   UNL     1     138.367 129.101 128.474  1.00  0.00     0.049 A 
ATOM      3  C   UNL     1     138.453 130.245 129.282  1.00  0.00     0.115 A 
ATOM      4  C   UNL     1     139.377 131.247 128.972  1.00  0.00     0.046 A 
ATOM      5  C   UNL     1     140.211 131.113 127.857  1.00  0.00     0.004 A 
ATOM      6  C   UNL     1     140.125 129.975 127.051  1.00  0.00     0.004 A 
ENDROOT
BRANCH   1   7
ATOM      7  C   UNL     1     139.096 127.743 126.475  1.00  0.00     0.032 C 
ATOM      8  C   UNL     1     140.278 127.663 125.515  1.00  0.00     0.009 C 
ENDBRANCH   1   7
BRANCH   3   9
ATOM      9  O   UNL     1     137.624 130.394 130.393  1.00  0.00    -0.508 OA
ATOM     10  H   UNL     1     137.588 129.693 131.123  1.00  0.00     0.293 HD
ENDBRANCH   3   9
TORSDOF 2
ENDMDL
MODEL 3
REMARK VINA RESULT:    -1.821      1.787      3.415
REMARK INTER + INTRA:          -2.032
REMARK INTER:                  -1.981
REMARK INTRA:                  -0.052
REMARK UNBOUND:                -0.052
REMARK SMILES CCc1cccc(O)c1
REMARK SMILES IDX 3 1 9 2 7 3 6 4 5 5 4 6 2 7 1 8 8 9
REMARK H PARENT 8 10
REMARK Flexibility Score: inf
ROOT
ATOM      1  C   UNL     1     140.061 130.659 127.803  1.00  0.00    -0.045 A 
ATOM      2  C   UNL     1     139.264 130.960 128.920  1.00  0.00     0.049 A 
ATOM      3  C   UNL     1     138.232 130.093 129.307  1.00  0.00     0.115 A 
ATOM      4  C   UNL     1     138.000 128.921 128.581  1.00  0.00     0.046 A 
ATOM      5  C   UNL     1     138.798 128.610 127.476  1.00  0.00     0.004 A 
ATOM      6  C   UNL     1     139.828 129.472 127.091  1.00  0.00     0.004 A 
ENDROOT
BRANCH   1   7
ATOM      7  C   UNL     1     141.191 131.573 127.409  1.00  0.00     0.032 C 
ATOM      8  C   UNL     1     141.508 132.555 128.531  1.00  0.00     0.009 C 
ENDBRANCH   1   7
BRANCH   3   9
ATOM      9  O   UNL     1     137.432 130.387 130.410  1.00  0.00    -0.508 OA
ATOM     10  H   UNL     1     136.422 130.418 130.338  1.00  0.00     0.293 HD
ENDBRANCH   3   9
TORSDOF 2
ENDMDL
MODEL 4
REMARK VINA RESULT:    -1.557      1.842      3.303
REMARK INTER + INTRA:          -1.746
REMARK INTER:                  -1.695
REMARK INTRA:                  -0.050
REMARK UNBOUND:                -0.052
REMARK SMILES CCc1cccc(O)c1
REMARK SMILES IDX 3 1 9 2 7 3 6 4 5 5 4 6 2 7 1 8 8 9
REMARK H PARENT 8 10
REMARK Flexibility Score: inf
ROOT
ATOM      1  C   UNL     1     139.782 130.968 128.345  1.00  0.00    -0.045 A 
ATOM      2  C   UNL     1     140.099 130.009 127.370  1.00  0.00     0.049 A 
ATOM      3  C   UNL     1     139.294 128.872 127.207  1.00  0.00     0.115 A 
ATOM      4  C   UNL     1     138.166 128.698 128.015  1.00  0.00     0.046 A 
ATOM      5  C   UNL     1     137.839 129.655 128.980  1.00  0.00     0.004 A 
ATOM      6  C   UNL     1     138.639 130.789 129.141  1.00  0.00     0.004 A 
ENDROOT
BRANCH   1   7
ATOM      7  C   UNL     1     140.627 132.205 128.497  1.00  0.00     0.032 C 
ATOM      8  C   UNL     1     141.979 132.022 127.815  1.00  0.00     0.009 C 
ENDBRANCH   1   7
BRANCH   3   9
ATOM      9  O   UNL     1     139.606 127.912 126.246  1.00  0.00    -0.508 OA
ATOM     10  H   UNL     1     139.888 128.174 125.309  1.00  0.00     0.293 HD
ENDBRANCH   3   9
TORSDOF 2
ENDMDL
MODEL 5
REMARK VINA RESULT:    -0.734      1.830      3.699
REMARK INTER + INTRA:          -0.850
REMARK INTER:                  -0.782
REMARK INTRA:                  -0.068
REMARK UNBOUND:                -0.052
REMARK SMILES CCc1cccc(O)c1
REMARK SMILES IDX 3 1 9 2 7 3 6 4 5 5 4 6 2 7 1 8 8 9
REMARK H PARENT 8 10
REMARK Flexibility Score: inf
ROOT
ATOM      1  C   UNL     1     138.484 130.096 129.092  1.00  0.00    -0.045 A 
ATOM      2  C   UNL     1     138.584 129.018 128.197  1.00  0.00     0.049 A 
ATOM      3  C   UNL     1     139.502 129.061 127.138  1.00  0.00     0.115 A 
ATOM      4  C   UNL     1     140.326 130.178 126.977  1.00  0.00     0.046 A 
ATOM      5  C   UNL     1     140.241 131.249 127.872  1.00  0.00     0.004 A 
ATOM      6  C   UNL     1     139.327 131.207 128.929  1.00  0.00     0.004 A 
ENDROOT
BRANCH   1   7
ATOM      7  C   UNL     1     137.523 130.036 130.249  1.00  0.00     0.032 C 
ATOM      8  C   UNL     1     138.236 130.348 131.560  1.00  0.00     0.009 C 
ENDBRANCH   1   7
BRANCH   3   9
ATOM      9  O   UNL     1     139.602 127.998 126.241  1.00  0.00    -0.508 OA
ATOM     10  H   UNL     1     139.275 127.070 126.483  1.00  0.00     0.293 HD
ENDBRANCH   3   9
TORSDOF 2
ENDMDL
MODEL 6
REMARK VINA RESULT:    -0.603      1.052      2.828
REMARK INTER + INTRA:          -0.708
REMARK INTER:                  -0.632
REMARK INTRA:                  -0.076
REMARK UNBOUND:                -0.052
REMARK SMILES CCc1cccc(O)c1
REMARK SMILES IDX 3 1 9 2 7 3 6 4 5 5 4 6 2 7 1 8 8 9
REMARK H PARENT 8 10
REMARK Flexibility Score: inf
ROOT
ATOM      1  C   UNL     1     138.321 129.974 128.889  1.00  0.00    -0.045 A 
ATOM      2  C   UNL     1     139.179 131.053 129.154  1.00  0.00     0.049 A 
ATOM      3  C   UNL     1     140.335 131.244 128.382  1.00  0.00     0.115 A 
ATOM      4  C   UNL     1     140.627 130.361 127.339  1.00  0.00     0.046 A 
ATOM      5  C   UNL     1     139.769 129.292 127.062  1.00  0.00     0.004 A 
ATOM      6  C   UNL     1     138.617 129.102 127.830  1.00  0.00     0.004 A 
ENDROOT
BRANCH   1   7
ATOM      7  C   UNL     1     137.063 129.788 129.697  1.00  0.00     0.032 C 
ATOM      8  C   UNL     1     136.202 128.677 129.106  1.00  0.00     0.009 C 
ENDBRANCH   1   7
BRANCH   3   9
ATOM      9  O   UNL     1     141.196 132.309 128.643  1.00  0.00    -0.508 OA
ATOM     10  H   UNL     1     142.201 132.186 128.654  1.00  0.00     0.293 HD
ENDBRANCH   3   9
TORSDOF 2
ENDMDL
MODEL 7
REMARK VINA RESULT:     0.761      2.394      3.264
REMARK INTER + INTRA:           0.776
REMARK INTER:                   0.849
REMARK INTRA:                  -0.073
REMARK UNBOUND:                -0.052
REMARK SMILES CCc1cccc(O)c1
REMARK SMILES IDX 3 1 9 2 7 3 6 4 5 5 4 6 2 7 1 8 8 9
REMARK H PARENT 8 10
REMARK Flexibility Score: inf
ROOT
ATOM      1  C   UNL     1     139.550 130.542 128.091  1.00  0.00    -0.045 A 
ATOM      2  C   UNL     1     138.696 129.444 127.897  1.00  0.00     0.049 A 
ATOM      3  C   UNL     1     137.760 129.094 128.882  1.00  0.00     0.115 A 
ATOM      4  C   UNL     1     137.672 129.846 130.057  1.00  0.00     0.046 A 
ATOM      5  C   UNL     1     138.512 130.948 130.249  1.00  0.00     0.004 A 
ATOM      6  C   UNL     1     139.443 131.299 129.268  1.00  0.00     0.004 A 
ENDROOT
BRANCH   1   7
ATOM      7  C   UNL     1     140.532 130.938 127.020  1.00  0.00     0.032 C 
ATOM      8  C   UNL     1     141.654 131.788 127.605  1.00  0.00     0.009 C 
ENDBRANCH   1   7
BRANCH   3   9
ATOM      9  O   UNL     1     136.913 128.002 128.700  1.00  0.00    -0.508 OA
ATOM     10  H   UNL     1     135.954 128.016 129.028  1.00  0.00     0.293 HD
ENDBRANCH   3   9
TORSDOF 2
ENDMDL
