MODEL 1
REMARK VINA RESULT:    -3.792      0.000      0.000
REMARK INTER + INTRA:          -5.641
REMARK INTER:                  -5.122
REMARK INTRA:                  -0.520
REMARK UNBOUND:                -0.520
REMARK SMILES C[C@H](O)[C@H](O)[C@H](O)[C@@H](O)C=O
REMARK SMILES IDX 4 1 2 2 1 3 3 4 6 6 8 7 10 8 11 9 9 10 7 12 5 14
REMARK H PARENT 3 5 9 11 7 13 5 15
REMARK Flexibility Score: inf
ROOT
ATOM      1  C   UNL     1      71.074  30.833  61.235  1.00  0.00     0.174 C 
ENDROOT
BRANCH   1   2
ATOM      2  C   UNL     1      71.596  29.688  62.143  1.00  0.00     0.142 C 
ATOM      3  C   UNL     1      70.695  28.448  62.061  1.00  0.00     0.041 C 
BRANCH   2   4
ATOM      4  O   UNL     1      71.630  30.125  63.477  1.00  0.00    -0.391 OA
ATOM      5  H   UNL     1      71.867  31.089  63.460  1.00  0.00     0.211 HD
ENDBRANCH   2   4
ENDBRANCH   1   2
BRANCH   1   6
ATOM      6  C   UNL     1      72.173  31.841  60.798  1.00  0.00     0.181 C 
BRANCH   6   7
ATOM      7  C   UNL     1      71.619  33.224  60.370  1.00  0.00     0.209 C 
BRANCH   7   8
ATOM      8  C   UNL     1      71.576  33.338  58.868  1.00  0.00     0.258 C 
ATOM      9  O   UNL     1      71.861  32.379  58.168  1.00  0.00    -0.300 OA
ENDBRANCH   7   8
BRANCH   7  10
ATOM     10  O   UNL     1      72.434  34.248  60.883  1.00  0.00    -0.383 OA
ATOM     11  H   UNL     1      73.233  33.809  61.278  1.00  0.00     0.211 HD
ENDBRANCH   7  10
ENDBRANCH   6   7
BRANCH   6  12
ATOM     12  O   UNL     1      73.123  31.983  61.826  1.00  0.00    -0.387 OA
ATOM     13  H   UNL     1      73.396  32.938  61.836  1.00  0.00     0.211 HD
ENDBRANCH   6  12
ENDBRANCH   1   6
BRANCH   1  14
ATOM     14  O   UNL     1      70.492  30.285  60.077  1.00  0.00    -0.388 OA
ATOM     15  H   UNL     1      69.684  29.786  60.364  1.00  0.00     0.211 HD
ENDBRANCH   1  14
TORSDOF 8
ENDMDL
MODEL 2
REMARK VINA RESULT:    -3.647     20.125     22.072
REMARK INTER + INTRA:          -5.446
REMARK INTER:                  -4.928
REMARK INTRA:                  -0.518
REMARK UNBOUND:                -0.520
REMARK SMILES C[C@H](O)[C@H](O)[C@H](O)[C@@H](O)C=O
REMARK SMILES IDX 4 1 2 2 1 3 3 4 6 6 8 7 10 8 11 9 9 10 7 12 5 14
REMARK H PARENT 3 5 9 11 7 13 5 15
REMARK Flexibility Score: inf
ROOT
ATOM      1  C   UNL     1      58.441  19.200  49.851  1.00  0.00     0.174 C 
ENDROOT
BRANCH   1   2
ATOM      2  C   UNL     1      59.564  18.524  49.019  1.00  0.00     0.142 C 
ATOM      3  C   UNL     1      60.909  19.240  49.202  1.00  0.00     0.041 C 
BRANCH   2   4
ATOM      4  O   UNL     1      59.224  18.560  47.657  1.00  0.00    -0.391 OA
ATOM      5  H   UNL     1      58.321  18.156  47.573  1.00  0.00     0.211 HD
ENDBRANCH   2   4
ENDBRANCH   1   2
BRANCH   1   6
ATOM      6  C   UNL     1      57.315  18.226  50.295  1.00  0.00     0.181 C 
BRANCH   6   7
ATOM      7  C   UNL     1      55.976  18.930  50.635  1.00  0.00     0.209 C 
BRANCH   7   8
ATOM      8  C   UNL     1      55.852  19.149  52.121  1.00  0.00     0.258 C 
ATOM      9  O   UNL     1      56.501  20.022  52.673  1.00  0.00    -0.300 OA
ENDBRANCH   7   8
BRANCH   7  10
ATOM     10  O   UNL     1      54.896  18.146  50.195  1.00  0.00    -0.383 OA
ATOM     11  H   UNL     1      54.649  18.476  49.292  1.00  0.00     0.211 HD
ENDBRANCH   7  10
ENDBRANCH   6   7
BRANCH   6  12
ATOM     12  O   UNL     1      57.122  17.241  49.310  1.00  0.00    -0.387 OA
ATOM     13  H   UNL     1      56.621  16.498  49.738  1.00  0.00     0.211 HD
ENDBRANCH   6  12
ENDBRANCH   1   6
BRANCH   1  14
ATOM     14  O   UNL     1      58.999  19.785  51.003  1.00  0.00    -0.388 OA
ATOM     15  H   UNL     1      58.296  19.778  51.704  1.00  0.00     0.211 HD
ENDBRANCH   1  14
TORSDOF 8
ENDMDL
MODEL 3
REMARK VINA RESULT:    -3.641     20.119     22.002
REMARK INTER + INTRA:          -5.437
REMARK INTER:                  -4.803
REMARK INTRA:                  -0.634
REMARK UNBOUND:                -0.520
REMARK SMILES C[C@H](O)[C@H](O)[C@H](O)[C@@H](O)C=O
REMARK SMILES IDX 4 1 2 2 1 3 3 4 6 6 8 7 10 8 11 9 9 10 7 12 5 14
REMARK H PARENT 3 5 9 11 7 13 5 15
REMARK Flexibility Score: inf
ROOT
ATOM      1  C   UNL     1      58.672  19.145  49.814  1.00  0.00     0.174 C 
ENDROOT
BRANCH   1   2
ATOM      2  C   UNL     1      59.752  19.016  48.706  1.00  0.00     0.142 C 
ATOM      3  C   UNL     1      60.450  20.357  48.440  1.00  0.00     0.041 C 
BRANCH   2   4
ATOM      4  O   UNL     1      59.150  18.585  47.513  1.00  0.00    -0.391 OA
ATOM      5  H   UNL     1      59.389  17.628  47.398  1.00  0.00     0.211 HD
ENDBRANCH   2   4
ENDBRANCH   1   2
BRANCH   1   6
ATOM      6  C   UNL     1      58.011  17.796  50.208  1.00  0.00     0.181 C 
BRANCH   6   7
ATOM      7  C   UNL     1      56.992  17.914  51.370  1.00  0.00     0.209 C 
BRANCH   7   8
ATOM      8  C   UNL     1      55.983  18.996  51.085  1.00  0.00     0.258 C 
ATOM      9  O   UNL     1      55.093  18.812  50.271  1.00  0.00    -0.300 OA
ENDBRANCH   7   8
BRANCH   7  10
ATOM     10  O   UNL     1      57.662  18.216  52.568  1.00  0.00    -0.383 OA
ATOM     11  H   UNL     1      56.963  18.389  53.253  1.00  0.00     0.211 HD
ENDBRANCH   7  10
ENDBRANCH   6   7
BRANCH   6  12
ATOM     12  O   UNL     1      57.410  17.212  49.078  1.00  0.00    -0.387 OA
ATOM     13  H   UNL     1      57.348  16.237  49.255  1.00  0.00     0.211 HD
ENDBRANCH   6  12
ENDBRANCH   1   6
BRANCH   1  14
ATOM     14  O   UNL     1      59.250  19.707  50.968  1.00  0.00    -0.388 OA
ATOM     15  H   UNL     1      59.876  19.033  51.340  1.00  0.00     0.211 HD
ENDBRANCH   1  14
TORSDOF 8
ENDMDL
MODEL 4
REMARK VINA RESULT:    -3.586      1.227      4.168
REMARK INTER + INTRA:          -5.364
REMARK INTER:                  -4.530
REMARK INTRA:                  -0.833
REMARK UNBOUND:                -0.520
REMARK SMILES C[C@H](O)[C@H](O)[C@H](O)[C@@H](O)C=O
REMARK SMILES IDX 4 1 2 2 1 3 3 4 6 6 8 7 10 8 11 9 9 10 7 12 5 14
REMARK H PARENT 3 5 9 11 7 13 5 15
REMARK Flexibility Score: inf
ROOT
ATOM      1  C   UNL     1      71.707  31.684  60.926  1.00  0.00     0.174 C 
ENDROOT
BRANCH   1   2
ATOM      2  C   UNL     1      71.349  31.977  59.445  1.00  0.00     0.142 C 
ATOM      3  C   UNL     1      71.274  33.486  59.170  1.00  0.00     0.041 C 
BRANCH   2   4
ATOM      4  O   UNL     1      70.101  31.409  59.142  1.00  0.00    -0.391 OA
ATOM      5  H   UNL     1      69.475  32.160  58.969  1.00  0.00     0.211 HD
ENDBRANCH   2   4
ENDBRANCH   1   2
BRANCH   1   6
ATOM      6  C   UNL     1      72.196  30.231  61.179  1.00  0.00     0.181 C 
BRANCH   6   7
ATOM      7  C   UNL     1      71.587  29.577  62.445  1.00  0.00     0.209 C 
BRANCH   7   8
ATOM      8  C   UNL     1      70.081  29.609  62.388  1.00  0.00     0.258 C 
ATOM      9  O   UNL     1      69.495  29.290  61.366  1.00  0.00    -0.300 OA
ENDBRANCH   7   8
BRANCH   7  10
ATOM     10  O   UNL     1      72.016  30.263  63.595  1.00  0.00    -0.383 OA
ATOM     11  H   UNL     1      72.158  29.580  64.301  1.00  0.00     0.211 HD
ENDBRANCH   7  10
ENDBRANCH   6   7
BRANCH   6  12
ATOM     12  O   UNL     1      71.946  29.440  60.043  1.00  0.00    -0.387 OA
ATOM     13  H   UNL     1      72.400  28.569  60.191  1.00  0.00     0.211 HD
ENDBRANCH   6  12
ENDBRANCH   1   6
BRANCH   1  14
ATOM     14  O   UNL     1      72.716  32.569  61.348  1.00  0.00    -0.388 OA
ATOM     15  H   UNL     1      73.153  32.925  60.532  1.00  0.00     0.211 HD
ENDBRANCH   1  14
TORSDOF 8
ENDMDL
MODEL 5
REMARK VINA RESULT:    -3.555     19.970     21.223
REMARK INTER + INTRA:          -5.322
REMARK INTER:                  -4.489
REMARK INTRA:                  -0.832
REMARK UNBOUND:                -0.520
REMARK SMILES C[C@H](O)[C@H](O)[C@H](O)[C@@H](O)C=O
REMARK SMILES IDX 4 1 2 2 1 3 3 4 6 6 8 7 10 8 11 9 9 10 7 12 5 14
REMARK H PARENT 3 5 9 11 7 13 5 15
REMARK Flexibility Score: inf
ROOT
ATOM      1  C   UNL     1      57.721  18.655  50.106  1.00  0.00     0.174 C 
ENDROOT
BRANCH   1   2
ATOM      2  C   UNL     1      57.398  18.992  51.586  1.00  0.00     0.142 C 
ATOM      3  C   UNL     1      55.887  19.116  51.820  1.00  0.00     0.041 C 
BRANCH   2   4
ATOM      4  O   UNL     1      58.002  20.213  51.931  1.00  0.00    -0.391 OA
ATOM      5  H   UNL     1      58.630  20.024  52.677  1.00  0.00     0.211 HD
ENDBRANCH   2   4
ENDBRANCH   1   2
BRANCH   1   6
ATOM      6  C   UNL     1      59.179  18.173  49.874  1.00  0.00     0.181 C 
BRANCH   6   7
ATOM      7  C   UNL     1      59.846  18.779  48.612  1.00  0.00     0.209 C 
BRANCH   7   8
ATOM      8  C   UNL     1      59.874  20.283  48.696  1.00  0.00     0.258 C 
ATOM      9  O   UNL     1      60.192  20.838  49.736  1.00  0.00    -0.300 OA
ENDBRANCH   7   8
BRANCH   7  10
ATOM     10  O   UNL     1      59.133  18.398  47.462  1.00  0.00    -0.383 OA
ATOM     11  H   UNL     1      59.486  17.512  47.185  1.00  0.00     0.211 HD
ENDBRANCH   7  10
ENDBRANCH   6   7
BRANCH   6  12
ATOM     12  O   UNL     1      59.954  18.433  51.018  1.00  0.00    -0.387 OA
ATOM     13  H   UNL     1      60.906  18.345  50.749  1.00  0.00     0.211 HD
ENDBRANCH   6  12
ENDBRANCH   1   6
BRANCH   1  14
ATOM     14  O   UNL     1      56.846  17.650  49.653  1.00  0.00    -0.388 OA
ATOM     15  H   UNL     1      57.381  17.026  49.097  1.00  0.00     0.211 HD
ENDBRANCH   1  14
TORSDOF 8
ENDMDL
MODEL 6
REMARK VINA RESULT:    -3.543     19.993     21.973
REMARK INTER + INTRA:          -5.305
REMARK INTER:                  -4.939
REMARK INTRA:                  -0.366
REMARK UNBOUND:                -0.520
REMARK SMILES C[C@H](O)[C@H](O)[C@H](O)[C@@H](O)C=O
REMARK SMILES IDX 4 1 2 2 1 3 3 4 6 6 8 7 10 8 11 9 9 10 7 12 5 14
REMARK H PARENT 3 5 9 11 7 13 5 15
REMARK Flexibility Score: inf
ROOT
ATOM      1  C   UNL     1      59.493  17.984  48.837  1.00  0.00     0.174 C 
ENDROOT
BRANCH   1   2
ATOM      2  C   UNL     1      59.830  19.337  49.519  1.00  0.00     0.142 C 
ATOM      3  C   UNL     1      60.319  20.376  48.501  1.00  0.00     0.041 C 
BRANCH   2   4
ATOM      4  O   UNL     1      60.841  19.142  50.474  1.00  0.00    -0.391 OA
ATOM      5  H   UNL     1      61.459  19.916  50.403  1.00  0.00     0.211 HD
ENDBRANCH   2   4
ENDBRANCH   1   2
BRANCH   1   6
ATOM      6  C   UNL     1      58.263  17.260  49.448  1.00  0.00     0.181 C 
BRANCH   6   7
ATOM      7  C   UNL     1      57.520  18.090  50.527  1.00  0.00     0.209 C 
BRANCH   7   8
ATOM      8  C   UNL     1      57.834  17.572  51.907  1.00  0.00     0.258 C 
ATOM      9  O   UNL     1      58.966  17.654  52.354  1.00  0.00    -0.300 OA
ENDBRANCH   7   8
BRANCH   7  10
ATOM     10  O   UNL     1      56.132  18.020  50.316  1.00  0.00    -0.383 OA
ATOM     11  H   UNL     1      55.991  17.446  49.517  1.00  0.00     0.211 HD
ENDBRANCH   7  10
ENDBRANCH   6   7
BRANCH   6  12
ATOM     12  O   UNL     1      57.380  16.875  48.423  1.00  0.00    -0.387 OA
ATOM     13  H   UNL     1      56.790  17.654  48.241  1.00  0.00     0.211 HD
ENDBRANCH   6  12
ENDBRANCH   1   6
BRANCH   1  14
ATOM     14  O   UNL     1      59.245  18.199  47.469  1.00  0.00    -0.388 OA
ATOM     15  H   UNL     1      58.880  17.352  47.102  1.00  0.00     0.211 HD
ENDBRANCH   1  14
TORSDOF 8
ENDMDL
MODEL 7
REMARK VINA RESULT:    -3.447     21.084     22.094
REMARK INTER + INTRA:          -5.175
REMARK INTER:                  -4.403
REMARK INTRA:                  -0.772
REMARK UNBOUND:                -0.520
REMARK SMILES C[C@H](O)[C@H](O)[C@H](O)[C@@H](O)C=O
REMARK SMILES IDX 4 1 2 2 1 3 3 4 6 6 8 7 10 8 11 9 9 10 7 12 5 14
REMARK H PARENT 3 5 9 11 7 13 5 15
REMARK Flexibility Score: inf
ROOT
ATOM      1  C   UNL     1      56.401  18.668  50.855  1.00  0.00     0.174 C 
ENDROOT
BRANCH   1   2
ATOM      2  C   UNL     1      56.033  19.400  52.174  1.00  0.00     0.142 C 
ATOM      3  C   UNL     1      54.586  19.909  52.152  1.00  0.00     0.041 C 
BRANCH   2   4
ATOM      4  O   UNL     1      56.888  20.500  52.354  1.00  0.00    -0.391 OA
ATOM      5  H   UNL     1      56.315  21.277  52.586  1.00  0.00     0.211 HD
ENDBRANCH   2   4
ENDBRANCH   1   2
BRANCH   1   6
ATOM      6  C   UNL     1      57.497  17.580  51.025  1.00  0.00     0.181 C 
BRANCH   6   7
ATOM      7  C   UNL     1      58.281  17.273  49.723  1.00  0.00     0.209 C 
BRANCH   7   8
ATOM      8  C   UNL     1      59.052  18.486  49.268  1.00  0.00     0.258 C 
ATOM      9  O   UNL     1      60.155  18.725  49.733  1.00  0.00    -0.300 OA
ENDBRANCH   7   8
BRANCH   7  10
ATOM     10  O   UNL     1      57.391  16.889  48.705  1.00  0.00    -0.383 OA
ATOM     11  H   UNL     1      56.517  17.314  48.911  1.00  0.00     0.211 HD
ENDBRANCH   7  10
ENDBRANCH   6   7
BRANCH   6  12
ATOM     12  O   UNL     1      58.376  17.947  52.059  1.00  0.00    -0.387 OA
ATOM     13  H   UNL     1      57.817  18.167  52.850  1.00  0.00     0.211 HD
ENDBRANCH   6  12
ENDBRANCH   1   6
BRANCH   1  14
ATOM     14  O   UNL     1      55.251  18.057  50.322  1.00  0.00    -0.388 OA
ATOM     15  H   UNL     1      55.543  17.504  49.552  1.00  0.00     0.211 HD
ENDBRANCH   1  14
TORSDOF 8
ENDMDL
MODEL 8
REMARK VINA RESULT:    -3.441     19.252     21.176
REMARK INTER + INTRA:          -5.168
REMARK INTER:                  -4.175
REMARK INTRA:                  -0.992
REMARK UNBOUND:                -0.520
REMARK SMILES C[C@H](O)[C@H](O)[C@H](O)[C@@H](O)C=O
REMARK SMILES IDX 4 1 2 2 1 3 3 4 6 6 8 7 10 8 11 9 9 10 7 12 5 14
REMARK H PARENT 3 5 9 11 7 13 5 15
REMARK Flexibility Score: inf
ROOT
ATOM      1  C   UNL     1      59.706  20.019  50.314  1.00  0.00     0.174 C 
ENDROOT
BRANCH   1   2
ATOM      2  C   UNL     1      60.368  20.204  48.923  1.00  0.00     0.142 C 
ATOM      3  C   UNL     1      60.782  21.663  48.684  1.00  0.00     0.041 C 
BRANCH   2   4
ATOM      4  O   UNL     1      59.461  19.830  47.918  1.00  0.00    -0.391 OA
ATOM      5  H   UNL     1      58.552  19.886  48.313  1.00  0.00     0.211 HD
ENDBRANCH   2   4
ENDBRANCH   1   2
BRANCH   1   6
ATOM      6  C   UNL     1      59.504  18.534  50.723  1.00  0.00     0.181 C 
BRANCH   6   7
ATOM      7  C   UNL     1      58.089  17.985  50.409  1.00  0.00     0.209 C 
BRANCH   7   8
ATOM      8  C   UNL     1      58.163  16.877  49.390  1.00  0.00     0.258 C 
ATOM      9  O   UNL     1      58.463  17.121  48.233  1.00  0.00    -0.300 OA
ENDBRANCH   7   8
BRANCH   7  10
ATOM     10  O   UNL     1      57.274  19.014  49.907  1.00  0.00    -0.383 OA
ATOM     11  H   UNL     1      57.822  19.521  49.251  1.00  0.00     0.211 HD
ENDBRANCH   7  10
ENDBRANCH   6   7
BRANCH   6  12
ATOM     12  O   UNL     1      60.492  17.736  50.118  1.00  0.00    -0.387 OA
ATOM     13  H   UNL     1      60.100  17.379  49.277  1.00  0.00     0.211 HD
ENDBRANCH   6  12
ENDBRANCH   1   6
BRANCH   1  14
ATOM     14  O   UNL     1      60.497  20.644  51.297  1.00  0.00    -0.388 OA
ATOM     15  H   UNL     1      60.061  20.477  52.173  1.00  0.00     0.211 HD
ENDBRANCH   1  14
TORSDOF 8
ENDMDL
MODEL 9
REMARK VINA RESULT:    -3.407     19.847     21.613
REMARK INTER + INTRA:          -5.122
REMARK INTER:                  -4.585
REMARK INTRA:                  -0.537
REMARK UNBOUND:                -0.520
REMARK SMILES C[C@H](O)[C@H](O)[C@H](O)[C@@H](O)C=O
REMARK SMILES IDX 4 1 2 2 1 3 3 4 6 6 8 7 10 8 11 9 9 10 7 12 5 14
REMARK H PARENT 3 5 9 11 7 13 5 15
REMARK Flexibility Score: inf
ROOT
ATOM      1  C   UNL     1      57.846  17.772  49.711  1.00  0.00     0.174 C 
ENDROOT
BRANCH   1   2
ATOM      2  C   UNL     1      56.798  18.645  50.451  1.00  0.00     0.142 C 
ATOM      3  C   UNL     1      57.216  18.921  51.902  1.00  0.00     0.041 C 
BRANCH   2   4
ATOM      4  O   UNL     1      55.560  17.982  50.464  1.00  0.00    -0.391 OA
ATOM      5  H   UNL     1      55.536  17.431  51.290  1.00  0.00     0.211 HD
ENDBRANCH   2   4
ENDBRANCH   1   2
BRANCH   1   6
ATOM      6  C   UNL     1      58.934  18.591  48.963  1.00  0.00     0.181 C 
BRANCH   6   7
ATOM      7  C   UNL     1      60.291  18.657  49.709  1.00  0.00     0.209 C 
BRANCH   7   8
ATOM      8  C   UNL     1      61.069  19.878  49.290  1.00  0.00     0.258 C 
ATOM      9  O   UNL     1      60.666  20.585  48.380  1.00  0.00    -0.300 OA
ENDBRANCH   7   8
BRANCH   7  10
ATOM     10  O   UNL     1      61.051  17.510  49.426  1.00  0.00    -0.383 OA
ATOM     11  H   UNL     1      61.998  17.737  49.620  1.00  0.00     0.211 HD
ENDBRANCH   7  10
ENDBRANCH   6   7
BRANCH   6  12
ATOM     12  O   UNL     1      59.106  18.079  47.664  1.00  0.00    -0.387 OA
ATOM     13  H   UNL     1      59.550  17.195  47.758  1.00  0.00     0.211 HD
ENDBRANCH   6  12
ENDBRANCH   1   6
BRANCH   1  14
ATOM     14  O   UNL     1      58.488  16.926  50.635  1.00  0.00    -0.388 OA
ATOM     15  H   UNL     1      59.399  17.291  50.781  1.00  0.00     0.211 HD
ENDBRANCH   1  14
TORSDOF 8
ENDMDL
