MODEL 1
REMARK VINA RESULT:    -2.353      0.000      0.000
REMARK INTER + INTRA:          -6.100
REMARK INTER:                  -4.141
REMARK INTRA:                  -1.959
REMARK UNBOUND:                -1.959
REMARK SMILES CCCCCCCCCCCCCCC(=O)[O-]
REMARK SMILES IDX 9 1 10 2 11 3 12 4 13 5 14 6 15 7 16 8 17 9 8 10 7 11 6 12
REMARK SMILES IDX 5 13 4 14 3 15 2 16 1 17
REMARK H PARENT
REMARK Flexibility Score: inf
ROOT
ATOM      1  C   UNL     1      74.026  88.333  93.080  1.00  0.00     0.000 C 
ENDROOT
BRANCH   1   2
ATOM      2  C   UNL     1      73.065  87.411  92.311  1.00  0.00     0.000 C 
BRANCH   2   3
ATOM      3  C   UNL     1      73.088  87.655  90.795  1.00  0.00     0.000 C 
BRANCH   3   4
ATOM      4  C   UNL     1      74.362  87.072  90.163  1.00  0.00     0.000 C 
BRANCH   4   5
ATOM      5  C   UNL     1      74.803  87.841  88.907  1.00  0.00     0.006 C 
BRANCH   5   6
ATOM      6  C   UNL     1      73.872  87.604  87.712  1.00  0.00     0.053 C 
BRANCH   6   7
ATOM      7  C   UNL     1      74.554  86.767  86.676  1.00  0.00     0.041 C 
ATOM      8  O   UNL     1      73.906  86.320  85.694  1.00  0.00    -0.550 OA
ATOM      9  O   UNL     1      75.896  86.437  86.822  1.00  0.00    -0.550 OA
ENDBRANCH   6   7
ENDBRANCH   5   6
ENDBRANCH   4   5
ENDBRANCH   3   4
ENDBRANCH   2   3
ENDBRANCH   1   2
BRANCH   1  10
ATOM     10  C   UNL     1      73.895  89.822  92.694  1.00  0.00     0.000 C 
BRANCH  10  11
ATOM     11  C   UNL     1      75.159  90.626  93.048  1.00  0.00    -0.000 C 
BRANCH  11  12
ATOM     12  C   UNL     1      76.443  89.789  92.933  1.00  0.00    -0.000 C 
BRANCH  12  13
ATOM     13  C   UNL     1      77.172  90.007  91.596  1.00  0.00    -0.000 C 
BRANCH  13  14
ATOM     14  C   UNL     1      77.767  88.710  91.026  1.00  0.00    -0.000 C 
BRANCH  14  15
ATOM     15  C   UNL     1      77.546  87.502  91.952  1.00  0.00    -0.000 C 
BRANCH  15  16
ATOM     16  C   UNL     1      77.931  86.172  91.288  1.00  0.00    -0.003 C 
ATOM     17  C   UNL     1      78.085  86.288  89.772  1.00  0.00     0.004 C 
ENDBRANCH  15  16
ENDBRANCH  14  15
ENDBRANCH  13  14
ENDBRANCH  12  13
ENDBRANCH  11  12
ENDBRANCH  10  11
ENDBRANCH   1  10
TORSDOF 13
ENDMDL
MODEL 2
REMARK VINA RESULT:    -2.315     12.912     15.588
REMARK INTER + INTRA:          -6.034
REMARK INTER:                  -3.867
REMARK INTRA:                  -2.167
REMARK UNBOUND:                -1.959
REMARK SMILES CCCCCCCCCCCCCCC(=O)[O-]
REMARK SMILES IDX 9 1 10 2 11 3 12 4 13 5 14 6 15 7 16 8 17 9 8 10 7 11 6 12
REMARK SMILES IDX 5 13 4 14 3 15 2 16 1 17
REMARK H PARENT
REMARK Flexibility Score: inf
ROOT
ATOM      1  C   UNL     1      90.911  87.057  90.614  1.00  0.00     0.000 C 
ENDROOT
BRANCH   1   2
ATOM      2  C   UNL     1      89.535  87.104  89.928  1.00  0.00     0.000 C 
BRANCH   2   3
ATOM      3  C   UNL     1      89.338  85.976  88.905  1.00  0.00     0.000 C 
BRANCH   3   4
ATOM      4  C   UNL     1      90.690  85.449  88.400  1.00  0.00     0.000 C 
BRANCH   4   5
ATOM      5  C   UNL     1      90.961  85.828  86.935  1.00  0.00     0.006 C 
BRANCH   5   6
ATOM      6  C   UNL     1      92.064  86.884  86.792  1.00  0.00     0.053 C 
BRANCH   6   7
ATOM      7  C   UNL     1      91.474  88.260  86.802  1.00  0.00     0.041 C 
ATOM      8  O   UNL     1      91.795  89.080  87.702  1.00  0.00    -0.550 OA
ATOM      9  O   UNL     1      90.532  88.620  85.847  1.00  0.00    -0.550 OA
ENDBRANCH   6   7
ENDBRANCH   5   6
ENDBRANCH   4   5
ENDBRANCH   3   4
ENDBRANCH   2   3
ENDBRANCH   1   2
BRANCH   1  10
ATOM     10  C   UNL     1      90.839  87.180  92.150  1.00  0.00     0.000 C 
BRANCH  10  11
ATOM     11  C   UNL     1      91.335  85.907  92.858  1.00  0.00    -0.000 C 
BRANCH  11  12
ATOM     12  C   UNL     1      91.809  84.828  91.872  1.00  0.00    -0.000 C 
BRANCH  12  13
ATOM     13  C   UNL     1      91.165  83.457  92.143  1.00  0.00    -0.000 C 
BRANCH  13  14
ATOM     14  C   UNL     1      89.804  83.569  92.847  1.00  0.00    -0.000 C 
BRANCH  14  15
ATOM     15  C   UNL     1      88.656  83.870  91.868  1.00  0.00    -0.000 C 
BRANCH  15  16
ATOM     16  C   UNL     1      87.404  84.410  92.576  1.00  0.00    -0.003 C 
ATOM     17  C   UNL     1      87.274  85.930  92.472  1.00  0.00     0.004 C 
ENDBRANCH  15  16
ENDBRANCH  14  15
ENDBRANCH  13  14
ENDBRANCH  12  13
ENDBRANCH  11  12
ENDBRANCH  10  11
ENDBRANCH   1  10
TORSDOF 13
ENDMDL
MODEL 3
REMARK VINA RESULT:    -2.279      2.288      3.963
REMARK INTER + INTRA:          -5.969
REMARK INTER:                  -3.954
REMARK INTRA:                  -2.015
REMARK UNBOUND:                -1.959
REMARK SMILES CCCCCCCCCCCCCCC(=O)[O-]
REMARK SMILES IDX 9 1 10 2 11 3 12 4 13 5 14 6 15 7 16 8 17 9 8 10 7 11 6 12
REMARK SMILES IDX 5 13 4 14 3 15 2 16 1 17
REMARK H PARENT
REMARK Flexibility Score: inf
ROOT
ATOM      1  C   UNL     1      76.590  89.461  92.628  1.00  0.00     0.000 C 
ENDROOT
BRANCH   1   2
ATOM      2  C   UNL     1      75.730  90.731  92.737  1.00  0.00     0.000 C 
BRANCH   2   3
ATOM      3  C   UNL     1      74.226  90.430  92.801  1.00  0.00     0.000 C 
BRANCH   3   4
ATOM      4  C   UNL     1      73.974  88.949  93.124  1.00  0.00     0.000 C 
BRANCH   4   5
ATOM      5  C   UNL     1      73.270  88.206  91.978  1.00  0.00     0.006 C 
BRANCH   5   6
ATOM      6  C   UNL     1      72.508  86.964  92.459  1.00  0.00     0.053 C 
BRANCH   6   7
ATOM      7  C   UNL     1      73.022  85.738  91.773  1.00  0.00     0.041 C 
ATOM      8  O   UNL     1      73.377  85.789  90.566  1.00  0.00    -0.550 OA
ATOM      9  O   UNL     1      73.063  84.526  92.451  1.00  0.00    -0.550 OA
ENDBRANCH   6   7
ENDBRANCH   5   6
ENDBRANCH   4   5
ENDBRANCH   3   4
ENDBRANCH   2   3
ENDBRANCH   1   2
BRANCH   1  10
ATOM     10  C   UNL     1      77.761  89.592  91.631  1.00  0.00     0.000 C 
BRANCH  10  11
ATOM     11  C   UNL     1      77.346  89.216  90.197  1.00  0.00    -0.000 C 
BRANCH  11  12
ATOM     12  C   UNL     1      76.223  88.168  90.162  1.00  0.00    -0.000 C 
BRANCH  12  13
ATOM     13  C   UNL     1      76.684  86.828  89.562  1.00  0.00    -0.000 C 
BRANCH  13  14
ATOM     14  C   UNL     1      77.473  85.970  90.563  1.00  0.00    -0.000 C 
BRANCH  14  15
ATOM     15  C   UNL     1      76.689  85.703  91.859  1.00  0.00    -0.000 C 
BRANCH  15  16
ATOM     16  C   UNL     1      77.505  86.028  93.119  1.00  0.00    -0.003 C 
ATOM     17  C   UNL     1      78.994  86.214  92.831  1.00  0.00     0.004 C 
ENDBRANCH  15  16
ENDBRANCH  14  15
ENDBRANCH  13  14
ENDBRANCH  12  13
ENDBRANCH  11  12
ENDBRANCH  10  11
ENDBRANCH   1  10
TORSDOF 13
ENDMDL
MODEL 4
REMARK VINA RESULT:    -2.250     11.794     15.638
REMARK INTER + INTRA:          -5.918
REMARK INTER:                  -3.865
REMARK INTRA:                  -2.053
REMARK UNBOUND:                -1.959
REMARK SMILES CCCCCCCCCCCCCCC(=O)[O-]
REMARK SMILES IDX 9 1 10 2 11 3 12 4 13 5 14 6 15 7 16 8 17 9 8 10 7 11 6 12
REMARK SMILES IDX 5 13 4 14 3 15 2 16 1 17
REMARK H PARENT
REMARK Flexibility Score: inf
ROOT
ATOM      1  C   UNL     1      75.991  91.584  74.306  1.00  0.00     0.000 C 
ENDROOT
BRANCH   1   2
ATOM      2  C   UNL     1      75.247  92.107  75.546  1.00  0.00     0.000 C 
BRANCH   2   3
ATOM      3  C   UNL     1      75.644  91.373  76.834  1.00  0.00     0.000 C 
BRANCH   3   4
ATOM      4  C   UNL     1      77.159  91.462  77.075  1.00  0.00     0.000 C 
BRANCH   4   5
ATOM      5  C   UNL     1      77.750  90.148  77.610  1.00  0.00     0.006 C 
BRANCH   5   6
ATOM      6  C   UNL     1      76.857  89.484  78.666  1.00  0.00     0.053 C 
BRANCH   6   7
ATOM      7  C   UNL     1      77.149  90.043  80.023  1.00  0.00     0.041 C 
ATOM      8  O   UNL     1      78.339  90.240  80.385  1.00  0.00    -0.550 OA
ATOM      9  O   UNL     1      76.109  90.301  80.907  1.00  0.00    -0.550 OA
ENDBRANCH   6   7
ENDBRANCH   5   6
ENDBRANCH   4   5
ENDBRANCH   3   4
ENDBRANCH   2   3
ENDBRANCH   1   2
BRANCH   1  10
ATOM     10  C   UNL     1      75.066  91.314  73.100  1.00  0.00     0.000 C 
BRANCH  10  11
ATOM     11  C   UNL     1      74.153  90.097  73.330  1.00  0.00    -0.000 C 
BRANCH  11  12
ATOM     12  C   UNL     1      74.892  88.761  73.156  1.00  0.00    -0.000 C 
BRANCH  12  13
ATOM     13  C   UNL     1      75.011  87.976  74.474  1.00  0.00    -0.000 C 
BRANCH  13  14
ATOM     14  C   UNL     1      76.450  87.934  75.012  1.00  0.00    -0.000 C 
BRANCH  14  15
ATOM     15  C   UNL     1      77.501  87.950  73.888  1.00  0.00    -0.000 C 
BRANCH  15  16
ATOM     16  C   UNL     1      78.626  88.963  74.149  1.00  0.00    -0.003 C 
ATOM     17  C   UNL     1      79.382  89.351  72.878  1.00  0.00     0.004 C 
ENDBRANCH  15  16
ENDBRANCH  14  15
ENDBRANCH  13  14
ENDBRANCH  12  13
ENDBRANCH  11  12
ENDBRANCH  10  11
ENDBRANCH   1  10
TORSDOF 13
ENDMDL
MODEL 5
REMARK VINA RESULT:    -2.220      9.677     13.010
REMARK INTER + INTRA:          -5.866
REMARK INTER:                  -4.155
REMARK INTRA:                  -1.711
REMARK UNBOUND:                -1.959
REMARK SMILES CCCCCCCCCCCCCCC(=O)[O-]
REMARK SMILES IDX 9 1 10 2 11 3 12 4 13 5 14 6 15 7 16 8 17 9 8 10 7 11 6 12
REMARK SMILES IDX 5 13 4 14 3 15 2 16 1 17
REMARK H PARENT
REMARK Flexibility Score: inf
ROOT
ATOM      1  C   UNL     1      77.775  88.787  79.449  1.00  0.00     0.000 C 
ENDROOT
BRANCH   1   2
ATOM      2  C   UNL     1      77.555  88.676  77.931  1.00  0.00     0.000 C 
BRANCH   2   3
ATOM      3  C   UNL     1      78.208  89.823  77.147  1.00  0.00     0.000 C 
BRANCH   3   4
ATOM      4  C   UNL     1      77.184  90.924  76.828  1.00  0.00     0.000 C 
BRANCH   4   5
ATOM      5  C   UNL     1      75.883  90.365  76.231  1.00  0.00     0.006 C 
BRANCH   5   6
ATOM      6  C   UNL     1      75.944  90.227  74.704  1.00  0.00     0.053 C 
BRANCH   6   7
ATOM      7  C   UNL     1      74.596  90.471  74.103  1.00  0.00     0.041 C 
ATOM      8  O   UNL     1      74.044  89.583  73.403  1.00  0.00    -0.550 OA
ATOM      9  O   UNL     1      73.970  91.699  74.276  1.00  0.00    -0.550 OA
ENDBRANCH   6   7
ENDBRANCH   5   6
ENDBRANCH   4   5
ENDBRANCH   3   4
ENDBRANCH   2   3
ENDBRANCH   1   2
BRANCH   1  10
ATOM     10  C   UNL     1      76.581  89.411  80.202  1.00  0.00     0.000 C 
BRANCH  10  11
ATOM     11  C   UNL     1      76.816  90.896  80.533  1.00  0.00    -0.000 C 
BRANCH  11  12
ATOM     12  C   UNL     1      75.681  91.800  80.031  1.00  0.00    -0.000 C 
BRANCH  12  13
ATOM     13  C   UNL     1      74.412  91.008  79.667  1.00  0.00    -0.000 C 
BRANCH  13  14
ATOM     14  C   UNL     1      73.150  91.568  80.342  1.00  0.00    -0.000 C 
BRANCH  14  15
ATOM     15  C   UNL     1      72.237  90.462  80.898  1.00  0.00    -0.000 C 
BRANCH  15  16
ATOM     16  C   UNL     1      73.019  89.207  81.314  1.00  0.00    -0.003 C 
ATOM     17  C   UNL     1      73.323  89.167  82.812  1.00  0.00     0.004 C 
ENDBRANCH  15  16
ENDBRANCH  14  15
ENDBRANCH  13  14
ENDBRANCH  12  13
ENDBRANCH  11  12
ENDBRANCH  10  11
ENDBRANCH   1  10
TORSDOF 13
ENDMDL
MODEL 6
REMARK VINA RESULT:    -2.213      1.721      2.509
REMARK INTER + INTRA:          -5.854
REMARK INTER:                  -3.842
REMARK INTRA:                  -2.011
REMARK UNBOUND:                -1.959
REMARK SMILES CCCCCCCCCCCCCCC(=O)[O-]
REMARK SMILES IDX 9 1 10 2 11 3 12 4 13 5 14 6 15 7 16 8 17 9 8 10 7 11 6 12
REMARK SMILES IDX 5 13 4 14 3 15 2 16 1 17
REMARK H PARENT
REMARK Flexibility Score: inf
ROOT
ATOM      1  C   UNL     1      73.359  86.299  92.426  1.00  0.00     0.000 C 
ENDROOT
BRANCH   1   2
ATOM      2  C   UNL     1      74.666  85.733  93.004  1.00  0.00     0.000 C 
BRANCH   2   3
ATOM      3  C   UNL     1      75.526  85.021  91.950  1.00  0.00     0.000 C 
BRANCH   3   4
ATOM      4  C   UNL     1      75.867  85.966  90.788  1.00  0.00     0.000 C 
BRANCH   4   5
ATOM      5  C   UNL     1      75.249  85.511  89.456  1.00  0.00     0.006 C 
BRANCH   5   6
ATOM      6  C   UNL     1      74.880  86.686  88.542  1.00  0.00     0.053 C 
BRANCH   6   7
ATOM      7  C   UNL     1      73.412  86.679  88.250  1.00  0.00     0.041 C 
ATOM      8  O   UNL     1      72.602  87.193  89.065  1.00  0.00    -0.550 OA
ATOM      9  O   UNL     1      72.935  86.061  87.101  1.00  0.00    -0.550 OA
ENDBRANCH   6   7
ENDBRANCH   5   6
ENDBRANCH   4   5
ENDBRANCH   3   4
ENDBRANCH   2   3
ENDBRANCH   1   2
BRANCH   1  10
ATOM     10  C   UNL     1      73.065  87.749  92.867  1.00  0.00     0.000 C 
BRANCH  10  11
ATOM     11  C   UNL     1      73.788  88.781  91.984  1.00  0.00    -0.000 C 
BRANCH  11  12
ATOM     12  C   UNL     1      74.204  90.038  92.763  1.00  0.00    -0.000 C 
BRANCH  12  13
ATOM     13  C   UNL     1      75.700  90.362  92.607  1.00  0.00    -0.000 C 
BRANCH  13  14
ATOM     14  C   UNL     1      76.589  89.111  92.688  1.00  0.00    -0.000 C 
BRANCH  14  15
ATOM     15  C   UNL     1      77.734  89.132  91.661  1.00  0.00    -0.000 C 
BRANCH  15  16
ATOM     16  C   UNL     1      77.226  89.222  90.214  1.00  0.00    -0.003 C 
ATOM     17  C   UNL     1      78.122  88.480  89.223  1.00  0.00     0.004 C 
ENDBRANCH  15  16
ENDBRANCH  14  15
ENDBRANCH  13  14
ENDBRANCH  12  13
ENDBRANCH  11  12
ENDBRANCH  10  11
ENDBRANCH   1  10
TORSDOF 13
ENDMDL
MODEL 7
REMARK VINA RESULT:    -2.201     12.678     15.740
REMARK INTER + INTRA:          -5.832
REMARK INTER:                  -3.830
REMARK INTRA:                  -2.002
REMARK UNBOUND:                -1.959
REMARK SMILES CCCCCCCCCCCCCCC(=O)[O-]
REMARK SMILES IDX 9 1 10 2 11 3 12 4 13 5 14 6 15 7 16 8 17 9 8 10 7 11 6 12
REMARK SMILES IDX 5 13 4 14 3 15 2 16 1 17
REMARK H PARENT
REMARK Flexibility Score: inf
ROOT
ATOM      1  C   UNL     1      74.415  89.189  73.576  1.00  0.00     0.000 C 
ENDROOT
BRANCH   1   2
ATOM      2  C   UNL     1      75.263  90.269  72.883  1.00  0.00     0.000 C 
BRANCH   2   3
ATOM      3  C   UNL     1      76.038  91.148  73.874  1.00  0.00     0.000 C 
BRANCH   3   4
ATOM      4  C   UNL     1      75.340  91.180  75.243  1.00  0.00     0.000 C 
BRANCH   4   5
ATOM      5  C   UNL     1      76.043  92.112  76.242  1.00  0.00     0.006 C 
BRANCH   5   6
ATOM      6  C   UNL     1      76.689  91.351  77.407  1.00  0.00     0.053 C 
BRANCH   6   7
ATOM      7  C   UNL     1      75.658  90.984  78.427  1.00  0.00     0.041 C 
ATOM      8  O   UNL     1      74.880  91.862  78.886  1.00  0.00    -0.550 OA
ATOM      9  O   UNL     1      75.588  89.683  78.909  1.00  0.00    -0.550 OA
ENDBRANCH   6   7
ENDBRANCH   5   6
ENDBRANCH   4   5
ENDBRANCH   3   4
ENDBRANCH   2   3
ENDBRANCH   1   2
BRANCH   1  10
ATOM     10  C   UNL     1      74.655  87.767  73.025  1.00  0.00     0.000 C 
BRANCH  10  11
ATOM     11  C   UNL     1      75.471  86.898  73.998  1.00  0.00    -0.000 C 
BRANCH  11  12
ATOM     12  C   UNL     1      75.356  87.374  75.454  1.00  0.00    -0.000 C 
BRANCH  12  13
ATOM     13  C   UNL     1      76.707  87.824  76.037  1.00  0.00    -0.000 C 
BRANCH  13  14
ATOM     14  C   UNL     1      77.793  87.982  74.961  1.00  0.00    -0.000 C 
BRANCH  14  15
ATOM     15  C   UNL     1      78.799  89.096  75.297  1.00  0.00    -0.000 C 
BRANCH  15  16
ATOM     16  C   UNL     1      80.252  88.681  75.021  1.00  0.00    -0.003 C 
ATOM     17  C   UNL     1      81.186  88.972  76.195  1.00  0.00     0.004 C 
ENDBRANCH  15  16
ENDBRANCH  14  15
ENDBRANCH  13  14
ENDBRANCH  12  13
ENDBRANCH  11  12
ENDBRANCH  10  11
ENDBRANCH   1  10
TORSDOF 13
ENDMDL
MODEL 8
REMARK VINA RESULT:    -2.200     15.472     17.009
REMARK INTER + INTRA:          -5.831
REMARK INTER:                  -4.138
REMARK INTRA:                  -1.693
REMARK UNBOUND:                -1.959
REMARK SMILES CCCCCCCCCCCCCCC(=O)[O-]
REMARK SMILES IDX 9 1 10 2 11 3 12 4 13 5 14 6 15 7 16 8 17 9 8 10 7 11 6 12
REMARK SMILES IDX 5 13 4 14 3 15 2 16 1 17
REMARK H PARENT
REMARK Flexibility Score: inf
ROOT
ATOM      1  C   UNL     1      80.327  88.842  75.233  1.00  0.00     0.000 C 
ENDROOT
BRANCH   1   2
ATOM      2  C   UNL     1      80.515  88.616  73.723  1.00  0.00     0.000 C 
BRANCH   2   3
ATOM      3  C   UNL     1      79.459  89.338  72.875  1.00  0.00     0.000 C 
BRANCH   3   4
ATOM      4  C   UNL     1      78.059  89.183  73.489  1.00  0.00     0.000 C 
BRANCH   4   5
ATOM      5  C   UNL     1      77.054  90.204  72.932  1.00  0.00     0.006 C 
BRANCH   5   6
ATOM      6  C   UNL     1      76.355  91.008  74.036  1.00  0.00     0.053 C 
BRANCH   6   7
ATOM      7  C   UNL     1      74.888  90.713  74.047  1.00  0.00     0.041 C 
ATOM      8  O   UNL     1      74.466  89.583  73.690  1.00  0.00    -0.550 OA
ATOM      9  O   UNL     1      73.982  91.704  74.406  1.00  0.00    -0.550 OA
ENDBRANCH   6   7
ENDBRANCH   5   6
ENDBRANCH   4   5
ENDBRANCH   3   4
ENDBRANCH   2   3
ENDBRANCH   1   2
BRANCH   1  10
ATOM     10  C   UNL     1      81.378  88.118  76.101  1.00  0.00     0.000 C 
BRANCH  10  11
ATOM     11  C   UNL     1      82.169  89.096  76.989  1.00  0.00    -0.000 C 
BRANCH  11  12
ATOM     12  C   UNL     1      81.704  90.551  76.826  1.00  0.00    -0.000 C 
BRANCH  12  13
ATOM     13  C   UNL     1      82.880  91.538  76.723  1.00  0.00    -0.000 C 
BRANCH  13  14
ATOM     14  C   UNL     1      83.840  91.199  75.572  1.00  0.00    -0.000 C 
BRANCH  14  15
ATOM     15  C   UNL     1      83.193  91.385  74.189  1.00  0.00    -0.000 C 
BRANCH  15  16
ATOM     16  C   UNL     1      83.650  90.324  73.177  1.00  0.00    -0.003 C 
ATOM     17  C   UNL     1      84.288  89.105  73.842  1.00  0.00     0.004 C 
ENDBRANCH  15  16
ENDBRANCH  14  15
ENDBRANCH  13  14
ENDBRANCH  12  13
ENDBRANCH  11  12
ENDBRANCH  10  11
ENDBRANCH   1  10
TORSDOF 13
ENDMDL
