MODEL 1
REMARK VINA RESULT:    -3.760      0.000      0.000
REMARK INTER + INTRA:          -6.418
REMARK INTER:                  -5.518
REMARK INTRA:                  -0.900
REMARK UNBOUND:                -0.900
REMARK SMILES CCCOC(=O)c1ccccc1C(=O)OCCC
REMARK SMILES IDX 7 1 8 2 9 3 10 4 11 5 12 6 5 7 6 8 4 9 3 10 2 11 1 12 13 13
REMARK SMILES IDX 14 14 15 15 16 16 17 17 18 18
REMARK H PARENT
REMARK Flexibility Score: inf
ROOT
ATOM      1  C   UNL     1       6.903 -34.275  15.923  1.00  0.00     0.074 A 
ATOM      2  C   UNL     1       6.564 -35.395  16.704  1.00  0.00     0.016 A 
ATOM      3  C   UNL     1       6.521 -36.672  16.140  1.00  0.00     0.001 A 
ATOM      4  C   UNL     1       6.820 -36.850  14.790  1.00  0.00     0.001 A 
ATOM      5  C   UNL     1       7.140 -35.750  13.994  1.00  0.00     0.016 A 
ATOM      6  C   UNL     1       7.162 -34.455  14.537  1.00  0.00     0.074 A 
ENDROOT
BRANCH   1   7
ATOM      7  C   UNL     1       7.060 -32.962  16.594  1.00  0.00     0.339 C 
ATOM      8  O   UNL     1       6.105 -32.138  16.591  1.00  0.00    -0.246 OA
BRANCH   7   9
ATOM      9  O   UNL     1       8.250 -32.656  17.266  1.00  0.00    -0.462 OA
BRANCH   9  10
ATOM     10  C   UNL     1       8.302 -32.199  18.615  1.00  0.00     0.233 C 
BRANCH  10  11
ATOM     11  C   UNL     1       9.573 -31.380  18.852  1.00  0.00     0.038 C 
ATOM     12  C   UNL     1      10.220 -30.969  17.533  1.00  0.00     0.007 C 
ENDBRANCH  10  11
ENDBRANCH   9  10
ENDBRANCH   7   9
ENDBRANCH   1   7
BRANCH   6  13
ATOM     13  C   UNL     1       7.406 -33.323  13.624  1.00  0.00     0.339 C 
ATOM     14  O   UNL     1       6.478 -32.903  12.879  1.00  0.00    -0.246 OA
BRANCH  13  15
ATOM     15  O   UNL     1       8.677 -32.740  13.575  1.00  0.00    -0.462 OA
BRANCH  15  16
ATOM     16  C   UNL     1       9.857 -33.389  14.047  1.00  0.00     0.233 C 
BRANCH  16  17
ATOM     17  C   UNL     1      10.440 -34.334  12.987  1.00  0.00     0.038 C 
ATOM     18  C   UNL     1      11.054 -35.585  13.611  1.00  0.00     0.007 C 
ENDBRANCH  16  17
ENDBRANCH  15  16
ENDBRANCH  13  15
ENDBRANCH   6  13
TORSDOF 8
ENDMDL
MODEL 2
REMARK VINA RESULT:    -3.622      1.685      4.535
REMARK INTER + INTRA:          -6.215
REMARK INTER:                  -5.409
REMARK INTRA:                  -0.806
REMARK UNBOUND:                -0.900
REMARK SMILES CCCOC(=O)c1ccccc1C(=O)OCCC
REMARK SMILES IDX 7 1 8 2 9 3 10 4 11 5 12 6 5 7 6 8 4 9 3 10 2 11 1 12 13 13
REMARK SMILES IDX 14 14 15 15 16 16 17 17 18 18
REMARK H PARENT
REMARK Flexibility Score: inf
ROOT
ATOM      1  C   UNL     1       9.136 -35.329  13.476  1.00  0.00     0.074 A 
ATOM      2  C   UNL     1      10.266 -36.083  13.107  1.00  0.00     0.016 A 
ATOM      3  C   UNL     1      11.495 -35.461  12.879  1.00  0.00     0.001 A 
ATOM      4  C   UNL     1      11.617 -34.079  13.019  1.00  0.00     0.001 A 
ATOM      5  C   UNL     1      10.505 -33.312  13.366  1.00  0.00     0.016 A 
ATOM      6  C   UNL     1       9.254 -33.916  13.573  1.00  0.00     0.074 A 
ENDROOT
BRANCH   1   7
ATOM      7  C   UNL     1       7.888 -36.047  13.831  1.00  0.00     0.339 C 
ATOM      8  O   UNL     1       7.086 -36.396  12.923  1.00  0.00    -0.246 OA
BRANCH   7   9
ATOM      9  O   UNL     1       7.623 -36.372  15.168  1.00  0.00    -0.462 OA
BRANCH   9  10
ATOM     10  C   UNL     1       6.352 -36.197  15.787  1.00  0.00     0.233 C 
BRANCH  10  11
ATOM     11  C   UNL     1       6.477 -35.296  17.017  1.00  0.00     0.038 C 
ATOM     12  C   UNL     1       7.660 -35.711  17.888  1.00  0.00     0.007 C 
ENDBRANCH  10  11
ENDBRANCH   9  10
ENDBRANCH   7   9
ENDBRANCH   1   7
BRANCH   6  13
ATOM     13  C   UNL     1       8.095 -33.042  13.835  1.00  0.00     0.339 C 
ATOM     14  O   UNL     1       7.370 -32.653  12.879  1.00  0.00    -0.246 OA
BRANCH  13  15
ATOM     15  O   UNL     1       7.826 -32.631  15.145  1.00  0.00    -0.462 OA
BRANCH  15  16
ATOM     16  C   UNL     1       8.838 -32.456  16.137  1.00  0.00     0.233 C 
BRANCH  16  17
ATOM     17  C   UNL     1       8.228 -32.214  17.524  1.00  0.00     0.038 C 
ATOM     18  C   UNL     1       9.277 -31.778  18.544  1.00  0.00     0.007 C 
ENDBRANCH  16  17
ENDBRANCH  15  16
ENDBRANCH  13  15
ENDBRANCH   6  13
TORSDOF 8
ENDMDL
MODEL 3
REMARK VINA RESULT:    -3.580      1.672      3.829
REMARK INTER + INTRA:          -6.153
REMARK INTER:                  -5.486
REMARK INTRA:                  -0.668
REMARK UNBOUND:                -0.900
REMARK SMILES CCCOC(=O)c1ccccc1C(=O)OCCC
REMARK SMILES IDX 7 1 8 2 9 3 10 4 11 5 12 6 5 7 6 8 4 9 3 10 2 11 1 12 13 13
REMARK SMILES IDX 14 14 15 15 16 16 17 17 18 18
REMARK H PARENT
REMARK Flexibility Score: inf
ROOT
ATOM      1  C   UNL     1       8.930 -34.272  13.690  1.00  0.00     0.074 A 
ATOM      2  C   UNL     1      10.293 -33.994  13.476  1.00  0.00     0.016 A 
ATOM      3  C   UNL     1      11.172 -35.001  13.074  1.00  0.00     0.001 A 
ATOM      4  C   UNL     1      10.705 -36.300  12.876  1.00  0.00     0.001 A 
ATOM      5  C   UNL     1       9.361 -36.601  13.101  1.00  0.00     0.016 A 
ATOM      6  C   UNL     1       8.467 -35.607  13.531  1.00  0.00     0.074 A 
ENDROOT
BRANCH   1   7
ATOM      7  C   UNL     1       8.013 -33.146  13.992  1.00  0.00     0.339 C 
ATOM      8  O   UNL     1       7.361 -32.602  13.060  1.00  0.00    -0.246 OA
BRANCH   7   9
ATOM      9  O   UNL     1       7.842 -32.718  15.314  1.00  0.00    -0.462 OA
BRANCH   9  10
ATOM     10  C   UNL     1       8.921 -32.411  16.192  1.00  0.00     0.233 C 
BRANCH  10  11
ATOM     11  C   UNL     1       8.443 -32.408  17.646  1.00  0.00     0.038 C 
ATOM     12  C   UNL     1       9.384 -31.602  18.536  1.00  0.00     0.007 C 
ENDBRANCH  10  11
ENDBRANCH   9  10
ENDBRANCH   7   9
ENDBRANCH   1   7
BRANCH   6  13
ATOM     13  C   UNL     1       7.085 -36.008  13.852  1.00  0.00     0.339 C 
ATOM     14  O   UNL     1       6.121 -35.538  13.188  1.00  0.00    -0.246 OA
BRANCH  13  15
ATOM     15  O   UNL     1       6.854 -36.893  14.912  1.00  0.00    -0.462 OA
BRANCH  15  16
ATOM     16  C   UNL     1       5.918 -36.637  15.959  1.00  0.00     0.233 C 
BRANCH  16  17
ATOM     17  C   UNL     1       6.347 -35.437  16.814  1.00  0.00     0.038 C 
ATOM     18  C   UNL     1       7.618 -35.727  17.611  1.00  0.00     0.007 C 
ENDBRANCH  16  17
ENDBRANCH  15  16
ENDBRANCH  13  15
ENDBRANCH   6  13
TORSDOF 8
ENDMDL
MODEL 4
REMARK VINA RESULT:    -3.514      1.270      4.199
REMARK INTER + INTRA:          -6.058
REMARK INTER:                  -5.307
REMARK INTRA:                  -0.751
REMARK UNBOUND:                -0.900
REMARK SMILES CCCOC(=O)c1ccccc1C(=O)OCCC
REMARK SMILES IDX 7 1 8 2 9 3 10 4 11 5 12 6 5 7 6 8 4 9 3 10 2 11 1 12 13 13
REMARK SMILES IDX 14 14 15 15 16 16 17 17 18 18
REMARK H PARENT
REMARK Flexibility Score: inf
ROOT
ATOM      1  C   UNL     1       8.010 -32.990  17.119  1.00  0.00     0.074 A 
ATOM      2  C   UNL     1       8.132 -32.514  18.438  1.00  0.00     0.016 A 
ATOM      3  C   UNL     1       9.121 -31.589  18.775  1.00  0.00     0.001 A 
ATOM      4  C   UNL     1      10.001 -31.121  17.800  1.00  0.00     0.001 A 
ATOM      5  C   UNL     1       9.909 -31.593  16.491  1.00  0.00     0.016 A 
ATOM      6  C   UNL     1       8.937 -32.544  16.139  1.00  0.00     0.074 A 
ENDROOT
BRANCH   1   7
ATOM      7  C   UNL     1       6.865 -33.872  16.785  1.00  0.00     0.339 C 
ATOM      8  O   UNL     1       5.875 -33.405  16.158  1.00  0.00    -0.246 OA
BRANCH   7   9
ATOM      9  O   UNL     1       6.905 -35.230  17.126  1.00  0.00    -0.462 OA
BRANCH   9  10
ATOM     10  C   UNL     1       6.399 -36.270  16.293  1.00  0.00     0.233 C 
BRANCH  10  11
ATOM     11  C   UNL     1       7.212 -36.360  15.000  1.00  0.00     0.038 C 
ATOM     12  C   UNL     1       6.802 -37.575  14.173  1.00  0.00     0.007 C 
ENDBRANCH  10  11
ENDBRANCH   9  10
ENDBRANCH   7   9
ENDBRANCH   1   7
BRANCH   6  13
ATOM     13  C   UNL     1       8.957 -33.083  14.766  1.00  0.00     0.339 C 
ATOM     14  O   UNL     1       8.223 -32.571  13.877  1.00  0.00    -0.246 OA
BRANCH  13  15
ATOM     15  O   UNL     1       9.776 -34.177  14.468  1.00  0.00    -0.462 OA
BRANCH  15  16
ATOM     16  C   UNL     1      10.148 -34.542  13.139  1.00  0.00     0.233 C 
BRANCH  16  17
ATOM     17  C   UNL     1      10.545 -36.021  13.053  1.00  0.00     0.038 C 
ATOM     18  C   UNL     1      12.046 -36.224  13.244  1.00  0.00     0.007 C 
ENDBRANCH  16  17
ENDBRANCH  15  16
ENDBRANCH  13  15
ENDBRANCH   6  13
TORSDOF 8
ENDMDL
MODEL 5
REMARK VINA RESULT:    -3.399      1.657      4.751
REMARK INTER + INTRA:          -5.889
REMARK INTER:                  -4.953
REMARK INTRA:                  -0.936
REMARK UNBOUND:                -0.900
REMARK SMILES CCCOC(=O)c1ccccc1C(=O)OCCC
REMARK SMILES IDX 7 1 8 2 9 3 10 4 11 5 12 6 5 7 6 8 4 9 3 10 2 11 1 12 13 13
REMARK SMILES IDX 14 14 15 15 16 16 17 17 18 18
REMARK H PARENT
REMARK Flexibility Score: inf
ROOT
ATOM      1  C   UNL     1       8.614 -33.001  15.480  1.00  0.00     0.074 A 
ATOM      2  C   UNL     1       9.275 -32.361  16.545  1.00  0.00     0.016 A 
ATOM      3  C   UNL     1       8.617 -32.123  17.754  1.00  0.00     0.001 A 
ATOM      4  C   UNL     1       7.291 -32.523  17.919  1.00  0.00     0.001 A 
ATOM      5  C   UNL     1       6.612 -33.142  16.869  1.00  0.00     0.016 A 
ATOM      6  C   UNL     1       7.249 -33.366  15.637  1.00  0.00     0.074 A 
ENDROOT
BRANCH   1   7
ATOM      7  C   UNL     1       9.391 -33.345  14.265  1.00  0.00     0.339 C 
ATOM      8  O   UNL     1       9.563 -32.480  13.364  1.00  0.00    -0.246 OA
BRANCH   7   9
ATOM      9  O   UNL     1       9.969 -34.615  14.140  1.00  0.00    -0.462 OA
BRANCH   9  10
ATOM     10  C   UNL     1       9.524 -35.598  13.208  1.00  0.00     0.233 C 
BRANCH  10  11
ATOM     11  C   UNL     1      10.655 -36.576  12.885  1.00  0.00     0.038 C 
ATOM     12  C   UNL     1      12.015 -35.991  13.256  1.00  0.00     0.007 C 
ENDBRANCH  10  11
ENDBRANCH   9  10
ENDBRANCH   7   9
ENDBRANCH   1   7
BRANCH   6  13
ATOM     13  C   UNL     1       6.448 -33.928  14.534  1.00  0.00     0.339 C 
ATOM     14  O   UNL     1       6.267 -33.258  13.481  1.00  0.00    -0.246 OA
BRANCH  13  15
ATOM     15  O   UNL     1       5.875 -35.196  14.678  1.00  0.00    -0.462 OA
BRANCH  15  16
ATOM     16  C   UNL     1       6.618 -36.357  15.049  1.00  0.00     0.233 C 
BRANCH  16  17
ATOM     17  C   UNL     1       6.101 -36.957  16.363  1.00  0.00     0.038 C 
ATOM     18  C   UNL     1       7.033 -36.659  17.535  1.00  0.00     0.007 C 
ENDBRANCH  16  17
ENDBRANCH  15  16
ENDBRANCH  13  15
ENDBRANCH   6  13
TORSDOF 8
ENDMDL
MODEL 6
REMARK VINA RESULT:    -3.357      1.125      3.983
REMARK INTER + INTRA:          -5.827
REMARK INTER:                  -5.191
REMARK INTRA:                  -0.636
REMARK UNBOUND:                -0.900
REMARK SMILES CCCOC(=O)c1ccccc1C(=O)OCCC
REMARK SMILES IDX 7 1 8 2 9 3 10 4 11 5 12 6 5 7 6 8 4 9 3 10 2 11 1 12 13 13
REMARK SMILES IDX 14 14 15 15 16 16 17 17 18 18
REMARK H PARENT
REMARK Flexibility Score: inf
ROOT
ATOM      1  C   UNL     1       7.275 -34.949  13.823  1.00  0.00     0.074 A 
ATOM      2  C   UNL     1       7.368 -36.103  13.023  1.00  0.00     0.016 A 
ATOM      3  C   UNL     1       7.063 -37.360  13.547  1.00  0.00     0.001 A 
ATOM      4  C   UNL     1       6.656 -37.485  14.874  1.00  0.00     0.001 A 
ATOM      5  C   UNL     1       6.575 -36.356  15.689  1.00  0.00     0.016 A 
ATOM      6  C   UNL     1       6.905 -35.086  15.188  1.00  0.00     0.074 A 
ENDROOT
BRANCH   1   7
ATOM      7  C   UNL     1       7.486 -33.625  13.188  1.00  0.00     0.339 C 
ATOM      8  O   UNL     1       6.492 -32.914  12.875  1.00  0.00    -0.246 OA
BRANCH   7   9
ATOM      9  O   UNL     1       8.787 -33.149  12.976  1.00  0.00    -0.462 OA
BRANCH   9  10
ATOM     10  C   UNL     1       9.738 -32.958  14.020  1.00  0.00     0.233 C 
BRANCH  10  11
ATOM     11  C   UNL     1      11.144 -32.799  13.437  1.00  0.00     0.038 C 
ATOM     12  C   UNL     1      11.885 -31.636  14.092  1.00  0.00     0.007 C 
ENDBRANCH  10  11
ENDBRANCH   9  10
ENDBRANCH   7   9
ENDBRANCH   1   7
BRANCH   6  13
ATOM     13  C   UNL     1       6.900 -33.946  16.125  1.00  0.00     0.339 C 
ATOM     14  O   UNL     1       5.923 -33.150  16.145  1.00  0.00    -0.246 OA
BRANCH  13  15
ATOM     15  O   UNL     1       7.998 -33.747  16.969  1.00  0.00    -0.462 OA
BRANCH  15  16
ATOM     16  C   UNL     1       8.028 -32.758  17.999  1.00  0.00     0.233 C 
BRANCH  16  17
ATOM     17  C   UNL     1       9.247 -31.838  17.857  1.00  0.00     0.038 C 
ATOM     18  C   UNL     1       9.514 -31.041  19.132  1.00  0.00     0.007 C 
ENDBRANCH  16  17
ENDBRANCH  15  16
ENDBRANCH  13  15
ENDBRANCH   6  13
TORSDOF 8
ENDMDL
MODEL 7
REMARK VINA RESULT:    -3.252      1.716      4.073
REMARK INTER + INTRA:          -5.673
REMARK INTER:                  -4.854
REMARK INTRA:                  -0.820
REMARK UNBOUND:                -0.900
REMARK SMILES CCCOC(=O)c1ccccc1C(=O)OCCC
REMARK SMILES IDX 7 1 8 2 9 3 10 4 11 5 12 6 5 7 6 8 4 9 3 10 2 11 1 12 13 13
REMARK SMILES IDX 14 14 15 15 16 16 17 17 18 18
REMARK H PARENT
REMARK Flexibility Score: inf
ROOT
ATOM      1  C   UNL     1       7.853 -33.025  16.886  1.00  0.00     0.074 A 
ATOM      2  C   UNL     1       7.883 -32.527  18.202  1.00  0.00     0.016 A 
ATOM      3  C   UNL     1       8.891 -31.653  18.612  1.00  0.00     0.001 A 
ATOM      4  C   UNL     1       9.883 -31.259  17.714  1.00  0.00     0.001 A 
ATOM      5  C   UNL     1       9.882 -31.756  16.411  1.00  0.00     0.016 A 
ATOM      6  C   UNL     1       8.891 -32.657  15.988  1.00  0.00     0.074 A 
ENDROOT
BRANCH   1   7
ATOM      7  C   UNL     1       6.694 -33.847  16.462  1.00  0.00     0.339 C 
ATOM      8  O   UNL     1       5.986 -33.477  15.486  1.00  0.00    -0.246 OA
BRANCH   7   9
ATOM      9  O   UNL     1       6.412 -35.052  17.119  1.00  0.00    -0.462 OA
BRANCH   9  10
ATOM     10  C   UNL     1       7.380 -36.074  17.345  1.00  0.00     0.233 C 
BRANCH  10  11
ATOM     11  C   UNL     1       7.772 -36.119  18.823  1.00  0.00     0.038 C 
ATOM     12  C   UNL     1       7.774 -37.552  19.350  1.00  0.00     0.007 C 
ENDBRANCH  10  11
ENDBRANCH   9  10
ENDBRANCH   7   9
ENDBRANCH   1   7
BRANCH   6  13
ATOM     13  C   UNL     1       9.004 -33.227  14.632  1.00  0.00     0.339 C 
ATOM     14  O   UNL     1       8.766 -32.507  13.624  1.00  0.00    -0.246 OA
BRANCH  13  15
ATOM     15  O   UNL     1       9.352 -34.573  14.479  1.00  0.00    -0.462 OA
BRANCH  15  16
ATOM     16  C   UNL     1       8.935 -35.371  13.371  1.00  0.00     0.233 C 
BRANCH  16  17
ATOM     17  C   UNL     1       8.206 -36.639  13.836  1.00  0.00     0.038 C 
ATOM     18  C   UNL     1       6.690 -36.508  13.710  1.00  0.00     0.007 C 
ENDBRANCH  16  17
ENDBRANCH  15  16
ENDBRANCH  13  15
ENDBRANCH   6  13
TORSDOF 8
ENDMDL
MODEL 8
REMARK VINA RESULT:    -3.043      1.481      5.246
REMARK INTER + INTRA:          -5.366
REMARK INTER:                  -4.492
REMARK INTRA:                  -0.874
REMARK UNBOUND:                -0.900
REMARK SMILES CCCOC(=O)c1ccccc1C(=O)OCCC
REMARK SMILES IDX 7 1 8 2 9 3 10 4 11 5 12 6 5 7 6 8 4 9 3 10 2 11 1 12 13 13
REMARK SMILES IDX 14 14 15 15 16 16 17 17 18 18
REMARK H PARENT
REMARK Flexibility Score: inf
ROOT
ATOM      1  C   UNL     1       8.621 -34.081  13.868  1.00  0.00     0.074 A 
ATOM      2  C   UNL     1       9.603 -33.905  12.876  1.00  0.00     0.016 A 
ATOM      3  C   UNL     1      10.614 -32.955  13.033  1.00  0.00     0.001 A 
ATOM      4  C   UNL     1      10.662 -32.169  14.183  1.00  0.00     0.001 A 
ATOM      5  C   UNL     1       9.688 -32.314  15.170  1.00  0.00     0.016 A 
ATOM      6  C   UNL     1       8.648 -33.246  15.018  1.00  0.00     0.074 A 
ENDROOT
BRANCH   1   7
ATOM      7  C   UNL     1       7.646 -35.188  13.714  1.00  0.00     0.339 C 
ATOM      8  O   UNL     1       6.605 -35.015  13.023  1.00  0.00    -0.246 OA
BRANCH   7   9
ATOM      9  O   UNL     1       7.903 -36.434  14.300  1.00  0.00    -0.462 OA
BRANCH   9  10
ATOM     10  C   UNL     1       6.972 -37.513  14.302  1.00  0.00     0.233 C 
BRANCH  10  11
ATOM     11  C   UNL     1       5.875 -37.269  15.340  1.00  0.00     0.038 C 
ATOM     12  C   UNL     1       6.470 -36.984  16.716  1.00  0.00     0.007 C 
ENDBRANCH  10  11
ENDBRANCH   9  10
ENDBRANCH   7   9
ENDBRANCH   1   7
BRANCH   6  13
ATOM     13  C   UNL     1       7.590 -33.281  16.045  1.00  0.00     0.339 C 
ATOM     14  O   UNL     1       6.464 -32.763  15.810  1.00  0.00    -0.246 OA
BRANCH  13  15
ATOM     15  O   UNL     1       7.856 -33.870  17.286  1.00  0.00    -0.462 OA
BRANCH  15  16
ATOM     16  C   UNL     1       7.613 -33.219  18.533  1.00  0.00     0.233 C 
BRANCH  16  17
ATOM     17  C   UNL     1       8.106 -31.766  18.513  1.00  0.00     0.038 C 
ATOM     18  C   UNL     1       9.593 -31.660  18.843  1.00  0.00     0.007 C 
ENDBRANCH  16  17
ENDBRANCH  15  16
ENDBRANCH  13  15
ENDBRANCH   6  13
TORSDOF 8
ENDMDL
