MODEL 1
REMARK VINA RESULT:    -6.372      0.000      0.000
REMARK INTER + INTRA:          -7.569
REMARK INTER:                  -7.489
REMARK INTRA:                  -0.079
REMARK UNBOUND:                -0.079
REMARK SMILES O=c1c(O)c(-c2ccc(O)cc2)oc2cc(O)cc(O)c12
REMARK SMILES IDX 5 1 3 2 2 3 1 4 21 5 19 6 18 7 16 8 15 9 14 10 13 11 6 12
REMARK SMILES IDX 7 13 8 14 9 15 12 16 11 17 10 18 4 20 20 22 17 24
REMARK H PARENT 10 19 4 21 20 23 17 25
REMARK Flexibility Score: inf
ROOT
ATOM      1  C   UNL     1     -34.363   0.823  16.090  1.00  0.00     0.180 A 
ATOM      2  C   UNL     1     -35.255   1.708  16.720  1.00  0.00     0.208 A 
ATOM      3  C   UNL     1     -35.297   1.748  18.122  1.00  0.00     0.238 A 
ATOM      4  O   UNL     1     -36.059   2.581  18.681  1.00  0.00    -0.285 OA
ATOM      5  C   UNL     1     -34.460   0.892  18.877  1.00  0.00     0.111 A 
ATOM      6  C   UNL     1     -34.448   0.820  20.303  1.00  0.00     0.134 A 
ATOM      7  C   UNL     1     -33.486   0.033  20.947  1.00  0.00     0.093 A 
ATOM      8  C   UNL     1     -32.579  -0.735  20.218  1.00  0.00     0.123 A 
ATOM      9  C   UNL     1     -32.620  -0.718  18.823  1.00  0.00     0.094 A 
ATOM     10  C   UNL     1     -33.545   0.085  18.152  1.00  0.00     0.146 A 
ATOM     11  O   UNL     1     -33.544   0.081  16.825  1.00  0.00    -0.452 OA
ENDROOT
BRANCH   1  12
ATOM     12  C   UNL     1     -34.278   0.706  14.616  1.00  0.00     0.021 A 
ATOM     13  C   UNL     1     -33.882   1.818  13.855  1.00  0.00     0.016 A 
ATOM     14  C   UNL     1     -33.774   1.722  12.464  1.00  0.00     0.047 A 
ATOM     15  C   UNL     1     -34.046   0.509  11.818  1.00  0.00     0.115 A 
ATOM     16  C   UNL     1     -34.532  -0.515  13.962  1.00  0.00     0.016 A 
ATOM     17  C   UNL     1     -34.422  -0.608  12.571  1.00  0.00     0.047 A 
BRANCH  15  18
ATOM     18  O   UNL     1     -33.942   0.402  10.434  1.00  0.00    -0.508 OA
ATOM     19  H   UNL     1     -34.729   0.597   9.826  1.00  0.00     0.293 HD
ENDBRANCH  15  18
ENDBRANCH   1  12
BRANCH   2  20
ATOM     20  O   UNL     1     -36.058   2.560  15.956  1.00  0.00    -0.502 OA
ATOM     21  H   UNL     1     -36.927   2.947  16.304  1.00  0.00     0.293 HD
ENDBRANCH   2  20
BRANCH   6  22
ATOM     22  O   UNL     1     -35.370   1.475  21.125  1.00  0.00    -0.507 OA
ATOM     23  H   UNL     1     -36.186   1.044  21.532  1.00  0.00     0.293 HD
ENDBRANCH   6  22
BRANCH   8  24
ATOM     24  O   UNL     1     -31.645  -1.520  20.892  1.00  0.00    -0.508 OA
ATOM     25  H   UNL     1     -31.929  -2.226  21.560  1.00  0.00     0.293 HD
ENDBRANCH   8  24
TORSDOF 5
ENDMDL
MODEL 2
REMARK VINA RESULT:    -6.277      3.858      4.538
REMARK INTER + INTRA:          -7.458
REMARK INTER:                  -7.229
REMARK INTRA:                  -0.229
REMARK UNBOUND:                -0.079
REMARK SMILES O=c1c(O)c(-c2ccc(O)cc2)oc2cc(O)cc(O)c12
REMARK SMILES IDX 5 1 3 2 2 3 1 4 21 5 19 6 18 7 16 8 15 9 14 10 13 11 6 12
REMARK SMILES IDX 7 13 8 14 9 15 12 16 11 17 10 18 4 20 20 22 17 24
REMARK H PARENT 10 19 4 21 20 23 17 25
REMARK Flexibility Score: inf
ROOT
ATOM      1  C   UNL     1     -33.347   2.764  15.372  1.00  0.00     0.180 A 
ATOM      2  C   UNL     1     -34.208   3.482  16.220  1.00  0.00     0.208 A 
ATOM      3  C   UNL     1     -33.678   4.508  17.017  1.00  0.00     0.238 A 
ATOM      4  O   UNL     1     -34.462   5.184  17.733  1.00  0.00    -0.285 OA
ATOM      5  C   UNL     1     -32.291   4.793  16.970  1.00  0.00     0.111 A 
ATOM      6  C   UNL     1     -31.639   5.784  17.764  1.00  0.00     0.134 A 
ATOM      7  C   UNL     1     -30.287   6.069  17.540  1.00  0.00     0.093 A 
ATOM      8  C   UNL     1     -29.548   5.356  16.597  1.00  0.00     0.123 A 
ATOM      9  C   UNL     1     -30.160   4.344  15.857  1.00  0.00     0.094 A 
ATOM     10  C   UNL     1     -31.517   4.061  16.033  1.00  0.00     0.146 A 
ATOM     11  O   UNL     1     -32.064   3.098  15.301  1.00  0.00    -0.452 OA
ENDROOT
BRANCH   1  12
ATOM     12  C   UNL     1     -33.827   1.652  14.519  1.00  0.00     0.021 A 
ATOM     13  C   UNL     1     -33.871   1.818  13.125  1.00  0.00     0.016 A 
ATOM     14  C   UNL     1     -34.300   0.773  12.301  1.00  0.00     0.047 A 
ATOM     15  C   UNL     1     -34.675  -0.456  12.859  1.00  0.00     0.115 A 
ATOM     16  C   UNL     1     -34.188   0.408  15.071  1.00  0.00     0.016 A 
ATOM     17  C   UNL     1     -34.615  -0.635  14.244  1.00  0.00     0.047 A 
BRANCH  15  18
ATOM     18  O   UNL     1     -35.104  -1.503  12.047  1.00  0.00    -0.508 OA
ATOM     19  H   UNL     1     -35.697  -1.341  11.242  1.00  0.00     0.293 HD
ENDBRANCH  15  18
ENDBRANCH   1  12
BRANCH   2  20
ATOM     20  O   UNL     1     -35.577   3.200  16.234  1.00  0.00    -0.502 OA
ATOM     21  H   UNL     1     -36.011   2.576  15.564  1.00  0.00     0.293 HD
ENDBRANCH   2  20
BRANCH   6  22
ATOM     22  O   UNL     1     -32.263   6.491  18.796  1.00  0.00    -0.507 OA
ATOM     23  H   UNL     1     -32.125   7.472  18.988  1.00  0.00     0.293 HD
ENDBRANCH   6  22
BRANCH   8  24
ATOM     24  O   UNL     1     -28.199   5.655  16.411  1.00  0.00    -0.508 OA
ATOM     25  H   UNL     1     -27.468   5.068  16.796  1.00  0.00     0.293 HD
ENDBRANCH   8  24
TORSDOF 5
ENDMDL
MODEL 3
REMARK VINA RESULT:    -6.160      2.058      2.463
REMARK INTER + INTRA:          -7.320
REMARK INTER:                  -7.080
REMARK INTRA:                  -0.240
REMARK UNBOUND:                -0.079
REMARK SMILES O=c1c(O)c(-c2ccc(O)cc2)oc2cc(O)cc(O)c12
REMARK SMILES IDX 5 1 3 2 2 3 1 4 21 5 19 6 18 7 16 8 15 9 14 10 13 11 6 12
REMARK SMILES IDX 7 13 8 14 9 15 12 16 11 17 10 18 4 20 20 22 17 24
REMARK H PARENT 10 19 4 21 20 23 17 25
REMARK Flexibility Score: inf
ROOT
ATOM      1  C   UNL     1     -33.424   2.715  15.650  1.00  0.00     0.180 A 
ATOM      2  C   UNL     1     -34.277   3.583  16.353  1.00  0.00     0.208 A 
ATOM      3  C   UNL     1     -34.758   3.193  17.612  1.00  0.00     0.238 A 
ATOM      4  O   UNL     1     -35.478   3.996  18.261  1.00  0.00    -0.285 OA
ATOM      5  C   UNL     1     -34.394   1.932  18.146  1.00  0.00     0.111 A 
ATOM      6  C   UNL     1     -34.854   1.417  19.395  1.00  0.00     0.134 A 
ATOM      7  C   UNL     1     -34.326   0.217  19.884  1.00  0.00     0.093 A 
ATOM      8  C   UNL     1     -33.404  -0.519  19.142  1.00  0.00     0.123 A 
ATOM      9  C   UNL     1     -32.991  -0.055  17.892  1.00  0.00     0.094 A 
ATOM     10  C   UNL     1     -33.473   1.158  17.394  1.00  0.00     0.146 A 
ATOM     11  O   UNL     1     -33.047   1.570  16.206  1.00  0.00    -0.452 OA
ENDROOT
BRANCH   1  12
ATOM     12  C   UNL     1     -32.895   3.046  14.306  1.00  0.00     0.021 A 
ATOM     13  C   UNL     1     -31.815   3.936  14.188  1.00  0.00     0.016 A 
ATOM     14  C   UNL     1     -31.286   4.245  12.930  1.00  0.00     0.047 A 
ATOM     15  C   UNL     1     -31.822   3.655  11.777  1.00  0.00     0.115 A 
ATOM     16  C   UNL     1     -33.416   2.444  13.145  1.00  0.00     0.016 A 
ATOM     17  C   UNL     1     -32.884   2.753  11.890  1.00  0.00     0.047 A 
BRANCH  15  18
ATOM     18  O   UNL     1     -31.304   3.955  10.520  1.00  0.00    -0.508 OA
ATOM     19  H   UNL     1     -31.541   3.404   9.704  1.00  0.00     0.293 HD
ENDBRANCH  15  18
ENDBRANCH   1  12
BRANCH   2  20
ATOM     20  O   UNL     1     -34.606   4.832  15.817  1.00  0.00    -0.502 OA
ATOM     21  H   UNL     1     -34.009   5.315  15.157  1.00  0.00     0.293 HD
ENDBRANCH   2  20
BRANCH   6  22
ATOM     22  O   UNL     1     -35.843   2.027  20.174  1.00  0.00    -0.507 OA
ATOM     23  H   UNL     1     -36.579   1.535  20.658  1.00  0.00     0.293 HD
ENDBRANCH   6  22
BRANCH   8  24
ATOM     24  O   UNL     1     -32.910  -1.719  19.652  1.00  0.00    -0.508 OA
ATOM     25  H   UNL     1     -31.926  -1.841  19.861  1.00  0.00     0.293 HD
ENDBRANCH   8  24
TORSDOF 5
ENDMDL
MODEL 4
REMARK VINA RESULT:    -6.135      3.412      4.759
REMARK INTER + INTRA:          -7.291
REMARK INTER:                  -7.107
REMARK INTRA:                  -0.183
REMARK UNBOUND:                -0.079
REMARK SMILES O=c1c(O)c(-c2ccc(O)cc2)oc2cc(O)cc(O)c12
REMARK SMILES IDX 5 1 3 2 2 3 1 4 21 5 19 6 18 7 16 8 15 9 14 10 13 11 6 12
REMARK SMILES IDX 7 13 8 14 9 15 12 16 11 17 10 18 4 20 20 22 17 24
REMARK H PARENT 10 19 4 21 20 23 17 25
REMARK Flexibility Score: inf
ROOT
ATOM      1  C   UNL     1     -33.377   3.133  15.821  1.00  0.00     0.180 A 
ATOM      2  C   UNL     1     -32.460   2.686  16.788  1.00  0.00     0.208 A 
ATOM      3  C   UNL     1     -32.257   3.459  17.942  1.00  0.00     0.238 A 
ATOM      4  O   UNL     1     -31.476   3.027  18.830  1.00  0.00    -0.285 OA
ATOM      5  C   UNL     1     -32.960   4.677  18.107  1.00  0.00     0.111 A 
ATOM      6  C   UNL     1     -32.802   5.560  19.218  1.00  0.00     0.134 A 
ATOM      7  C   UNL     1     -33.644   6.672  19.342  1.00  0.00     0.093 A 
ATOM      8  C   UNL     1     -34.593   6.969  18.364  1.00  0.00     0.123 A 
ATOM      9  C   UNL     1     -34.716   6.145  17.244  1.00  0.00     0.094 A 
ATOM     10  C   UNL     1     -33.914   5.009  17.110  1.00  0.00     0.146 A 
ATOM     11  O   UNL     1     -34.070   4.246  16.035  1.00  0.00    -0.452 OA
ENDROOT
BRANCH   1  12
ATOM     12  C   UNL     1     -33.627   2.386  14.567  1.00  0.00     0.021 A 
ATOM     13  C   UNL     1     -33.131   2.887  13.352  1.00  0.00     0.016 A 
ATOM     14  C   UNL     1     -33.337   2.185  12.160  1.00  0.00     0.047 A 
ATOM     15  C   UNL     1     -34.028   0.967  12.170  1.00  0.00     0.115 A 
ATOM     16  C   UNL     1     -34.305   1.152  14.572  1.00  0.00     0.016 A 
ATOM     17  C   UNL     1     -34.508   0.452  13.379  1.00  0.00     0.047 A 
BRANCH  15  18
ATOM     18  O   UNL     1     -34.239   0.260  10.989  1.00  0.00    -0.508 OA
ATOM     19  H   UNL     1     -34.004   0.654  10.086  1.00  0.00     0.293 HD
ENDBRANCH  15  18
ENDBRANCH   1  12
BRANCH   2  20
ATOM     20  O   UNL     1     -31.794   1.470  16.616  1.00  0.00    -0.502 OA
ATOM     21  H   UNL     1     -31.503   1.132  15.706  1.00  0.00     0.293 HD
ENDBRANCH   2  20
BRANCH   6  22
ATOM     22  O   UNL     1     -31.823   5.407  20.204  1.00  0.00    -0.507 OA
ATOM     23  H   UNL     1     -31.136   4.668  20.223  1.00  0.00     0.293 HD
ENDBRANCH   6  22
BRANCH   8  24
ATOM     24  O   UNL     1     -35.404   8.092  18.511  1.00  0.00    -0.508 OA
ATOM     25  H   UNL     1     -36.372   8.091  18.210  1.00  0.00     0.293 HD
ENDBRANCH   8  24
TORSDOF 5
ENDMDL
MODEL 5
REMARK VINA RESULT:    -6.112      3.077      6.262
REMARK INTER + INTRA:          -7.263
REMARK INTER:                  -6.983
REMARK INTRA:                  -0.280
REMARK UNBOUND:                -0.079
REMARK SMILES O=c1c(O)c(-c2ccc(O)cc2)oc2cc(O)cc(O)c12
REMARK SMILES IDX 5 1 3 2 2 3 1 4 21 5 19 6 18 7 16 8 15 9 14 10 13 11 6 12
REMARK SMILES IDX 7 13 8 14 9 15 12 16 11 17 10 18 4 20 20 22 17 24
REMARK H PARENT 10 19 4 21 20 23 17 25
REMARK Flexibility Score: inf
ROOT
ATOM      1  C   UNL     1     -31.935   0.406  17.359  1.00  0.00     0.180 A 
ATOM      2  C   UNL     1     -33.186   0.320  16.723  1.00  0.00     0.208 A 
ATOM      3  C   UNL     1     -33.716   1.463  16.105  1.00  0.00     0.238 A 
ATOM      4  O   UNL     1     -34.810   1.366  15.491  1.00  0.00    -0.285 OA
ATOM      5  C   UNL     1     -32.997   2.683  16.145  1.00  0.00     0.111 A 
ATOM      6  C   UNL     1     -33.457   3.913  15.586  1.00  0.00     0.134 A 
ATOM      7  C   UNL     1     -32.607   5.025  15.568  1.00  0.00     0.093 A 
ATOM      8  C   UNL     1     -31.338   4.970  16.145  1.00  0.00     0.123 A 
ATOM      9  C   UNL     1     -30.901   3.789  16.747  1.00  0.00     0.094 A 
ATOM     10  C   UNL     1     -31.713   2.653  16.748  1.00  0.00     0.146 A 
ATOM     11  O   UNL     1     -31.256   1.546  17.321  1.00  0.00    -0.452 OA
ENDROOT
BRANCH   1  12
ATOM     12  C   UNL     1     -31.322  -0.750  18.053  1.00  0.00     0.021 A 
ATOM     13  C   UNL     1     -30.548  -1.665  17.322  1.00  0.00     0.016 A 
ATOM     14  C   UNL     1     -29.942  -2.751  17.962  1.00  0.00     0.047 A 
ATOM     15  C   UNL     1     -30.090  -2.926  19.344  1.00  0.00     0.115 A 
ATOM     16  C   UNL     1     -31.451  -0.921  19.444  1.00  0.00     0.016 A 
ATOM     17  C   UNL     1     -30.843  -2.007  20.082  1.00  0.00     0.047 A 
BRANCH  15  18
ATOM     18  O   UNL     1     -29.491  -4.003  19.992  1.00  0.00    -0.508 OA
ATOM     19  H   UNL     1     -29.505  -4.088  21.001  1.00  0.00     0.293 HD
ENDBRANCH  15  18
ENDBRANCH   1  12
BRANCH   2  20
ATOM     20  O   UNL     1     -33.868  -0.899  16.677  1.00  0.00    -0.502 OA
ATOM     21  H   UNL     1     -33.411  -1.770  16.433  1.00  0.00     0.293 HD
ENDBRANCH   2  20
BRANCH   6  22
ATOM     22  O   UNL     1     -34.741   4.102  15.066  1.00  0.00    -0.507 OA
ATOM     23  H   UNL     1     -34.943   4.499  14.161  1.00  0.00     0.293 HD
ENDBRANCH   6  22
BRANCH   8  24
ATOM     24  O   UNL     1     -30.523   6.100  16.124  1.00  0.00    -0.508 OA
ATOM     25  H   UNL     1     -29.590   6.074  15.730  1.00  0.00     0.293 HD
ENDBRANCH   8  24
TORSDOF 5
ENDMDL
MODEL 6
REMARK VINA RESULT:    -6.084      5.203      5.944
REMARK INTER + INTRA:          -7.231
REMARK INTER:                  -6.953
REMARK INTRA:                  -0.277
REMARK UNBOUND:                -0.079
REMARK SMILES O=c1c(O)c(-c2ccc(O)cc2)oc2cc(O)cc(O)c12
REMARK SMILES IDX 5 1 3 2 2 3 1 4 21 5 19 6 18 7 16 8 15 9 14 10 13 11 6 12
REMARK SMILES IDX 7 13 8 14 9 15 12 16 11 17 10 18 4 20 20 22 17 24
REMARK H PARENT 10 19 4 21 20 23 17 25
REMARK Flexibility Score: inf
ROOT
ATOM      1  C   UNL     1     -32.242   3.776  16.332  1.00  0.00     0.180 A 
ATOM      2  C   UNL     1     -32.663   4.572  17.411  1.00  0.00     0.208 A 
ATOM      3  C   UNL     1     -31.777   5.523  17.942  1.00  0.00     0.238 A 
ATOM      4  O   UNL     1     -32.178   6.270  18.872  1.00  0.00    -0.285 OA
ATOM      5  C   UNL     1     -30.476   5.655  17.398  1.00  0.00     0.111 A 
ATOM      6  C   UNL     1     -29.483   6.558  17.883  1.00  0.00     0.134 A 
ATOM      7  C   UNL     1     -28.276   6.697  17.186  1.00  0.00     0.093 A 
ATOM      8  C   UNL     1     -28.001   5.921  16.061  1.00  0.00     0.123 A 
ATOM      9  C   UNL     1     -28.942   4.992  15.613  1.00  0.00     0.094 A 
ATOM     10  C   UNL     1     -30.169   4.856  16.266  1.00  0.00     0.146 A 
ATOM     11  O   UNL     1     -31.040   3.969  15.802  1.00  0.00    -0.452 OA
ENDROOT
BRANCH   1  12
ATOM     12  C   UNL     1     -33.110   2.735  15.735  1.00  0.00     0.021 A 
ATOM     13  C   UNL     1     -33.189   1.470  16.340  1.00  0.00     0.016 A 
ATOM     14  C   UNL     1     -34.019   0.479  15.805  1.00  0.00     0.047 A 
ATOM     15  C   UNL     1     -34.793   0.748  14.667  1.00  0.00     0.115 A 
ATOM     16  C   UNL     1     -33.904   3.003  14.604  1.00  0.00     0.016 A 
ATOM     17  C   UNL     1     -34.734   2.012  14.072  1.00  0.00     0.047 A 
BRANCH  15  18
ATOM     18  O   UNL     1     -35.623  -0.230  14.126  1.00  0.00    -0.508 OA
ATOM     19  H   UNL     1     -35.976  -0.161  13.179  1.00  0.00     0.293 HD
ENDBRANCH  15  18
ENDBRANCH   1  12
BRANCH   2  20
ATOM     20  O   UNL     1     -33.959   4.441  17.919  1.00  0.00    -0.502 OA
ATOM     21  H   UNL     1     -34.672   5.145  17.777  1.00  0.00     0.293 HD
ENDBRANCH   2  20
BRANCH   6  22
ATOM     22  O   UNL     1     -29.619   7.314  19.051  1.00  0.00    -0.507 OA
ATOM     23  H   UNL     1     -30.377   7.223  19.711  1.00  0.00     0.293 HD
ENDBRANCH   6  22
BRANCH   8  24
ATOM     24  O   UNL     1     -26.784   6.073  15.401  1.00  0.00    -0.508 OA
ATOM     25  H   UNL     1     -26.235   6.921  15.489  1.00  0.00     0.293 HD
ENDBRANCH   8  24
TORSDOF 5
ENDMDL
MODEL 7
REMARK VINA RESULT:    -5.891     15.019     17.009
REMARK INTER + INTRA:          -7.003
REMARK INTER:                  -6.714
REMARK INTRA:                  -0.289
REMARK UNBOUND:                -0.079
REMARK SMILES O=c1c(O)c(-c2ccc(O)cc2)oc2cc(O)cc(O)c12
REMARK SMILES IDX 5 1 3 2 2 3 1 4 21 5 19 6 18 7 16 8 15 9 14 10 13 11 6 12
REMARK SMILES IDX 7 13 8 14 9 15 12 16 11 17 10 18 4 20 20 22 17 24
REMARK H PARENT 10 19 4 21 20 23 17 25
REMARK Flexibility Score: inf
ROOT
ATOM      1  C   UNL     1     -26.720   2.485   2.512  1.00  0.00     0.180 A 
ATOM      2  C   UNL     1     -27.544   3.314   1.732  1.00  0.00     0.208 A 
ATOM      3  C   UNL     1     -27.230   4.678   1.622  1.00  0.00     0.238 A 
ATOM      4  O   UNL     1     -27.939   5.404   0.878  1.00  0.00    -0.285 OA
ATOM      5  C   UNL     1     -26.107   5.200   2.309  1.00  0.00     0.111 A 
ATOM      6  C   UNL     1     -25.718   6.573   2.302  1.00  0.00     0.134 A 
ATOM      7  C   UNL     1     -24.516   6.954   2.908  1.00  0.00     0.093 A 
ATOM      8  C   UNL     1     -23.720   6.024   3.577  1.00  0.00     0.123 A 
ATOM      9  C   UNL     1     -24.120   4.689   3.641  1.00  0.00     0.094 A 
ATOM     10  C   UNL     1     -25.297   4.272   3.014  1.00  0.00     0.146 A 
ATOM     11  O   UNL     1     -25.636   2.991   3.090  1.00  0.00    -0.452 OA
ENDROOT
BRANCH   1  12
ATOM     12  C   UNL     1     -27.000   1.042   2.695  1.00  0.00     0.021 A 
ATOM     13  C   UNL     1     -27.844   0.628   3.738  1.00  0.00     0.016 A 
ATOM     14  C   UNL     1     -28.139  -0.727   3.915  1.00  0.00     0.047 A 
ATOM     15  C   UNL     1     -27.605  -1.684   3.041  1.00  0.00     0.115 A 
ATOM     16  C   UNL     1     -26.482   0.078   1.810  1.00  0.00     0.016 A 
ATOM     17  C   UNL     1     -26.780  -1.277   1.988  1.00  0.00     0.047 A 
BRANCH  15  18
ATOM     18  O   UNL     1     -27.892  -3.036   3.207  1.00  0.00    -0.508 OA
ATOM     19  H   UNL     1     -27.157  -3.724   3.323  1.00  0.00     0.293 HD
ENDBRANCH  15  18
ENDBRANCH   1  12
BRANCH   2  20
ATOM     20  O   UNL     1     -28.635   2.774   1.044  1.00  0.00    -0.502 OA
ATOM     21  H   UNL     1     -28.541   2.002   0.396  1.00  0.00     0.293 HD
ENDBRANCH   2  20
BRANCH   6  22
ATOM     22  O   UNL     1     -26.486   7.598   1.742  1.00  0.00    -0.507 OA
ATOM     23  H   UNL     1     -26.473   7.861   0.768  1.00  0.00     0.293 HD
ENDBRANCH   6  22
BRANCH   8  24
ATOM     24  O   UNL     1     -22.537   6.441   4.184  1.00  0.00    -0.508 OA
ATOM     25  H   UNL     1     -21.731   6.724   3.637  1.00  0.00     0.293 HD
ENDBRANCH   8  24
TORSDOF 5
ENDMDL
MODEL 8
REMARK VINA RESULT:    -5.837     15.055     17.352
REMARK INTER + INTRA:          -6.940
REMARK INTER:                  -6.822
REMARK INTRA:                  -0.118
REMARK UNBOUND:                -0.079
REMARK SMILES O=c1c(O)c(-c2ccc(O)cc2)oc2cc(O)cc(O)c12
REMARK SMILES IDX 5 1 3 2 2 3 1 4 21 5 19 6 18 7 16 8 15 9 14 10 13 11 6 12
REMARK SMILES IDX 7 13 8 14 9 15 12 16 11 17 10 18 4 20 20 22 17 24
REMARK H PARENT 10 19 4 21 20 23 17 25
REMARK Flexibility Score: inf
ROOT
ATOM      1  C   UNL     1     -26.286   2.590   2.534  1.00  0.00     0.180 A 
ATOM      2  C   UNL     1     -24.922   2.894   2.386  1.00  0.00     0.208 A 
ATOM      3  C   UNL     1     -24.534   4.237   2.262  1.00  0.00     0.238 A 
ATOM      4  O   UNL     1     -23.307   4.508   2.185  1.00  0.00    -0.285 OA
ATOM      5  C   UNL     1     -25.515   5.259   2.271  1.00  0.00     0.111 A 
ATOM      6  C   UNL     1     -25.238   6.650   2.113  1.00  0.00     0.134 A 
ATOM      7  C   UNL     1     -26.271   7.582   2.269  1.00  0.00     0.093 A 
ATOM      8  C   UNL     1     -27.581   7.171   2.513  1.00  0.00     0.123 A 
ATOM      9  C   UNL     1     -27.873   5.809   2.611  1.00  0.00     0.094 A 
ATOM     10  C   UNL     1     -26.857   4.858   2.495  1.00  0.00     0.146 A 
ATOM     11  O   UNL     1     -27.176   3.574   2.605  1.00  0.00    -0.452 OA
ENDROOT
BRANCH   1  12
ATOM     12  C   UNL     1     -26.776   1.197   2.645  1.00  0.00     0.021 A 
ATOM     13  C   UNL     1     -27.517   0.812   3.775  1.00  0.00     0.016 A 
ATOM     14  C   UNL     1     -28.007  -0.492   3.890  1.00  0.00     0.047 A 
ATOM     15  C   UNL     1     -27.776  -1.424   2.869  1.00  0.00     0.115 A 
ATOM     16  C   UNL     1     -26.564   0.261   1.616  1.00  0.00     0.016 A 
ATOM     17  C   UNL     1     -27.056  -1.043   1.733  1.00  0.00     0.047 A 
BRANCH  15  18
ATOM     18  O   UNL     1     -28.260  -2.726   2.973  1.00  0.00    -0.508 OA
ATOM     19  H   UNL     1     -27.642  -3.527   2.913  1.00  0.00     0.293 HD
ENDBRANCH  15  18
ENDBRANCH   1  12
BRANCH   2  20
ATOM     20  O   UNL     1     -23.968   1.873   2.402  1.00  0.00    -0.502 OA
ATOM     21  H   UNL     1     -24.091   1.023   2.939  1.00  0.00     0.293 HD
ENDBRANCH   2  20
BRANCH   6  22
ATOM     22  O   UNL     1     -23.982   7.163   1.777  1.00  0.00    -0.507 OA
ATOM     23  H   UNL     1     -23.773   8.142   1.655  1.00  0.00     0.293 HD
ENDBRANCH   6  22
BRANCH   8  24
ATOM     24  O   UNL     1     -28.588   8.124   2.648  1.00  0.00    -0.508 OA
ATOM     25  H   UNL     1     -28.433   9.097   2.407  1.00  0.00     0.293 HD
ENDBRANCH   8  24
TORSDOF 5
ENDMDL
MODEL 9
REMARK VINA RESULT:    -5.790      4.617      5.761
REMARK INTER + INTRA:          -6.885
REMARK INTER:                  -6.639
REMARK INTRA:                  -0.246
REMARK UNBOUND:                -0.079
REMARK SMILES O=c1c(O)c(-c2ccc(O)cc2)oc2cc(O)cc(O)c12
REMARK SMILES IDX 5 1 3 2 2 3 1 4 21 5 19 6 18 7 16 8 15 9 14 10 13 11 6 12
REMARK SMILES IDX 7 13 8 14 9 15 12 16 11 17 10 18 4 20 20 22 17 24
REMARK H PARENT 10 19 4 21 20 23 17 25
REMARK Flexibility Score: inf
ROOT
ATOM      1  C   UNL     1     -31.246   3.475  16.599  1.00  0.00     0.180 A 
ATOM      2  C   UNL     1     -32.280   3.416  15.649  1.00  0.00     0.208 A 
ATOM      3  C   UNL     1     -33.129   2.298  15.634  1.00  0.00     0.238 A 
ATOM      4  O   UNL     1     -34.086   2.276  14.817  1.00  0.00    -0.285 OA
ATOM      5  C   UNL     1     -32.923   1.245  16.558  1.00  0.00     0.111 A 
ATOM      6  C   UNL     1     -33.697   0.047  16.608  1.00  0.00     0.134 A 
ATOM      7  C   UNL     1     -33.489  -0.868  17.647  1.00  0.00     0.093 A 
ATOM      8  C   UNL     1     -32.493  -0.660  18.601  1.00  0.00     0.123 A 
ATOM      9  C   UNL     1     -31.691   0.480  18.528  1.00  0.00     0.094 A 
ATOM     10  C   UNL     1     -31.898   1.428  17.523  1.00  0.00     0.146 A 
ATOM     11  O   UNL     1     -31.120   2.503  17.495  1.00  0.00    -0.452 OA
ENDROOT
BRANCH   1  12
ATOM     12  C   UNL     1     -30.296   4.610  16.661  1.00  0.00     0.021 A 
ATOM     13  C   UNL     1     -30.387   5.531  17.717  1.00  0.00     0.016 A 
ATOM     14  C   UNL     1     -29.486   6.597  17.807  1.00  0.00     0.047 A 
ATOM     15  C   UNL     1     -28.473   6.745  16.850  1.00  0.00     0.115 A 
ATOM     16  C   UNL     1     -29.264   4.754  15.714  1.00  0.00     0.016 A 
ATOM     17  C   UNL     1     -28.364   5.820  15.807  1.00  0.00     0.047 A 
BRANCH  15  18
ATOM     18  O   UNL     1     -27.570   7.802  16.929  1.00  0.00    -0.508 OA
ATOM     19  H   UNL     1     -26.661   7.757  16.485  1.00  0.00     0.293 HD
ENDBRANCH  15  18
ENDBRANCH   1  12
BRANCH   2  20
ATOM     20  O   UNL     1     -32.480   4.476  14.760  1.00  0.00    -0.502 OA
ATOM     21  H   UNL     1     -33.246   4.495  14.098  1.00  0.00     0.293 HD
ENDBRANCH   2  20
BRANCH   6  22
ATOM     22  O   UNL     1     -34.655  -0.303  15.652  1.00  0.00    -0.507 OA
ATOM     23  H   UNL     1     -35.332  -1.044  15.760  1.00  0.00     0.293 HD
ENDBRANCH   6  22
BRANCH   8  24
ATOM     24  O   UNL     1     -32.302  -1.598  19.613  1.00  0.00    -0.508 OA
ATOM     25  H   UNL     1     -33.085  -2.061  20.062  1.00  0.00     0.293 HD
ENDBRANCH   8  24
TORSDOF 5
ENDMDL
