MODEL 1
REMARK VINA RESULT:    -3.990      0.000      0.000
REMARK INTER + INTRA:         -10.692
REMARK INTER:                  -7.723
REMARK INTRA:                  -2.969
REMARK UNBOUND:                -2.969
REMARK SMILES CCCCCCCCCCCCCCCCCC(=O)[O-]
REMARK SMILES IDX 10 1 11 2 12 3 13 4 14 5 15 6 16 7 17 8 18 9 19 10 20 11
REMARK SMILES IDX 9 12 8 13 7 14 6 15 5 16 4 17 3 18 2 19 1 20
REMARK H PARENT
REMARK Flexibility Score: inf
ROOT
ATOM      1  C   UNL     1      41.928  24.013 225.017  1.00  0.00     0.000 C 
ENDROOT
BRANCH   1   2
ATOM      2  C   UNL     1      41.630  23.719 226.496  1.00  0.00     0.000 C 
BRANCH   2   3
ATOM      3  C   UNL     1      41.245  22.248 226.739  1.00  0.00     0.000 C 
BRANCH   3   4
ATOM      4  C   UNL     1      39.779  22.094 227.175  1.00  0.00     0.000 C 
BRANCH   4   5
ATOM      5  C   UNL     1      38.887  21.525 226.058  1.00  0.00     0.000 C 
BRANCH   5   6
ATOM      6  C   UNL     1      39.409  20.173 225.529  1.00  0.00     0.000 C 
BRANCH   6   7
ATOM      7  C   UNL     1      38.394  19.026 225.665  1.00  0.00     0.006 C 
BRANCH   7   8
ATOM      8  C   UNL     1      37.505  19.159 226.908  1.00  0.00     0.053 C 
BRANCH   8   9
ATOM      9  C   UNL     1      36.070  19.300 226.512  1.00  0.00     0.041 C 
ATOM     10  O   UNL     1      35.436  20.352 226.791  1.00  0.00    -0.550 OA
ATOM     11  O   UNL     1      35.418  18.251 225.876  1.00  0.00    -0.550 OA
ENDBRANCH   8   9
ENDBRANCH   7   8
ENDBRANCH   6   7
ENDBRANCH   5   6
ENDBRANCH   4   5
ENDBRANCH   3   4
ENDBRANCH   2   3
ENDBRANCH   1   2
BRANCH   1  12
ATOM     12  C   UNL     1      41.927  22.743 224.148  1.00  0.00     0.000 C 
BRANCH  12  13
ATOM     13  C   UNL     1      40.883  22.800 223.022  1.00  0.00    -0.000 C 
BRANCH  13  14
ATOM     14  C   UNL     1      39.993  24.053 223.108  1.00  0.00    -0.000 C 
BRANCH  14  15
ATOM     15  C   UNL     1      38.494  23.713 223.166  1.00  0.00    -0.000 C 
BRANCH  15  16
ATOM     16  C   UNL     1      37.717  24.636 224.119  1.00  0.00    -0.000 C 
BRANCH  16  17
ATOM     17  C   UNL     1      38.422  25.984 224.354  1.00  0.00    -0.000 C 
BRANCH  17  18
ATOM     18  C   UNL     1      38.899  26.236 225.799  1.00  0.00    -0.000 C 
BRANCH  18  19
ATOM     19  C   UNL     1      38.246  25.340 226.865  1.00  0.00    -0.003 C 
ATOM     20  C   UNL     1      38.815  25.571 228.265  1.00  0.00     0.004 C 
ENDBRANCH  18  19
ENDBRANCH  17  18
ENDBRANCH  16  17
ENDBRANCH  15  16
ENDBRANCH  14  15
ENDBRANCH  13  14
ENDBRANCH  12  13
ENDBRANCH   1  12
TORSDOF 16
ENDMDL
MODEL 2
REMARK VINA RESULT:    -3.933      1.846      3.922
REMARK INTER + INTRA:         -10.581
REMARK INTER:                  -8.036
REMARK INTRA:                  -2.545
REMARK UNBOUND:                -2.969
REMARK SMILES CCCCCCCCCCCCCCCCCC(=O)[O-]
REMARK SMILES IDX 10 1 11 2 12 3 13 4 14 5 15 6 16 7 17 8 18 9 19 10 20 11
REMARK SMILES IDX 9 12 8 13 7 14 6 15 5 16 4 17 3 18 2 19 1 20
REMARK H PARENT
REMARK Flexibility Score: inf
ROOT
ATOM      1  C   UNL     1      40.536  24.436 226.077  1.00  0.00     0.000 C 
ENDROOT
BRANCH   1   2
ATOM      2  C   UNL     1      41.461  23.874 224.986  1.00  0.00     0.000 C 
BRANCH   2   3
ATOM      3  C   UNL     1      40.812  23.902 223.590  1.00  0.00     0.000 C 
BRANCH   3   4
ATOM      4  C   UNL     1      39.897  22.690 223.349  1.00  0.00     0.000 C 
BRANCH   4   5
ATOM      5  C   UNL     1      40.351  21.443 224.127  1.00  0.00     0.000 C 
BRANCH   5   6
ATOM      6  C   UNL     1      39.189  20.789 224.904  1.00  0.00     0.000 C 
BRANCH   6   7
ATOM      7  C   UNL     1      37.925  21.661 224.970  1.00  0.00     0.006 C 
BRANCH   7   8
ATOM      8  C   UNL     1      37.564  22.083 226.400  1.00  0.00     0.053 C 
BRANCH   8   9
ATOM      9  C   UNL     1      36.938  20.943 227.138  1.00  0.00     0.041 C 
ATOM     10  O   UNL     1      35.754  20.595 226.883  1.00  0.00    -0.550 OA
ATOM     11  O   UNL     1      37.644  20.294 228.144  1.00  0.00    -0.550 OA
ENDBRANCH   8   9
ENDBRANCH   7   8
ENDBRANCH   6   7
ENDBRANCH   5   6
ENDBRANCH   4   5
ENDBRANCH   3   4
ENDBRANCH   2   3
ENDBRANCH   1   2
BRANCH   1  12
ATOM     12  C   UNL     1      40.382  25.965 225.993  1.00  0.00     0.000 C 
BRANCH  12  13
ATOM     13  C   UNL     1      39.027  26.388 225.404  1.00  0.00    -0.000 C 
BRANCH  13  14
ATOM     14  C   UNL     1      37.851  25.602 226.009  1.00  0.00    -0.000 C 
BRANCH  14  15
ATOM     15  C   UNL     1      36.609  25.599 225.103  1.00  0.00    -0.000 C 
BRANCH  15  16
ATOM     16  C   UNL     1      36.858  24.884 223.764  1.00  0.00    -0.000 C 
BRANCH  16  17
ATOM     17  C   UNL     1      35.644  24.066 223.289  1.00  0.00    -0.000 C 
BRANCH  17  18
ATOM     18  C   UNL     1      35.851  23.280 221.978  1.00  0.00    -0.000 C 
BRANCH  18  19
ATOM     19  C   UNL     1      36.925  23.855 221.037  1.00  0.00    -0.003 C 
ATOM     20  C   UNL     1      36.578  23.676 219.560  1.00  0.00     0.004 C 
ENDBRANCH  18  19
ENDBRANCH  17  18
ENDBRANCH  16  17
ENDBRANCH  15  16
ENDBRANCH  14  15
ENDBRANCH  13  14
ENDBRANCH  12  13
ENDBRANCH   1  12
TORSDOF 16
ENDMDL
MODEL 3
REMARK VINA RESULT:    -3.907      1.098      2.752
REMARK INTER + INTRA:         -10.530
REMARK INTER:                  -7.739
REMARK INTRA:                  -2.792
REMARK UNBOUND:                -2.969
REMARK SMILES CCCCCCCCCCCCCCCCCC(=O)[O-]
REMARK SMILES IDX 10 1 11 2 12 3 13 4 14 5 15 6 16 7 17 8 18 9 19 10 20 11
REMARK SMILES IDX 9 12 8 13 7 14 6 15 5 16 4 17 3 18 2 19 1 20
REMARK H PARENT
REMARK Flexibility Score: inf
ROOT
ATOM      1  C   UNL     1      41.246  22.671 227.901  1.00  0.00     0.000 C 
ENDROOT
BRANCH   1   2
ATOM      2  C   UNL     1      40.609  21.417 227.283  1.00  0.00     0.000 C 
BRANCH   2   3
ATOM      3  C   UNL     1      39.265  21.717 226.594  1.00  0.00     0.000 C 
BRANCH   3   4
ATOM      4  C   UNL     1      38.965  20.733 225.451  1.00  0.00     0.000 C 
BRANCH   4   5
ATOM      5  C   UNL     1      39.652  19.371 225.647  1.00  0.00     0.000 C 
BRANCH   5   6
ATOM      6  C   UNL     1      38.634  18.234 225.877  1.00  0.00     0.000 C 
BRANCH   6   7
ATOM      7  C   UNL     1      37.826  18.385 227.176  1.00  0.00     0.006 C 
BRANCH   7   8
ATOM      8  C   UNL     1      36.338  18.056 226.996  1.00  0.00     0.053 C 
BRANCH   8   9
ATOM      9  C   UNL     1      35.653  19.138 226.224  1.00  0.00     0.041 C 
ATOM     10  O   UNL     1      35.307  18.943 225.029  1.00  0.00    -0.550 OA
ATOM     11  O   UNL     1      35.439  20.381 226.809  1.00  0.00    -0.550 OA
ENDBRANCH   8   9
ENDBRANCH   7   8
ENDBRANCH   6   7
ENDBRANCH   5   6
ENDBRANCH   4   5
ENDBRANCH   3   4
ENDBRANCH   2   3
ENDBRANCH   1   2
BRANCH   1  12
ATOM     12  C   UNL     1      41.046  23.927 227.034  1.00  0.00     0.000 C 
BRANCH  12  13
ATOM     13  C   UNL     1      42.265  24.232 226.149  1.00  0.00    -0.000 C 
BRANCH  13  14
ATOM     14  C   UNL     1      41.914  24.248 224.651  1.00  0.00    -0.000 C 
BRANCH  14  15
ATOM     15  C   UNL     1      41.844  22.838 224.042  1.00  0.00    -0.000 C 
BRANCH  15  16
ATOM     16  C   UNL     1      40.789  22.727 222.929  1.00  0.00    -0.000 C 
BRANCH  16  17
ATOM     17  C   UNL     1      39.902  23.981 222.820  1.00  0.00    -0.000 C 
BRANCH  17  18
ATOM     18  C   UNL     1      38.449  23.804 223.305  1.00  0.00    -0.000 C 
BRANCH  18  19
ATOM     19  C   UNL     1      38.111  24.522 224.623  1.00  0.00    -0.003 C 
ATOM     20  C   UNL     1      38.479  26.005 224.604  1.00  0.00     0.004 C 
ENDBRANCH  18  19
ENDBRANCH  17  18
ENDBRANCH  16  17
ENDBRANCH  15  16
ENDBRANCH  14  15
ENDBRANCH  13  14
ENDBRANCH  12  13
ENDBRANCH   1  12
TORSDOF 16
ENDMDL
MODEL 4
REMARK VINA RESULT:    -3.902      1.885      3.248
REMARK INTER + INTRA:         -10.522
REMARK INTER:                  -7.937
REMARK INTRA:                  -2.584
REMARK UNBOUND:                -2.969
REMARK SMILES CCCCCCCCCCCCCCCCCC(=O)[O-]
REMARK SMILES IDX 10 1 11 2 12 3 13 4 14 5 15 6 16 7 17 8 18 9 19 10 20 11
REMARK SMILES IDX 9 12 8 13 7 14 6 15 5 16 4 17 3 18 2 19 1 20
REMARK H PARENT
REMARK Flexibility Score: inf
ROOT
ATOM      1  C   UNL     1      41.945  22.324 225.573  1.00  0.00     0.000 C 
ENDROOT
BRANCH   1   2
ATOM      2  C   UNL     1      40.879  21.481 226.292  1.00  0.00     0.000 C 
BRANCH   2   3
ATOM      3  C   UNL     1      40.093  20.576 225.327  1.00  0.00     0.000 C 
BRANCH   3   4
ATOM      4  C   UNL     1      38.660  21.081 225.092  1.00  0.00     0.000 C 
BRANCH   4   5
ATOM      5  C   UNL     1      38.026  21.673 226.363  1.00  0.00     0.000 C 
BRANCH   5   6
ATOM      6  C   UNL     1      36.674  21.010 226.701  1.00  0.00     0.000 C 
BRANCH   6   7
ATOM      7  C   UNL     1      36.301  19.856 225.755  1.00  0.00     0.006 C 
BRANCH   7   8
ATOM      8  C   UNL     1      35.909  18.575 226.502  1.00  0.00     0.053 C 
BRANCH   8   9
ATOM      9  C   UNL     1      37.091  18.010 227.224  1.00  0.00     0.041 C 
ATOM     10  O   UNL     1      38.175  17.816 226.613  1.00  0.00    -0.550 OA
ATOM     11  O   UNL     1      36.981  17.651 228.563  1.00  0.00    -0.550 OA
ENDBRANCH   8   9
ENDBRANCH   7   8
ENDBRANCH   6   7
ENDBRANCH   5   6
ENDBRANCH   4   5
ENDBRANCH   3   4
ENDBRANCH   2   3
ENDBRANCH   1   2
BRANCH   1  12
ATOM     12  C   UNL     1      41.414  23.700 225.132  1.00  0.00     0.000 C 
BRANCH  12  13
ATOM     13  C   UNL     1      41.221  23.796 223.611  1.00  0.00    -0.000 C 
BRANCH  13  14
ATOM     14  C   UNL     1      39.744  23.974 223.216  1.00  0.00    -0.000 C 
BRANCH  14  15
ATOM     15  C   UNL     1      38.936  24.747 224.271  1.00  0.00    -0.000 C 
BRANCH  15  16
ATOM     16  C   UNL     1      37.541  25.150 223.766  1.00  0.00    -0.000 C 
BRANCH  16  17
ATOM     17  C   UNL     1      36.469  24.084 224.056  1.00  0.00    -0.000 C 
BRANCH  17  18
ATOM     18  C   UNL     1      36.150  23.134 222.884  1.00  0.00    -0.000 C 
BRANCH  18  19
ATOM     19  C   UNL     1      35.867  23.830 221.541  1.00  0.00    -0.003 C 
ATOM     20  C   UNL     1      36.962  23.585 220.503  1.00  0.00     0.004 C 
ENDBRANCH  18  19
ENDBRANCH  17  18
ENDBRANCH  16  17
ENDBRANCH  15  16
ENDBRANCH  14  15
ENDBRANCH  13  14
ENDBRANCH  12  13
ENDBRANCH   1  12
TORSDOF 16
ENDMDL
MODEL 5
REMARK VINA RESULT:    -3.893      2.558      5.226
REMARK INTER + INTRA:         -10.504
REMARK INTER:                  -7.807
REMARK INTRA:                  -2.696
REMARK UNBOUND:                -2.969
REMARK SMILES CCCCCCCCCCCCCCCCCC(=O)[O-]
REMARK SMILES IDX 10 1 11 2 12 3 13 4 14 5 15 6 16 7 17 8 18 9 19 10 20 11
REMARK SMILES IDX 9 12 8 13 7 14 6 15 5 16 4 17 3 18 2 19 1 20
REMARK H PARENT
REMARK Flexibility Score: inf
ROOT
ATOM      1  C   UNL     1      42.187  19.968 223.929  1.00  0.00     0.000 C 
ENDROOT
BRANCH   1   2
ATOM      2  C   UNL     1      42.497  21.063 222.896  1.00  0.00     0.000 C 
BRANCH   2   3
ATOM      3  C   UNL     1      41.560  22.278 223.026  1.00  0.00     0.000 C 
BRANCH   3   4
ATOM      4  C   UNL     1      41.672  22.954 224.402  1.00  0.00     0.000 C 
BRANCH   4   5
ATOM      5  C   UNL     1      40.318  23.477 224.915  1.00  0.00     0.000 C 
BRANCH   5   6
ATOM      6  C   UNL     1      39.283  23.622 223.780  1.00  0.00     0.000 C 
BRANCH   6   7
ATOM      7  C   UNL     1      37.903  23.040 224.127  1.00  0.00     0.006 C 
BRANCH   7   8
ATOM      8  C   UNL     1      37.196  23.810 225.250  1.00  0.00     0.053 C 
BRANCH   8   9
ATOM      9  C   UNL     1      36.198  24.766 224.678  1.00  0.00     0.041 C 
ATOM     10  O   UNL     1      36.172  25.964 225.067  1.00  0.00    -0.550 OA
ATOM     11  O   UNL     1      35.263  24.324 223.750  1.00  0.00    -0.550 OA
ENDBRANCH   8   9
ENDBRANCH   7   8
ENDBRANCH   6   7
ENDBRANCH   5   6
ENDBRANCH   4   5
ENDBRANCH   3   4
ENDBRANCH   2   3
ENDBRANCH   1   2
BRANCH   1  12
ATOM     12  C   UNL     1      40.823  19.297 223.691  1.00  0.00     0.000 C 
BRANCH  12  13
ATOM     13  C   UNL     1      39.843  19.528 224.853  1.00  0.00    -0.000 C 
BRANCH  13  14
ATOM     14  C   UNL     1      40.564  19.819 226.181  1.00  0.00    -0.000 C 
BRANCH  14  15
ATOM     15  C   UNL     1      39.596  19.930 227.370  1.00  0.00    -0.000 C 
BRANCH  15  16
ATOM     16  C   UNL     1      38.648  21.135 227.249  1.00  0.00    -0.000 C 
BRANCH  16  17
ATOM     17  C   UNL     1      37.169  20.752 227.436  1.00  0.00    -0.000 C 
BRANCH  17  18
ATOM     18  C   UNL     1      36.454  20.245 226.167  1.00  0.00    -0.000 C 
BRANCH  18  19
ATOM     19  C   UNL     1      35.665  18.936 226.344  1.00  0.00    -0.003 C 
ATOM     20  C   UNL     1      36.443  17.873 227.117  1.00  0.00     0.004 C 
ENDBRANCH  18  19
ENDBRANCH  17  18
ENDBRANCH  16  17
ENDBRANCH  15  16
ENDBRANCH  14  15
ENDBRANCH  13  14
ENDBRANCH  12  13
ENDBRANCH   1  12
TORSDOF 16
ENDMDL
MODEL 6
REMARK VINA RESULT:    -3.841      1.342      2.427
REMARK INTER + INTRA:         -10.402
REMARK INTER:                  -7.641
REMARK INTRA:                  -2.762
REMARK UNBOUND:                -2.969
REMARK SMILES CCCCCCCCCCCCCCCCCC(=O)[O-]
REMARK SMILES IDX 10 1 11 2 12 3 13 4 14 5 15 6 16 7 17 8 18 9 19 10 20 11
REMARK SMILES IDX 9 12 8 13 7 14 6 15 5 16 4 17 3 18 2 19 1 20
REMARK H PARENT
REMARK Flexibility Score: inf
ROOT
ATOM      1  C   UNL     1      40.599  23.853 223.200  1.00  0.00     0.000 C 
ENDROOT
BRANCH   1   2
ATOM      2  C   UNL     1      41.414  22.687 223.781  1.00  0.00     0.000 C 
BRANCH   2   3
ATOM      3  C   UNL     1      40.684  21.973 224.933  1.00  0.00     0.000 C 
BRANCH   3   4
ATOM      4  C   UNL     1      40.367  20.506 224.600  1.00  0.00     0.000 C 
BRANCH   4   5
ATOM      5  C   UNL     1      39.331  19.893 225.559  1.00  0.00     0.000 C 
BRANCH   5   6
ATOM      6  C   UNL     1      38.994  20.839 226.731  1.00  0.00     0.000 C 
BRANCH   6   7
ATOM      7  C   UNL     1      37.757  20.405 227.535  1.00  0.00     0.006 C 
BRANCH   7   8
ATOM      8  C   UNL     1      36.475  20.382 226.693  1.00  0.00     0.053 C 
BRANCH   8   9
ATOM      9  C   UNL     1      35.988  18.979 226.521  1.00  0.00     0.041 C 
ATOM     10  O   UNL     1      35.944  18.197 227.508  1.00  0.00    -0.550 OA
ATOM     11  O   UNL     1      35.626  18.518 225.261  1.00  0.00    -0.550 OA
ENDBRANCH   8   9
ENDBRANCH   7   8
ENDBRANCH   6   7
ENDBRANCH   5   6
ENDBRANCH   4   5
ENDBRANCH   3   4
ENDBRANCH   2   3
ENDBRANCH   1   2
BRANCH   1  12
ATOM     12  C   UNL     1      39.260  23.396 222.595  1.00  0.00     0.000 C 
BRANCH  12  13
ATOM     13  C   UNL     1      38.052  24.081 223.254  1.00  0.00    -0.000 C 
BRANCH  13  14
ATOM     14  C   UNL     1      37.354  23.177 224.285  1.00  0.00    -0.000 C 
BRANCH  14  15
ATOM     15  C   UNL     1      36.957  23.932 225.564  1.00  0.00    -0.000 C 
BRANCH  15  16
ATOM     16  C   UNL     1      38.175  24.338 226.411  1.00  0.00    -0.000 C 
BRANCH  16  17
ATOM     17  C   UNL     1      38.377  25.862 226.475  1.00  0.00    -0.000 C 
BRANCH  17  18
ATOM     18  C   UNL     1      39.642  26.390 225.767  1.00  0.00    -0.000 C 
BRANCH  18  19
ATOM     19  C   UNL     1      40.894  26.485 226.657  1.00  0.00    -0.003 C 
ATOM     20  C   UNL     1      42.090  25.727 226.082  1.00  0.00     0.004 C 
ENDBRANCH  18  19
ENDBRANCH  17  18
ENDBRANCH  16  17
ENDBRANCH  15  16
ENDBRANCH  14  15
ENDBRANCH  13  14
ENDBRANCH  12  13
ENDBRANCH   1  12
TORSDOF 16
ENDMDL
MODEL 7
REMARK VINA RESULT:    -3.839      2.412      5.877
REMARK INTER + INTRA:         -10.399
REMARK INTER:                  -7.819
REMARK INTRA:                  -2.581
REMARK UNBOUND:                -2.969
REMARK SMILES CCCCCCCCCCCCCCCCCC(=O)[O-]
REMARK SMILES IDX 10 1 11 2 12 3 13 4 14 5 15 6 16 7 17 8 18 9 19 10 20 11
REMARK SMILES IDX 9 12 8 13 7 14 6 15 5 16 4 17 3 18 2 19 1 20
REMARK H PARENT
REMARK Flexibility Score: inf
ROOT
ATOM      1  C   UNL     1      40.127  19.011 224.843  1.00  0.00     0.000 C 
ENDROOT
BRANCH   1   2
ATOM      2  C   UNL     1      40.904  19.363 223.564  1.00  0.00     0.000 C 
BRANCH   2   3
ATOM      3  C   UNL     1      42.126  20.256 223.843  1.00  0.00     0.000 C 
BRANCH   3   4
ATOM      4  C   UNL     1      42.087  21.564 223.036  1.00  0.00     0.000 C 
BRANCH   4   5
ATOM      5  C   UNL     1      41.416  22.714 223.808  1.00  0.00     0.000 C 
BRANCH   5   6
ATOM      6  C   UNL     1      39.993  23.009 223.290  1.00  0.00     0.000 C 
BRANCH   6   7
ATOM      7  C   UNL     1      39.192  23.957 224.199  1.00  0.00     0.006 C 
BRANCH   7   8
ATOM      8  C   UNL     1      37.934  24.513 223.520  1.00  0.00     0.053 C 
BRANCH   8   9
ATOM      9  C   UNL     1      36.902  24.868 224.543  1.00  0.00     0.041 C 
ATOM     10  O   UNL     1      36.793  26.055 224.949  1.00  0.00    -0.550 OA
ATOM     11  O   UNL     1      36.091  23.878 225.085  1.00  0.00    -0.550 OA
ENDBRANCH   8   9
ENDBRANCH   7   8
ENDBRANCH   6   7
ENDBRANCH   5   6
ENDBRANCH   4   5
ENDBRANCH   3   4
ENDBRANCH   2   3
ENDBRANCH   1   2
BRANCH   1  12
ATOM     12  C   UNL     1      40.492  19.922 226.028  1.00  0.00     0.000 C 
BRANCH  12  13
ATOM     13  C   UNL     1      39.291  20.733 226.540  1.00  0.00    -0.000 C 
BRANCH  13  14
ATOM     14  C   UNL     1      38.053  20.583 225.638  1.00  0.00    -0.000 C 
BRANCH  14  15
ATOM     15  C   UNL     1      36.736  20.827 226.393  1.00  0.00    -0.000 C 
BRANCH  15  16
ATOM     16  C   UNL     1      35.769  19.635 226.292  1.00  0.00    -0.000 C 
BRANCH  16  17
ATOM     17  C   UNL     1      36.494  18.293 226.087  1.00  0.00    -0.000 C 
BRANCH  17  18
ATOM     18  C   UNL     1      36.561  17.384 227.331  1.00  0.00    -0.000 C 
BRANCH  18  19
ATOM     19  C   UNL     1      37.768  17.631 228.253  1.00  0.00    -0.003 C 
ATOM     20  C   UNL     1      39.038  16.933 227.770  1.00  0.00     0.004 C 
ENDBRANCH  18  19
ENDBRANCH  17  18
ENDBRANCH  16  17
ENDBRANCH  15  16
ENDBRANCH  14  15
ENDBRANCH  13  14
ENDBRANCH  12  13
ENDBRANCH   1  12
TORSDOF 16
ENDMDL
MODEL 8
REMARK VINA RESULT:    -3.836      1.510      4.169
REMARK INTER + INTRA:         -10.394
REMARK INTER:                  -7.928
REMARK INTRA:                  -2.466
REMARK UNBOUND:                -2.969
REMARK SMILES CCCCCCCCCCCCCCCCCC(=O)[O-]
REMARK SMILES IDX 10 1 11 2 12 3 13 4 14 5 15 6 16 7 17 8 18 9 19 10 20 11
REMARK SMILES IDX 9 12 8 13 7 14 6 15 5 16 4 17 3 18 2 19 1 20
REMARK H PARENT
REMARK Flexibility Score: inf
ROOT
ATOM      1  C   UNL     1      38.142  26.008 224.537  1.00  0.00     0.000 C 
ENDROOT
BRANCH   1   2
ATOM      2  C   UNL     1      36.909  25.311 225.133  1.00  0.00     0.000 C 
BRANCH   2   3
ATOM      3  C   UNL     1      36.257  24.322 224.150  1.00  0.00     0.000 C 
BRANCH   3   4
ATOM      4  C   UNL     1      37.080  23.033 223.990  1.00  0.00     0.000 C 
BRANCH   4   5
ATOM      5  C   UNL     1      36.924  22.080 225.188  1.00  0.00     0.000 C 
BRANCH   5   6
ATOM      6  C   UNL     1      38.070  21.049 225.262  1.00  0.00     0.000 C 
BRANCH   6   7
ATOM      7  C   UNL     1      38.032  20.177 226.529  1.00  0.00     0.006 C 
BRANCH   7   8
ATOM      8  C   UNL     1      37.838  18.687 226.223  1.00  0.00     0.053 C 
BRANCH   8   9
ATOM      9  C   UNL     1      36.543  18.201 226.792  1.00  0.00     0.041 C 
ATOM     10  O   UNL     1      35.471  18.351 226.148  1.00  0.00    -0.550 OA
ATOM     11  O   UNL     1      36.512  17.625 228.057  1.00  0.00    -0.550 OA
ENDBRANCH   8   9
ENDBRANCH   7   8
ENDBRANCH   6   7
ENDBRANCH   5   6
ENDBRANCH   4   5
ENDBRANCH   3   4
ENDBRANCH   2   3
ENDBRANCH   1   2
BRANCH   1  12
ATOM     12  C   UNL     1      39.385  25.882 225.434  1.00  0.00     0.000 C 
BRANCH  12  13
ATOM     13  C   UNL     1      39.441  24.539 226.179  1.00  0.00    -0.000 C 
BRANCH  13  14
ATOM     14  C   UNL     1      40.623  23.663 225.727  1.00  0.00    -0.000 C 
BRANCH  14  15
ATOM     15  C   UNL     1      41.284  24.178 224.438  1.00  0.00    -0.000 C 
BRANCH  15  16
ATOM     16  C   UNL     1      40.680  23.547 223.172  1.00  0.00    -0.000 C 
BRANCH  16  17
ATOM     17  C   UNL     1      40.833  22.016 223.136  1.00  0.00    -0.000 C 
BRANCH  17  18
ATOM     18  C   UNL     1      42.285  21.500 223.084  1.00  0.00    -0.000 C 
BRANCH  18  19
ATOM     19  C   UNL     1      42.560  20.242 223.927  1.00  0.00    -0.003 C 
ATOM     20  C   UNL     1      41.707  20.177 225.193  1.00  0.00     0.004 C 
ENDBRANCH  18  19
ENDBRANCH  17  18
ENDBRANCH  16  17
ENDBRANCH  15  16
ENDBRANCH  14  15
ENDBRANCH  13  14
ENDBRANCH  12  13
ENDBRANCH   1  12
TORSDOF 16
ENDMDL
MODEL 9
REMARK VINA RESULT:    -3.784      1.343      3.716
REMARK INTER + INTRA:         -10.292
REMARK INTER:                  -7.499
REMARK INTRA:                  -2.792
REMARK UNBOUND:                -2.969
REMARK SMILES CCCCCCCCCCCCCCCCCC(=O)[O-]
REMARK SMILES IDX 10 1 11 2 12 3 13 4 14 5 15 6 16 7 17 8 18 9 19 10 20 11
REMARK SMILES IDX 9 12 8 13 7 14 6 15 5 16 4 17 3 18 2 19 1 20
REMARK H PARENT
REMARK Flexibility Score: inf
ROOT
ATOM      1  C   UNL     1      37.426  25.612 225.588  1.00  0.00     0.000 C 
ENDROOT
BRANCH   1   2
ATOM      2  C   UNL     1      37.899  24.733 226.757  1.00  0.00     0.000 C 
BRANCH   2   3
ATOM      3  C   UNL     1      39.394  24.380 226.663  1.00  0.00     0.000 C 
BRANCH   3   4
ATOM      4  C   UNL     1      39.750  23.133 227.488  1.00  0.00     0.000 C 
BRANCH   4   5
ATOM      5  C   UNL     1      38.721  22.001 227.324  1.00  0.00     0.000 C 
BRANCH   5   6
ATOM      6  C   UNL     1      39.323  20.765 226.623  1.00  0.00     0.000 C 
BRANCH   6   7
ATOM      7  C   UNL     1      38.266  19.821 226.026  1.00  0.00     0.006 C 
BRANCH   7   8
ATOM      8  C   UNL     1      36.840  20.159 226.479  1.00  0.00     0.053 C 
BRANCH   8   9
ATOM      9  C   UNL     1      35.878  19.121 225.993  1.00  0.00     0.041 C 
ATOM     10  O   UNL     1      34.650  19.223 226.255  1.00  0.00    -0.550 OA
ATOM     11  O   UNL     1      36.344  18.015 225.293  1.00  0.00    -0.550 OA
ENDBRANCH   8   9
ENDBRANCH   7   8
ENDBRANCH   6   7
ENDBRANCH   5   6
ENDBRANCH   4   5
ENDBRANCH   3   4
ENDBRANCH   2   3
ENDBRANCH   1   2
BRANCH   1  12
ATOM     12  C   UNL     1      36.153  25.071 224.916  1.00  0.00     0.000 C 
BRANCH  12  13
ATOM     13  C   UNL     1      36.446  24.356 223.588  1.00  0.00    -0.000 C 
BRANCH  13  14
ATOM     14  C   UNL     1      36.842  22.882 223.788  1.00  0.00    -0.000 C 
BRANCH  14  15
ATOM     15  C   UNL     1      38.355  22.649 223.648  1.00  0.00    -0.000 C 
BRANCH  15  16
ATOM     16  C   UNL     1      39.056  23.776 222.871  1.00  0.00    -0.000 C 
BRANCH  16  17
ATOM     17  C   UNL     1      40.579  23.797 223.093  1.00  0.00    -0.000 C 
BRANCH  17  18
ATOM     18  C   UNL     1      41.137  22.636 223.941  1.00  0.00    -0.000 C 
BRANCH  18  19
ATOM     19  C   UNL     1      42.138  21.720 223.214  1.00  0.00    -0.003 C 
ATOM     20  C   UNL     1      41.455  20.702 222.301  1.00  0.00     0.004 C 
ENDBRANCH  18  19
ENDBRANCH  17  18
ENDBRANCH  16  17
ENDBRANCH  15  16
ENDBRANCH  14  15
ENDBRANCH  13  14
ENDBRANCH  12  13
ENDBRANCH   1  12
TORSDOF 16
ENDMDL
