MODEL 1
REMARK VINA RESULT:    -5.061      0.000      0.000
REMARK INTER + INTRA:          -8.380
REMARK INTER:                  -7.872
REMARK INTRA:                  -0.509
REMARK UNBOUND:                -0.509
REMARK SMILES COc1cc(CNC(=O)CCCCC=CC(C)C)ccc1O
REMARK SMILES IDX 11 1 12 2 13 3 14 4 15 5 16 6 17 7 18 8 10 9 8 10 9 11 7 12
REMARK SMILES IDX 6 14 5 15 4 16 19 17 3 18 20 19 21 20 2 21 1 22 22 23
REMARK H PARENT 7 13 22 24
REMARK Flexibility Score: inf
ROOT
ATOM      1  C   UNL     1     140.727 138.914 135.376  1.00  0.00     0.010 C 
ENDROOT
BRANCH   1   2
ATOM      2  C   UNL     1     141.724 139.902 134.747  1.00  0.00     0.005 C 
BRANCH   2   3
ATOM      3  C   UNL     1     142.700 140.524 135.762  1.00  0.00     0.027 C 
BRANCH   3   4
ATOM      4  C   UNL     1     143.155 141.899 135.330  1.00  0.00    -0.031 C 
ATOM      5  C   UNL     1     143.914 142.736 136.066  1.00  0.00    -0.028 C 
BRANCH   5   6
ATOM      6  C   UNL     1     144.492 142.412 137.428  1.00  0.00     0.005 C 
ATOM      7  C   UNL     1     143.381 142.395 138.481  1.00  0.00     0.012 C 
ATOM      8  C   UNL     1     145.571 143.433 137.800  1.00  0.00     0.012 C 
ENDBRANCH   5   6
ENDBRANCH   3   4
ENDBRANCH   2   3
ENDBRANCH   1   2
BRANCH   1   9
ATOM      9  C   UNL     1     139.688 139.611 136.267  1.00  0.00     0.100 C 
BRANCH   9  10
ATOM     10  C   UNL     1     138.397 139.803 135.525  1.00  0.00     0.220 C 
ATOM     11  O   UNL     1     137.891 138.831 134.900  1.00  0.00    -0.275 OA
ATOM     12  N   UNL     1     137.749 141.085 135.515  1.00  0.00    -0.352 N 
ATOM     13  H   UNL     1     138.192 141.889 136.018  1.00  0.00     0.163 HD
BRANCH  12  14
ATOM     14  C   UNL     1     136.500 141.332 134.799  1.00  0.00     0.151 C 
BRANCH  14  15
ATOM     15  C   UNL     1     135.523 142.061 135.686  1.00  0.00    -0.025 A 
ATOM     16  C   UNL     1     135.632 141.979 137.083  1.00  0.00     0.056 A 
ATOM     17  C   UNL     1     134.522 142.862 135.117  1.00  0.00     0.009 A 
ATOM     18  C   UNL     1     134.743 142.691 137.913  1.00  0.00     0.160 A 
ATOM     19  C   UNL     1     133.640 143.569 135.934  1.00  0.00     0.050 A 
ATOM     20  C   UNL     1     133.748 143.487 137.328  1.00  0.00     0.157 A 
BRANCH  18  21
ATOM     21  O   UNL     1     134.820 142.635 139.313  1.00  0.00    -0.493 OA
ATOM     22  C   UNL     1     135.208 141.483 140.055  1.00  0.00     0.278 C 
ENDBRANCH  18  21
BRANCH  20  23
ATOM     23  O   UNL     1     132.873 144.198 138.146  1.00  0.00    -0.504 OA
ATOM     24  H   UNL     1     133.201 144.935 138.756  1.00  0.00     0.293 HD
ENDBRANCH  20  23
ENDBRANCH  14  15
ENDBRANCH  12  14
ENDBRANCH   9  10
ENDBRANCH   1   9
TORSDOF 10
ENDMDL
MODEL 2
REMARK VINA RESULT:    -5.008      5.337      8.043
REMARK INTER + INTRA:          -8.299
REMARK INTER:                  -7.583
REMARK INTRA:                  -0.715
REMARK UNBOUND:                -0.509
REMARK SMILES COc1cc(CNC(=O)CCCCC=CC(C)C)ccc1O
REMARK SMILES IDX 11 1 12 2 13 3 14 4 15 5 16 6 17 7 18 8 10 9 8 10 9 11 7 12
REMARK SMILES IDX 6 14 5 15 4 16 19 17 3 18 20 19 21 20 2 21 1 22 22 23
REMARK H PARENT 7 13 22 24
REMARK Flexibility Score: inf
ROOT
ATOM      1  C   UNL     1     141.240 139.778 135.778  1.00  0.00     0.010 C 
ENDROOT
BRANCH   1   2
ATOM      2  C   UNL     1     142.503 140.656 135.754  1.00  0.00     0.005 C 
BRANCH   2   3
ATOM      3  C   UNL     1     142.578 141.661 136.918  1.00  0.00     0.027 C 
BRANCH   3   4
ATOM      4  C   UNL     1     143.898 141.570 137.650  1.00  0.00    -0.031 C 
ATOM      5  C   UNL     1     144.898 142.471 137.568  1.00  0.00    -0.028 C 
BRANCH   5   6
ATOM      6  C   UNL     1     144.842 143.760 136.774  1.00  0.00     0.005 C 
ATOM      7  C   UNL     1     145.204 143.494 135.311  1.00  0.00     0.012 C 
ATOM      8  C   UNL     1     145.790 144.797 137.384  1.00  0.00     0.012 C 
ENDBRANCH   5   6
ENDBRANCH   3   4
ENDBRANCH   2   3
ENDBRANCH   1   2
BRANCH   1   9
ATOM      9  C   UNL     1     141.130 138.871 134.543  1.00  0.00     0.100 C 
BRANCH   9  10
ATOM     10  C   UNL     1     140.437 137.585 134.890  1.00  0.00     0.220 C 
ATOM     11  O   UNL     1     139.502 137.594 135.737  1.00  0.00    -0.275 OA
ATOM     12  N   UNL     1     140.842 136.353 134.273  1.00  0.00    -0.352 N 
ATOM     13  H   UNL     1     141.635 136.356 133.589  1.00  0.00     0.163 HD
BRANCH  12  14
ATOM     14  C   UNL     1     140.212 135.071 134.584  1.00  0.00     0.151 C 
BRANCH  14  15
ATOM     15  C   UNL     1     141.012 134.335 135.627  1.00  0.00    -0.025 A 
ATOM     16  C   UNL     1     140.649 134.402 136.982  1.00  0.00     0.056 A 
ATOM     17  C   UNL     1     142.104 133.542 135.244  1.00  0.00     0.009 A 
ATOM     18  C   UNL     1     141.373 133.684 137.953  1.00  0.00     0.160 A 
ATOM     19  C   UNL     1     142.824 132.828 136.202  1.00  0.00     0.050 A 
ATOM     20  C   UNL     1     142.462 132.895 137.554  1.00  0.00     0.157 A 
BRANCH  18  21
ATOM     21  O   UNL     1     141.041 133.725 139.317  1.00  0.00    -0.493 OA
ATOM     22  C   UNL     1     141.416 134.771 140.207  1.00  0.00     0.278 C 
ENDBRANCH  18  21
BRANCH  20  23
ATOM     23  O   UNL     1     143.176 132.179 138.511  1.00  0.00    -0.504 OA
ATOM     24  H   UNL     1     143.131 131.169 138.556  1.00  0.00     0.293 HD
ENDBRANCH  20  23
ENDBRANCH  14  15
ENDBRANCH  12  14
ENDBRANCH   9  10
ENDBRANCH   1   9
TORSDOF 10
ENDMDL
MODEL 3
REMARK VINA RESULT:    -4.921      7.676     11.884
REMARK INTER + INTRA:          -8.162
REMARK INTER:                  -7.310
REMARK INTRA:                  -0.852
REMARK UNBOUND:                -0.509
REMARK SMILES COc1cc(CNC(=O)CCCCC=CC(C)C)ccc1O
REMARK SMILES IDX 11 1 12 2 13 3 14 4 15 5 16 6 17 7 18 8 10 9 8 10 9 11 7 12
REMARK SMILES IDX 6 14 5 15 4 16 19 17 3 18 20 19 21 20 2 21 1 22 22 23
REMARK H PARENT 7 13 22 24
REMARK Flexibility Score: inf
ROOT
ATOM      1  C   UNL     1     139.919 136.147 136.121  1.00  0.00     0.010 C 
ENDROOT
BRANCH   1   2
ATOM      2  C   UNL     1     138.407 135.965 135.905  1.00  0.00     0.005 C 
BRANCH   2   3
ATOM      3  C   UNL     1     137.574 137.198 136.304  1.00  0.00     0.027 C 
BRANCH   3   4
ATOM      4  C   UNL     1     138.453 138.343 136.755  1.00  0.00    -0.031 C 
ATOM      5  C   UNL     1     138.644 138.719 138.036  1.00  0.00    -0.028 C 
BRANCH   5   6
ATOM      6  C   UNL     1     138.059 138.018 139.244  1.00  0.00     0.005 C 
ATOM      7  C   UNL     1     137.267 139.011 140.098  1.00  0.00     0.012 C 
ATOM      8  C   UNL     1     139.175 137.368 140.069  1.00  0.00     0.012 C 
ENDBRANCH   5   6
ENDBRANCH   3   4
ENDBRANCH   2   3
ENDBRANCH   1   2
BRANCH   1   9
ATOM      9  C   UNL     1     140.525 135.047 137.005  1.00  0.00     0.100 C 
BRANCH   9  10
ATOM     10  C   UNL     1     141.318 134.078 136.176  1.00  0.00     0.220 C 
ATOM     11  O   UNL     1     140.904 133.760 135.028  1.00  0.00    -0.275 OA
ATOM     12  N   UNL     1     142.532 133.508 136.691  1.00  0.00    -0.352 N 
ATOM     13  H   UNL     1     142.852 133.762 137.655  1.00  0.00     0.163 HD
BRANCH  12  14
ATOM     14  C   UNL     1     143.336 132.550 135.935  1.00  0.00     0.151 C 
BRANCH  14  15
ATOM     15  C   UNL     1     143.950 131.535 136.863  1.00  0.00    -0.025 A 
ATOM     16  C   UNL     1     145.267 131.694 137.324  1.00  0.00     0.056 A 
ATOM     17  C   UNL     1     143.192 130.441 137.308  1.00  0.00     0.009 A 
ATOM     18  C   UNL     1     145.828 130.766 138.222  1.00  0.00     0.160 A 
ATOM     19  C   UNL     1     143.743 129.519 138.197  1.00  0.00     0.050 A 
ATOM     20  C   UNL     1     145.057 129.679 138.656  1.00  0.00     0.157 A 
BRANCH  18  21
ATOM     21  O   UNL     1     147.141 130.891 138.704  1.00  0.00    -0.493 OA
ATOM     22  C   UNL     1     147.547 131.817 139.707  1.00  0.00     0.278 C 
ENDBRANCH  18  21
BRANCH  20  23
ATOM     23  O   UNL     1     145.607 128.762 139.549  1.00  0.00    -0.504 OA
ATOM     24  H   UNL     1     145.990 127.881 139.232  1.00  0.00     0.293 HD
ENDBRANCH  20  23
ENDBRANCH  14  15
ENDBRANCH  12  14
ENDBRANCH   9  10
ENDBRANCH   1   9
TORSDOF 10
ENDMDL
MODEL 4
REMARK VINA RESULT:    -4.816      4.937      8.385
REMARK INTER + INTRA:          -8.000
REMARK INTER:                  -7.179
REMARK INTRA:                  -0.820
REMARK UNBOUND:                -0.509
REMARK SMILES COc1cc(CNC(=O)CCCCC=CC(C)C)ccc1O
REMARK SMILES IDX 11 1 12 2 13 3 14 4 15 5 16 6 17 7 18 8 10 9 8 10 9 11 7 12
REMARK SMILES IDX 6 14 5 15 4 16 19 17 3 18 20 19 21 20 2 21 1 22 22 23
REMARK H PARENT 7 13 22 24
REMARK Flexibility Score: inf
ROOT
ATOM      1  C   UNL     1     141.260 140.110 135.063  1.00  0.00     0.010 C 
ENDROOT
BRANCH   1   2
ATOM      2  C   UNL     1     142.595 140.491 135.725  1.00  0.00     0.005 C 
BRANCH   2   3
ATOM      3  C   UNL     1     142.432 141.362 136.984  1.00  0.00     0.027 C 
BRANCH   3   4
ATOM      4  C   UNL     1     143.730 141.484 137.750  1.00  0.00    -0.031 C 
ATOM      5  C   UNL     1     144.659 142.443 137.560  1.00  0.00    -0.028 C 
BRANCH   5   6
ATOM      6  C   UNL     1     144.529 143.597 136.588  1.00  0.00     0.005 C 
ATOM      7  C   UNL     1     145.156 143.226 135.242  1.00  0.00     0.012 C 
ATOM      8  C   UNL     1     145.194 144.851 137.164  1.00  0.00     0.012 C 
ENDBRANCH   5   6
ENDBRANCH   3   4
ENDBRANCH   2   3
ENDBRANCH   1   2
BRANCH   1   9
ATOM      9  C   UNL     1     140.263 139.495 136.057  1.00  0.00     0.100 C 
BRANCH   9  10
ATOM     10  C   UNL     1     139.817 138.139 135.593  1.00  0.00     0.220 C 
ATOM     11  O   UNL     1     139.545 137.961 134.374  1.00  0.00    -0.275 OA
ATOM     12  N   UNL     1     139.689 137.057 136.528  1.00  0.00    -0.352 N 
ATOM     13  H   UNL     1     139.895 137.226 137.541  1.00  0.00     0.163 HD
BRANCH  12  14
ATOM     14  C   UNL     1     139.246 135.722 136.134  1.00  0.00     0.151 C 
BRANCH  14  15
ATOM     15  C   UNL     1     140.409 134.764 136.134  1.00  0.00    -0.025 A 
ATOM     16  C   UNL     1     140.974 134.327 134.925  1.00  0.00     0.056 A 
ATOM     17  C   UNL     1     140.963 134.333 137.349  1.00  0.00     0.009 A 
ATOM     18  C   UNL     1     142.084 133.461 134.925  1.00  0.00     0.160 A 
ATOM     19  C   UNL     1     142.064 133.477 137.355  1.00  0.00     0.050 A 
ATOM     20  C   UNL     1     142.626 133.041 136.148  1.00  0.00     0.157 A 
BRANCH  18  21
ATOM     21  O   UNL     1     142.676 133.003 133.737  1.00  0.00    -0.493 OA
ATOM     22  C   UNL     1     142.148 131.964 132.922  1.00  0.00     0.278 C 
ENDBRANCH  18  21
BRANCH  20  23
ATOM     23  O   UNL     1     143.729 132.191 136.152  1.00  0.00    -0.504 OA
ATOM     24  H   UNL     1     144.650 132.520 135.893  1.00  0.00     0.293 HD
ENDBRANCH  20  23
ENDBRANCH  14  15
ENDBRANCH  12  14
ENDBRANCH   9  10
ENDBRANCH   1   9
TORSDOF 10
ENDMDL
MODEL 5
REMARK VINA RESULT:    -4.800      6.881     11.715
REMARK INTER + INTRA:          -7.974
REMARK INTER:                  -7.304
REMARK INTRA:                  -0.670
REMARK UNBOUND:                -0.509
REMARK SMILES COc1cc(CNC(=O)CCCCC=CC(C)C)ccc1O
REMARK SMILES IDX 11 1 12 2 13 3 14 4 15 5 16 6 17 7 18 8 10 9 8 10 9 11 7 12
REMARK SMILES IDX 6 14 5 15 4 16 19 17 3 18 20 19 21 20 2 21 1 22 22 23
REMARK H PARENT 7 13 22 24
REMARK Flexibility Score: inf
ROOT
ATOM      1  C   UNL     1     134.680 136.446 134.914  1.00  0.00     0.010 C 
ENDROOT
BRANCH   1   2
ATOM      2  C   UNL     1     133.504 135.877 135.727  1.00  0.00     0.005 C 
BRANCH   2   3
ATOM      3  C   UNL     1     133.829 134.549 136.435  1.00  0.00     0.027 C 
BRANCH   3   4
ATOM      4  C   UNL     1     133.100 134.427 137.754  1.00  0.00    -0.031 C 
ATOM      5  C   UNL     1     131.949 133.751 137.948  1.00  0.00    -0.028 C 
BRANCH   5   6
ATOM      6  C   UNL     1     131.225 132.947 136.889  1.00  0.00     0.005 C 
ATOM      7  C   UNL     1     129.761 133.387 136.802  1.00  0.00     0.012 C 
ATOM      8  C   UNL     1     131.320 131.451 137.204  1.00  0.00     0.012 C 
ENDBRANCH   5   6
ENDBRANCH   3   4
ENDBRANCH   2   3
ENDBRANCH   1   2
BRANCH   1   9
ATOM      9  C   UNL     1     135.901 136.764 135.789  1.00  0.00     0.100 C 
BRANCH   9  10
ATOM     10  C   UNL     1     137.175 136.484 135.044  1.00  0.00     0.220 C 
ATOM     11  O   UNL     1     137.326 136.944 133.880  1.00  0.00    -0.275 OA
ATOM     12  N   UNL     1     138.209 135.689 135.648  1.00  0.00    -0.352 N 
ATOM     13  H   UNL     1     138.060 135.294 136.606  1.00  0.00     0.163 HD
BRANCH  12  14
ATOM     14  C   UNL     1     139.460 135.374 134.964  1.00  0.00     0.151 C 
BRANCH  14  15
ATOM     15  C   UNL     1     140.376 134.602 135.880  1.00  0.00    -0.025 A 
ATOM     16  C   UNL     1     141.360 133.750 135.352  1.00  0.00     0.056 A 
ATOM     17  C   UNL     1     140.278 134.764 137.269  1.00  0.00     0.009 A 
ATOM     18  C   UNL     1     142.241 133.059 136.206  1.00  0.00     0.160 A 
ATOM     19  C   UNL     1     141.148 134.081 138.119  1.00  0.00     0.050 A 
ATOM     20  C   UNL     1     142.129 133.232 137.592  1.00  0.00     0.157 A 
BRANCH  18  21
ATOM     21  O   UNL     1     143.237 132.199 135.716  1.00  0.00    -0.493 OA
ATOM     22  C   UNL     1     143.083 131.348 134.585  1.00  0.00     0.278 C 
ENDBRANCH  18  21
BRANCH  20  23
ATOM     23  O   UNL     1     143.003 132.555 138.439  1.00  0.00    -0.504 OA
ATOM     24  H   UNL     1     143.756 133.035 138.915  1.00  0.00     0.293 HD
ENDBRANCH  20  23
ENDBRANCH  14  15
ENDBRANCH  12  14
ENDBRANCH   9  10
ENDBRANCH   1   9
TORSDOF 10
ENDMDL
MODEL 6
REMARK VINA RESULT:    -4.782      6.544      7.983
REMARK INTER + INTRA:          -7.946
REMARK INTER:                  -6.796
REMARK INTRA:                  -1.150
REMARK UNBOUND:                -0.509
REMARK SMILES COc1cc(CNC(=O)CCCCC=CC(C)C)ccc1O
REMARK SMILES IDX 11 1 12 2 13 3 14 4 15 5 16 6 17 7 18 8 10 9 8 10 9 11 7 12
REMARK SMILES IDX 6 14 5 15 4 16 19 17 3 18 20 19 21 20 2 21 1 22 22 23
REMARK H PARENT 7 13 22 24
REMARK Flexibility Score: inf
ROOT
ATOM      1  C   UNL     1     136.615 136.771 136.100  1.00  0.00     0.010 C 
ENDROOT
BRANCH   1   2
ATOM      2  C   UNL     1     137.416 137.997 136.571  1.00  0.00     0.005 C 
BRANCH   2   3
ATOM      3  C   UNL     1     138.786 137.643 137.177  1.00  0.00     0.027 C 
BRANCH   3   4
ATOM      4  C   UNL     1     139.848 137.497 136.111  1.00  0.00    -0.031 C 
ATOM      5  C   UNL     1     140.276 136.328 135.592  1.00  0.00    -0.028 C 
BRANCH   5   6
ATOM      6  C   UNL     1     139.718 134.966 135.946  1.00  0.00     0.005 C 
ATOM      7  C   UNL     1     140.681 134.231 136.883  1.00  0.00     0.012 C 
ATOM      8  C   UNL     1     139.474 134.147 134.675  1.00  0.00     0.012 C 
ENDBRANCH   5   6
ENDBRANCH   3   4
ENDBRANCH   2   3
ENDBRANCH   1   2
BRANCH   1   9
ATOM      9  C   UNL     1     136.563 136.654 134.569  1.00  0.00     0.100 C 
BRANCH   9  10
ATOM     10  C   UNL     1     135.212 136.178 134.119  1.00  0.00     0.220 C 
ATOM     11  O   UNL     1     134.327 137.024 133.815  1.00  0.00    -0.275 OA
ATOM     12  N   UNL     1     134.925 134.772 134.045  1.00  0.00    -0.352 N 
ATOM     13  H   UNL     1     135.662 134.082 134.323  1.00  0.00     0.163 HD
BRANCH  12  14
ATOM     14  C   UNL     1     133.625 134.255 133.628  1.00  0.00     0.151 C 
BRANCH  14  15
ATOM     15  C   UNL     1     132.752 134.002 134.830  1.00  0.00    -0.025 A 
ATOM     16  C   UNL     1     133.072 134.567 136.075  1.00  0.00     0.056 A 
ATOM     17  C   UNL     1     131.586 133.232 134.702  1.00  0.00     0.009 A 
ATOM     18  C   UNL     1     132.237 134.363 137.190  1.00  0.00     0.160 A 
ATOM     19  C   UNL     1     130.755 133.028 135.803  1.00  0.00     0.050 A 
ATOM     20  C   UNL     1     131.075 133.591 137.045  1.00  0.00     0.157 A 
BRANCH  18  21
ATOM     21  O   UNL     1     132.523 134.912 138.450  1.00  0.00    -0.493 OA
ATOM     22  C   UNL     1     133.582 134.477 139.297  1.00  0.00     0.278 C 
ENDBRANCH  18  21
BRANCH  20  23
ATOM     23  O   UNL     1     130.243 133.393 138.144  1.00  0.00    -0.504 OA
ATOM     24  H   UNL     1     130.001 132.464 138.462  1.00  0.00     0.293 HD
ENDBRANCH  20  23
ENDBRANCH  14  15
ENDBRANCH  12  14
ENDBRANCH   9  10
ENDBRANCH   1   9
TORSDOF 10
ENDMDL
MODEL 7
REMARK VINA RESULT:    -4.778      4.993      8.125
REMARK INTER + INTRA:          -7.940
REMARK INTER:                  -7.341
REMARK INTRA:                  -0.599
REMARK UNBOUND:                -0.509
REMARK SMILES COc1cc(CNC(=O)CCCCC=CC(C)C)ccc1O
REMARK SMILES IDX 11 1 12 2 13 3 14 4 15 5 16 6 17 7 18 8 10 9 8 10 9 11 7 12
REMARK SMILES IDX 6 14 5 15 4 16 19 17 3 18 20 19 21 20 2 21 1 22 22 23
REMARK H PARENT 7 13 22 24
REMARK Flexibility Score: inf
ROOT
ATOM      1  C   UNL     1     139.891 135.597 136.257  1.00  0.00     0.010 C 
ENDROOT
BRANCH   1   2
ATOM      2  C   UNL     1     140.675 134.903 137.385  1.00  0.00     0.005 C 
BRANCH   2   3
ATOM      3  C   UNL     1     141.728 133.901 136.878  1.00  0.00     0.027 C 
BRANCH   3   4
ATOM      4  C   UNL     1     141.998 132.814 137.893  1.00  0.00    -0.031 C 
ATOM      5  C   UNL     1     142.977 131.890 137.804  1.00  0.00    -0.028 C 
BRANCH   5   6
ATOM      6  C   UNL     1     144.011 131.826 136.699  1.00  0.00     0.005 C 
ATOM      7  C   UNL     1     143.457 131.046 135.504  1.00  0.00     0.012 C 
ATOM      8  C   UNL     1     145.298 131.176 137.217  1.00  0.00     0.012 C 
ENDBRANCH   5   6
ENDBRANCH   3   4
ENDBRANCH   2   3
ENDBRANCH   1   2
BRANCH   1   9
ATOM      9  C   UNL     1     139.407 137.000 136.653  1.00  0.00     0.100 C 
BRANCH   9  10
ATOM     10  C   UNL     1     139.691 137.987 135.558  1.00  0.00     0.220 C 
ATOM     11  O   UNL     1     138.758 138.720 135.128  1.00  0.00    -0.275 OA
ATOM     12  N   UNL     1     141.009 138.089 134.996  1.00  0.00    -0.352 N 
ATOM     13  H   UNL     1     141.767 137.459 135.347  1.00  0.00     0.163 HD
BRANCH  12  14
ATOM     14  C   UNL     1     141.337 139.022 133.920  1.00  0.00     0.151 C 
BRANCH  14  15
ATOM     15  C   UNL     1     141.975 140.266 134.483  1.00  0.00    -0.025 A 
ATOM     16  C   UNL     1     142.511 140.268 135.781  1.00  0.00     0.056 A 
ATOM     17  C   UNL     1     142.075 141.421 133.694  1.00  0.00     0.009 A 
ATOM     18  C   UNL     1     143.142 141.418 136.293  1.00  0.00     0.160 A 
ATOM     19  C   UNL     1     142.699 142.563 134.196  1.00  0.00     0.050 A 
ATOM     20  C   UNL     1     143.233 142.564 135.491  1.00  0.00     0.157 A 
BRANCH  18  21
ATOM     21  O   UNL     1     143.689 141.458 137.585  1.00  0.00    -0.493 OA
ATOM     22  C   UNL     1     142.982 141.875 138.748  1.00  0.00     0.278 C 
ENDBRANCH  18  21
BRANCH  20  23
ATOM     23  O   UNL     1     143.862 143.701 135.992  1.00  0.00    -0.504 OA
ATOM     24  H   UNL     1     144.166 143.755 136.955  1.00  0.00     0.293 HD
ENDBRANCH  20  23
ENDBRANCH  14  15
ENDBRANCH  12  14
ENDBRANCH   9  10
ENDBRANCH   1   9
TORSDOF 10
ENDMDL
MODEL 8
REMARK VINA RESULT:    -4.735      5.293      8.623
REMARK INTER + INTRA:          -7.873
REMARK INTER:                  -7.123
REMARK INTRA:                  -0.750
REMARK UNBOUND:                -0.509
REMARK SMILES COc1cc(CNC(=O)CCCCC=CC(C)C)ccc1O
REMARK SMILES IDX 11 1 12 2 13 3 14 4 15 5 16 6 17 7 18 8 10 9 8 10 9 11 7 12
REMARK SMILES IDX 6 14 5 15 4 16 19 17 3 18 20 19 21 20 2 21 1 22 22 23
REMARK H PARENT 7 13 22 24
REMARK Flexibility Score: inf
ROOT
ATOM      1  C   UNL     1     135.351 136.261 135.053  1.00  0.00     0.010 C 
ENDROOT
BRANCH   1   2
ATOM      2  C   UNL     1     133.887 136.162 135.515  1.00  0.00     0.005 C 
BRANCH   2   3
ATOM      3  C   UNL     1     133.460 134.738 135.915  1.00  0.00     0.027 C 
BRANCH   3   4
ATOM      4  C   UNL     1     133.172 134.637 137.396  1.00  0.00    -0.031 C 
ATOM      5  C   UNL     1     132.246 133.834 137.957  1.00  0.00    -0.028 C 
BRANCH   5   6
ATOM      6  C   UNL     1     131.379 132.849 137.200  1.00  0.00     0.005 C 
ATOM      7  C   UNL     1     129.942 133.370 137.112  1.00  0.00     0.012 C 
ATOM      8  C   UNL     1     131.414 131.479 137.885  1.00  0.00     0.012 C 
ENDBRANCH   5   6
ENDBRANCH   3   4
ENDBRANCH   2   3
ENDBRANCH   1   2
BRANCH   1   9
ATOM      9  C   UNL     1     136.230 137.037 136.044  1.00  0.00     0.100 C 
BRANCH   9  10
ATOM     10  C   UNL     1     136.572 138.394 135.500  1.00  0.00     0.220 C 
ATOM     11  O   UNL     1     136.618 138.568 134.252  1.00  0.00    -0.275 OA
ATOM     12  N   UNL     1     136.855 139.484 136.393  1.00  0.00    -0.352 N 
ATOM     13  H   UNL     1     136.835 139.319 137.427  1.00  0.00     0.163 HD
BRANCH  12  14
ATOM     14  C   UNL     1     137.206 140.820 135.919  1.00  0.00     0.151 C 
BRANCH  14  15
ATOM     15  C   UNL     1     135.999 141.723 135.958  1.00  0.00    -0.025 A 
ATOM     16  C   UNL     1     135.420 142.191 134.767  1.00  0.00     0.056 A 
ATOM     17  C   UNL     1     135.420 142.067 137.188  1.00  0.00     0.009 A 
ATOM     18  C   UNL     1     134.270 143.003 134.802  1.00  0.00     0.160 A 
ATOM     19  C   UNL     1     134.281 142.871 137.228  1.00  0.00     0.050 A 
ATOM     20  C   UNL     1     133.704 143.338 136.040  1.00  0.00     0.157 A 
BRANCH  18  21
ATOM     21  O   UNL     1     133.663 143.490 133.634  1.00  0.00    -0.493 OA
ATOM     22  C   UNL     1     133.315 142.688 132.510  1.00  0.00     0.278 C 
ENDBRANCH  18  21
BRANCH  20  23
ATOM     23  O   UNL     1     132.563 144.135 136.077  1.00  0.00    -0.504 OA
ATOM     24  H   UNL     1     131.989 144.274 135.256  1.00  0.00     0.293 HD
ENDBRANCH  20  23
ENDBRANCH  14  15
ENDBRANCH  12  14
ENDBRANCH   9  10
ENDBRANCH   1   9
TORSDOF 10
ENDMDL
MODEL 9
REMARK VINA RESULT:    -4.712      4.095      4.885
REMARK INTER + INTRA:          -7.838
REMARK INTER:                  -6.924
REMARK INTRA:                  -0.914
REMARK UNBOUND:                -0.509
REMARK SMILES COc1cc(CNC(=O)CCCCC=CC(C)C)ccc1O
REMARK SMILES IDX 11 1 12 2 13 3 14 4 15 5 16 6 17 7 18 8 10 9 8 10 9 11 7 12
REMARK SMILES IDX 6 14 5 15 4 16 19 17 3 18 20 19 21 20 2 21 1 22 22 23
REMARK H PARENT 7 13 22 24
REMARK Flexibility Score: inf
ROOT
ATOM      1  C   UNL     1     135.518 137.463 135.386  1.00  0.00     0.010 C 
ENDROOT
BRANCH   1   2
ATOM      2  C   UNL     1     136.675 136.501 135.705  1.00  0.00     0.005 C 
BRANCH   2   3
ATOM      3  C   UNL     1     138.001 136.882 135.020  1.00  0.00     0.027 C 
BRANCH   3   4
ATOM      4  C   UNL     1     139.084 137.183 136.031  1.00  0.00    -0.031 C 
ATOM      5  C   UNL     1     139.960 136.284 136.525  1.00  0.00    -0.028 C 
BRANCH   5   6
ATOM      6  C   UNL     1     140.045 134.833 136.103  1.00  0.00     0.005 C 
ATOM      7  C   UNL     1     140.747 134.009 137.186  1.00  0.00     0.012 C 
ATOM      8  C   UNL     1     140.788 134.713 134.769  1.00  0.00     0.012 C 
ENDBRANCH   5   6
ENDBRANCH   3   4
ENDBRANCH   2   3
ENDBRANCH   1   2
BRANCH   1   9
ATOM      9  C   UNL     1     135.480 137.868 133.905  1.00  0.00     0.100 C 
BRANCH   9  10
ATOM     10  C   UNL     1     135.429 139.363 133.765  1.00  0.00     0.220 C 
ATOM     11  O   UNL     1     134.609 139.882 132.960  1.00  0.00    -0.275 OA
ATOM     12  N   UNL     1     136.315 140.194 134.532  1.00  0.00    -0.352 N 
ATOM     13  H   UNL     1     137.007 139.748 135.180  1.00  0.00     0.163 HD
BRANCH  12  14
ATOM     14  C   UNL     1     136.318 141.651 134.426  1.00  0.00     0.151 C 
BRANCH  14  15
ATOM     15  C   UNL     1     135.449 142.256 135.498  1.00  0.00    -0.025 A 
ATOM     16  C   UNL     1     135.820 142.169 136.850  1.00  0.00     0.056 A 
ATOM     17  C   UNL     1     134.281 142.948 135.147  1.00  0.00     0.009 A 
ATOM     18  C   UNL     1     135.029 142.767 137.849  1.00  0.00     0.160 A 
ATOM     19  C   UNL     1     133.494 143.543 136.133  1.00  0.00     0.050 A 
ATOM     20  C   UNL     1     133.864 143.456 137.482  1.00  0.00     0.157 A 
BRANCH  18  21
ATOM     21  O   UNL     1     135.367 142.702 139.210  1.00  0.00    -0.493 OA
ATOM     22  C   UNL     1     135.079 141.597 140.061  1.00  0.00     0.278 C 
ENDBRANCH  18  21
BRANCH  20  23
ATOM     23  O   UNL     1     133.083 144.054 138.467  1.00  0.00    -0.504 OA
ATOM     24  H   UNL     1     132.297 144.646 138.230  1.00  0.00     0.293 HD
ENDBRANCH  20  23
ENDBRANCH  14  15
ENDBRANCH  12  14
ENDBRANCH   9  10
ENDBRANCH   1   9
TORSDOF 10
ENDMDL
