MODEL 1
REMARK VINA RESULT:    -4.603      0.000      0.000
REMARK INTER + INTRA:         -18.498
REMARK INTER:                 -12.137
REMARK INTRA:                  -6.361
REMARK UNBOUND:                -6.361
REMARK SMILES CCCCCCCCCCCCCCCCCCCCCCCCCCCCCC(=O)[O-]
REMARK SMILES IDX 16 1 17 2 18 3 19 4 20 5 21 6 22 7 23 8 24 9 25 10 26 11
REMARK SMILES IDX 27 12 28 13 29 14 30 15 31 16 32 17 15 18 14 19 13 20 12 21
REMARK SMILES IDX 11 22 10 23 9 24 8 25 7 26 6 27 5 28 4 29 3 30 2 31 1 32
REMARK H PARENT
REMARK Flexibility Score: inf
ROOT
ATOM      1  C   UNL     1     -24.026  60.640  28.133  1.00  0.00     0.000 C 
ENDROOT
BRANCH   1   2
ATOM      2  C   UNL     1     -22.859  61.639  28.124  1.00  0.00     0.000 C 
BRANCH   2   3
ATOM      3  C   UNL     1     -21.483  60.951  28.090  1.00  0.00     0.000 C 
BRANCH   3   4
ATOM      4  C   UNL     1     -20.387  61.653  28.913  1.00  0.00     0.000 C 
BRANCH   4   5
ATOM      5  C   UNL     1     -20.468  61.432  30.439  1.00  0.00     0.000 C 
BRANCH   5   6
ATOM      6  C   UNL     1     -21.181  62.550  31.224  1.00  0.00     0.000 C 
BRANCH   6   7
ATOM      7  C   UNL     1     -21.008  62.415  32.746  1.00  0.00     0.000 C 
BRANCH   7   8
ATOM      8  C   UNL     1     -20.065  61.262  33.129  1.00  0.00     0.000 C 
BRANCH   8   9
ATOM      9  C   UNL     1     -19.540  61.385  34.569  1.00  0.00     0.000 C 
BRANCH   9  10
ATOM     10  C   UNL     1     -20.567  62.012  35.527  1.00  0.00     0.000 C 
BRANCH  10  11
ATOM     11  C   UNL     1     -21.100  61.033  36.596  1.00  0.00     0.000 C 
BRANCH  11  12
ATOM     12  C   UNL     1     -20.383  59.674  36.551  1.00  0.00     0.000 C 
BRANCH  12  13
ATOM     13  C   UNL     1     -21.347  58.553  36.141  1.00  0.00     0.006 C 
BRANCH  13  14
ATOM     14  C   UNL     1     -20.904  57.903  34.827  1.00  0.00     0.053 C 
BRANCH  14  15
ATOM     15  C   UNL     1     -21.638  56.616  34.605  1.00  0.00     0.041 C 
ATOM     16  O   UNL     1     -21.998  55.912  35.588  1.00  0.00    -0.550 OA
ATOM     17  O   UNL     1     -21.885  56.171  33.312  1.00  0.00    -0.550 OA
ENDBRANCH  14  15
ENDBRANCH  13  14
ENDBRANCH  12  13
ENDBRANCH  11  12
ENDBRANCH  10  11
ENDBRANCH   9  10
ENDBRANCH   8   9
ENDBRANCH   7   8
ENDBRANCH   6   7
ENDBRANCH   5   6
ENDBRANCH   4   5
ENDBRANCH   3   4
ENDBRANCH   2   3
ENDBRANCH   1   2
BRANCH   1  18
ATOM     18  C   UNL     1     -25.073  61.034  29.186  1.00  0.00     0.000 C 
BRANCH  18  19
ATOM     19  C   UNL     1     -24.650  62.304  29.940  1.00  0.00     0.000 C 
BRANCH  19  20
ATOM     20  C   UNL     1     -25.518  62.570  31.186  1.00  0.00     0.000 C 
BRANCH  20  21
ATOM     21  C   UNL     1     -26.410  61.387  31.624  1.00  0.00     0.000 C 
BRANCH  21  22
ATOM     22  C   UNL     1     -27.281  61.647  32.875  1.00  0.00     0.000 C 
BRANCH  22  23
ATOM     23  C   UNL     1     -26.946  60.760  34.089  1.00  0.00     0.000 C 
BRANCH  23  24
ATOM     24  C   UNL     1     -26.093  61.489  35.144  1.00  0.00    -0.000 C 
BRANCH  24  25
ATOM     25  C   UNL     1     -24.717  60.824  35.346  1.00  0.00    -0.000 C 
BRANCH  25  26
ATOM     26  C   UNL     1     -23.844  60.782  34.071  1.00  0.00    -0.000 C 
BRANCH  26  27
ATOM     27  C   UNL     1     -23.783  59.412  33.367  1.00  0.00    -0.000 C 
BRANCH  27  28
ATOM     28  C   UNL     1     -23.178  59.485  31.954  1.00  0.00    -0.000 C 
BRANCH  28  29
ATOM     29  C   UNL     1     -23.574  58.278  31.084  1.00  0.00    -0.000 C 
BRANCH  29  30
ATOM     30  C   UNL     1     -22.466  57.885  30.094  1.00  0.00    -0.000 C 
BRANCH  30  31
ATOM     31  C   UNL     1     -23.046  57.128  28.892  1.00  0.00    -0.003 C 
ATOM     32  C   UNL     1     -22.206  57.366  27.639  1.00  0.00     0.004 C 
ENDBRANCH  30  31
ENDBRANCH  29  30
ENDBRANCH  28  29
ENDBRANCH  27  28
ENDBRANCH  26  27
ENDBRANCH  25  26
ENDBRANCH  24  25
ENDBRANCH  23  24
ENDBRANCH  22  23
ENDBRANCH  21  22
ENDBRANCH  20  21
ENDBRANCH  19  20
ENDBRANCH  18  19
ENDBRANCH   1  18
TORSDOF 28
ENDMDL
MODEL 2
REMARK VINA RESULT:    -4.490      1.284      4.658
REMARK INTER + INTRA:         -18.201
REMARK INTER:                 -11.898
REMARK INTRA:                  -6.302
REMARK UNBOUND:                -6.361
REMARK SMILES CCCCCCCCCCCCCCCCCCCCCCCCCCCCCC(=O)[O-]
REMARK SMILES IDX 16 1 17 2 18 3 19 4 20 5 21 6 22 7 23 8 24 9 25 10 26 11
REMARK SMILES IDX 27 12 28 13 29 14 30 15 31 16 32 17 15 18 14 19 13 20 12 21
REMARK SMILES IDX 11 22 10 23 9 24 8 25 7 26 6 27 5 28 4 29 3 30 2 31 1 32
REMARK H PARENT
REMARK Flexibility Score: inf
ROOT
ATOM      1  C   UNL     1     -26.523  60.836  31.628  1.00  0.00     0.000 C 
ENDROOT
BRANCH   1   2
ATOM      2  C   UNL     1     -26.725  60.312  33.058  1.00  0.00     0.000 C 
BRANCH   2   3
ATOM      3  C   UNL     1     -26.550  61.405  34.126  1.00  0.00     0.000 C 
BRANCH   3   4
ATOM      4  C   UNL     1     -25.554  61.061  35.249  1.00  0.00     0.000 C 
BRANCH   4   5
ATOM      5  C   UNL     1     -24.113  60.767  34.781  1.00  0.00     0.000 C 
BRANCH   5   6
ATOM      6  C   UNL     1     -23.173  60.209  35.868  1.00  0.00     0.000 C 
BRANCH   6   7
ATOM      7  C   UNL     1     -21.932  61.088  36.093  1.00  0.00     0.000 C 
BRANCH   7   8
ATOM      8  C   UNL     1     -21.822  62.224  35.061  1.00  0.00     0.000 C 
BRANCH   8   9
ATOM      9  C   UNL     1     -20.438  62.279  34.392  1.00  0.00     0.000 C 
BRANCH   9  10
ATOM     10  C   UNL     1     -19.517  61.127  34.830  1.00  0.00     0.000 C 
BRANCH  10  11
ATOM     11  C   UNL     1     -19.204  60.118  33.703  1.00  0.00     0.000 C 
BRANCH  11  12
ATOM     12  C   UNL     1     -20.267  59.013  33.599  1.00  0.00     0.000 C 
BRANCH  12  13
ATOM     13  C   UNL     1     -19.979  57.873  34.585  1.00  0.00     0.006 C 
BRANCH  13  14
ATOM     14  C   UNL     1     -20.722  56.597  34.178  1.00  0.00     0.053 C 
BRANCH  14  15
ATOM     15  C   UNL     1     -21.840  56.314  35.134  1.00  0.00     0.041 C 
ATOM     16  O   UNL     1     -21.898  56.917  36.241  1.00  0.00    -0.550 OA
ATOM     17  O   UNL     1     -22.794  55.352  34.823  1.00  0.00    -0.550 OA
ENDBRANCH  14  15
ENDBRANCH  13  14
ENDBRANCH  12  13
ENDBRANCH  11  12
ENDBRANCH  10  11
ENDBRANCH   9  10
ENDBRANCH   8   9
ENDBRANCH   7   8
ENDBRANCH   6   7
ENDBRANCH   5   6
ENDBRANCH   4   5
ENDBRANCH   3   4
ENDBRANCH   2   3
ENDBRANCH   1   2
BRANCH   1  18
ATOM     18  C   UNL     1     -25.953  62.261  31.645  1.00  0.00     0.000 C 
BRANCH  18  19
ATOM     19  C   UNL     1     -25.173  62.561  30.355  1.00  0.00     0.000 C 
BRANCH  19  20
ATOM     20  C   UNL     1     -23.658  62.710  30.601  1.00  0.00     0.000 C 
BRANCH  20  21
ATOM     21  C   UNL     1     -23.042  61.651  31.542  1.00  0.00     0.000 C 
BRANCH  21  22
ATOM     22  C   UNL     1     -21.685  61.069  31.081  1.00  0.00     0.000 C 
BRANCH  22  23
ATOM     23  C   UNL     1     -20.855  62.005  30.182  1.00  0.00     0.000 C 
BRANCH  23  24
ATOM     24  C   UNL     1     -20.602  61.417  28.782  1.00  0.00    -0.000 C 
BRANCH  24  25
ATOM     25  C   UNL     1     -21.785  61.658  27.823  1.00  0.00    -0.000 C 
BRANCH  25  26
ATOM     26  C   UNL     1     -22.195  60.414  27.002  1.00  0.00    -0.000 C 
BRANCH  26  27
ATOM     27  C   UNL     1     -22.727  59.231  27.834  1.00  0.00    -0.000 C 
BRANCH  27  28
ATOM     28  C   UNL     1     -24.057  59.542  28.543  1.00  0.00    -0.000 C 
BRANCH  28  29
ATOM     29  C   UNL     1     -24.269  58.675  29.798  1.00  0.00    -0.000 C 
BRANCH  29  30
ATOM     30  C   UNL     1     -23.137  57.656  30.001  1.00  0.00    -0.000 C 
BRANCH  30  31
ATOM     31  C   UNL     1     -23.134  57.118  31.438  1.00  0.00    -0.003 C 
ATOM     32  C   UNL     1     -24.058  57.941  32.333  1.00  0.00     0.004 C 
ENDBRANCH  30  31
ENDBRANCH  29  30
ENDBRANCH  28  29
ENDBRANCH  27  28
ENDBRANCH  26  27
ENDBRANCH  25  26
ENDBRANCH  24  25
ENDBRANCH  23  24
ENDBRANCH  22  23
ENDBRANCH  21  22
ENDBRANCH  20  21
ENDBRANCH  19  20
ENDBRANCH  18  19
ENDBRANCH   1  18
TORSDOF 28
ENDMDL
MODEL 3
REMARK VINA RESULT:    -4.488      1.670      4.717
REMARK INTER + INTRA:         -18.195
REMARK INTER:                 -11.900
REMARK INTRA:                  -6.295
REMARK UNBOUND:                -6.361
REMARK SMILES CCCCCCCCCCCCCCCCCCCCCCCCCCCCCC(=O)[O-]
REMARK SMILES IDX 16 1 17 2 18 3 19 4 20 5 21 6 22 7 23 8 24 9 25 10 26 11
REMARK SMILES IDX 27 12 28 13 29 14 30 15 31 16 32 17 15 18 14 19 13 20 12 21
REMARK SMILES IDX 11 22 10 23 9 24 8 25 7 26 6 27 5 28 4 29 3 30 2 31 1 32
REMARK H PARENT
REMARK Flexibility Score: inf
ROOT
ATOM      1  C   UNL     1     -26.921  60.403  33.071  1.00  0.00     0.000 C 
ENDROOT
BRANCH   1   2
ATOM      2  C   UNL     1     -25.661  59.878  33.775  1.00  0.00     0.000 C 
BRANCH   2   3
ATOM      3  C   UNL     1     -25.118  60.852  34.836  1.00  0.00     0.000 C 
BRANCH   3   4
ATOM      4  C   UNL     1     -23.669  60.582  35.282  1.00  0.00     0.000 C 
BRANCH   4   5
ATOM      5  C   UNL     1     -22.795  61.840  35.473  1.00  0.00     0.000 C 
BRANCH   5   6
ATOM      6  C   UNL     1     -21.381  61.576  36.025  1.00  0.00     0.000 C 
BRANCH   6   7
ATOM      7  C   UNL     1     -20.272  62.150  35.127  1.00  0.00     0.000 C 
BRANCH   7   8
ATOM      8  C   UNL     1     -19.321  61.061  34.600  1.00  0.00     0.000 C 
BRANCH   8   9
ATOM      9  C   UNL     1     -19.000  59.996  35.661  1.00  0.00     0.000 C 
BRANCH   9  10
ATOM     10  C   UNL     1     -19.292  58.565  35.177  1.00  0.00     0.000 C 
BRANCH  10  11
ATOM     11  C   UNL     1     -20.798  58.248  35.046  1.00  0.00     0.000 C 
BRANCH  11  12
ATOM     12  C   UNL     1     -21.210  57.966  33.593  1.00  0.00     0.000 C 
BRANCH  12  13
ATOM     13  C   UNL     1     -20.015  57.479  32.763  1.00  0.00     0.006 C 
BRANCH  13  14
ATOM     14  C   UNL     1     -19.957  58.198  31.412  1.00  0.00     0.053 C 
BRANCH  14  15
ATOM     15  C   UNL     1     -20.113  57.219  30.289  1.00  0.00     0.041 C 
ATOM     16  O   UNL     1     -19.585  57.449  29.167  1.00  0.00    -0.550 OA
ATOM     17  O   UNL     1     -20.880  56.074  30.469  1.00  0.00    -0.550 OA
ENDBRANCH  14  15
ENDBRANCH  13  14
ENDBRANCH  12  13
ENDBRANCH  11  12
ENDBRANCH  10  11
ENDBRANCH   9  10
ENDBRANCH   8   9
ENDBRANCH   7   8
ENDBRANCH   6   7
ENDBRANCH   5   6
ENDBRANCH   4   5
ENDBRANCH   3   4
ENDBRANCH   2   3
ENDBRANCH   1   2
BRANCH   1  18
ATOM     18  C   UNL     1     -26.622  61.708  32.319  1.00  0.00     0.000 C 
BRANCH  18  19
ATOM     19  C   UNL     1     -25.876  61.431  31.004  1.00  0.00     0.000 C 
BRANCH  19  20
ATOM     20  C   UNL     1     -25.081  62.654  30.505  1.00  0.00     0.000 C 
BRANCH  20  21
ATOM     21  C   UNL     1     -23.567  62.618  30.810  1.00  0.00     0.000 C 
BRANCH  21  22
ATOM     22  C   UNL     1     -23.110  61.469  31.738  1.00  0.00     0.000 C 
BRANCH  22  23
ATOM     23  C   UNL     1     -21.584  61.265  31.807  1.00  0.00     0.000 C 
BRANCH  23  24
ATOM     24  C   UNL     1     -20.801  62.367  31.069  1.00  0.00    -0.000 C 
BRANCH  24  25
ATOM     25  C   UNL     1     -19.842  61.792  30.007  1.00  0.00    -0.000 C 
BRANCH  25  26
ATOM     26  C   UNL     1     -20.538  60.927  28.932  1.00  0.00    -0.000 C 
BRANCH  26  27
ATOM     27  C   UNL     1     -21.330  61.717  27.871  1.00  0.00    -0.000 C 
BRANCH  27  28
ATOM     28  C   UNL     1     -22.805  61.288  27.776  1.00  0.00    -0.000 C 
BRANCH  28  29
ATOM     29  C   UNL     1     -22.967  59.757  27.731  1.00  0.00    -0.000 C 
BRANCH  29  30
ATOM     30  C   UNL     1     -24.086  59.261  28.660  1.00  0.00    -0.000 C 
BRANCH  30  31
ATOM     31  C   UNL     1     -23.644  58.015  29.437  1.00  0.00    -0.003 C 
ATOM     32  C   UNL     1     -23.915  58.177  30.932  1.00  0.00     0.004 C 
ENDBRANCH  30  31
ENDBRANCH  29  30
ENDBRANCH  28  29
ENDBRANCH  27  28
ENDBRANCH  26  27
ENDBRANCH  25  26
ENDBRANCH  24  25
ENDBRANCH  23  24
ENDBRANCH  22  23
ENDBRANCH  21  22
ENDBRANCH  20  21
ENDBRANCH  19  20
ENDBRANCH  18  19
ENDBRANCH   1  18
TORSDOF 28
ENDMDL
MODEL 4
REMARK VINA RESULT:    -4.466      1.860      5.273
REMARK INTER + INTRA:         -18.137
REMARK INTER:                 -12.946
REMARK INTRA:                  -5.191
REMARK UNBOUND:                -6.361
REMARK SMILES CCCCCCCCCCCCCCCCCCCCCCCCCCCCCC(=O)[O-]
REMARK SMILES IDX 16 1 17 2 18 3 19 4 20 5 21 6 22 7 23 8 24 9 25 10 26 11
REMARK SMILES IDX 27 12 28 13 29 14 30 15 31 16 32 17 15 18 14 19 13 20 12 21
REMARK SMILES IDX 11 22 10 23 9 24 8 25 7 26 6 27 5 28 4 29 3 30 2 31 1 32
REMARK H PARENT
REMARK Flexibility Score: inf
ROOT
ATOM      1  C   UNL     1     -25.201  61.102  31.527  1.00  0.00     0.000 C 
ENDROOT
BRANCH   1   2
ATOM      2  C   UNL     1     -26.624  60.524  31.491  1.00  0.00     0.000 C 
BRANCH   2   3
ATOM      3  C   UNL     1     -27.662  61.448  32.153  1.00  0.00     0.000 C 
BRANCH   3   4
ATOM      4  C   UNL     1     -28.068  61.045  33.583  1.00  0.00     0.000 C 
BRANCH   4   5
ATOM      5  C   UNL     1     -27.751  62.090  34.675  1.00  0.00     0.000 C 
BRANCH   5   6
ATOM      6  C   UNL     1     -26.645  61.682  35.668  1.00  0.00     0.000 C 
BRANCH   6   7
ATOM      7  C   UNL     1     -25.482  60.935  34.993  1.00  0.00     0.000 C 
BRANCH   7   8
ATOM      8  C   UNL     1     -24.127  61.238  35.655  1.00  0.00     0.000 C 
BRANCH   8   9
ATOM      9  C   UNL     1     -22.943  61.017  34.700  1.00  0.00     0.000 C 
BRANCH   9  10
ATOM     10  C   UNL     1     -21.769  61.974  34.974  1.00  0.00     0.000 C 
BRANCH  10  11
ATOM     11  C   UNL     1     -20.766  61.443  36.022  1.00  0.00     0.000 C 
BRANCH  11  12
ATOM     12  C   UNL     1     -19.347  61.299  35.449  1.00  0.00     0.000 C 
BRANCH  12  13
ATOM     13  C   UNL     1     -19.384  61.035  33.938  1.00  0.00     0.006 C 
BRANCH  13  14
ATOM     14  C   UNL     1     -19.567  59.542  33.646  1.00  0.00     0.053 C 
BRANCH  14  15
ATOM     15  C   UNL     1     -18.244  58.841  33.655  1.00  0.00     0.041 C 
ATOM     16  O   UNL     1     -17.584  58.742  34.726  1.00  0.00    -0.550 OA
ATOM     17  O   UNL     1     -17.718  58.335  32.472  1.00  0.00    -0.550 OA
ENDBRANCH  14  15
ENDBRANCH  13  14
ENDBRANCH  12  13
ENDBRANCH  11  12
ENDBRANCH  10  11
ENDBRANCH   9  10
ENDBRANCH   8   9
ENDBRANCH   7   8
ENDBRANCH   6   7
ENDBRANCH   5   6
ENDBRANCH   4   5
ENDBRANCH   3   4
ENDBRANCH   2   3
ENDBRANCH   1   2
BRANCH   1  18
ATOM     18  C   UNL     1     -25.112  62.382  30.683  1.00  0.00     0.000 C 
BRANCH  18  19
ATOM     19  C   UNL     1     -23.660  62.876  30.578  1.00  0.00     0.000 C 
BRANCH  19  20
ATOM     20  C   UNL     1     -22.674  61.987  31.362  1.00  0.00     0.000 C 
BRANCH  20  21
ATOM     21  C   UNL     1     -21.197  62.109  30.926  1.00  0.00     0.000 C 
BRANCH  21  22
ATOM     22  C   UNL     1     -20.735  61.079  29.870  1.00  0.00     0.000 C 
BRANCH  22  23
ATOM     23  C   UNL     1     -20.394  61.677  28.492  1.00  0.00     0.000 C 
BRANCH  23  24
ATOM     24  C   UNL     1     -21.612  61.748  27.554  1.00  0.00    -0.000 C 
BRANCH  24  25
ATOM     25  C   UNL     1     -22.338  60.393  27.433  1.00  0.00    -0.000 C 
BRANCH  25  26
ATOM     26  C   UNL     1     -23.766  60.388  28.024  1.00  0.00    -0.000 C 
BRANCH  26  27
ATOM     27  C   UNL     1     -24.231  59.031  28.591  1.00  0.00    -0.000 C 
BRANCH  27  28
ATOM     28  C   UNL     1     -23.081  58.024  28.765  1.00  0.00    -0.000 C 
BRANCH  28  29
ATOM     29  C   UNL     1     -23.215  57.200  30.060  1.00  0.00    -0.000 C 
BRANCH  29  30
ATOM     30  C   UNL     1     -22.174  57.601  31.117  1.00  0.00    -0.000 C 
BRANCH  30  31
ATOM     31  C   UNL     1     -22.822  58.410  32.248  1.00  0.00    -0.003 C 
ATOM     32  C   UNL     1     -24.178  57.822  32.633  1.00  0.00     0.004 C 
ENDBRANCH  30  31
ENDBRANCH  29  30
ENDBRANCH  28  29
ENDBRANCH  27  28
ENDBRANCH  26  27
ENDBRANCH  25  26
ENDBRANCH  24  25
ENDBRANCH  23  24
ENDBRANCH  22  23
ENDBRANCH  21  22
ENDBRANCH  20  21
ENDBRANCH  19  20
ENDBRANCH  18  19
ENDBRANCH   1  18
TORSDOF 28
ENDMDL
MODEL 5
REMARK VINA RESULT:    -4.455      1.778      5.054
REMARK INTER + INTRA:         -18.109
REMARK INTER:                 -12.131
REMARK INTRA:                  -5.978
REMARK UNBOUND:                -6.361
REMARK SMILES CCCCCCCCCCCCCCCCCCCCCCCCCCCCCC(=O)[O-]
REMARK SMILES IDX 16 1 17 2 18 3 19 4 20 5 21 6 22 7 23 8 24 9 25 10 26 11
REMARK SMILES IDX 27 12 28 13 29 14 30 15 31 16 32 17 15 18 14 19 13 20 12 21
REMARK SMILES IDX 11 22 10 23 9 24 8 25 7 26 6 27 5 28 4 29 3 30 2 31 1 32
REMARK H PARENT
REMARK Flexibility Score: inf
ROOT
ATOM      1  C   UNL     1     -24.005  58.576  29.751  1.00  0.00     0.000 C 
ENDROOT
BRANCH   1   2
ATOM      2  C   UNL     1     -22.942  57.789  30.532  1.00  0.00     0.000 C 
BRANCH   2   3
ATOM      3  C   UNL     1     -23.428  57.346  31.923  1.00  0.00     0.000 C 
BRANCH   3   4
ATOM      4  C   UNL     1     -24.248  58.401  32.689  1.00  0.00     0.000 C 
BRANCH   4   5
ATOM      5  C   UNL     1     -23.447  59.247  33.702  1.00  0.00     0.000 C 
BRANCH   5   6
ATOM      6  C   UNL     1     -24.153  60.529  34.186  1.00  0.00     0.000 C 
BRANCH   6   7
ATOM      7  C   UNL     1     -23.377  61.254  35.298  1.00  0.00     0.000 C 
BRANCH   7   8
ATOM      8  C   UNL     1     -22.029  61.810  34.807  1.00  0.00     0.000 C 
BRANCH   8   9
ATOM      9  C   UNL     1     -20.908  61.638  35.844  1.00  0.00     0.000 C 
BRANCH   9  10
ATOM     10  C   UNL     1     -21.330  60.765  37.039  1.00  0.00     0.000 C 
BRANCH  10  11
ATOM     11  C   UNL     1     -20.638  59.384  37.074  1.00  0.00     0.000 C 
BRANCH  11  12
ATOM     12  C   UNL     1     -21.285  58.383  36.103  1.00  0.00     0.000 C 
BRANCH  12  13
ATOM     13  C   UNL     1     -20.220  57.553  35.373  1.00  0.00     0.006 C 
BRANCH  13  14
ATOM     14  C   UNL     1     -20.005  58.070  33.948  1.00  0.00     0.053 C 
BRANCH  14  15
ATOM     15  C   UNL     1     -18.944  59.127  33.928  1.00  0.00     0.041 C 
ATOM     16  O   UNL     1     -18.984  60.053  33.073  1.00  0.00    -0.550 OA
ATOM     17  O   UNL     1     -17.884  59.063  34.826  1.00  0.00    -0.550 OA
ENDBRANCH  14  15
ENDBRANCH  13  14
ENDBRANCH  12  13
ENDBRANCH  11  12
ENDBRANCH  10  11
ENDBRANCH   9  10
ENDBRANCH   8   9
ENDBRANCH   7   8
ENDBRANCH   6   7
ENDBRANCH   5   6
ENDBRANCH   4   5
ENDBRANCH   3   4
ENDBRANCH   2   3
ENDBRANCH   1   2
BRANCH   1  18
ATOM     18  C   UNL     1     -23.675  58.599  28.251  1.00  0.00     0.000 C 
BRANCH  18  19
ATOM     19  C   UNL     1     -22.301  59.239  27.997  1.00  0.00     0.000 C 
BRANCH  19  20
ATOM     20  C   UNL     1     -22.410  60.655  27.396  1.00  0.00     0.000 C 
BRANCH  20  21
ATOM     21  C   UNL     1     -21.356  61.664  27.906  1.00  0.00     0.000 C 
BRANCH  21  22
ATOM     22  C   UNL     1     -20.380  61.114  28.972  1.00  0.00     0.000 C 
BRANCH  22  23
ATOM     23  C   UNL     1     -20.537  61.738  30.372  1.00  0.00     0.000 C 
BRANCH  23  24
ATOM     24  C   UNL     1     -21.819  61.278  31.090  1.00  0.00    -0.000 C 
BRANCH  24  25
ATOM     25  C   UNL     1     -22.881  62.394  31.165  1.00  0.00    -0.000 C 
BRANCH  25  26
ATOM     26  C   UNL     1     -24.161  62.102  30.350  1.00  0.00    -0.000 C 
BRANCH  26  27
ATOM     27  C   UNL     1     -25.479  62.227  31.140  1.00  0.00    -0.000 C 
BRANCH  27  28
ATOM     28  C   UNL     1     -26.296  60.923  31.160  1.00  0.00    -0.000 C 
BRANCH  28  29
ATOM     29  C   UNL     1     -27.381  60.927  32.253  1.00  0.00    -0.000 C 
BRANCH  29  30
ATOM     30  C   UNL     1     -27.414  62.249  33.037  1.00  0.00    -0.000 C 
BRANCH  30  31
ATOM     31  C   UNL     1     -27.680  61.997  34.527  1.00  0.00    -0.003 C 
ATOM     32  C   UNL     1     -27.845  60.505  34.809  1.00  0.00     0.004 C 
ENDBRANCH  30  31
ENDBRANCH  29  30
ENDBRANCH  28  29
ENDBRANCH  27  28
ENDBRANCH  26  27
ENDBRANCH  25  26
ENDBRANCH  24  25
ENDBRANCH  23  24
ENDBRANCH  22  23
ENDBRANCH  21  22
ENDBRANCH  20  21
ENDBRANCH  19  20
ENDBRANCH  18  19
ENDBRANCH   1  18
TORSDOF 28
ENDMDL
MODEL 6
REMARK VINA RESULT:    -4.437      1.775      2.159
REMARK INTER + INTRA:         -18.060
REMARK INTER:                 -12.102
REMARK INTRA:                  -5.958
REMARK UNBOUND:                -6.361
REMARK SMILES CCCCCCCCCCCCCCCCCCCCCCCCCCCCCC(=O)[O-]
REMARK SMILES IDX 16 1 17 2 18 3 19 4 20 5 21 6 22 7 23 8 24 9 25 10 26 11
REMARK SMILES IDX 27 12 28 13 29 14 30 15 31 16 32 17 15 18 14 19 13 20 12 21
REMARK SMILES IDX 11 22 10 23 9 24 8 25 7 26 6 27 5 28 4 29 3 30 2 31 1 32
REMARK H PARENT
REMARK Flexibility Score: inf
ROOT
ATOM      1  C   UNL     1     -24.325  60.632  28.477  1.00  0.00     0.000 C 
ENDROOT
BRANCH   1   2
ATOM      2  C   UNL     1     -23.320  61.762  28.206  1.00  0.00     0.000 C 
BRANCH   2   3
ATOM      3  C   UNL     1     -21.978  61.249  27.656  1.00  0.00     0.000 C 
BRANCH   3   4
ATOM      4  C   UNL     1     -20.743  61.646  28.487  1.00  0.00     0.000 C 
BRANCH   4   5
ATOM      5  C   UNL     1     -20.796  61.242  29.976  1.00  0.00     0.000 C 
BRANCH   5   6
ATOM      6  C   UNL     1     -20.985  62.409  30.964  1.00  0.00     0.000 C 
BRANCH   6   7
ATOM      7  C   UNL     1     -21.649  61.975  32.282  1.00  0.00     0.000 C 
BRANCH   7   8
ATOM      8  C   UNL     1     -20.846  62.418  33.517  1.00  0.00     0.000 C 
BRANCH   8   9
ATOM      9  C   UNL     1     -21.582  62.122  34.835  1.00  0.00     0.000 C 
BRANCH   9  10
ATOM     10  C   UNL     1     -20.711  61.357  35.846  1.00  0.00     0.000 C 
BRANCH  10  11
ATOM     11  C   UNL     1     -21.005  59.841  35.898  1.00  0.00     0.000 C 
BRANCH  11  12
ATOM     12  C   UNL     1     -19.996  59.023  35.078  1.00  0.00     0.000 C 
BRANCH  12  13
ATOM     13  C   UNL     1     -20.525  58.748  33.664  1.00  0.00     0.006 C 
BRANCH  13  14
ATOM     14  C   UNL     1     -19.477  58.016  32.820  1.00  0.00     0.053 C 
BRANCH  14  15
ATOM     15  C   UNL     1     -18.303  58.908  32.554  1.00  0.00     0.041 C 
ATOM     16  O   UNL     1     -18.462  60.155  32.452  1.00  0.00    -0.550 OA
ATOM     17  O   UNL     1     -17.040  58.357  32.374  1.00  0.00    -0.550 OA
ENDBRANCH  14  15
ENDBRANCH  13  14
ENDBRANCH  12  13
ENDBRANCH  11  12
ENDBRANCH  10  11
ENDBRANCH   9  10
ENDBRANCH   8   9
ENDBRANCH   7   8
ENDBRANCH   6   7
ENDBRANCH   5   6
ENDBRANCH   4   5
ENDBRANCH   3   4
ENDBRANCH   2   3
ENDBRANCH   1   2
BRANCH   1  18
ATOM     18  C   UNL     1     -25.170  60.940  29.721  1.00  0.00     0.000 C 
BRANCH  18  19
ATOM     19  C   UNL     1     -24.764  62.283  30.349  1.00  0.00     0.000 C 
BRANCH  19  20
ATOM     20  C   UNL     1     -25.747  62.748  31.442  1.00  0.00     0.000 C 
BRANCH  20  21
ATOM     21  C   UNL     1     -26.758  61.677  31.909  1.00  0.00     0.000 C 
BRANCH  21  22
ATOM     22  C   UNL     1     -27.060  61.674  33.425  1.00  0.00     0.000 C 
BRANCH  22  23
ATOM     23  C   UNL     1     -26.509  60.456  34.190  1.00  0.00     0.000 C 
BRANCH  23  24
ATOM     24  C   UNL     1     -25.007  60.576  34.503  1.00  0.00    -0.000 C 
BRANCH  24  25
ATOM     25  C   UNL     1     -24.136  59.788  33.504  1.00  0.00    -0.000 C 
BRANCH  25  26
ATOM     26  C   UNL     1     -24.847  58.572  32.869  1.00  0.00    -0.000 C 
BRANCH  26  27
ATOM     27  C   UNL     1     -23.908  57.522  32.241  1.00  0.00    -0.000 C 
BRANCH  27  28
ATOM     28  C   UNL     1     -23.716  57.715  30.726  1.00  0.00    -0.000 C 
BRANCH  28  29
ATOM     29  C   UNL     1     -22.287  58.164  30.368  1.00  0.00    -0.000 C 
BRANCH  29  30
ATOM     30  C   UNL     1     -21.780  57.517  29.070  1.00  0.00    -0.000 C 
BRANCH  30  31
ATOM     31  C   UNL     1     -22.950  57.022  28.209  1.00  0.00    -0.003 C 
ATOM     32  C   UNL     1     -22.948  57.701  26.841  1.00  0.00     0.004 C 
ENDBRANCH  30  31
ENDBRANCH  29  30
ENDBRANCH  28  29
ENDBRANCH  27  28
ENDBRANCH  26  27
ENDBRANCH  25  26
ENDBRANCH  24  25
ENDBRANCH  23  24
ENDBRANCH  22  23
ENDBRANCH  21  22
ENDBRANCH  20  21
ENDBRANCH  19  20
ENDBRANCH  18  19
ENDBRANCH   1  18
TORSDOF 28
ENDMDL
MODEL 7
REMARK VINA RESULT:    -4.413      2.379      5.450
REMARK INTER + INTRA:         -17.998
REMARK INTER:                 -11.353
REMARK INTRA:                  -6.644
REMARK UNBOUND:                -6.361
REMARK SMILES CCCCCCCCCCCCCCCCCCCCCCCCCCCCCC(=O)[O-]
REMARK SMILES IDX 16 1 17 2 18 3 19 4 20 5 21 6 22 7 23 8 24 9 25 10 26 11
REMARK SMILES IDX 27 12 28 13 29 14 30 15 31 16 32 17 15 18 14 19 13 20 12 21
REMARK SMILES IDX 11 22 10 23 9 24 8 25 7 26 6 27 5 28 4 29 3 30 2 31 1 32
REMARK H PARENT
REMARK Flexibility Score: inf
ROOT
ATOM      1  C   UNL     1     -21.388  60.830  28.797  1.00  0.00     0.000 C 
ENDROOT
BRANCH   1   2
ATOM      2  C   UNL     1     -22.034  61.561  27.611  1.00  0.00     0.000 C 
BRANCH   2   3
ATOM      3  C   UNL     1     -23.490  61.977  27.886  1.00  0.00     0.000 C 
BRANCH   3   4
ATOM      4  C   UNL     1     -24.030  61.569  29.270  1.00  0.00     0.000 C 
BRANCH   4   5
ATOM      5  C   UNL     1     -25.397  60.851  29.255  1.00  0.00     0.000 C 
BRANCH   5   6
ATOM      6  C   UNL     1     -26.055  60.670  30.637  1.00  0.00     0.000 C 
BRANCH   6   7
ATOM      7  C   UNL     1     -25.316  61.427  31.754  1.00  0.00     0.000 C 
BRANCH   7   8
ATOM      8  C   UNL     1     -25.190  60.596  33.043  1.00  0.00     0.000 C 
BRANCH   8   9
ATOM      9  C   UNL     1     -25.101  59.087  32.764  1.00  0.00     0.000 C 
BRANCH   9  10
ATOM     10  C   UNL     1     -23.659  58.555  32.816  1.00  0.00     0.000 C 
BRANCH  10  11
ATOM     11  C   UNL     1     -22.929  58.600  31.455  1.00  0.00     0.000 C 
BRANCH  11  12
ATOM     12  C   UNL     1     -23.706  57.862  30.353  1.00  0.00     0.000 C 
BRANCH  12  13
ATOM     13  C   UNL     1     -22.788  57.495  29.179  1.00  0.00     0.006 C 
BRANCH  13  14
ATOM     14  C   UNL     1     -23.391  57.955  27.848  1.00  0.00     0.053 C 
BRANCH  14  15
ATOM     15  C   UNL     1     -22.425  57.723  26.727  1.00  0.00     0.041 C 
ATOM     16  O   UNL     1     -21.600  56.770  26.786  1.00  0.00    -0.550 OA
ATOM     17  O   UNL     1     -22.405  58.585  25.638  1.00  0.00    -0.550 OA
ENDBRANCH  14  15
ENDBRANCH  13  14
ENDBRANCH  12  13
ENDBRANCH  11  12
ENDBRANCH  10  11
ENDBRANCH   9  10
ENDBRANCH   8   9
ENDBRANCH   7   8
ENDBRANCH   6   7
ENDBRANCH   5   6
ENDBRANCH   4   5
ENDBRANCH   3   4
ENDBRANCH   2   3
ENDBRANCH   1   2
BRANCH   1  18
ATOM     18  C   UNL     1     -20.187  61.620  29.336  1.00  0.00     0.000 C 
BRANCH  18  19
ATOM     19  C   UNL     1     -20.131  61.564  30.871  1.00  0.00     0.000 C 
BRANCH  19  20
ATOM     20  C   UNL     1     -21.327  62.276  31.533  1.00  0.00     0.000 C 
BRANCH  20  21
ATOM     21  C   UNL     1     -21.691  61.765  32.946  1.00  0.00     0.000 C 
BRANCH  21  22
ATOM     22  C   UNL     1     -20.875  62.388  34.102  1.00  0.00     0.000 C 
BRANCH  22  23
ATOM     23  C   UNL     1     -21.440  62.115  35.509  1.00  0.00     0.000 C 
BRANCH  23  24
ATOM     24  C   UNL     1     -22.707  61.240  35.484  1.00  0.00    -0.000 C 
BRANCH  24  25
ATOM     25  C   UNL     1     -22.475  59.856  36.123  1.00  0.00    -0.000 C 
BRANCH  25  26
ATOM     26  C   UNL     1     -21.099  59.700  36.808  1.00  0.00    -0.000 C 
BRANCH  26  27
ATOM     27  C   UNL     1     -20.107  58.773  36.076  1.00  0.00    -0.000 C 
BRANCH  27  28
ATOM     28  C   UNL     1     -18.844  59.505  35.591  1.00  0.00    -0.000 C 
BRANCH  28  29
ATOM     29  C   UNL     1     -18.503  59.177  34.126  1.00  0.00    -0.000 C 
BRANCH  29  30
ATOM     30  C   UNL     1     -19.751  58.826  33.301  1.00  0.00    -0.000 C 
BRANCH  30  31
ATOM     31  C   UNL     1     -19.527  57.550  32.479  1.00  0.00    -0.003 C 
ATOM     32  C   UNL     1     -19.414  57.871  30.990  1.00  0.00     0.004 C 
ENDBRANCH  30  31
ENDBRANCH  29  30
ENDBRANCH  28  29
ENDBRANCH  27  28
ENDBRANCH  26  27
ENDBRANCH  25  26
ENDBRANCH  24  25
ENDBRANCH  23  24
ENDBRANCH  22  23
ENDBRANCH  21  22
ENDBRANCH  20  21
ENDBRANCH  19  20
ENDBRANCH  18  19
ENDBRANCH   1  18
TORSDOF 28
ENDMDL
MODEL 8
REMARK VINA RESULT:    -4.407      2.245      6.253
REMARK INTER + INTRA:         -17.981
REMARK INTER:                 -11.602
REMARK INTRA:                  -6.379
REMARK UNBOUND:                -6.361
REMARK SMILES CCCCCCCCCCCCCCCCCCCCCCCCCCCCCC(=O)[O-]
REMARK SMILES IDX 16 1 17 2 18 3 19 4 20 5 21 6 22 7 23 8 24 9 25 10 26 11
REMARK SMILES IDX 27 12 28 13 29 14 30 15 31 16 32 17 15 18 14 19 13 20 12 21
REMARK SMILES IDX 11 22 10 23 9 24 8 25 7 26 6 27 5 28 4 29 3 30 2 31 1 32
REMARK H PARENT
REMARK Flexibility Score: inf
ROOT
ATOM      1  C   UNL     1     -25.604  62.525  31.290  1.00  0.00     0.000 C 
ENDROOT
BRANCH   1   2
ATOM      2  C   UNL     1     -26.430  61.234  31.401  1.00  0.00     0.000 C 
BRANCH   2   3
ATOM      3  C   UNL     1     -27.435  61.264  32.565  1.00  0.00     0.000 C 
BRANCH   3   4
ATOM      4  C   UNL     1     -26.995  60.489  33.821  1.00  0.00     0.000 C 
BRANCH   4   5
ATOM      5  C   UNL     1     -26.285  61.334  34.901  1.00  0.00     0.000 C 
BRANCH   5   6
ATOM      6  C   UNL     1     -24.866  60.862  35.273  1.00  0.00     0.000 C 
BRANCH   6   7
ATOM      7  C   UNL     1     -23.895  60.891  34.080  1.00  0.00     0.000 C 
BRANCH   7   8
ATOM      8  C   UNL     1     -23.541  59.481  33.577  1.00  0.00     0.000 C 
BRANCH   8   9
ATOM      9  C   UNL     1     -23.401  59.420  32.047  1.00  0.00     0.000 C 
BRANCH   9  10
ATOM     10  C   UNL     1     -24.248  58.301  31.416  1.00  0.00     0.000 C 
BRANCH  10  11
ATOM     11  C   UNL     1     -23.805  57.918  29.986  1.00  0.00     0.000 C 
BRANCH  11  12
ATOM     12  C   UNL     1     -22.711  56.839  29.985  1.00  0.00     0.000 C 
BRANCH  12  13
ATOM     13  C   UNL     1     -21.976  56.797  28.639  1.00  0.00     0.006 C 
BRANCH  13  14
ATOM     14  C   UNL     1     -22.777  57.523  27.554  1.00  0.00     0.053 C 
BRANCH  14  15
ATOM     15  C   UNL     1     -22.419  56.997  26.198  1.00  0.00     0.041 C 
ATOM     16  O   UNL     1     -21.761  55.927  26.084  1.00  0.00    -0.550 OA
ATOM     17  O   UNL     1     -22.773  57.713  25.060  1.00  0.00    -0.550 OA
ENDBRANCH  14  15
ENDBRANCH  13  14
ENDBRANCH  12  13
ENDBRANCH  11  12
ENDBRANCH  10  11
ENDBRANCH   9  10
ENDBRANCH   8   9
ENDBRANCH   7   8
ENDBRANCH   6   7
ENDBRANCH   5   6
ENDBRANCH   4   5
ENDBRANCH   3   4
ENDBRANCH   2   3
ENDBRANCH   1   2
BRANCH   1  18
ATOM     18  C   UNL     1     -24.557  62.409  30.173  1.00  0.00     0.000 C 
BRANCH  18  19
ATOM     19  C   UNL     1     -24.964  61.345  29.141  1.00  0.00     0.000 C 
BRANCH  19  20
ATOM     20  C   UNL     1     -23.825  61.008  28.158  1.00  0.00     0.000 C 
BRANCH  20  21
ATOM     21  C   UNL     1     -22.441  61.579  28.541  1.00  0.00     0.000 C 
BRANCH  21  22
ATOM     22  C   UNL     1     -21.369  60.525  28.899  1.00  0.00     0.000 C 
BRANCH  22  23
ATOM     23  C   UNL     1     -20.614  60.794  30.214  1.00  0.00     0.000 C 
BRANCH  23  24
ATOM     24  C   UNL     1     -20.678  62.270  30.648  1.00  0.00    -0.000 C 
BRANCH  24  25
ATOM     25  C   UNL     1     -21.260  62.439  32.066  1.00  0.00    -0.000 C 
BRANCH  25  26
ATOM     26  C   UNL     1     -20.415  61.777  33.178  1.00  0.00    -0.000 C 
BRANCH  26  27
ATOM     27  C   UNL     1     -20.584  62.394  34.580  1.00  0.00    -0.000 C 
BRANCH  27  28
ATOM     28  C   UNL     1     -20.625  61.341  35.702  1.00  0.00    -0.000 C 
BRANCH  28  29
ATOM     29  C   UNL     1     -19.872  60.052  35.322  1.00  0.00    -0.000 C 
BRANCH  29  30
ATOM     30  C   UNL     1     -20.606  58.788  35.796  1.00  0.00    -0.000 C 
BRANCH  30  31
ATOM     31  C   UNL     1     -20.534  57.680  34.737  1.00  0.00    -0.003 C 
ATOM     32  C   UNL     1     -20.031  58.231  33.404  1.00  0.00     0.004 C 
ENDBRANCH  30  31
ENDBRANCH  29  30
ENDBRANCH  28  29
ENDBRANCH  27  28
ENDBRANCH  26  27
ENDBRANCH  25  26
ENDBRANCH  24  25
ENDBRANCH  23  24
ENDBRANCH  22  23
ENDBRANCH  21  22
ENDBRANCH  20  21
ENDBRANCH  19  20
ENDBRANCH  18  19
ENDBRANCH   1  18
TORSDOF 28
ENDMDL
MODEL 9
REMARK VINA RESULT:    -4.390      3.387      6.690
REMARK INTER + INTRA:         -17.937
REMARK INTER:                 -11.826
REMARK INTRA:                  -6.111
REMARK UNBOUND:                -6.361
REMARK SMILES CCCCCCCCCCCCCCCCCCCCCCCCCCCCCC(=O)[O-]
REMARK SMILES IDX 16 1 17 2 18 3 19 4 20 5 21 6 22 7 23 8 24 9 25 10 26 11
REMARK SMILES IDX 27 12 28 13 29 14 30 15 31 16 32 17 15 18 14 19 13 20 12 21
REMARK SMILES IDX 11 22 10 23 9 24 8 25 7 26 6 27 5 28 4 29 3 30 2 31 1 32
REMARK H PARENT
REMARK Flexibility Score: inf
ROOT
ATOM      1  C   UNL     1     -20.857  60.740  28.854  1.00  0.00     0.000 C 
ENDROOT
BRANCH   1   2
ATOM      2  C   UNL     1     -21.574  61.625  27.824  1.00  0.00     0.000 C 
BRANCH   2   3
ATOM      3  C   UNL     1     -23.094  61.386  27.783  1.00  0.00     0.000 C 
BRANCH   3   4
ATOM      4  C   UNL     1     -23.907  62.212  28.798  1.00  0.00     0.000 C 
BRANCH   4   5
ATOM      5  C   UNL     1     -25.130  61.490  29.402  1.00  0.00     0.000 C 
BRANCH   5   6
ATOM      6  C   UNL     1     -25.167  59.966  29.178  1.00  0.00     0.000 C 
BRANCH   6   7
ATOM      7  C   UNL     1     -25.451  59.180  30.469  1.00  0.00     0.000 C 
BRANCH   7   8
ATOM      8  C   UNL     1     -24.345  58.161  30.792  1.00  0.00     0.000 C 
BRANCH   8   9
ATOM      9  C   UNL     1     -23.239  58.135  29.725  1.00  0.00     0.000 C 
BRANCH   9  10
ATOM     10  C   UNL     1     -22.926  56.714  29.225  1.00  0.00     0.000 C 
BRANCH  10  11
ATOM     11  C   UNL     1     -22.912  56.586  27.685  1.00  0.00     0.000 C 
BRANCH  11  12
ATOM     12  C   UNL     1     -22.941  57.954  26.986  1.00  0.00     0.000 C 
BRANCH  12  13
ATOM     13  C   UNL     1     -22.519  57.834  25.516  1.00  0.00     0.006 C 
BRANCH  13  14
ATOM     14  C   UNL     1     -22.772  56.418  24.988  1.00  0.00     0.053 C 
BRANCH  14  15
ATOM     15  C   UNL     1     -23.217  56.464  23.558  1.00  0.00     0.041 C 
ATOM     16  O   UNL     1     -22.837  55.578  22.745  1.00  0.00    -0.550 OA
ATOM     17  O   UNL     1     -24.016  57.511  23.114  1.00  0.00    -0.550 OA
ENDBRANCH  14  15
ENDBRANCH  13  14
ENDBRANCH  12  13
ENDBRANCH  11  12
ENDBRANCH  10  11
ENDBRANCH   9  10
ENDBRANCH   8   9
ENDBRANCH   7   8
ENDBRANCH   6   7
ENDBRANCH   5   6
ENDBRANCH   4   5
ENDBRANCH   3   4
ENDBRANCH   2   3
ENDBRANCH   1   2
BRANCH   1  18
ATOM     18  C   UNL     1     -20.007  61.592  29.808  1.00  0.00     0.000 C 
BRANCH  18  19
ATOM     19  C   UNL     1     -20.846  62.109  30.986  1.00  0.00     0.000 C 
BRANCH  19  20
ATOM     20  C   UNL     1     -21.775  61.026  31.571  1.00  0.00     0.000 C 
BRANCH  20  21
ATOM     21  C   UNL     1     -23.027  61.565  32.301  1.00  0.00     0.000 C 
BRANCH  21  22
ATOM     22  C   UNL     1     -23.597  60.640  33.401  1.00  0.00     0.000 C 
BRANCH  22  23
ATOM     23  C   UNL     1     -22.643  59.522  33.861  1.00  0.00     0.000 C 
BRANCH  23  24
ATOM     24  C   UNL     1     -22.432  59.506  35.386  1.00  0.00    -0.000 C 
BRANCH  24  25
ATOM     25  C   UNL     1     -22.470  60.921  35.997  1.00  0.00    -0.000 C 
BRANCH  25  26
ATOM     26  C   UNL     1     -21.076  61.540  36.243  1.00  0.00    -0.000 C 
BRANCH  26  27
ATOM     27  C   UNL     1     -20.503  62.347  35.061  1.00  0.00    -0.000 C 
BRANCH  27  28
ATOM     28  C   UNL     1     -19.385  61.604  34.309  1.00  0.00    -0.000 C 
BRANCH  28  29
ATOM     29  C   UNL     1     -18.744  60.493  35.161  1.00  0.00    -0.000 C 
BRANCH  29  30
ATOM     30  C   UNL     1     -18.463  59.222  34.344  1.00  0.00    -0.000 C 
BRANCH  30  31
ATOM     31  C   UNL     1     -19.067  59.327  32.938  1.00  0.00    -0.003 C 
ATOM     32  C   UNL     1     -18.042  58.939  31.873  1.00  0.00     0.004 C 
ENDBRANCH  30  31
ENDBRANCH  29  30
ENDBRANCH  28  29
ENDBRANCH  27  28
ENDBRANCH  26  27
ENDBRANCH  25  26
ENDBRANCH  24  25
ENDBRANCH  23  24
ENDBRANCH  22  23
ENDBRANCH  21  22
ENDBRANCH  20  21
ENDBRANCH  19  20
ENDBRANCH  18  19
ENDBRANCH   1  18
TORSDOF 28
ENDMDL
