MODEL 1
REMARK VINA RESULT:    -3.021      0.000      0.000
REMARK INTER + INTRA:          -6.859
REMARK INTER:                  -5.847
REMARK INTRA:                  -1.012
REMARK UNBOUND:                -1.012
REMARK SMILES CCCCCCCCCCCCCCCCCC(=O)[O-]
REMARK SMILES IDX 10 1 11 2 12 3 13 4 14 5 15 6 16 7 17 8 18 9 19 10 20 11
REMARK SMILES IDX 9 12 8 13 7 14 6 15 5 16 4 17 3 18 2 19 1 20
REMARK H PARENT
REMARK Flexibility Score: inf
ROOT
ATOM      1  C   UNL     1       2.379 -14.149 -18.464  1.00  0.00     0.000 C 
ENDROOT
BRANCH   1   2
ATOM      2  C   UNL     1       2.314 -12.645 -18.759  1.00  0.00     0.000 C 
BRANCH   2   3
ATOM      3  C   UNL     1       3.718 -12.023 -18.758  1.00  0.00     0.000 C 
BRANCH   3   4
ATOM      4  C   UNL     1       3.685 -10.487 -18.707  1.00  0.00     0.000 C 
BRANCH   4   5
ATOM      5  C   UNL     1       2.440  -9.948 -17.980  1.00  0.00     0.000 C 
BRANCH   5   6
ATOM      6  C   UNL     1       2.720  -8.644 -17.217  1.00  0.00     0.000 C 
BRANCH   6   7
ATOM      7  C   UNL     1       3.316  -8.889 -15.824  1.00  0.00     0.006 C 
BRANCH   7   8
ATOM      8  C   UNL     1       3.472  -7.574 -15.055  1.00  0.00     0.053 C 
BRANCH   8   9
ATOM      9  C   UNL     1       3.715  -7.839 -13.603  1.00  0.00     0.041 C 
ATOM     10  O   UNL     1       3.199  -7.095 -12.727  1.00  0.00    -0.550 OA
ATOM     11  O   UNL     1       4.484  -8.930 -13.215  1.00  0.00    -0.550 OA
ENDBRANCH   8   9
ENDBRANCH   7   8
ENDBRANCH   6   7
ENDBRANCH   5   6
ENDBRANCH   4   5
ENDBRANCH   3   4
ENDBRANCH   2   3
ENDBRANCH   1   2
BRANCH   1  12
ATOM     12  C   UNL     1       1.129 -14.615 -17.704  1.00  0.00     0.000 C 
BRANCH  12  13
ATOM     13  C   UNL     1       0.431 -15.806 -18.383  1.00  0.00    -0.000 C 
BRANCH  13  14
ATOM     14  C   UNL     1      -1.095 -15.628 -18.466  1.00  0.00    -0.000 C 
BRANCH  14  15
ATOM     15  C   UNL     1      -1.834 -16.963 -18.665  1.00  0.00    -0.000 C 
BRANCH  15  16
ATOM     16  C   UNL     1      -1.460 -17.653 -19.988  1.00  0.00    -0.000 C 
BRANCH  16  17
ATOM     17  C   UNL     1      -1.420 -19.188 -19.870  1.00  0.00    -0.000 C 
BRANCH  17  18
ATOM     18  C   UNL     1      -0.085 -19.772 -19.366  1.00  0.00    -0.000 C 
BRANCH  18  19
ATOM     19  C   UNL     1       0.055 -19.849 -17.835  1.00  0.00    -0.003 C 
ATOM     20  C   UNL     1       1.394 -19.311 -17.332  1.00  0.00     0.004 C 
ENDBRANCH  18  19
ENDBRANCH  17  18
ENDBRANCH  16  17
ENDBRANCH  15  16
ENDBRANCH  14  15
ENDBRANCH  13  14
ENDBRANCH  12  13
ENDBRANCH   1  12
TORSDOF 16
ENDMDL
MODEL 2
REMARK VINA RESULT:    -2.723      3.938      9.826
REMARK INTER + INTRA:          -6.283
REMARK INTER:                  -5.335
REMARK INTRA:                  -0.948
REMARK UNBOUND:                -1.012
REMARK SMILES CCCCCCCCCCCCCCCCCC(=O)[O-]
REMARK SMILES IDX 10 1 11 2 12 3 13 4 14 5 15 6 16 7 17 8 18 9 19 10 20 11
REMARK SMILES IDX 9 12 8 13 7 14 6 15 5 16 4 17 3 18 2 19 1 20
REMARK H PARENT
REMARK Flexibility Score: inf
ROOT
ATOM      1  C   UNL     1       1.109 -14.560 -17.743  1.00  0.00     0.000 C 
ENDROOT
BRANCH   1   2
ATOM      2  C   UNL     1       0.494 -15.814 -18.377  1.00  0.00     0.000 C 
BRANCH   2   3
ATOM      3  C   UNL     1      -1.040 -15.755 -18.335  1.00  0.00     0.000 C 
BRANCH   3   4
ATOM      4  C   UNL     1      -1.685 -16.200 -19.658  1.00  0.00     0.000 C 
BRANCH   4   5
ATOM      5  C   UNL     1      -1.617 -17.723 -19.865  1.00  0.00     0.000 C 
BRANCH   5   6
ATOM      6  C   UNL     1      -1.972 -18.509 -18.592  1.00  0.00     0.000 C 
BRANCH   6   7
ATOM      7  C   UNL     1      -1.384 -19.928 -18.590  1.00  0.00     0.006 C 
BRANCH   7   8
ATOM      8  C   UNL     1       0.143 -19.888 -18.691  1.00  0.00     0.053 C 
BRANCH   8   9
ATOM      9  C   UNL     1       0.756 -19.767 -17.332  1.00  0.00     0.041 C 
ATOM     10  O   UNL     1       1.924 -19.312 -17.201  1.00  0.00    -0.550 OA
ATOM     11  O   UNL     1       0.025 -20.125 -16.205  1.00  0.00    -0.550 OA
ENDBRANCH   8   9
ENDBRANCH   7   8
ENDBRANCH   6   7
ENDBRANCH   5   6
ENDBRANCH   4   5
ENDBRANCH   3   4
ENDBRANCH   2   3
ENDBRANCH   1   2
BRANCH   1  12
ATOM     12  C   UNL     1       2.352 -14.103 -18.520  1.00  0.00     0.000 C 
BRANCH  12  13
ATOM     13  C   UNL     1       2.376 -12.585 -18.765  1.00  0.00    -0.000 C 
BRANCH  13  14
ATOM     14  C   UNL     1       3.677 -11.927 -18.273  1.00  0.00    -0.000 C 
BRANCH  14  15
ATOM     15  C   UNL     1       3.837 -10.485 -18.784  1.00  0.00    -0.000 C 
BRANCH  15  16
ATOM     16  C   UNL     1       2.688  -9.567 -18.334  1.00  0.00    -0.000 C 
BRANCH  16  17
ATOM     17  C   UNL     1       2.559  -9.479 -16.802  1.00  0.00    -0.000 C 
BRANCH  17  18
ATOM     18  C   UNL     1       3.245  -8.258 -16.155  1.00  0.00    -0.000 C 
BRANCH  18  19
ATOM     19  C   UNL     1       3.888  -8.526 -14.783  1.00  0.00    -0.003 C 
ATOM     20  C   UNL     1       3.568  -7.443 -13.754  1.00  0.00     0.004 C 
ENDBRANCH  18  19
ENDBRANCH  17  18
ENDBRANCH  16  17
ENDBRANCH  15  16
ENDBRANCH  14  15
ENDBRANCH  13  14
ENDBRANCH  12  13
ENDBRANCH   1  12
TORSDOF 16
ENDMDL
MODEL 3
REMARK VINA RESULT:    -2.658      0.530      1.195
REMARK INTER + INTRA:          -6.156
REMARK INTER:                  -5.170
REMARK INTRA:                  -0.986
REMARK UNBOUND:                -1.012
REMARK SMILES CCCCCCCCCCCCCCCCCC(=O)[O-]
REMARK SMILES IDX 10 1 11 2 12 3 13 4 14 5 15 6 16 7 17 8 18 9 19 10 20 11
REMARK SMILES IDX 9 12 8 13 7 14 6 15 5 16 4 17 3 18 2 19 1 20
REMARK H PARENT
REMARK Flexibility Score: inf
ROOT
ATOM      1  C   UNL     1       1.579 -14.489 -17.686  1.00  0.00     0.000 C 
ENDROOT
BRANCH   1   2
ATOM      2  C   UNL     1       2.437 -13.815 -18.764  1.00  0.00     0.000 C 
BRANCH   2   3
ATOM      3  C   UNL     1       2.254 -12.290 -18.738  1.00  0.00     0.000 C 
BRANCH   3   4
ATOM      4  C   UNL     1       3.552 -11.545 -18.392  1.00  0.00     0.000 C 
BRANCH   4   5
ATOM      5  C   UNL     1       3.441 -10.028 -18.621  1.00  0.00     0.000 C 
BRANCH   5   6
ATOM      6  C   UNL     1       2.705  -9.309 -17.480  1.00  0.00     0.000 C 
BRANCH   6   7
ATOM      7  C   UNL     1       3.559  -9.188 -16.209  1.00  0.00     0.006 C 
BRANCH   7   8
ATOM      8  C   UNL     1       3.229  -7.899 -15.449  1.00  0.00     0.053 C 
BRANCH   8   9
ATOM      9  C   UNL     1       3.693  -7.993 -14.030  1.00  0.00     0.041 C 
ATOM     10  O   UNL     1       4.424  -8.952 -13.663  1.00  0.00    -0.550 OA
ATOM     11  O   UNL     1       3.345  -7.003 -13.118  1.00  0.00    -0.550 OA
ENDBRANCH   8   9
ENDBRANCH   7   8
ENDBRANCH   6   7
ENDBRANCH   5   6
ENDBRANCH   4   5
ENDBRANCH   3   4
ENDBRANCH   2   3
ENDBRANCH   1   2
BRANCH   1  12
ATOM     12  C   UNL     1       0.752 -15.639 -18.279  1.00  0.00     0.000 C 
BRANCH  12  13
ATOM     13  C   UNL     1      -0.744 -15.301 -18.386  1.00  0.00    -0.000 C 
BRANCH  13  14
ATOM     14  C   UNL     1      -1.610 -16.539 -18.678  1.00  0.00    -0.000 C 
BRANCH  14  15
ATOM     15  C   UNL     1      -0.958 -17.487 -19.699  1.00  0.00    -0.000 C 
BRANCH  15  16
ATOM     16  C   UNL     1      -1.879 -18.655 -20.094  1.00  0.00    -0.000 C 
BRANCH  16  17
ATOM     17  C   UNL     1      -1.354 -20.018 -19.608  1.00  0.00    -0.000 C 
BRANCH  17  18
ATOM     18  C   UNL     1       0.125 -20.035 -19.172  1.00  0.00    -0.000 C 
BRANCH  18  19
ATOM     19  C   UNL     1       0.355 -20.079 -17.652  1.00  0.00    -0.003 C 
ATOM     20  C   UNL     1       1.611 -19.323 -17.217  1.00  0.00     0.004 C 
ENDBRANCH  18  19
ENDBRANCH  17  18
ENDBRANCH  16  17
ENDBRANCH  15  16
ENDBRANCH  14  15
ENDBRANCH  13  14
ENDBRANCH  12  13
ENDBRANCH   1  12
TORSDOF 16
ENDMDL
MODEL 4
REMARK VINA RESULT:    -2.646      4.062      9.949
REMARK INTER + INTRA:          -6.134
REMARK INTER:                  -5.515
REMARK INTRA:                  -0.619
REMARK UNBOUND:                -1.012
REMARK SMILES CCCCCCCCCCCCCCCCCC(=O)[O-]
REMARK SMILES IDX 10 1 11 2 12 3 13 4 14 5 15 6 16 7 17 8 18 9 19 10 20 11
REMARK SMILES IDX 9 12 8 13 7 14 6 15 5 16 4 17 3 18 2 19 1 20
REMARK H PARENT
REMARK Flexibility Score: inf
ROOT
ATOM      1  C   UNL     1       2.432 -12.622 -18.743  1.00  0.00     0.000 C 
ENDROOT
BRANCH   1   2
ATOM      2  C   UNL     1       2.254 -14.144 -18.680  1.00  0.00     0.000 C 
BRANCH   2   3
ATOM      3  C   UNL     1       1.093 -14.524 -17.749  1.00  0.00     0.000 C 
BRANCH   3   4
ATOM      4  C   UNL     1       0.435 -15.858 -18.139  1.00  0.00     0.000 C 
BRANCH   4   5
ATOM      5  C   UNL     1      -1.057 -15.702 -18.483  1.00  0.00     0.000 C 
BRANCH   5   6
ATOM      6  C   UNL     1      -1.740 -17.047 -18.773  1.00  0.00     0.000 C 
BRANCH   6   7
ATOM      7  C   UNL     1      -0.893 -17.960 -19.673  1.00  0.00     0.006 C 
BRANCH   7   8
ATOM      8  C   UNL     1      -0.939 -19.409 -19.181  1.00  0.00     0.053 C 
BRANCH   8   9
ATOM      9  C   UNL     1      -0.175 -19.555 -17.903  1.00  0.00     0.041 C 
ATOM     10  O   UNL     1       1.057 -19.292 -17.867  1.00  0.00    -0.550 OA
ATOM     11  O   UNL     1      -0.831 -19.949 -16.742  1.00  0.00    -0.550 OA
ENDBRANCH   8   9
ENDBRANCH   7   8
ENDBRANCH   6   7
ENDBRANCH   5   6
ENDBRANCH   4   5
ENDBRANCH   3   4
ENDBRANCH   2   3
ENDBRANCH   1   2
BRANCH   1  12
ATOM     12  C   UNL     1       3.919 -12.240 -18.718  1.00  0.00     0.000 C 
BRANCH  12  13
ATOM     13  C   UNL     1       4.222 -10.977 -19.541  1.00  0.00    -0.000 C 
BRANCH  13  14
ATOM     14  C   UNL     1       3.598  -9.710 -18.930  1.00  0.00    -0.000 C 
BRANCH  14  15
ATOM     15  C   UNL     1       3.411  -9.821 -17.408  1.00  0.00    -0.000 C 
BRANCH  15  16
ATOM     16  C   UNL     1       2.549  -8.683 -16.833  1.00  0.00    -0.000 C 
BRANCH  16  17
ATOM     17  C   UNL     1       3.257  -7.908 -15.707  1.00  0.00    -0.000 C 
BRANCH  17  18
ATOM     18  C   UNL     1       3.770  -8.774 -14.537  1.00  0.00    -0.000 C 
BRANCH  18  19
ATOM     19  C   UNL     1       4.185  -7.989 -13.281  1.00  0.00    -0.003 C 
ATOM     20  C   UNL     1       3.196  -6.882 -12.917  1.00  0.00     0.004 C 
ENDBRANCH  18  19
ENDBRANCH  17  18
ENDBRANCH  16  17
ENDBRANCH  15  16
ENDBRANCH  14  15
ENDBRANCH  13  14
ENDBRANCH  12  13
ENDBRANCH   1  12
TORSDOF 16
ENDMDL
MODEL 5
REMARK VINA RESULT:    -2.313      0.832      2.054
REMARK INTER + INTRA:          -5.488
REMARK INTER:                  -5.254
REMARK INTRA:                  -0.234
REMARK UNBOUND:                -1.012
REMARK SMILES CCCCCCCCCCCCCCCCCC(=O)[O-]
REMARK SMILES IDX 10 1 11 2 12 3 13 4 14 5 15 6 16 7 17 8 18 9 19 10 20 11
REMARK SMILES IDX 9 12 8 13 7 14 6 15 5 16 4 17 3 18 2 19 1 20
REMARK H PARENT
REMARK Flexibility Score: inf
ROOT
ATOM      1  C   UNL     1       3.791 -12.217 -18.454  1.00  0.00     0.000 C 
ENDROOT
BRANCH   1   2
ATOM      2  C   UNL     1       4.131 -11.044 -19.382  1.00  0.00     0.000 C 
BRANCH   2   3
ATOM      3  C   UNL     1       3.548  -9.729 -18.842  1.00  0.00     0.000 C 
BRANCH   3   4
ATOM      4  C   UNL     1       2.681  -9.937 -17.590  1.00  0.00     0.000 C 
BRANCH   4   5
ATOM      5  C   UNL     1       2.439  -8.629 -16.816  1.00  0.00     0.000 C 
BRANCH   5   6
ATOM      6  C   UNL     1       3.538  -8.344 -15.780  1.00  0.00     0.000 C 
BRANCH   6   7
ATOM      7  C   UNL     1       3.178  -7.185 -14.839  1.00  0.00     0.006 C 
BRANCH   7   8
ATOM      8  C   UNL     1       3.903  -7.323 -13.498  1.00  0.00     0.053 C 
BRANCH   8   9
ATOM      9  C   UNL     1       4.014  -8.763 -13.106  1.00  0.00     0.041 C 
ATOM     10  O   UNL     1       5.137  -9.333 -13.096  1.00  0.00    -0.550 OA
ATOM     11  O   UNL     1       2.879  -9.467 -12.718  1.00  0.00    -0.550 OA
ENDBRANCH   8   9
ENDBRANCH   7   8
ENDBRANCH   6   7
ENDBRANCH   5   6
ENDBRANCH   4   5
ENDBRANCH   3   4
ENDBRANCH   2   3
ENDBRANCH   1   2
BRANCH   1  12
ATOM     12  C   UNL     1       2.385 -12.762 -18.749  1.00  0.00     0.000 C 
BRANCH  12  13
ATOM     13  C   UNL     1       2.281 -14.282 -18.537  1.00  0.00    -0.000 C 
BRANCH  13  14
ATOM     14  C   UNL     1       0.953 -14.696 -17.878  1.00  0.00    -0.000 C 
BRANCH  14  15
ATOM     15  C   UNL     1       0.497 -16.101 -18.307  1.00  0.00    -0.000 C 
BRANCH  15  16
ATOM     16  C   UNL     1      -0.996 -16.150 -18.677  1.00  0.00    -0.000 C 
BRANCH  16  17
ATOM     17  C   UNL     1      -1.575 -17.576 -18.632  1.00  0.00    -0.000 C 
BRANCH  17  18
ATOM     18  C   UNL     1      -1.015 -18.545 -19.693  1.00  0.00    -0.000 C 
BRANCH  18  19
ATOM     19  C   UNL     1       0.072 -19.508 -19.185  1.00  0.00    -0.003 C 
ATOM     20  C   UNL     1      -0.065 -19.829 -17.697  1.00  0.00     0.004 C 
ENDBRANCH  18  19
ENDBRANCH  17  18
ENDBRANCH  16  17
ENDBRANCH  15  16
ENDBRANCH  14  15
ENDBRANCH  13  14
ENDBRANCH  12  13
ENDBRANCH   1  12
TORSDOF 16
ENDMDL
MODEL 6
REMARK VINA RESULT:    -2.191      4.109      9.668
REMARK INTER + INTRA:          -5.253
REMARK INTER:                  -4.122
REMARK INTRA:                  -1.131
REMARK UNBOUND:                -1.012
REMARK SMILES CCCCCCCCCCCCCCCCCC(=O)[O-]
REMARK SMILES IDX 10 1 11 2 12 3 13 4 14 5 15 6 16 7 17 8 18 9 19 10 20 11
REMARK SMILES IDX 9 12 8 13 7 14 6 15 5 16 4 17 3 18 2 19 1 20
REMARK H PARENT
REMARK Flexibility Score: inf
ROOT
ATOM      1  C   UNL     1       0.464 -15.623 -18.534  1.00  0.00     0.000 C 
ENDROOT
BRANCH   1   2
ATOM      2  C   UNL     1      -0.946 -15.944 -18.024  1.00  0.00     0.000 C 
BRANCH   2   3
ATOM      3  C   UNL     1      -1.999 -15.664 -19.106  1.00  0.00     0.000 C 
BRANCH   3   4
ATOM      4  C   UNL     1      -2.106 -16.802 -20.134  1.00  0.00     0.000 C 
BRANCH   4   5
ATOM      5  C   UNL     1      -1.982 -18.194 -19.489  1.00  0.00     0.000 C 
BRANCH   5   6
ATOM      6  C   UNL     1      -0.910 -19.064 -20.164  1.00  0.00     0.000 C 
BRANCH   6   7
ATOM      7  C   UNL     1      -0.328 -20.124 -19.218  1.00  0.00     0.006 C 
BRANCH   7   8
ATOM      8  C   UNL     1      -1.005 -20.065 -17.846  1.00  0.00     0.053 C 
BRANCH   8   9
ATOM      9  C   UNL     1       0.018 -19.972 -16.758  1.00  0.00     0.041 C 
ATOM     10  O   UNL     1      -0.328 -20.074 -15.551  1.00  0.00    -0.550 OA
ATOM     11  O   UNL     1       1.361 -19.807 -17.079  1.00  0.00    -0.550 OA
ENDBRANCH   8   9
ENDBRANCH   7   8
ENDBRANCH   6   7
ENDBRANCH   5   6
ENDBRANCH   4   5
ENDBRANCH   3   4
ENDBRANCH   2   3
ENDBRANCH   1   2
BRANCH   1  12
ATOM     12  C   UNL     1       1.147 -14.574 -17.643  1.00  0.00     0.000 C 
BRANCH  12  13
ATOM     13  C   UNL     1       2.473 -14.065 -18.234  1.00  0.00    -0.000 C 
BRANCH  13  14
ATOM     14  C   UNL     1       2.349 -12.652 -18.831  1.00  0.00    -0.000 C 
BRANCH  14  15
ATOM     15  C   UNL     1       3.693 -11.905 -18.858  1.00  0.00    -0.000 C 
BRANCH  15  16
ATOM     16  C   UNL     1       3.527 -10.383 -18.708  1.00  0.00    -0.000 C 
BRANCH  16  17
ATOM     17  C   UNL     1       2.144  -9.985 -18.161  1.00  0.00    -0.000 C 
BRANCH  17  18
ATOM     18  C   UNL     1       2.165  -8.990 -16.982  1.00  0.00    -0.000 C 
BRANCH  18  19
ATOM     19  C   UNL     1       3.525  -8.847 -16.277  1.00  0.00    -0.003 C 
ATOM     20  C   UNL     1       3.432  -8.092 -14.952  1.00  0.00     0.004 C 
ENDBRANCH  18  19
ENDBRANCH  17  18
ENDBRANCH  16  17
ENDBRANCH  15  16
ENDBRANCH  14  15
ENDBRANCH  13  14
ENDBRANCH  12  13
ENDBRANCH   1  12
TORSDOF 16
ENDMDL
MODEL 7
REMARK VINA RESULT:    -2.124      2.867      3.770
REMARK INTER + INTRA:          -5.122
REMARK INTER:                  -3.905
REMARK INTRA:                  -1.217
REMARK UNBOUND:                -1.012
REMARK SMILES CCCCCCCCCCCCCCCCCC(=O)[O-]
REMARK SMILES IDX 10 1 11 2 12 3 13 4 14 5 15 6 16 7 17 8 18 9 19 10 20 11
REMARK SMILES IDX 9 12 8 13 7 14 6 15 5 16 4 17 3 18 2 19 1 20
REMARK H PARENT
REMARK Flexibility Score: inf
ROOT
ATOM      1  C   UNL     1       0.564 -16.225 -18.117  1.00  0.00     0.000 C 
ENDROOT
BRANCH   1   2
ATOM      2  C   UNL     1       1.566 -15.183 -17.603  1.00  0.00     0.000 C 
BRANCH   2   3
ATOM      3  C   UNL     1       1.979 -14.218 -18.723  1.00  0.00     0.000 C 
BRANCH   3   4
ATOM      4  C   UNL     1       2.611 -12.924 -18.186  1.00  0.00     0.000 C 
BRANCH   4   5
ATOM      5  C   UNL     1       2.333 -11.711 -19.091  1.00  0.00     0.000 C 
BRANCH   5   6
ATOM      6  C   UNL     1       2.426 -10.376 -18.335  1.00  0.00     0.000 C 
BRANCH   6   7
ATOM      7  C   UNL     1       3.787  -9.687 -18.517  1.00  0.00     0.006 C 
BRANCH   7   8
ATOM      8  C   UNL     1       4.461 -10.140 -19.816  1.00  0.00     0.053 C 
BRANCH   8   9
ATOM      9  C   UNL     1       5.704 -10.917 -19.519  1.00  0.00     0.041 C 
ATOM     10  O   UNL     1       5.718 -11.758 -18.581  1.00  0.00    -0.550 OA
ATOM     11  O   UNL     1       6.840 -10.736 -20.300  1.00  0.00    -0.550 OA
ENDBRANCH   8   9
ENDBRANCH   7   8
ENDBRANCH   6   7
ENDBRANCH   5   6
ENDBRANCH   4   5
ENDBRANCH   3   4
ENDBRANCH   2   3
ENDBRANCH   1   2
BRANCH   1  12
ATOM     12  C   UNL     1      -0.857 -15.645 -18.164  1.00  0.00     0.000 C 
BRANCH  12  13
ATOM     13  C   UNL     1      -1.850 -16.566 -18.893  1.00  0.00    -0.000 C 
BRANCH  13  14
ATOM     14  C   UNL     1      -1.151 -17.556 -19.841  1.00  0.00    -0.000 C 
BRANCH  14  15
ATOM     15  C   UNL     1      -2.121 -18.598 -20.424  1.00  0.00    -0.000 C 
BRANCH  15  16
ATOM     16  C   UNL     1      -1.672 -20.043 -20.145  1.00  0.00    -0.000 C 
BRANCH  16  17
ATOM     17  C   UNL     1      -0.522 -20.125 -19.126  1.00  0.00    -0.000 C 
BRANCH  17  18
ATOM     18  C   UNL     1      -0.956 -20.125 -17.645  1.00  0.00    -0.000 C 
BRANCH  18  19
ATOM     19  C   UNL     1       0.173 -19.848 -16.637  1.00  0.00    -0.003 C 
ATOM     20  C   UNL     1       1.515 -19.563 -17.309  1.00  0.00     0.004 C 
ENDBRANCH  18  19
ENDBRANCH  17  18
ENDBRANCH  16  17
ENDBRANCH  15  16
ENDBRANCH  14  15
ENDBRANCH  13  14
ENDBRANCH  12  13
ENDBRANCH   1  12
TORSDOF 16
ENDMDL
MODEL 8
REMARK VINA RESULT:    -1.973      4.572      9.652
REMARK INTER + INTRA:          -4.830
REMARK INTER:                  -4.518
REMARK INTRA:                  -0.313
REMARK UNBOUND:                -1.012
REMARK SMILES CCCCCCCCCCCCCCCCCC(=O)[O-]
REMARK SMILES IDX 10 1 11 2 12 3 13 4 14 5 15 6 16 7 17 8 18 9 19 10 20 11
REMARK SMILES IDX 9 12 8 13 7 14 6 15 5 16 4 17 3 18 2 19 1 20
REMARK H PARENT
REMARK Flexibility Score: inf
ROOT
ATOM      1  C   UNL     1       0.808 -15.670 -18.409  1.00  0.00     0.000 C 
ENDROOT
BRANCH   1   2
ATOM      2  C   UNL     1      -0.673 -15.703 -18.011  1.00  0.00     0.000 C 
BRANCH   2   3
ATOM      3  C   UNL     1      -1.577 -15.575 -19.246  1.00  0.00     0.000 C 
BRANCH   3   4
ATOM      4  C   UNL     1      -1.650 -16.875 -20.062  1.00  0.00     0.000 C 
BRANCH   4   5
ATOM      5  C   UNL     1      -2.019 -18.095 -19.200  1.00  0.00     0.000 C 
BRANCH   5   6
ATOM      6  C   UNL     1      -0.971 -19.216 -19.281  1.00  0.00     0.000 C 
BRANCH   6   7
ATOM      7  C   UNL     1       0.264 -18.935 -18.412  1.00  0.00     0.006 C 
BRANCH   7   8
ATOM      8  C   UNL     1       0.530 -20.095 -17.447  1.00  0.00     0.053 C 
BRANCH   8   9
ATOM      9  C   UNL     1      -0.440 -20.064 -16.309  1.00  0.00     0.041 C 
ATOM     10  O   UNL     1      -1.680 -20.022 -16.532  1.00  0.00    -0.550 OA
ATOM     11  O   UNL     1       0.023 -20.117 -14.999  1.00  0.00    -0.550 OA
ENDBRANCH   8   9
ENDBRANCH   7   8
ENDBRANCH   6   7
ENDBRANCH   5   6
ENDBRANCH   4   5
ENDBRANCH   3   4
ENDBRANCH   2   3
ENDBRANCH   1   2
BRANCH   1  12
ATOM     12  C   UNL     1       1.512 -14.445 -17.809  1.00  0.00     0.000 C 
BRANCH  12  13
ATOM     13  C   UNL     1       1.818 -13.362 -18.858  1.00  0.00    -0.000 C 
BRANCH  13  14
ATOM     14  C   UNL     1       2.991 -12.455 -18.447  1.00  0.00    -0.000 C 
BRANCH  14  15
ATOM     15  C   UNL     1       2.638 -10.961 -18.533  1.00  0.00    -0.000 C 
BRANCH  15  16
ATOM     16  C   UNL     1       3.826 -10.099 -18.995  1.00  0.00    -0.000 C 
BRANCH  16  17
ATOM     17  C   UNL     1       4.764 -10.844 -19.962  1.00  0.00    -0.000 C 
BRANCH  17  18
ATOM     18  C   UNL     1       6.246 -10.887 -19.537  1.00  0.00    -0.000 C 
BRANCH  18  19
ATOM     19  C   UNL     1       7.257 -10.824 -20.695  1.00  0.00    -0.003 C 
ATOM     20  C   UNL     1       8.369  -9.803 -20.460  1.00  0.00     0.004 C 
ENDBRANCH  18  19
ENDBRANCH  17  18
ENDBRANCH  16  17
ENDBRANCH  15  16
ENDBRANCH  14  15
ENDBRANCH  13  14
ENDBRANCH  12  13
ENDBRANCH   1  12
TORSDOF 16
ENDMDL
MODEL 9
REMARK VINA RESULT:    -1.901      4.204      9.816
REMARK INTER + INTRA:          -4.692
REMARK INTER:                  -4.134
REMARK INTRA:                  -0.558
REMARK UNBOUND:                -1.012
REMARK SMILES CCCCCCCCCCCCCCCCCC(=O)[O-]
REMARK SMILES IDX 10 1 11 2 12 3 13 4 14 5 15 6 16 7 17 8 18 9 19 10 20 11
REMARK SMILES IDX 9 12 8 13 7 14 6 15 5 16 4 17 3 18 2 19 1 20
REMARK H PARENT
REMARK Flexibility Score: inf
ROOT
ATOM      1  C   UNL     1       3.761 -12.531 -19.196  1.00  0.00     0.000 C 
ENDROOT
BRANCH   1   2
ATOM      2  C   UNL     1       2.856 -13.135 -18.115  1.00  0.00     0.000 C 
BRANCH   2   3
ATOM      3  C   UNL     1       1.585 -13.735 -18.734  1.00  0.00     0.000 C 
BRANCH   3   4
ATOM      4  C   UNL     1       1.194 -15.077 -18.095  1.00  0.00     0.000 C 
BRANCH   4   5
ATOM      5  C   UNL     1      -0.282 -15.438 -18.336  1.00  0.00     0.000 C 
BRANCH   5   6
ATOM      6  C   UNL     1      -0.496 -16.945 -18.547  1.00  0.00     0.000 C 
BRANCH   6   7
ATOM      7  C   UNL     1       0.821 -17.735 -18.547  1.00  0.00     0.006 C 
BRANCH   7   8
ATOM      8  C   UNL     1       0.559 -19.236 -18.703  1.00  0.00     0.053 C 
BRANCH   8   9
ATOM      9  C   UNL     1       0.058 -19.818 -17.419  1.00  0.00     0.041 C 
ATOM     10  O   UNL     1       0.857 -20.045 -16.471  1.00  0.00    -0.550 OA
ATOM     11  O   UNL     1      -1.298 -20.078 -17.256  1.00  0.00    -0.550 OA
ENDBRANCH   8   9
ENDBRANCH   7   8
ENDBRANCH   6   7
ENDBRANCH   5   6
ENDBRANCH   4   5
ENDBRANCH   3   4
ENDBRANCH   2   3
ENDBRANCH   1   2
BRANCH   1  12
ATOM     12  C   UNL     1       4.525 -11.313 -18.656  1.00  0.00     0.000 C 
BRANCH  12  13
ATOM     13  C   UNL     1       3.734 -10.002 -18.804  1.00  0.00    -0.000 C 
BRANCH  13  14
ATOM     14  C   UNL     1       2.407 -10.022 -18.024  1.00  0.00    -0.000 C 
BRANCH  14  15
ATOM     15  C   UNL     1       2.221  -8.774 -17.145  1.00  0.00    -0.000 C 
BRANCH  15  16
ATOM     16  C   UNL     1       3.313  -8.641 -16.069  1.00  0.00    -0.000 C 
BRANCH  16  17
ATOM     17  C   UNL     1       3.185  -7.346 -15.247  1.00  0.00    -0.000 C 
BRANCH  17  18
ATOM     18  C   UNL     1       3.663  -7.448 -13.783  1.00  0.00    -0.000 C 
BRANCH  18  19
ATOM     19  C   UNL     1       3.711  -8.876 -13.213  1.00  0.00    -0.003 C 
ATOM     20  C   UNL     1       5.133  -9.356 -12.926  1.00  0.00     0.004 C 
ENDBRANCH  18  19
ENDBRANCH  17  18
ENDBRANCH  16  17
ENDBRANCH  15  16
ENDBRANCH  14  15
ENDBRANCH  13  14
ENDBRANCH  12  13
ENDBRANCH   1  12
TORSDOF 16
ENDMDL
