MODEL 1
REMARK VINA RESULT:    -1.040      0.000      0.000
REMARK INTER + INTRA:          -1.255
REMARK INTER:                  -1.131
REMARK INTRA:                  -0.124
REMARK UNBOUND:                -0.124
REMARK SMILES O=C([O-])c1ccccc1O
REMARK SMILES IDX 4 1 9 2 5 3 8 4 6 5 7 6 2 7 1 8 3 9 10 10
REMARK H PARENT 10 11
REMARK Flexibility Score: inf
ROOT
ATOM      1  C   UNL     1     -29.713  39.901 -25.937  1.00  0.00     0.039 A 
ATOM      2  C   UNL     1     -30.406  38.673 -26.058  1.00  0.00     0.124 A 
ATOM      3  C   UNL     1     -30.459  41.096 -25.879  1.00  0.00     0.014 A 
ATOM      4  C   UNL     1     -31.809  38.663 -26.117  1.00  0.00     0.047 A 
ATOM      5  C   UNL     1     -31.854  41.071 -25.940  1.00  0.00     0.001 A 
ATOM      6  C   UNL     1     -32.528  39.857 -26.059  1.00  0.00     0.004 A 
ENDROOT
BRANCH   1   7
ATOM      7  C   UNL     1     -28.230  39.958 -25.870  1.00  0.00     0.075 C 
ATOM      8  O   UNL     1     -27.647  41.047 -25.623  1.00  0.00    -0.545 OA
ATOM      9  O   UNL     1     -27.458  38.821 -26.075  1.00  0.00    -0.545 OA
ENDBRANCH   1   7
BRANCH   2  10
ATOM     10  O   UNL     1     -29.712  37.464 -26.118  1.00  0.00    -0.507 OA
ATOM     11  H   UNL     1     -29.869  36.726 -25.442  1.00  0.00     0.293 HD
ENDBRANCH   2  10
TORSDOF 2
ENDMDL
MODEL 2
REMARK VINA RESULT:    -0.675      1.141      2.619
REMARK INTER + INTRA:          -0.858
REMARK INTER:                  -0.750
REMARK INTRA:                  -0.108
REMARK UNBOUND:                -0.124
REMARK SMILES O=C([O-])c1ccccc1O
REMARK SMILES IDX 4 1 9 2 5 3 8 4 6 5 7 6 2 7 1 8 3 9 10 10
REMARK H PARENT 10 11
REMARK Flexibility Score: inf
ROOT
ATOM      1  C   UNL     1     -30.763  38.911 -26.122  1.00  0.00     0.039 A 
ATOM      2  C   UNL     1     -30.645  40.322 -26.121  1.00  0.00     0.124 A 
ATOM      3  C   UNL     1     -32.051  38.340 -26.124  1.00  0.00     0.014 A 
ATOM      4  C   UNL     1     -31.799  41.121 -26.123  1.00  0.00     0.047 A 
ATOM      5  C   UNL     1     -33.191  39.147 -26.125  1.00  0.00     0.001 A 
ATOM      6  C   UNL     1     -33.065  40.535 -26.125  1.00  0.00     0.004 A 
ENDROOT
BRANCH   1   7
ATOM      7  C   UNL     1     -29.568  38.028 -26.121  1.00  0.00     0.075 C 
ATOM      8  O   UNL     1     -29.705  36.775 -26.117  1.00  0.00    -0.545 OA
ATOM      9  O   UNL     1     -28.284  38.557 -26.123  1.00  0.00    -0.545 OA
ENDBRANCH   1   7
BRANCH   2  10
ATOM     10  O   UNL     1     -29.391  40.933 -26.120  1.00  0.00    -0.507 OA
ATOM     11  H   UNL     1     -28.956  41.253 -25.262  1.00  0.00     0.293 HD
ENDBRANCH   2  10
TORSDOF 2
ENDMDL
MODEL 3
REMARK VINA RESULT:     0.392      2.149      4.008
REMARK INTER + INTRA:           0.302
REMARK INTER:                   0.410
REMARK INTRA:                  -0.108
REMARK UNBOUND:                -0.124
REMARK SMILES O=C([O-])c1ccccc1O
REMARK SMILES IDX 4 1 9 2 5 3 8 4 6 5 7 6 2 7 1 8 3 9 10 10
REMARK H PARENT 10 11
REMARK Flexibility Score: inf
ROOT
ATOM      1  C   UNL     1     -30.221  38.998 -26.114  1.00  0.00     0.039 A 
ATOM      2  C   UNL     1     -30.224  40.413 -26.114  1.00  0.00     0.124 A 
ATOM      3  C   UNL     1     -28.984  38.323 -26.120  1.00  0.00     0.014 A 
ATOM      4  C   UNL     1     -29.009  41.116 -26.118  1.00  0.00     0.047 A 
ATOM      5  C   UNL     1     -27.782  39.035 -26.125  1.00  0.00     0.001 A 
ATOM      6  C   UNL     1     -27.794  40.429 -26.123  1.00  0.00     0.004 A 
ENDROOT
BRANCH   1   7
ATOM      7  C   UNL     1     -31.484  38.214 -26.110  1.00  0.00     0.075 C 
ATOM      8  O   UNL     1     -31.450  36.955 -26.124  1.00  0.00    -0.545 OA
ATOM      9  O   UNL     1     -32.721  38.846 -26.090  1.00  0.00    -0.545 OA
ENDBRANCH   1   7
BRANCH   2  10
ATOM     10  O   UNL     1     -31.424  41.125 -26.108  1.00  0.00    -0.507 OA
ATOM     11  H   UNL     1     -32.277  40.734 -26.492  1.00  0.00     0.293 HD
ENDBRANCH   2  10
TORSDOF 2
ENDMDL
MODEL 4
REMARK VINA RESULT:     1.343      1.298      2.083
REMARK INTER + INTRA:           1.336
REMARK INTER:                   1.466
REMARK INTRA:                  -0.129
REMARK UNBOUND:                -0.124
REMARK SMILES O=C([O-])c1ccccc1O
REMARK SMILES IDX 4 1 9 2 5 3 8 4 6 5 7 6 2 7 1 8 3 9 10 10
REMARK H PARENT 10 11
REMARK Flexibility Score: inf
ROOT
ATOM      1  C   UNL     1     -30.774  38.903 -25.906  1.00  0.00     0.039 A 
ATOM      2  C   UNL     1     -32.074  38.345 -25.902  1.00  0.00     0.124 A 
ATOM      3  C   UNL     1     -30.637  40.301 -26.017  1.00  0.00     0.014 A 
ATOM      4  C   UNL     1     -33.196  39.183 -26.008  1.00  0.00     0.047 A 
ATOM      5  C   UNL     1     -31.762  41.123 -26.123  1.00  0.00     0.001 A 
ATOM      6  C   UNL     1     -33.039  40.565 -26.118  1.00  0.00     0.004 A 
ENDROOT
BRANCH   1   7
ATOM      7  C   UNL     1     -29.559  38.054 -25.795  1.00  0.00     0.075 C 
ATOM      8  O   UNL     1     -29.654  36.856 -25.418  1.00  0.00    -0.545 OA
ATOM      9  O   UNL     1     -28.302  38.558 -26.103  1.00  0.00    -0.545 OA
ENDBRANCH   1   7
BRANCH   2  10
ATOM     10  O   UNL     1     -32.260  36.967 -25.793  1.00  0.00    -0.507 OA
ATOM     11  H   UNL     1     -33.016  36.573 -25.245  1.00  0.00     0.293 HD
ENDBRANCH   2  10
TORSDOF 2
ENDMDL
