MODEL 1
REMARK VINA RESULT:    -5.940      0.000      0.000
REMARK INTER + INTRA:          -7.647
REMARK INTER:                  -7.329
REMARK INTRA:                  -0.318
REMARK UNBOUND:                -0.318
REMARK SMILES O=C1c2c(O)cc(O)cc2O[C@H](c2cc(O)c(O)c(O)c2)[C@@H]1O
REMARK SMILES IDX 12 1 22 2 2 3 1 4 3 5 4 6 6 7 7 8 9 9 10 10 11 11 13 12
REMARK SMILES IDX 14 13 15 14 21 15 17 16 19 17 16 18 18 20 20 22 23 24 5 26
REMARK SMILES IDX 8 28
REMARK H PARENT 16 19 18 21 20 23 23 25 5 27 8 29
REMARK Flexibility Score: inf
ROOT
ATOM      1  C   UNL     1      -3.127  37.128  18.873  1.00  0.00     0.240 C 
ATOM      2  C   UNL     1      -4.299  37.561  17.961  1.00  0.00     0.231 C 
ATOM      3  C   UNL     1      -5.420  38.120  18.799  1.00  0.00     0.202 C 
ATOM      4  O   UNL     1      -6.610  37.975  18.412  1.00  0.00    -0.291 OA
ATOM      5  C   UNL     1      -5.103  38.885  20.032  1.00  0.00     0.105 A 
ATOM      6  C   UNL     1      -6.077  39.607  20.754  1.00  0.00     0.133 A 
ATOM      7  C   UNL     1      -5.698  40.349  21.882  1.00  0.00     0.093 A 
ATOM      8  C   UNL     1      -4.360  40.384  22.294  1.00  0.00     0.123 A 
ATOM      9  C   UNL     1      -3.395  39.668  21.581  1.00  0.00     0.093 A 
ATOM     10  C   UNL     1      -3.761  38.909  20.467  1.00  0.00     0.138 A 
ATOM     11  O   UNL     1      -2.784  38.176  19.784  1.00  0.00    -0.481 OA
ENDROOT
BRANCH   1  12
ATOM     12  C   UNL     1      -1.919  36.699  18.072  1.00  0.00     0.003 A 
ATOM     13  C   UNL     1      -1.834  35.405  17.529  1.00  0.00     0.058 A 
ATOM     14  C   UNL     1      -0.698  35.007  16.814  1.00  0.00     0.161 A 
ATOM     15  C   UNL     1      -0.837  37.579  17.911  1.00  0.00     0.058 A 
ATOM     16  C   UNL     1       0.370  35.897  16.642  1.00  0.00     0.200 A 
ATOM     17  C   UNL     1       0.301  37.187  17.193  1.00  0.00     0.161 A 
BRANCH  14  18
ATOM     18  O   UNL     1      -0.621  33.726  16.269  1.00  0.00    -0.504 OA
ATOM     19  H   UNL     1      -0.262  33.569  15.333  1.00  0.00     0.293 HD
ENDBRANCH  14  18
BRANCH  16  20
ATOM     20  O   UNL     1       1.493  35.484  15.923  1.00  0.00    -0.502 OA
ATOM     21  H   UNL     1       2.154  36.143  15.531  1.00  0.00     0.293 HD
ENDBRANCH  16  20
BRANCH  17  22
ATOM     22  O   UNL     1       1.363  38.075  17.028  1.00  0.00    -0.504 OA
ATOM     23  H   UNL     1       1.241  38.968  16.565  1.00  0.00     0.293 HD
ENDBRANCH  17  22
ENDBRANCH   1  12
BRANCH   2  24
ATOM     24  O   UNL     1      -3.896  38.509  17.004  1.00  0.00    -0.381 OA
ATOM     25  H   UNL     1      -4.090  38.132  16.105  1.00  0.00     0.211 HD
ENDBRANCH   2  24
BRANCH   6  26
ATOM     26  O   UNL     1      -7.413  39.594  20.356  1.00  0.00    -0.507 OA
ATOM     27  H   UNL     1      -8.099  39.008  20.816  1.00  0.00     0.293 HD
ENDBRANCH   6  26
BRANCH   8  28
ATOM     28  O   UNL     1      -3.981  41.125  23.412  1.00  0.00    -0.508 OA
ATOM     29  H   UNL     1      -4.581  41.845  23.795  1.00  0.00     0.293 HD
ENDBRANCH   8  28
TORSDOF 7
ENDMDL
MODEL 2
REMARK VINA RESULT:    -5.927      0.115      1.753
REMARK INTER + INTRA:          -7.631
REMARK INTER:                  -7.329
REMARK INTRA:                  -0.301
REMARK UNBOUND:                -0.318
REMARK SMILES O=C1c2c(O)cc(O)cc2O[C@H](c2cc(O)c(O)c(O)c2)[C@@H]1O
REMARK SMILES IDX 12 1 22 2 2 3 1 4 3 5 4 6 6 7 7 8 9 9 10 10 11 11 13 12
REMARK SMILES IDX 14 13 15 14 21 15 17 16 19 17 16 18 18 20 20 22 23 24 5 26
REMARK SMILES IDX 8 28
REMARK H PARENT 16 19 18 21 20 23 23 25 5 27 8 29
REMARK Flexibility Score: inf
ROOT
ATOM      1  C   UNL     1      -3.152  37.119  18.939  1.00  0.00     0.240 C 
ATOM      2  C   UNL     1      -4.296  37.533  17.985  1.00  0.00     0.231 C 
ATOM      3  C   UNL     1      -5.454  38.080  18.781  1.00  0.00     0.202 C 
ATOM      4  O   UNL     1      -6.627  37.918  18.353  1.00  0.00    -0.291 OA
ATOM      5  C   UNL     1      -5.189  38.854  20.021  1.00  0.00     0.105 A 
ATOM      6  C   UNL     1      -6.197  39.565  20.706  1.00  0.00     0.133 A 
ATOM      7  C   UNL     1      -5.868  40.316  21.844  1.00  0.00     0.093 A 
ATOM      8  C   UNL     1      -4.546  40.371  22.302  1.00  0.00     0.123 A 
ATOM      9  C   UNL     1      -3.547  39.664  21.626  1.00  0.00     0.093 A 
ATOM     10  C   UNL     1      -3.864  38.897  20.503  1.00  0.00     0.138 A 
ATOM     11  O   UNL     1      -2.854  38.174  19.857  1.00  0.00    -0.481 OA
ENDROOT
BRANCH   1  12
ATOM     12  C   UNL     1      -1.910  36.702  18.182  1.00  0.00     0.003 A 
ATOM     13  C   UNL     1      -0.844  37.598  17.995  1.00  0.00     0.058 A 
ATOM     14  C   UNL     1       0.289  37.213  17.267  1.00  0.00     0.161 A 
ATOM     15  C   UNL     1      -1.838  35.424  17.607  1.00  0.00     0.058 A 
ATOM     16  C   UNL     1       0.362  35.930  16.712  1.00  0.00     0.200 A 
ATOM     17  C   UNL     1      -0.705  35.032  16.881  1.00  0.00     0.161 A 
BRANCH  14  18
ATOM     18  O   UNL     1       1.349  38.101  17.091  1.00  0.00    -0.504 OA
ATOM     19  H   UNL     1       2.202  37.822  16.617  1.00  0.00     0.293 HD
ENDBRANCH  14  18
BRANCH  16  20
ATOM     20  O   UNL     1       1.500  35.562  15.993  1.00  0.00    -0.502 OA
ATOM     21  H   UNL     1       2.168  36.243  15.653  1.00  0.00     0.293 HD
ENDBRANCH  16  20
BRANCH  17  22
ATOM     22  O   UNL     1      -0.638  33.755  16.326  1.00  0.00    -0.504 OA
ATOM     23  H   UNL     1      -1.392  33.087  16.438  1.00  0.00     0.293 HD
ENDBRANCH  17  22
ENDBRANCH   1  12
BRANCH   2  24
ATOM     24  O   UNL     1      -3.872  38.482  17.039  1.00  0.00    -0.381 OA
ATOM     25  H   UNL     1      -4.445  39.287  17.140  1.00  0.00     0.211 HD
ENDBRANCH   2  24
BRANCH   6  26
ATOM     26  O   UNL     1      -7.519  39.534  20.261  1.00  0.00    -0.507 OA
ATOM     27  H   UNL     1      -8.163  40.290  20.457  1.00  0.00     0.293 HD
ENDBRANCH   6  26
BRANCH   8  28
ATOM     28  O   UNL     1      -4.215  41.120  23.429  1.00  0.00    -0.508 OA
ATOM     29  H   UNL     1      -4.927  41.586  23.979  1.00  0.00     0.293 HD
ENDBRANCH   8  28
TORSDOF 7
ENDMDL
MODEL 3
REMARK VINA RESULT:    -5.822      1.317      7.165
REMARK INTER + INTRA:          -7.501
REMARK INTER:                  -7.165
REMARK INTRA:                  -0.336
REMARK UNBOUND:                -0.318
REMARK SMILES O=C1c2c(O)cc(O)cc2O[C@H](c2cc(O)c(O)c(O)c2)[C@@H]1O
REMARK SMILES IDX 12 1 22 2 2 3 1 4 3 5 4 6 6 7 7 8 9 9 10 10 11 11 13 12
REMARK SMILES IDX 14 13 15 14 21 15 17 16 19 17 16 18 18 20 20 22 23 24 5 26
REMARK SMILES IDX 8 28
REMARK H PARENT 16 19 18 21 20 23 23 25 5 27 8 29
REMARK Flexibility Score: inf
ROOT
ATOM      1  C   UNL     1      -3.033  38.709  19.856  1.00  0.00     0.240 C 
ATOM      2  C   UNL     1      -2.408  39.876  19.057  1.00  0.00     0.231 C 
ATOM      3  C   UNL     1      -1.099  39.438  18.450  1.00  0.00     0.202 C 
ATOM      4  O   UNL     1      -0.178  40.283  18.298  1.00  0.00    -0.291 OA
ATOM      5  C   UNL     1      -0.940  38.036  17.986  1.00  0.00     0.105 A 
ATOM      6  C   UNL     1       0.171  37.605  17.230  1.00  0.00     0.133 A 
ATOM      7  C   UNL     1       0.233  36.278  16.781  1.00  0.00     0.093 A 
ATOM      8  C   UNL     1      -0.800  35.379  17.072  1.00  0.00     0.123 A 
ATOM      9  C   UNL     1      -1.900  35.804  17.823  1.00  0.00     0.093 A 
ATOM     10  C   UNL     1      -1.966  37.118  18.292  1.00  0.00     0.138 A 
ATOM     11  O   UNL     1      -3.062  37.516  19.067  1.00  0.00    -0.481 OA
ENDROOT
BRANCH   1  12
ATOM     12  C   UNL     1      -4.418  39.049  20.360  1.00  0.00     0.003 A 
ATOM     13  C   UNL     1      -5.564  38.548  19.719  1.00  0.00     0.058 A 
ATOM     14  C   UNL     1      -6.842  38.894  20.175  1.00  0.00     0.161 A 
ATOM     15  C   UNL     1      -4.570  39.922  21.449  1.00  0.00     0.058 A 
ATOM     16  C   UNL     1      -6.987  39.750  21.273  1.00  0.00     0.200 A 
ATOM     17  C   UNL     1      -5.848  40.268  21.912  1.00  0.00     0.161 A 
BRANCH  14  18
ATOM     18  O   UNL     1      -7.977  38.388  19.543  1.00  0.00    -0.504 OA
ATOM     19  H   UNL     1      -8.325  38.788  18.678  1.00  0.00     0.293 HD
ENDBRANCH  14  18
BRANCH  16  20
ATOM     20  O   UNL     1      -8.268  40.080  21.717  1.00  0.00    -0.502 OA
ATOM     21  H   UNL     1      -9.096  39.890  21.165  1.00  0.00     0.293 HD
ENDBRANCH  16  20
BRANCH  17  22
ATOM     22  O   UNL     1      -5.987  41.125  23.003  1.00  0.00    -0.504 OA
ATOM     23  H   UNL     1      -6.287  40.785  23.910  1.00  0.00     0.293 HD
ENDBRANCH  17  22
ENDBRANCH   1  12
BRANCH   2  24
ATOM     24  O   UNL     1      -3.271  40.344  18.051  1.00  0.00    -0.381 OA
ATOM     25  H   UNL     1      -3.208  41.336  18.035  1.00  0.00     0.211 HD
ENDBRANCH   2  24
BRANCH   6  26
ATOM     26  O   UNL     1       1.207  38.486  16.919  1.00  0.00    -0.507 OA
ATOM     27  H   UNL     1       1.390  38.776  15.966  1.00  0.00     0.293 HD
ENDBRANCH   6  26
BRANCH   8  28
ATOM     28  O   UNL     1      -0.743  34.061  16.623  1.00  0.00    -0.508 OA
ATOM     29  H   UNL     1       0.143  33.582  16.506  1.00  0.00     0.293 HD
ENDBRANCH   8  28
TORSDOF 7
ENDMDL
MODEL 4
REMARK VINA RESULT:    -5.731      1.693      2.291
REMARK INTER + INTRA:          -7.389
REMARK INTER:                  -7.404
REMARK INTRA:                   0.015
REMARK UNBOUND:                -0.318
REMARK SMILES O=C1c2c(O)cc(O)cc2O[C@H](c2cc(O)c(O)c(O)c2)[C@@H]1O
REMARK SMILES IDX 12 1 22 2 2 3 1 4 3 5 4 6 6 7 7 8 9 9 10 10 11 11 13 12
REMARK SMILES IDX 14 13 15 14 21 15 17 16 19 17 16 18 18 20 20 22 23 24 5 26
REMARK SMILES IDX 8 28
REMARK H PARENT 16 19 18 21 20 23 23 25 5 27 8 29
REMARK Flexibility Score: inf
ROOT
ATOM      1  C   UNL     1      -3.030  37.791  18.389  1.00  0.00     0.240 C 
ATOM      2  C   UNL     1      -2.518  39.172  18.861  1.00  0.00     0.231 C 
ATOM      3  C   UNL     1      -3.587  39.867  19.666  1.00  0.00     0.202 C 
ATOM      4  O   UNL     1      -3.660  41.124  19.637  1.00  0.00    -0.291 OA
ATOM      5  C   UNL     1      -4.493  39.065  20.527  1.00  0.00     0.105 A 
ATOM      6  C   UNL     1      -5.377  39.651  21.457  1.00  0.00     0.133 A 
ATOM      7  C   UNL     1      -6.170  38.831  22.274  1.00  0.00     0.093 A 
ATOM      8  C   UNL     1      -6.086  37.437  22.178  1.00  0.00     0.123 A 
ATOM      9  C   UNL     1      -5.213  36.855  21.255  1.00  0.00     0.093 A 
ATOM     10  C   UNL     1      -4.431  37.659  20.422  1.00  0.00     0.138 A 
ATOM     11  O   UNL     1      -3.584  37.057  19.485  1.00  0.00    -0.481 OA
ENDROOT
BRANCH   1  12
ATOM     12  C   UNL     1      -1.945  36.992  17.704  1.00  0.00     0.003 A 
ATOM     13  C   UNL     1      -1.970  35.587  17.710  1.00  0.00     0.058 A 
ATOM     14  C   UNL     1      -0.943  34.855  17.099  1.00  0.00     0.161 A 
ATOM     15  C   UNL     1      -0.864  37.653  17.100  1.00  0.00     0.058 A 
ATOM     16  C   UNL     1       0.122  35.521  16.483  1.00  0.00     0.200 A 
ATOM     17  C   UNL     1       0.164  36.926  16.484  1.00  0.00     0.161 A 
BRANCH  14  18
ATOM     18  O   UNL     1      -0.976  33.461  17.099  1.00  0.00    -0.504 OA
ATOM     19  H   UNL     1      -1.822  32.950  17.324  1.00  0.00     0.293 HD
ENDBRANCH  14  18
BRANCH  16  20
ATOM     20  O   UNL     1       1.134  34.776  15.875  1.00  0.00    -0.502 OA
ATOM     21  H   UNL     1       1.957  35.209  15.477  1.00  0.00     0.293 HD
ENDBRANCH  16  20
BRANCH  17  22
ATOM     22  O   UNL     1       1.225  37.594  15.875  1.00  0.00    -0.504 OA
ATOM     23  H   UNL     1       1.513  38.518  16.175  1.00  0.00     0.293 HD
ENDBRANCH  17  22
ENDBRANCH   1  12
BRANCH   2  24
ATOM     24  O   UNL     1      -1.339  39.063  19.620  1.00  0.00    -0.381 OA
ATOM     25  H   UNL     1      -1.301  38.141  19.989  1.00  0.00     0.211 HD
ENDBRANCH   2  24
BRANCH   6  26
ATOM     26  O   UNL     1      -5.469  41.037  21.577  1.00  0.00    -0.507 OA
ATOM     27  H   UNL     1      -5.510  41.490  22.482  1.00  0.00     0.293 HD
ENDBRANCH   6  26
BRANCH   8  28
ATOM     28  O   UNL     1      -6.869  36.621  22.992  1.00  0.00    -0.508 OA
ATOM     29  H   UNL     1      -6.462  36.086  23.751  1.00  0.00     0.293 HD
ENDBRANCH   8  28
TORSDOF 7
ENDMDL
MODEL 5
REMARK VINA RESULT:    -5.711     12.268     16.148
REMARK INTER + INTRA:          -7.364
REMARK INTER:                  -7.922
REMARK INTRA:                   0.557
REMARK UNBOUND:                -0.318
REMARK SMILES O=C1c2c(O)cc(O)cc2O[C@H](c2cc(O)c(O)c(O)c2)[C@@H]1O
REMARK SMILES IDX 12 1 22 2 2 3 1 4 3 5 4 6 6 7 7 8 9 9 10 10 11 11 13 12
REMARK SMILES IDX 14 13 15 14 21 15 17 16 19 17 16 18 18 20 20 22 23 24 5 26
REMARK SMILES IDX 8 28
REMARK H PARENT 16 19 18 21 20 23 23 25 5 27 8 29
REMARK Flexibility Score: inf
ROOT
ATOM      1  C   UNL     1      -3.892  36.631  34.288  1.00  0.00     0.240 C 
ATOM      2  C   UNL     1      -4.071  37.951  35.072  1.00  0.00     0.231 C 
ATOM      3  C   UNL     1      -3.086  38.979  34.577  1.00  0.00     0.202 C 
ATOM      4  O   UNL     1      -2.635  39.838  35.380  1.00  0.00    -0.291 OA
ATOM      5  C   UNL     1      -2.712  39.001  33.139  1.00  0.00     0.105 A 
ATOM      6  C   UNL     1      -1.961  40.048  32.563  1.00  0.00     0.133 A 
ATOM      7  C   UNL     1      -1.685  40.030  31.188  1.00  0.00     0.093 A 
ATOM      8  C   UNL     1      -2.154  38.985  30.382  1.00  0.00     0.123 A 
ATOM      9  C   UNL     1      -2.896  37.947  30.952  1.00  0.00     0.093 A 
ATOM     10  C   UNL     1      -3.162  37.942  32.323  1.00  0.00     0.138 A 
ATOM     11  O   UNL     1      -3.882  36.879  32.880  1.00  0.00    -0.481 OA
ENDROOT
BRANCH   1  12
ATOM     12  C   UNL     1      -4.955  35.615  34.645  1.00  0.00     0.003 A 
ATOM     13  C   UNL     1      -6.175  36.017  35.214  1.00  0.00     0.058 A 
ATOM     14  C   UNL     1      -7.142  35.066  35.568  1.00  0.00     0.161 A 
ATOM     15  C   UNL     1      -4.705  34.247  34.459  1.00  0.00     0.058 A 
ATOM     16  C   UNL     1      -6.893  33.704  35.364  1.00  0.00     0.200 A 
ATOM     17  C   UNL     1      -5.670  33.292  34.808  1.00  0.00     0.161 A 
BRANCH  14  18
ATOM     18  O   UNL     1      -8.355  35.468  36.125  1.00  0.00    -0.504 OA
ATOM     19  H   UNL     1      -8.474  35.560  37.128  1.00  0.00     0.293 HD
ENDBRANCH  14  18
BRANCH  16  20
ATOM     20  O   UNL     1      -7.868  32.771  35.719  1.00  0.00    -0.502 OA
ATOM     21  H   UNL     1      -8.658  32.562  35.121  1.00  0.00     0.293 HD
ENDBRANCH  16  20
BRANCH  17  22
ATOM     22  O   UNL     1      -5.416  31.936  34.607  1.00  0.00    -0.504 OA
ATOM     23  H   UNL     1      -5.699  31.463  33.756  1.00  0.00     0.293 HD
ENDBRANCH  17  22
ENDBRANCH   1  12
BRANCH   2  24
ATOM     24  O   UNL     1      -5.381  38.451  34.967  1.00  0.00    -0.381 OA
ATOM     25  H   UNL     1      -5.359  39.232  34.353  1.00  0.00     0.211 HD
ENDBRANCH   2  24
BRANCH   6  26
ATOM     26  O   UNL     1      -1.492  41.103  33.345  1.00  0.00    -0.507 OA
ATOM     27  H   UNL     1      -0.666  41.629  33.087  1.00  0.00     0.293 HD
ENDBRANCH   6  26
BRANCH   8  28
ATOM     28  O   UNL     1      -1.886  38.968  29.015  1.00  0.00    -0.508 OA
ATOM     29  H   UNL     1      -2.389  38.352  28.386  1.00  0.00     0.293 HD
ENDBRANCH   8  28
TORSDOF 7
ENDMDL
MODEL 6
REMARK VINA RESULT:    -5.664     12.122     15.956
REMARK INTER + INTRA:          -7.306
REMARK INTER:                  -7.888
REMARK INTRA:                   0.582
REMARK UNBOUND:                -0.318
REMARK SMILES O=C1c2c(O)cc(O)cc2O[C@H](c2cc(O)c(O)c(O)c2)[C@@H]1O
REMARK SMILES IDX 12 1 22 2 2 3 1 4 3 5 4 6 6 7 7 8 9 9 10 10 11 11 13 12
REMARK SMILES IDX 14 13 15 14 21 15 17 16 19 17 16 18 18 20 20 22 23 24 5 26
REMARK SMILES IDX 8 28
REMARK H PARENT 16 19 18 21 20 23 23 25 5 27 8 29
REMARK Flexibility Score: inf
ROOT
ATOM      1  C   UNL     1      -3.904  36.514  34.064  1.00  0.00     0.240 C 
ATOM      2  C   UNL     1      -3.927  37.812  34.905  1.00  0.00     0.231 C 
ATOM      3  C   UNL     1      -2.996  38.831  34.301  1.00  0.00     0.202 C 
ATOM      4  O   UNL     1      -2.408  39.652  35.054  1.00  0.00    -0.291 OA
ATOM      5  C   UNL     1      -2.835  38.892  32.825  1.00  0.00     0.105 A 
ATOM      6  C   UNL     1      -2.147  39.939  32.176  1.00  0.00     0.133 A 
ATOM      7  C   UNL     1      -2.076  39.961  30.775  1.00  0.00     0.093 A 
ATOM      8  C   UNL     1      -2.688  38.956  30.016  1.00  0.00     0.123 A 
ATOM      9  C   UNL     1      -3.368  37.917  30.658  1.00  0.00     0.093 A 
ATOM     10  C   UNL     1      -3.431  37.873  32.053  1.00  0.00     0.138 A 
ATOM     11  O   UNL     1      -4.092  36.809  32.677  1.00  0.00    -0.481 OA
ENDROOT
BRANCH   1  12
ATOM     12  C   UNL     1      -4.932  35.514  34.542  1.00  0.00     0.003 A 
ATOM     13  C   UNL     1      -4.732  34.133  34.369  1.00  0.00     0.058 A 
ATOM     14  C   UNL     1      -5.704  33.216  34.789  1.00  0.00     0.161 A 
ATOM     15  C   UNL     1      -6.131  35.964  35.118  1.00  0.00     0.058 A 
ATOM     16  C   UNL     1      -6.889  33.671  35.378  1.00  0.00     0.200 A 
ATOM     17  C   UNL     1      -7.105  35.049  35.542  1.00  0.00     0.161 A 
BRANCH  14  18
ATOM     18  O   UNL     1      -5.498  31.847  34.624  1.00  0.00    -0.504 OA
ATOM     19  H   UNL     1      -5.121  31.273  35.370  1.00  0.00     0.293 HD
ENDBRANCH  14  18
BRANCH  16  20
ATOM     20  O   UNL     1      -7.845  32.743  35.794  1.00  0.00    -0.502 OA
ATOM     21  H   UNL     1      -8.430  32.898  36.604  1.00  0.00     0.293 HD
ENDBRANCH  16  20
BRANCH  17  22
ATOM     22  O   UNL     1      -8.286  35.507  36.125  1.00  0.00    -0.504 OA
ATOM     23  H   UNL     1      -8.373  36.455  36.474  1.00  0.00     0.293 HD
ENDBRANCH  17  22
ENDBRANCH   1  12
BRANCH   2  24
ATOM     24  O   UNL     1      -5.224  38.346  35.008  1.00  0.00    -0.381 OA
ATOM     25  H   UNL     1      -5.669  38.233  34.127  1.00  0.00     0.211 HD
ENDBRANCH   2  24
BRANCH   6  26
ATOM     26  O   UNL     1      -1.539  40.956  32.912  1.00  0.00    -0.507 OA
ATOM     27  H   UNL     1      -0.552  41.163  32.816  1.00  0.00     0.293 HD
ENDBRANCH   6  26
BRANCH   8  28
ATOM     28  O   UNL     1      -2.623  38.978  28.625  1.00  0.00    -0.508 OA
ATOM     29  H   UNL     1      -1.913  39.515  28.139  1.00  0.00     0.293 HD
ENDBRANCH   8  28
TORSDOF 7
ENDMDL
MODEL 7
REMARK VINA RESULT:    -5.531      2.789      5.585
REMARK INTER + INTRA:          -7.142
REMARK INTER:                  -6.759
REMARK INTRA:                  -0.383
REMARK UNBOUND:                -0.318
REMARK SMILES O=C1c2c(O)cc(O)cc2O[C@H](c2cc(O)c(O)c(O)c2)[C@@H]1O
REMARK SMILES IDX 12 1 22 2 2 3 1 4 3 5 4 6 6 7 7 8 9 9 10 10 11 11 13 12
REMARK SMILES IDX 14 13 15 14 21 15 17 16 19 17 16 18 18 20 20 22 23 24 5 26
REMARK SMILES IDX 8 28
REMARK H PARENT 16 19 18 21 20 23 23 25 5 27 8 29
REMARK Flexibility Score: inf
ROOT
ATOM      1  C   UNL     1      -0.921  34.520  16.751  1.00  0.00     0.240 C 
ATOM      2  C   UNL     1       0.391  35.337  16.729  1.00  0.00     0.231 C 
ATOM      3  C   UNL     1       0.083  36.795  16.501  1.00  0.00     0.202 C 
ATOM      4  O   UNL     1       0.911  37.510  15.875  1.00  0.00    -0.291 OA
ATOM      5  C   UNL     1      -1.158  37.379  17.069  1.00  0.00     0.105 A 
ATOM      6  C   UNL     1      -1.416  38.767  17.074  1.00  0.00     0.133 A 
ATOM      7  C   UNL     1      -2.587  39.254  17.673  1.00  0.00     0.093 A 
ATOM      8  C   UNL     1      -3.498  38.376  18.272  1.00  0.00     0.123 A 
ATOM      9  C   UNL     1      -3.246  37.002  18.265  1.00  0.00     0.093 A 
ATOM     10  C   UNL     1      -2.093  36.500  17.656  1.00  0.00     0.138 A 
ATOM     11  O   UNL     1      -1.873  35.118  17.635  1.00  0.00    -0.481 OA
ENDROOT
BRANCH   1  12
ATOM     12  C   UNL     1      -0.679  33.075  17.124  1.00  0.00     0.003 A 
ATOM     13  C   UNL     1       0.148  32.255  16.338  1.00  0.00     0.058 A 
ATOM     14  C   UNL     1       0.342  30.909  16.675  1.00  0.00     0.161 A 
ATOM     15  C   UNL     1      -1.330  32.522  18.238  1.00  0.00     0.058 A 
ATOM     16  C   UNL     1      -0.296  30.369  17.798  1.00  0.00     0.200 A 
ATOM     17  C   UNL     1      -1.136  31.177  18.582  1.00  0.00     0.161 A 
BRANCH  14  18
ATOM     18  O   UNL     1       1.170  30.100  15.899  1.00  0.00    -0.504 OA
ATOM     19  H   UNL     1       1.796  29.422  16.320  1.00  0.00     0.293 HD
ENDBRANCH  14  18
BRANCH  16  20
ATOM     20  O   UNL     1      -0.088  29.027  18.122  1.00  0.00    -0.502 OA
ATOM     21  H   UNL     1       0.735  28.521  17.819  1.00  0.00     0.293 HD
ENDBRANCH  16  20
BRANCH  17  22
ATOM     22  O   UNL     1      -1.777  30.642  19.699  1.00  0.00    -0.504 OA
ATOM     23  H   UNL     1      -1.815  29.642  19.861  1.00  0.00     0.293 HD
ENDBRANCH  17  22
ENDBRANCH   1  12
BRANCH   2  24
ATOM     24  O   UNL     1       1.126  35.181  17.917  1.00  0.00    -0.381 OA
ATOM     25  H   UNL     1       1.059  36.030  18.428  1.00  0.00     0.211 HD
ENDBRANCH   2  24
BRANCH   6  26
ATOM     26  O   UNL     1      -0.517  39.660  16.493  1.00  0.00    -0.507 OA
ATOM     27  H   UNL     1       0.484  39.556  16.607  1.00  0.00     0.293 HD
ENDBRANCH   6  26
BRANCH   8  28
ATOM     28  O   UNL     1      -4.660  38.859  18.871  1.00  0.00    -0.508 OA
ATOM     29  H   UNL     1      -5.055  38.412  19.690  1.00  0.00     0.293 HD
ENDBRANCH   8  28
TORSDOF 7
ENDMDL
MODEL 8
REMARK VINA RESULT:    -5.015      1.330      7.325
REMARK INTER + INTRA:          -6.505
REMARK INTER:                  -6.152
REMARK INTRA:                  -0.354
REMARK UNBOUND:                -0.318
REMARK SMILES O=C1c2c(O)cc(O)cc2O[C@H](c2cc(O)c(O)c(O)c2)[C@@H]1O
REMARK SMILES IDX 12 1 22 2 2 3 1 4 3 5 4 6 6 7 7 8 9 9 10 10 11 11 13 12
REMARK SMILES IDX 14 13 15 14 21 15 17 16 19 17 16 18 18 20 20 22 23 24 5 26
REMARK SMILES IDX 8 28
REMARK H PARENT 16 19 18 21 20 23 23 25 5 27 8 29
REMARK Flexibility Score: inf
ROOT
ATOM      1  C   UNL     1      -3.000  38.769  19.738  1.00  0.00     0.240 C 
ATOM      2  C   UNL     1      -2.380  39.921  18.913  1.00  0.00     0.231 C 
ATOM      3  C   UNL     1      -1.075  39.474  18.307  1.00  0.00     0.202 C 
ATOM      4  O   UNL     1      -0.155  40.317  18.133  1.00  0.00    -0.291 OA
ATOM      5  C   UNL     1      -0.917  38.064  17.868  1.00  0.00     0.105 A 
ATOM      6  C   UNL     1       0.190  37.620  17.113  1.00  0.00     0.133 A 
ATOM      7  C   UNL     1       0.251  36.285  16.688  1.00  0.00     0.093 A 
ATOM      8  C   UNL     1      -0.779  35.390  17.002  1.00  0.00     0.123 A 
ATOM      9  C   UNL     1      -1.875  35.828  17.752  1.00  0.00     0.093 A 
ATOM     10  C   UNL     1      -1.940  37.150  18.197  1.00  0.00     0.138 A 
ATOM     11  O   UNL     1      -3.031  37.562  18.971  1.00  0.00    -0.481 OA
ENDROOT
BRANCH   1  12
ATOM     12  C   UNL     1      -4.381  39.117  20.244  1.00  0.00     0.003 A 
ATOM     13  C   UNL     1      -4.553  39.974  21.344  1.00  0.00     0.058 A 
ATOM     14  C   UNL     1      -5.836  40.267  21.824  1.00  0.00     0.161 A 
ATOM     15  C   UNL     1      -5.512  38.536  19.647  1.00  0.00     0.058 A 
ATOM     16  C   UNL     1      -6.960  39.698  21.213  1.00  0.00     0.200 A 
ATOM     17  C   UNL     1      -6.798  38.828  20.122  1.00  0.00     0.161 A 
BRANCH  14  18
ATOM     18  O   UNL     1      -6.003  41.125  22.910  1.00  0.00    -0.504 OA
ATOM     19  H   UNL     1      -6.662  40.919  23.653  1.00  0.00     0.293 HD
ENDBRANCH  14  18
BRANCH  16  20
ATOM     20  O   UNL     1      -8.230  40.004  21.702  1.00  0.00    -0.502 OA
ATOM     21  H   UNL     1      -8.407  40.824  22.270  1.00  0.00     0.293 HD
ENDBRANCH  16  20
BRANCH  17  22
ATOM     22  O   UNL     1      -7.914  38.256  19.513  1.00  0.00    -0.504 OA
ATOM     23  H   UNL     1      -7.832  37.696  18.673  1.00  0.00     0.293 HD
ENDBRANCH  17  22
ENDBRANCH   1  12
BRANCH   2  24
ATOM     24  O   UNL     1      -3.250  40.371  17.904  1.00  0.00    -0.381 OA
ATOM     25  H   UNL     1      -2.876  41.213  17.534  1.00  0.00     0.211 HD
ENDBRANCH   2  24
BRANCH   6  26
ATOM     26  O   UNL     1       1.223  38.496  16.780  1.00  0.00    -0.507 OA
ATOM     27  H   UNL     1       1.943  38.240  16.115  1.00  0.00     0.293 HD
ENDBRANCH   6  26
BRANCH   8  28
ATOM     28  O   UNL     1      -0.723  34.064  16.578  1.00  0.00    -0.508 OA
ATOM     29  H   UNL     1      -0.979  33.302  17.195  1.00  0.00     0.293 HD
ENDBRANCH   8  28
TORSDOF 7
ENDMDL
