MODEL 1
REMARK VINA RESULT:     0.045      0.000      0.000
REMARK INTER + INTRA:          -0.982
REMARK INTER:                   0.082
REMARK INTRA:                  -1.064
REMARK UNBOUND:                -1.064
REMARK SMILES CCCCCCCCCCCCCCCC(=O)[O-]
REMARK SMILES IDX 9 1 10 2 11 3 12 4 13 5 14 6 15 7 16 8 17 9 18 10 8 11 7 12
REMARK SMILES IDX 6 13 5 14 4 15 3 16 2 17 1 18
REMARK H PARENT
REMARK Flexibility Score: inf
ROOT
ATOM      1  C   UNL     1      29.908  23.485  31.334  1.00  0.00     0.000 C 
ENDROOT
BRANCH   1   2
ATOM      2  C   UNL     1      29.694  23.799  29.843  1.00  0.00     0.000 C 
BRANCH   2   3
ATOM      3  C   UNL     1      30.355  25.119  29.416  1.00  0.00     0.000 C 
BRANCH   3   4
ATOM      4  C   UNL     1      31.518  24.906  28.437  1.00  0.00     0.000 C 
BRANCH   4   5
ATOM      5  C   UNL     1      32.868  24.996  29.161  1.00  0.00     0.000 C 
BRANCH   5   6
ATOM      6  C   UNL     1      34.026  25.068  28.159  1.00  0.00     0.006 C 
BRANCH   6   7
ATOM      7  C   UNL     1      34.676  23.695  27.969  1.00  0.00     0.053 C 
BRANCH   7   8
ATOM      8  C   UNL     1      36.063  23.690  28.529  1.00  0.00     0.041 C 
ATOM      9  O   UNL     1      36.374  24.481  29.459  1.00  0.00    -0.550 OA
ATOM     10  O   UNL     1      37.028  22.849  27.990  1.00  0.00    -0.550 OA
ENDBRANCH   7   8
ENDBRANCH   6   7
ENDBRANCH   5   6
ENDBRANCH   4   5
ENDBRANCH   3   4
ENDBRANCH   2   3
ENDBRANCH   1   2
BRANCH   1  11
ATOM     11  C   UNL     1      29.251  24.523  32.259  1.00  0.00     0.000 C 
BRANCH  11  12
ATOM     12  C   UNL     1      29.685  24.364  33.726  1.00  0.00    -0.000 C 
BRANCH  12  13
ATOM     13  C   UNL     1      31.008  25.084  34.033  1.00  0.00    -0.000 C 
BRANCH  13  14
ATOM     14  C   UNL     1      32.233  24.171  33.877  1.00  0.00    -0.000 C 
BRANCH  14  15
ATOM     15  C   UNL     1      33.307  24.839  33.007  1.00  0.00    -0.000 C 
BRANCH  15  16
ATOM     16  C   UNL     1      34.639  25.046  33.751  1.00  0.00    -0.000 C 
BRANCH  16  17
ATOM     17  C   UNL     1      35.894  24.983  32.863  1.00  0.00    -0.003 C 
ATOM     18  C   UNL     1      36.827  23.828  33.226  1.00  0.00     0.004 C 
ENDBRANCH  16  17
ENDBRANCH  15  16
ENDBRANCH  14  15
ENDBRANCH  13  14
ENDBRANCH  12  13
ENDBRANCH  11  12
ENDBRANCH   1  11
TORSDOF 14
ENDMDL
MODEL 2
REMARK VINA RESULT:     2.140     16.232     19.523
REMARK INTER + INTRA:           2.828
REMARK INTER:                   3.632
REMARK INTRA:                  -0.804
REMARK UNBOUND:                -1.064
REMARK SMILES CCCCCCCCCCCCCCCC(=O)[O-]
REMARK SMILES IDX 9 1 10 2 11 3 12 4 13 5 14 6 15 7 16 8 17 9 18 10 8 11 7 12
REMARK SMILES IDX 6 13 5 14 4 15 3 16 2 17 1 18
REMARK H PARENT
REMARK Flexibility Score: inf
ROOT
ATOM      1  C   UNL     1      21.730  21.939  47.054  1.00  0.00     0.000 C 
ENDROOT
BRANCH   1   2
ATOM      2  C   UNL     1      20.194  21.930  46.956  1.00  0.00     0.000 C 
BRANCH   2   3
ATOM      3  C   UNL     1      19.525  22.701  48.104  1.00  0.00     0.000 C 
BRANCH   3   4
ATOM      4  C   UNL     1      19.463  24.213  47.841  1.00  0.00     0.000 C 
BRANCH   4   5
ATOM      5  C   UNL     1      18.016  24.721  47.901  1.00  0.00     0.000 C 
BRANCH   5   6
ATOM      6  C   UNL     1      17.175  24.119  46.769  1.00  0.00     0.006 C 
BRANCH   6   7
ATOM      7  C   UNL     1      16.985  25.125  45.630  1.00  0.00     0.053 C 
BRANCH   7   8
ATOM      8  C   UNL     1      17.796  24.727  44.438  1.00  0.00     0.041 C 
ATOM      9  O   UNL     1      19.017  24.449  44.567  1.00  0.00    -0.550 OA
ATOM     10  O   UNL     1      17.217  24.713  43.176  1.00  0.00    -0.550 OA
ENDBRANCH   7   8
ENDBRANCH   6   7
ENDBRANCH   5   6
ENDBRANCH   4   5
ENDBRANCH   3   4
ENDBRANCH   2   3
ENDBRANCH   1   2
BRANCH   1  11
ATOM     11  C   UNL     1      22.398  22.588  45.830  1.00  0.00     0.000 C 
BRANCH  11  12
ATOM     12  C   UNL     1      23.628  23.432  46.210  1.00  0.00    -0.000 C 
BRANCH  12  13
ATOM     13  C   UNL     1      24.922  22.917  45.559  1.00  0.00    -0.000 C 
BRANCH  13  14
ATOM     14  C   UNL     1      26.187  23.402  46.284  1.00  0.00    -0.000 C 
BRANCH  14  15
ATOM     15  C   UNL     1      26.760  24.655  45.606  1.00  0.00    -0.000 C 
BRANCH  15  16
ATOM     16  C   UNL     1      28.244  24.505  45.225  1.00  0.00    -0.000 C 
BRANCH  16  17
ATOM     17  C   UNL     1      29.025  23.470  46.055  1.00  0.00    -0.003 C 
ATOM     18  C   UNL     1      29.643  22.362  45.202  1.00  0.00     0.004 C 
ENDBRANCH  16  17
ENDBRANCH  15  16
ENDBRANCH  14  15
ENDBRANCH  13  14
ENDBRANCH  12  13
ENDBRANCH  11  12
ENDBRANCH   1  11
TORSDOF 14
ENDMDL
