MODEL 1
REMARK VINA RESULT:    -4.721      0.000      0.000
REMARK INTER + INTRA:          -4.397
REMARK INTER:                  -5.135
REMARK INTRA:                   0.738
REMARK UNBOUND:                 0.738
REMARK SMILES C[C@H]1[C@H]2C3=CC[C@H]4[C@]5(C)CC[C@@H](O)C(C)(C)[C@@H]5CC[C@@]4(C)[C@]3(C)CC[C@]2(C(=O)[O-])CC[C@@H]1C
REMARK SMILES IDX 26 1 30 2 25 3 3 4 31 5 24 6 4 7 2 8 32 9 22 10 5 11 1 12
REMARK SMILES IDX 33 13 23 14 20 15 6 16 7 17 19 18 21 19 8 20 18 21 17 22
REMARK SMILES IDX 10 23 9 24 14 25 11 26 12 27 15 28 16 29 27 30 28 31 29 32
REMARK SMILES IDX 13 33
REMARK H PARENT 13 34
REMARK Flexibility Score: inf
ROOT
ATOM      1  C   UNL     1     -49.032  11.795 -20.838  1.00  0.00     0.017 C 
ATOM      2  C   UNL     1     -48.745  11.810 -19.312  1.00  0.00     0.014 C 
ATOM      3  C   UNL     1     -48.187  12.896 -21.499  1.00  0.00     0.014 C 
ATOM      4  C   UNL     1     -48.551  10.429 -21.418  1.00  0.00     0.030 C 
ATOM      5  C   UNL     1     -49.457  10.665 -18.581  1.00  0.00     0.004 C 
ATOM      6  C   UNL     1     -48.467  12.998 -23.001  1.00  0.00     0.013 C 
ATOM      7  C   UNL     1     -48.489  10.386 -22.965  1.00  0.00    -0.063 C 
ATOM      8  C   UNL     1     -49.192   9.190 -20.682  1.00  0.00    -0.003 C 
ATOM      9  C   UNL     1     -49.059   9.280 -19.131  1.00  0.00    -0.011 C 
ATOM     10  C   UNL     1     -48.337  11.661 -23.844  1.00  0.00    -0.006 C 
ATOM     11  C   UNL     1     -48.258   9.200 -23.567  1.00  0.00    -0.027 C 
ATOM     12  C   UNL     1     -50.642   8.889 -21.099  1.00  0.00     0.008 C 
ATOM     13  C   UNL     1     -47.653   8.875 -18.650  1.00  0.00     0.008 C 
ATOM     14  C   UNL     1     -49.543  11.680 -24.853  1.00  0.00     0.017 C 
ATOM     15  C   UNL     1     -46.928  11.574 -24.643  1.00  0.00    -0.020 C 
ATOM     16  C   UNL     1     -47.822   9.105 -24.995  1.00  0.00     0.032 C 
ATOM     17  C   UNL     1     -46.676  10.120 -25.303  1.00  0.00     0.006 C 
ATOM     18  C   UNL     1     -46.861  12.713 -25.701  1.00  0.00     0.008 C 
ATOM     19  C   UNL     1     -45.763  11.831 -23.632  1.00  0.00     0.012 C 
ATOM     20  C   UNL     1     -46.005  10.002 -26.788  1.00  0.00    -0.025 C 
ATOM     21  C   UNL     1     -45.750  12.546 -26.711  1.00  0.00     0.005 C 
ATOM     22  C   UNL     1     -46.037  11.347 -27.640  1.00  0.00     0.003 C 
ATOM     23  C   UNL     1     -44.516   9.565 -26.595  1.00  0.00     0.010 C 
ATOM     24  C   UNL     1     -46.729   8.877 -27.593  1.00  0.00     0.012 C 
ATOM     25  C   UNL     1     -45.100  11.375 -28.949  1.00  0.00    -0.006 C 
ATOM     26  C   UNL     1     -43.686   9.509 -27.879  1.00  0.00     0.033 C 
ATOM     27  C   UNL     1     -43.669  10.859 -28.601  1.00  0.00     0.120 C 
ATOM     28  C   UNL     1     -45.722  10.551 -30.125  1.00  0.00     0.014 C 
ATOM     29  C   UNL     1     -44.949  12.824 -29.508  1.00  0.00     0.014 C 
ENDROOT
BRANCH   1  30
ATOM     30  C   UNL     1     -50.513  12.094 -21.071  1.00  0.00     0.048 C 
ATOM     31  O   UNL     1     -51.165  11.497 -21.965  1.00  0.00    -0.550 OA
ATOM     32  O   UNL     1     -51.137  13.121 -20.369  1.00  0.00    -0.550 OA
ENDBRANCH   1  30
BRANCH  27  33
ATOM     33  O   UNL     1     -42.887  10.731 -29.765  1.00  0.00    -0.393 OA
ATOM     34  H   UNL     1     -42.195  11.441 -29.737  1.00  0.00     0.210 HD
ENDBRANCH  27  33
TORSDOF 2
ENDMDL
MODEL 2
REMARK VINA RESULT:    -4.346      1.594      8.283
REMARK INTER + INTRA:          -3.988
REMARK INTER:                  -4.727
REMARK INTRA:                   0.738
REMARK UNBOUND:                 0.738
REMARK SMILES C[C@H]1[C@H]2C3=CC[C@H]4[C@]5(C)CC[C@@H](O)C(C)(C)[C@@H]5CC[C@@]4(C)[C@]3(C)CC[C@]2(C(=O)[O-])CC[C@@H]1C
REMARK SMILES IDX 26 1 30 2 25 3 3 4 31 5 24 6 4 7 2 8 32 9 22 10 5 11 1 12
REMARK SMILES IDX 33 13 23 14 20 15 6 16 7 17 19 18 21 19 8 20 18 21 17 22
REMARK SMILES IDX 10 23 9 24 14 25 11 26 12 27 15 28 16 29 27 30 28 31 29 32
REMARK SMILES IDX 13 33
REMARK H PARENT 13 34
REMARK Flexibility Score: inf
ROOT
ATOM      1  C   UNL     1     -45.123  11.566 -28.040  1.00  0.00     0.017 C 
ATOM      2  C   UNL     1     -44.367  12.665 -28.835  1.00  0.00     0.014 C 
ATOM      3  C   UNL     1     -44.377  11.327 -26.718  1.00  0.00     0.014 C 
ATOM      4  C   UNL     1     -46.543  12.104 -27.682  1.00  0.00     0.030 C 
ATOM      5  C   UNL     1     -45.106  13.056 -30.121  1.00  0.00     0.004 C 
ATOM      6  C   UNL     1     -45.018  10.200 -25.902  1.00  0.00     0.013 C 
ATOM      7  C   UNL     1     -47.297  11.247 -26.635  1.00  0.00    -0.063 C 
ATOM      8  C   UNL     1     -47.354  12.584 -28.946  1.00  0.00    -0.003 C 
ATOM      9  C   UNL     1     -46.537  13.560 -29.846  1.00  0.00    -0.011 C 
ATOM     10  C   UNL     1     -46.573  10.325 -25.613  1.00  0.00    -0.006 C 
ATOM     11  C   UNL     1     -48.595  11.525 -26.391  1.00  0.00    -0.027 C 
ATOM     12  C   UNL     1     -47.964  11.442 -29.777  1.00  0.00     0.008 C 
ATOM     13  C   UNL     1     -46.521  14.991 -29.276  1.00  0.00     0.008 C 
ATOM     14  C   UNL     1     -47.152   8.875 -25.797  1.00  0.00     0.017 C 
ATOM     15  C   UNL     1     -46.876  10.872 -24.116  1.00  0.00    -0.020 C 
ATOM     16  C   UNL     1     -49.301  11.021 -25.171  1.00  0.00     0.032 C 
ATOM     17  C   UNL     1     -48.434  11.237 -23.890  1.00  0.00     0.006 C 
ATOM     18  C   UNL     1     -46.362   9.838 -23.072  1.00  0.00     0.008 C 
ATOM     19  C   UNL     1     -46.056  12.184 -23.888  1.00  0.00     0.012 C 
ATOM     20  C   UNL     1     -49.161  10.873 -22.473  1.00  0.00    -0.025 C 
ATOM     21  C   UNL     1     -46.865  10.084 -21.668  1.00  0.00     0.005 C 
ATOM     22  C   UNL     1     -48.382   9.810 -21.580  1.00  0.00     0.003 C 
ATOM     23  C   UNL     1     -49.299  12.204 -21.663  1.00  0.00     0.010 C 
ATOM     24  C   UNL     1     -50.600  10.337 -22.755  1.00  0.00     0.012 C 
ATOM     25  C   UNL     1     -48.870   9.679 -20.052  1.00  0.00    -0.006 C 
ATOM     26  C   UNL     1     -49.862  12.046 -20.249  1.00  0.00     0.033 C 
ATOM     27  C   UNL     1     -49.012  11.093 -19.405  1.00  0.00     0.120 C 
ATOM     28  C   UNL     1     -50.208   8.875 -19.938  1.00  0.00     0.014 C 
ATOM     29  C   UNL     1     -47.844   8.877 -19.193  1.00  0.00     0.014 C 
ENDROOT
BRANCH   1  30
ATOM     30  C   UNL     1     -45.124  10.272 -28.854  1.00  0.00     0.048 C 
ATOM     31  O   UNL     1     -46.134   9.523 -28.887  1.00  0.00    -0.550 OA
ATOM     32  O   UNL     1     -43.959   9.842 -29.482  1.00  0.00    -0.550 OA
ENDBRANCH   1  30
BRANCH  27  33
ATOM     33  O   UNL     1     -49.587  11.001 -18.124  1.00  0.00    -0.393 OA
ATOM     34  H   UNL     1     -50.251  11.735 -18.044  1.00  0.00     0.210 HD
ENDBRANCH  27  33
TORSDOF 2
ENDMDL
MODEL 3
REMARK VINA RESULT:    -3.605      3.146      9.300
REMARK INTER + INTRA:          -3.182
REMARK INTER:                  -4.086
REMARK INTRA:                   0.904
REMARK UNBOUND:                 0.738
REMARK SMILES C[C@H]1[C@H]2C3=CC[C@H]4[C@]5(C)CC[C@@H](O)C(C)(C)[C@@H]5CC[C@@]4(C)[C@]3(C)CC[C@]2(C(=O)[O-])CC[C@@H]1C
REMARK SMILES IDX 26 1 30 2 25 3 3 4 31 5 24 6 4 7 2 8 32 9 22 10 5 11 1 12
REMARK SMILES IDX 33 13 23 14 20 15 6 16 7 17 19 18 21 19 8 20 18 21 17 22
REMARK SMILES IDX 10 23 9 24 14 25 11 26 12 27 15 28 16 29 27 30 28 31 29 32
REMARK SMILES IDX 13 33
REMARK H PARENT 13 34
REMARK Flexibility Score: inf
ROOT
ATOM      1  C   UNL     1     -48.731  10.591 -23.013  1.00  0.00     0.017 C 
ATOM      2  C   UNL     1     -48.119  10.051 -24.334  1.00  0.00     0.014 C 
ATOM      3  C   UNL     1     -49.205   9.392 -22.177  1.00  0.00     0.014 C 
ATOM      4  C   UNL     1     -47.606  11.307 -22.204  1.00  0.00     0.030 C 
ATOM      5  C   UNL     1     -47.510  11.173 -25.186  1.00  0.00     0.004 C 
ATOM      6  C   UNL     1     -49.892   9.841 -20.883  1.00  0.00     0.013 C 
ATOM      7  C   UNL     1     -47.988  11.625 -20.737  1.00  0.00    -0.063 C 
ATOM      8  C   UNL     1     -46.883  12.441 -23.028  1.00  0.00    -0.003 C 
ATOM      9  C   UNL     1     -46.414  11.953 -24.433  1.00  0.00    -0.011 C 
ATOM     10  C   UNL     1     -49.081  10.841 -19.956  1.00  0.00    -0.006 C 
ATOM     11  C   UNL     1     -47.156  12.398 -20.008  1.00  0.00    -0.027 C 
ATOM     12  C   UNL     1     -47.682  13.751 -23.133  1.00  0.00     0.008 C 
ATOM     13  C   UNL     1     -45.108  11.139 -24.352  1.00  0.00     0.008 C 
ATOM     14  C   UNL     1     -50.135  11.889 -19.445  1.00  0.00     0.017 C 
ATOM     15  C   UNL     1     -48.380  10.084 -18.704  1.00  0.00    -0.020 C 
ATOM     16  C   UNL     1     -47.234  12.464 -18.516  1.00  0.00     0.032 C 
ATOM     17  C   UNL     1     -47.356  11.037 -17.894  1.00  0.00     0.006 C 
ATOM     18  C   UNL     1     -49.479   9.490 -17.776  1.00  0.00     0.008 C 
ATOM     19  C   UNL     1     -47.552   8.875 -19.250  1.00  0.00     0.012 C 
ATOM     20  C   UNL     1     -47.289  10.966 -16.264  1.00  0.00    -0.025 C 
ATOM     21  C   UNL     1     -48.966   9.041 -16.427  1.00  0.00     0.005 C 
ATOM     22  C   UNL     1     -48.539  10.257 -15.578  1.00  0.00     0.003 C 
ATOM     23  C   UNL     1     -45.993  10.177 -15.883  1.00  0.00     0.010 C 
ATOM     24  C   UNL     1     -47.151  12.411 -15.690  1.00  0.00     0.012 C 
ATOM     25  C   UNL     1     -48.363   9.862 -14.027  1.00  0.00    -0.006 C 
ATOM     26  C   UNL     1     -45.815   9.910 -14.387  1.00  0.00     0.033 C 
ATOM     27  C   UNL     1     -47.000   9.135 -13.805  1.00  0.00     0.120 C 
ATOM     28  C   UNL     1     -48.490  11.111 -13.093  1.00  0.00     0.014 C 
ATOM     29  C   UNL     1     -49.490   8.891 -13.556  1.00  0.00     0.014 C 
ENDROOT
BRANCH   1  30
ATOM     30  C   UNL     1     -49.933  11.475 -23.344  1.00  0.00     0.048 C 
ATOM     31  O   UNL     1     -50.353  12.335 -22.528  1.00  0.00    -0.550 OA
ATOM     32  O   UNL     1     -50.656  11.263 -24.513  1.00  0.00    -0.550 OA
ENDBRANCH   1  30
BRANCH  27  33
ATOM     33  O   UNL     1     -46.763   8.924 -12.434  1.00  0.00    -0.393 OA
ATOM     34  H   UNL     1     -47.084   8.011 -12.214  1.00  0.00     0.210 HD
ENDBRANCH  27  33
TORSDOF 2
ENDMDL
MODEL 4
REMARK VINA RESULT:    -2.969      2.528      8.577
REMARK INTER + INTRA:          -2.491
REMARK INTER:                  -3.236
REMARK INTRA:                   0.746
REMARK UNBOUND:                 0.738
REMARK SMILES C[C@H]1[C@H]2C3=CC[C@H]4[C@]5(C)CC[C@@H](O)C(C)(C)[C@@H]5CC[C@@]4(C)[C@]3(C)CC[C@]2(C(=O)[O-])CC[C@@H]1C
REMARK SMILES IDX 26 1 30 2 25 3 3 4 31 5 24 6 4 7 2 8 32 9 22 10 5 11 1 12
REMARK SMILES IDX 33 13 23 14 20 15 6 16 7 17 19 18 21 19 8 20 18 21 17 22
REMARK SMILES IDX 10 23 9 24 14 25 11 26 12 27 15 28 16 29 27 30 28 31 29 32
REMARK SMILES IDX 13 33
REMARK H PARENT 13 34
REMARK Flexibility Score: inf
ROOT
ATOM      1  C   UNL     1     -48.720  10.301 -24.700  1.00  0.00     0.017 C 
ATOM      2  C   UNL     1     -48.001   9.805 -25.984  1.00  0.00     0.014 C 
ATOM      3  C   UNL     1     -49.040   9.079 -23.824  1.00  0.00     0.014 C 
ATOM      4  C   UNL     1     -47.733  11.203 -23.898  1.00  0.00     0.030 C 
ATOM      5  C   UNL     1     -47.537  10.968 -26.869  1.00  0.00     0.004 C 
ATOM      6  C   UNL     1     -49.820   9.474 -22.566  1.00  0.00     0.013 C 
ATOM      7  C   UNL     1     -48.198  11.519 -22.455  1.00  0.00    -0.063 C 
ATOM      8  C   UNL     1     -47.159  12.397 -24.753  1.00  0.00    -0.003 C 
ATOM      9  C   UNL     1     -46.586  11.928 -26.126  1.00  0.00    -0.011 C 
ATOM     10  C   UNL     1     -49.188  10.616 -21.664  1.00  0.00    -0.006 C 
ATOM     11  C   UNL     1     -47.506  12.433 -21.741  1.00  0.00    -0.027 C 
ATOM     12  C   UNL     1     -48.135  13.573 -24.932  1.00  0.00     0.008 C 
ATOM     13  C   UNL     1     -45.180  11.316 -25.982  1.00  0.00     0.008 C 
ATOM     14  C   UNL     1     -50.395  11.520 -21.222  1.00  0.00     0.017 C 
ATOM     15  C   UNL     1     -48.419  10.018 -20.366  1.00  0.00    -0.020 C 
ATOM     16  C   UNL     1     -47.634  12.545 -20.255  1.00  0.00     0.032 C 
ATOM     17  C   UNL     1     -47.566  11.141 -19.576  1.00  0.00     0.006 C 
ATOM     18  C   UNL     1     -49.446   9.307 -19.438  1.00  0.00     0.008 C 
ATOM     19  C   UNL     1     -47.411   8.922 -20.843  1.00  0.00     0.012 C 
ATOM     20  C   UNL     1     -47.534  11.144 -17.943  1.00  0.00    -0.025 C 
ATOM     21  C   UNL     1     -48.911   8.991 -18.061  1.00  0.00     0.005 C 
ATOM     22  C   UNL     1     -48.688  10.288 -17.255  1.00  0.00     0.003 C 
ATOM     23  C   UNL     1     -46.149  10.566 -17.501  1.00  0.00     0.010 C 
ATOM     24  C   UNL     1     -47.622  12.615 -17.428  1.00  0.00     0.012 C 
ATOM     25  C   UNL     1     -48.499   9.983 -15.685  1.00  0.00    -0.006 C 
ATOM     26  C   UNL     1     -45.975  10.386 -15.992  1.00  0.00     0.033 C 
ATOM     27  C   UNL     1     -47.052   9.471 -15.403  1.00  0.00     0.120 C 
ATOM     28  C   UNL     1     -48.830  11.237 -14.808  1.00  0.00     0.014 C 
ATOM     29  C   UNL     1     -49.487   8.878 -15.198  1.00  0.00     0.014 C 
ENDROOT
BRANCH   1  30
ATOM     30  C   UNL     1     -50.028  10.988 -25.094  1.00  0.00     0.048 C 
ATOM     31  O   UNL     1     -50.392  12.060 -24.545  1.00  0.00    -0.550 OA
ATOM     32  O   UNL     1     -50.898  10.374 -25.990  1.00  0.00    -0.550 OA
ENDBRANCH   1  30
BRANCH  27  33
ATOM     33  O   UNL     1     -46.825   9.350 -14.020  1.00  0.00    -0.393 OA
ATOM     34  H   UNL     1     -47.612   8.887 -13.629  1.00  0.00     0.210 HD
ENDBRANCH  27  33
TORSDOF 2
ENDMDL
MODEL 5
REMARK VINA RESULT:    -2.771      3.447      8.811
REMARK INTER + INTRA:          -2.276
REMARK INTER:                  -3.011
REMARK INTRA:                   0.735
REMARK UNBOUND:                 0.738
REMARK SMILES C[C@H]1[C@H]2C3=CC[C@H]4[C@]5(C)CC[C@@H](O)C(C)(C)[C@@H]5CC[C@@]4(C)[C@]3(C)CC[C@]2(C(=O)[O-])CC[C@@H]1C
REMARK SMILES IDX 26 1 30 2 25 3 3 4 31 5 24 6 4 7 2 8 32 9 22 10 5 11 1 12
REMARK SMILES IDX 33 13 23 14 20 15 6 16 7 17 19 18 21 19 8 20 18 21 17 22
REMARK SMILES IDX 10 23 9 24 14 25 11 26 12 27 15 28 16 29 27 30 28 31 29 32
REMARK SMILES IDX 13 33
REMARK H PARENT 13 34
REMARK Flexibility Score: inf
ROOT
ATOM      1  C   UNL     1     -48.894  12.123 -23.512  1.00  0.00     0.017 C 
ATOM      2  C   UNL     1     -49.713  13.050 -24.451  1.00  0.00     0.014 C 
ATOM      3  C   UNL     1     -47.956  12.999 -22.667  1.00  0.00     0.014 C 
ATOM      4  C   UNL     1     -49.880  11.417 -22.531  1.00  0.00     0.030 C 
ATOM      5  C   UNL     1     -50.764  12.272 -25.253  1.00  0.00     0.004 C 
ATOM      6  C   UNL     1     -47.055  12.154 -21.761  1.00  0.00     0.013 C 
ATOM      7  C   UNL     1     -49.188  10.703 -21.344  1.00  0.00    -0.063 C 
ATOM      8  C   UNL     1     -51.033  10.638 -23.274  1.00  0.00    -0.003 C 
ATOM      9  C   UNL     1     -51.752  11.513 -24.345  1.00  0.00    -0.011 C 
ATOM     10  C   UNL     1     -47.777  11.100 -20.821  1.00  0.00    -0.006 C 
ATOM     11  C   UNL     1     -49.936   9.917 -20.541  1.00  0.00    -0.027 C 
ATOM     12  C   UNL     1     -50.602   9.283 -23.862  1.00  0.00     0.008 C 
ATOM     13  C   UNL     1     -52.773  12.476 -23.709  1.00  0.00     0.008 C 
ATOM     14  C   UNL     1     -46.880   9.810 -20.869  1.00  0.00     0.017 C 
ATOM     15  C   UNL     1     -47.922  11.635 -19.296  1.00  0.00    -0.020 C 
ATOM     16  C   UNL     1     -49.465   9.485 -19.188  1.00  0.00     0.032 C 
ATOM     17  C   UNL     1     -48.866  10.687 -18.390  1.00  0.00     0.006 C 
ATOM     18  C   UNL     1     -46.507  11.814 -18.674  1.00  0.00     0.008 C 
ATOM     19  C   UNL     1     -48.582  13.053 -19.325  1.00  0.00     0.012 C 
ATOM     20  C   UNL     1     -48.463  10.376 -16.838  1.00  0.00    -0.025 C 
ATOM     21  C   UNL     1     -46.517  12.002 -17.174  1.00  0.00     0.005 C 
ATOM     22  C   UNL     1     -46.948  10.699 -16.467  1.00  0.00     0.003 C 
ATOM     23  C   UNL     1     -49.397  11.242 -15.930  1.00  0.00     0.010 C 
ATOM     24  C   UNL     1     -48.751   8.875 -16.521  1.00  0.00     0.012 C 
ATOM     25  C   UNL     1     -46.599  10.736 -14.896  1.00  0.00    -0.006 C 
ATOM     26  C   UNL     1     -49.093  11.169 -14.432  1.00  0.00     0.033 C 
ATOM     27  C   UNL     1     -47.653  11.591 -14.127  1.00  0.00     0.120 C 
ATOM     28  C   UNL     1     -46.497   9.295 -14.292  1.00  0.00     0.014 C 
ATOM     29  C   UNL     1     -45.201  11.380 -14.639  1.00  0.00     0.014 C 
ENDROOT
BRANCH   1  30
ATOM     30  C   UNL     1     -48.054  11.168 -24.360  1.00  0.00     0.048 C 
ATOM     31  O   UNL     1     -47.909   9.962 -24.033  1.00  0.00    -0.550 OA
ATOM     32  O   UNL     1     -47.339  11.649 -25.452  1.00  0.00    -0.550 OA
ENDBRANCH   1  30
BRANCH  27  33
ATOM     33  O   UNL     1     -47.450  11.502 -12.737  1.00  0.00    -0.393 OA
ATOM     34  H   UNL     1     -46.844  10.733 -12.574  1.00  0.00     0.210 HD
ENDBRANCH  27  33
TORSDOF 2
ENDMDL
MODEL 6
REMARK VINA RESULT:    -1.786      1.832      8.176
REMARK INTER + INTRA:          -1.205
REMARK INTER:                  -2.934
REMARK INTRA:                   1.729
REMARK UNBOUND:                 0.738
REMARK SMILES C[C@H]1[C@H]2C3=CC[C@H]4[C@]5(C)CC[C@@H](O)C(C)(C)[C@@H]5CC[C@@]4(C)[C@]3(C)CC[C@]2(C(=O)[O-])CC[C@@H]1C
REMARK SMILES IDX 26 1 30 2 25 3 3 4 31 5 24 6 4 7 2 8 32 9 22 10 5 11 1 12
REMARK SMILES IDX 33 13 23 14 20 15 6 16 7 17 19 18 21 19 8 20 18 21 17 22
REMARK SMILES IDX 10 23 9 24 14 25 11 26 12 27 15 28 16 29 27 30 28 31 29 32
REMARK SMILES IDX 13 33
REMARK H PARENT 13 34
REMARK Flexibility Score: inf
ROOT
ATOM      1  C   UNL     1     -46.689   9.981 -28.627  1.00  0.00     0.017 C 
ATOM      2  C   UNL     1     -45.918   8.875 -29.398  1.00  0.00     0.014 C 
ATOM      3  C   UNL     1     -47.908   9.337 -27.949  1.00  0.00     0.014 C 
ATOM      4  C   UNL     1     -45.765  10.531 -27.497  1.00  0.00     0.030 C 
ATOM      5  C   UNL     1     -44.616   9.404 -30.014  1.00  0.00     0.004 C 
ATOM      6  C   UNL     1     -48.768  10.377 -27.224  1.00  0.00     0.013 C 
ATOM      7  C   UNL     1     -46.497  11.415 -26.457  1.00  0.00    -0.063 C 
ATOM      8  C   UNL     1     -44.374  11.044 -28.036  1.00  0.00    -0.003 C 
ATOM      9  C   UNL     1     -43.667  10.002 -28.955  1.00  0.00    -0.011 C 
ATOM     10  C   UNL     1     -48.025  11.316 -26.184  1.00  0.00    -0.006 C 
ATOM     11  C   UNL     1     -45.757  12.082 -25.545  1.00  0.00    -0.027 C 
ATOM     12  C   UNL     1     -44.428  12.428 -28.705  1.00  0.00     0.008 C 
ATOM     13  C   UNL     1     -42.975   8.892 -28.140  1.00  0.00     0.008 C 
ATOM     14  C   UNL     1     -48.634  12.749 -26.403  1.00  0.00     0.017 C 
ATOM     15  C   UNL     1     -48.247  10.832 -24.652  1.00  0.00    -0.020 C 
ATOM     16  C   UNL     1     -46.357  12.654 -24.300  1.00  0.00     0.032 C 
ATOM     17  C   UNL     1     -47.304  11.625 -23.606  1.00  0.00     0.006 C 
ATOM     18  C   UNL     1     -49.754  10.952 -24.284  1.00  0.00     0.008 C 
ATOM     19  C   UNL     1     -47.879   9.316 -24.549  1.00  0.00     0.012 C 
ATOM     20  C   UNL     1     -47.895  12.075 -22.151  1.00  0.00    -0.025 C 
ATOM     21  C   UNL     1     -50.035  10.833 -22.804  1.00  0.00     0.005 C 
ATOM     22  C   UNL     1     -49.485  12.061 -22.048  1.00  0.00     0.003 C 
ATOM     23  C   UNL     1     -47.315  11.090 -21.085  1.00  0.00     0.010 C 
ATOM     24  C   UNL     1     -47.380  13.507 -21.806  1.00  0.00     0.012 C 
ATOM     25  C   UNL     1     -50.096  12.162 -20.561  1.00  0.00    -0.006 C 
ATOM     26  C   UNL     1     -47.848  11.286 -19.664  1.00  0.00     0.033 C 
ATOM     27  C   UNL     1     -49.373  11.158 -19.610  1.00  0.00     0.120 C 
ATOM     28  C   UNL     1     -50.017  13.621 -20.000  1.00  0.00     0.014 C 
ATOM     29  C   UNL     1     -51.614  11.806 -20.545  1.00  0.00     0.014 C 
ENDROOT
BRANCH   1  30
ATOM     30  C   UNL     1     -47.171  11.039 -29.620  1.00  0.00     0.048 C 
ATOM     31  O   UNL     1     -46.454  12.027 -29.919  1.00  0.00    -0.550 OA
ATOM     32  O   UNL     1     -48.467  10.984 -30.124  1.00  0.00    -0.550 OA
ENDBRANCH   1  30
BRANCH  27  33
ATOM     33  O   UNL     1     -49.787  11.346 -18.278  1.00  0.00    -0.393 OA
ATOM     34  H   UNL     1     -49.073  11.858 -17.814  1.00  0.00     0.210 HD
ENDBRANCH  27  33
TORSDOF 2
ENDMDL
