MODEL 1
REMARK VINA RESULT:    -3.783      0.000      0.000
REMARK INTER + INTRA:          -6.054
REMARK INTER:                  -5.773
REMARK INTRA:                  -0.281
REMARK UNBOUND:                -0.281
REMARK SMILES CC1=CCC[C@H](C)C(=O)C[C@H](C(C)C)C(=O)C1
REMARK SMILES IDX 8 1 9 2 6 3 7 4 5 5 4 6 3 7 2 8 1 9 10 11 11 12 15 13 16 14
REMARK SMILES IDX 17 15 12 17 13 18 14 19
REMARK H PARENT
REMARK Flexibility Score: 70.00
ROOT
ATOM      1  C   UNL     1     -13.484   2.505 -13.957  1.00  0.00     0.136 C 
ATOM      2  O   UNL     1     -14.601   2.127 -13.631  1.00  0.00    -0.299 OA
ENDROOT
BRANCH   1   3
ATOM      3  C   UNL     1     -13.142   2.564 -15.435  1.00  0.00     0.053 C 
ATOM      4  C   UNL     1     -13.627   1.281 -16.123  1.00  0.00     0.016 C 
BRANCH   3   5
ATOM      5  C   UNL     1     -13.737   3.811 -16.141  1.00  0.00     0.015 C 
BRANCH   5   6
ATOM      6  C   UNL     1     -12.720   4.741 -16.846  1.00  0.00     0.028 C 
BRANCH   6   7
ATOM      7  C   UNL     1     -12.538   6.094 -16.198  1.00  0.00    -0.028 C 
ATOM      8  C   UNL     1     -11.720   6.399 -15.162  1.00  0.00    -0.070 CG0
ATOM      9  C   UNL     1     -11.835   7.787 -14.580  1.00  0.00     0.039 C 
ATOM     10  G   UNL     1     -10.631   5.484 -14.624  1.00  0.00     0.000 G0
ENDBRANCH   6   7
ENDBRANCH   5   6
ENDBRANCH   3   5
ENDBRANCH   1   3
BRANCH   1  11
ATOM     11  C   UNL     1     -12.490   2.821 -12.854  1.00  0.00     0.087 C 
BRANCH  11  12
ATOM     12  C   UNL     1     -11.064   3.258 -13.293  1.00  0.00     0.066 C 
BRANCH  12  13
ATOM     13  C   UNL     1     -10.945   4.776 -13.336  1.00  0.00     0.140 C 
ATOM     14  O   UNL     1     -10.980   5.415 -12.294  1.00  0.00    -0.299 OA
BRANCH  13  15
ATOM     15  C   UNL     1     -10.631   5.478 -14.637  1.00  0.00     0.106 CG0
ATOM     16  G   UNL     1     -11.711   6.423 -15.141  1.00  0.00     0.000 G0
ENDBRANCH  13  15
ENDBRANCH  12  13
BRANCH  12  17
ATOM     17  C   UNL     1      -9.963   2.658 -12.360  1.00  0.00    -0.006 C 
ATOM     18  C   UNL     1      -8.984   1.764 -13.145  1.00  0.00     0.008 C 
ATOM     19  C   UNL     1     -10.561   1.838 -11.201  1.00  0.00     0.008 C 
ENDBRANCH  12  17
ENDBRANCH  11  12
ENDBRANCH   1  11
TORSDOF 1
ENDMDL
MODEL 2
REMARK VINA RESULT:    -3.739      2.475      3.625
REMARK INTER + INTRA:          -5.987
REMARK INTER:                  -5.687
REMARK INTRA:                  -0.300
REMARK UNBOUND:                -0.281
REMARK SMILES CC1=CCC[C@H](C)C(=O)C[C@H](C(C)C)C(=O)C1
REMARK SMILES IDX 8 1 9 2 6 3 7 4 5 5 4 6 3 7 2 8 1 9 10 11 11 12 15 13 16 14
REMARK SMILES IDX 17 15 12 17 13 18 14 19
REMARK H PARENT
REMARK Flexibility Score: 70.00
ROOT
ATOM      1  C   UNL     1     -11.878   5.719 -15.608  1.00  0.00     0.136 C 
ATOM      2  O   UNL     1     -11.635   4.822 -16.403  1.00  0.00    -0.299 OA
ENDROOT
BRANCH   1   3
ATOM      3  C   UNL     1     -12.477   7.010 -16.133  1.00  0.00     0.053 C 
ATOM      4  C   UNL     1     -13.769   6.700 -16.899  1.00  0.00     0.016 C 
BRANCH   3   5
ATOM      5  C   UNL     1     -12.754   8.045 -15.010  1.00  0.00     0.015 C 
BRANCH   5   6
ATOM      6  C   UNL     1     -11.612   9.051 -14.718  1.00  0.00     0.028 C 
BRANCH   6   7
ATOM      7  C   UNL     1     -11.305   9.257 -13.253  1.00  0.00    -0.028 C 
ATOM      8  C   UNL     1     -10.399   8.582 -12.506  1.00  0.00    -0.070 CG0
ATOM      9  C   UNL     1     -10.390   8.855 -11.021  1.00  0.00     0.039 C 
ATOM     10  G   UNL     1      -9.331   7.658 -13.071  1.00  0.00     0.000 G0
ENDBRANCH   6   7
ENDBRANCH   5   6
ENDBRANCH   3   5
ENDBRANCH   1   3
BRANCH   1  11
ATOM     11  C   UNL     1     -11.493   5.504 -14.155  1.00  0.00     0.087 C 
BRANCH  11  12
ATOM     12  C   UNL     1      -9.989   5.246 -13.854  1.00  0.00     0.066 C 
BRANCH  12  13
ATOM     13  C   UNL     1      -9.474   6.194 -12.780  1.00  0.00     0.140 C 
ATOM     14  O   UNL     1      -9.071   5.742 -11.717  1.00  0.00    -0.299 OA
BRANCH  13  15
ATOM     15  C   UNL     1      -9.317   7.667 -13.077  1.00  0.00     0.106 CG0
ATOM     16  G   UNL     1     -10.397   8.566 -12.495  1.00  0.00     0.000 G0
ENDBRANCH  13  15
ENDBRANCH  12  13
BRANCH  12  17
ATOM     17  C   UNL     1      -9.730   3.763 -13.432  1.00  0.00    -0.006 C 
ATOM     18  C   UNL     1      -9.243   2.914 -14.622  1.00  0.00     0.008 C 
ATOM     19  C   UNL     1     -10.984   3.099 -12.831  1.00  0.00     0.008 C 
ENDBRANCH  12  17
ENDBRANCH  11  12
ENDBRANCH   1  11
TORSDOF 1
ENDMDL
MODEL 3
REMARK VINA RESULT:    -3.561      2.276      4.008
REMARK INTER + INTRA:          -5.716
REMARK INTER:                  -5.693
REMARK INTRA:                  -0.023
REMARK UNBOUND:                -0.281
REMARK SMILES CC1=CCC[C@H](C)C(=O)C[C@H](C(C)C)C(=O)C1
REMARK SMILES IDX 8 1 9 2 6 3 7 4 5 5 4 6 3 7 2 8 1 9 10 11 11 12 15 13 16 14
REMARK SMILES IDX 17 15 12 17 13 18 14 19
REMARK H PARENT
REMARK Flexibility Score: 70.00
ROOT
ATOM      1  C   UNL     1     -12.096   6.636 -15.514  1.00  0.00     0.136 C 
ATOM      2  O   UNL     1     -12.183   7.854 -15.578  1.00  0.00    -0.299 OA
ENDROOT
BRANCH   1   3
ATOM      3  C   UNL     1     -13.144   5.796 -16.222  1.00  0.00     0.053 C 
ATOM      4  C   UNL     1     -14.130   6.718 -16.951  1.00  0.00     0.016 C 
BRANCH   3   5
ATOM      5  C   UNL     1     -12.527   4.775 -17.214  1.00  0.00     0.015 C 
BRANCH   5   6
ATOM      6  C   UNL     1     -12.676   3.282 -16.831  1.00  0.00     0.028 C 
BRANCH   6   7
ATOM      7  C   UNL     1     -13.645   3.008 -15.704  1.00  0.00    -0.028 C 
ATOM      8  C   UNL     1     -13.349   2.528 -14.472  1.00  0.00    -0.070 CG0
ATOM      9  C   UNL     1     -14.510   2.179 -13.572  1.00  0.00     0.039 C 
ATOM     10  G   UNL     1     -11.943   2.420 -13.903  1.00  0.00     0.000 G0
ENDBRANCH   6   7
ENDBRANCH   5   6
ENDBRANCH   3   5
ENDBRANCH   1   3
BRANCH   1  11
ATOM     11  C   UNL     1     -10.984   6.046 -14.665  1.00  0.00     0.087 C 
BRANCH  11  12
ATOM     12  C   UNL     1     -11.387   4.958 -13.630  1.00  0.00     0.066 C 
BRANCH  12  13
ATOM     13  C   UNL     1     -11.003   3.567 -14.118  1.00  0.00     0.140 C 
ATOM     14  O   UNL     1      -9.886   3.375 -14.580  1.00  0.00    -0.299 OA
BRANCH  13  15
ATOM     15  C   UNL     1     -11.935   2.399 -13.896  1.00  0.00     0.106 CG0
ATOM     16  G   UNL     1     -13.337   2.570 -14.460  1.00  0.00     0.000 G0
ENDBRANCH  13  15
ENDBRANCH  12  13
BRANCH  12  17
ATOM     17  C   UNL     1     -10.751   5.230 -12.228  1.00  0.00    -0.006 C 
ATOM     18  C   UNL     1     -11.684   4.777 -11.088  1.00  0.00     0.008 C 
ATOM     19  C   UNL     1     -10.404   6.717 -12.023  1.00  0.00     0.008 C 
ENDBRANCH  12  17
ENDBRANCH  11  12
ENDBRANCH   1  11
TORSDOF 1
ENDMDL
MODEL 4
REMARK VINA RESULT:    -3.374     18.487     20.473
REMARK INTER + INTRA:          -5.430
REMARK INTER:                  -5.057
REMARK INTRA:                  -0.373
REMARK UNBOUND:                -0.281
REMARK SMILES CC1=CCC[C@H](C)C(=O)C[C@H](C(C)C)C(=O)C1
REMARK SMILES IDX 8 1 9 2 6 3 7 4 5 5 4 6 3 7 2 8 1 9 10 11 11 12 15 13 16 14
REMARK SMILES IDX 17 15 12 17 13 18 14 19
REMARK H PARENT
REMARK Flexibility Score: 70.00
ROOT
ATOM      1  C   UNL     1     -26.488  10.508 -23.004  1.00  0.00     0.136 C 
ATOM      2  O   UNL     1     -25.268  10.595 -23.043  1.00  0.00    -0.299 OA
ENDROOT
BRANCH   1   3
ATOM      3  C   UNL     1     -27.107   9.269 -22.382  1.00  0.00     0.053 C 
ATOM      4  C   UNL     1     -28.573   9.553 -22.030  1.00  0.00     0.016 C 
BRANCH   3   5
ATOM      5  C   UNL     1     -27.005   8.021 -23.298  1.00  0.00     0.015 C 
BRANCH   5   6
ATOM      6  C   UNL     1     -28.182   7.803 -24.281  1.00  0.00     0.028 C 
BRANCH   6   7
ATOM      7  C   UNL     1     -27.855   8.066 -25.733  1.00  0.00    -0.028 C 
ATOM      8  C   UNL     1     -28.220   9.143 -26.469  1.00  0.00    -0.070 CG0
ATOM      9  C   UNL     1     -27.915   9.101 -27.948  1.00  0.00     0.039 C 
ATOM     10  G   UNL     1     -28.811  10.421 -25.896  1.00  0.00     0.000 G0
ENDBRANCH   6   7
ENDBRANCH   5   6
ENDBRANCH   3   5
ENDBRANCH   1   3
BRANCH   1  11
ATOM     11  C   UNL     1     -27.300  11.616 -23.651  1.00  0.00     0.087 C 
BRANCH  11  12
ATOM     12  C   UNL     1     -26.895  12.038 -25.092  1.00  0.00     0.066 C 
BRANCH  12  13
ATOM     13  C   UNL     1     -27.985  11.685 -26.094  1.00  0.00     0.140 C 
ATOM     14  O   UNL     1     -28.100  12.341 -27.120  1.00  0.00    -0.299 OA
BRANCH  13  15
ATOM     15  C   UNL     1     -28.821  10.440 -25.902  1.00  0.00     0.106 CG0
ATOM     16  G   UNL     1     -28.220   9.162 -26.465  1.00  0.00     0.000 G0
ENDBRANCH  13  15
ENDBRANCH  12  13
BRANCH  12  17
ATOM     17  C   UNL     1     -26.563  13.564 -25.174  1.00  0.00    -0.006 C 
ATOM     18  C   UNL     1     -25.148  13.863 -24.641  1.00  0.00     0.008 C 
ATOM     19  C   UNL     1     -27.577  14.426 -24.398  1.00  0.00     0.008 C 
ENDBRANCH  12  17
ENDBRANCH  11  12
ENDBRANCH   1  11
TORSDOF 1
ENDMDL
MODEL 5
REMARK VINA RESULT:    -3.135      1.973      4.274
REMARK INTER + INTRA:          -5.066
REMARK INTER:                  -4.831
REMARK INTRA:                  -0.234
REMARK UNBOUND:                -0.281
REMARK SMILES CC1=CCC[C@H](C)C(=O)C[C@H](C(C)C)C(=O)C1
REMARK SMILES IDX 8 1 9 2 6 3 7 4 5 5 4 6 3 7 2 8 1 9 10 11 11 12 15 13 16 14
REMARK SMILES IDX 17 15 12 17 13 18 14 19
REMARK H PARENT
REMARK Flexibility Score: 70.00
ROOT
ATOM      1  C   UNL     1     -13.697   2.413 -12.507  1.00  0.00     0.136 C 
ATOM      2  O   UNL     1     -14.824   2.174 -12.920  1.00  0.00    -0.299 OA
ENDROOT
BRANCH   1   3
ATOM      3  C   UNL     1     -13.539   2.907 -11.080  1.00  0.00     0.053 C 
ATOM      4  C   UNL     1     -14.889   2.826 -10.358  1.00  0.00     0.016 C 
BRANCH   3   5
ATOM      5  C   UNL     1     -12.458   2.123 -10.289  1.00  0.00     0.015 C 
BRANCH   5   6
ATOM      6  C   UNL     1     -11.164   2.904  -9.951  1.00  0.00     0.028 C 
BRANCH   6   7
ATOM      7  C   UNL     1     -11.095   4.300 -10.527  1.00  0.00    -0.028 C 
ATOM      8  C   UNL     1     -10.510   4.675 -11.690  1.00  0.00    -0.070 CG0
ATOM      9  C   UNL     1     -10.425   6.156 -11.971  1.00  0.00     0.039 C 
ATOM     10  G   UNL     1     -10.037   3.712 -12.768  1.00  0.00     0.000 G0
ENDBRANCH   6   7
ENDBRANCH   5   6
ENDBRANCH   3   5
ENDBRANCH   1   3
BRANCH   1  11
ATOM     11  C   UNL     1     -12.539   2.269 -13.477  1.00  0.00     0.087 C 
BRANCH  11  12
ATOM     12  C   UNL     1     -12.166   3.520 -14.321  1.00  0.00     0.066 C 
BRANCH  12  13
ATOM     13  C   UNL     1     -10.705   3.901 -14.121  1.00  0.00     0.140 C 
ATOM     14  O   UNL     1     -10.101   4.476 -15.017  1.00  0.00    -0.299 OA
BRANCH  13  15
ATOM     15  C   UNL     1     -10.046   3.709 -12.775  1.00  0.00     0.106 CG0
ATOM     16  G   UNL     1     -10.502   4.669 -11.687  1.00  0.00     0.000 G0
ENDBRANCH  13  15
ENDBRANCH  12  13
BRANCH  12  17
ATOM     17  C   UNL     1     -12.461   3.301 -15.841  1.00  0.00    -0.006 C 
ATOM     18  C   UNL     1     -13.239   4.488 -16.441  1.00  0.00     0.008 C 
ATOM     19  C   UNL     1     -13.255   2.007 -16.102  1.00  0.00     0.008 C 
ENDBRANCH  12  17
ENDBRANCH  11  12
ENDBRANCH   1  11
TORSDOF 1
ENDMDL
MODEL 6
REMARK VINA RESULT:    -3.135      3.453      5.978
REMARK INTER + INTRA:          -5.065
REMARK INTER:                  -4.707
REMARK INTRA:                  -0.358
REMARK UNBOUND:                -0.281
REMARK SMILES CC1=CCC[C@H](C)C(=O)C[C@H](C(C)C)C(=O)C1
REMARK SMILES IDX 8 1 9 2 6 3 7 4 5 5 4 6 3 7 2 8 1 9 10 11 11 12 15 13 16 14
REMARK SMILES IDX 17 15 12 17 13 18 14 19
REMARK H PARENT
REMARK Flexibility Score: 70.00
ROOT
ATOM      1  C   UNL     1     -12.247   2.966 -13.084  1.00  0.00     0.136 C 
ATOM      2  O   UNL     1     -12.840   2.440 -14.016  1.00  0.00    -0.299 OA
ENDROOT
BRANCH   1   3
ATOM      3  C   UNL     1     -10.833   3.468 -13.316  1.00  0.00     0.053 C 
ATOM      4  C   UNL     1     -10.494   4.540 -12.273  1.00  0.00     0.016 C 
BRANCH   3   5
ATOM      5  C   UNL     1      -9.778   2.331 -13.281  1.00  0.00     0.015 C 
BRANCH   5   6
ATOM      6  C   UNL     1      -9.228   1.958 -11.883  1.00  0.00     0.028 C 
BRANCH   6   7
ATOM      7  C   UNL     1      -9.665   0.607 -11.366  1.00  0.00    -0.028 C 
ATOM      8  C   UNL     1     -10.560   0.361 -10.378  1.00  0.00    -0.070 CG0
ATOM      9  C   UNL     1     -10.708  -1.071  -9.925  1.00  0.00     0.039 C 
ATOM     10  G   UNL     1     -11.491   1.403  -9.778  1.00  0.00     0.000 G0
ENDBRANCH   6   7
ENDBRANCH   5   6
ENDBRANCH   3   5
ENDBRANCH   1   3
BRANCH   1  11
ATOM     11  C   UNL     1     -12.943   3.014 -11.735  1.00  0.00     0.087 C 
BRANCH  11  12
ATOM     12  C   UNL     1     -13.647   1.712 -11.258  1.00  0.00     0.066 C 
BRANCH  12  13
ATOM     13  C   UNL     1     -12.978   1.152 -10.010  1.00  0.00     0.140 C 
ATOM     14  O   UNL     1     -13.605   0.406  -9.271  1.00  0.00    -0.299 OA
BRANCH  13  15
ATOM     15  C   UNL     1     -11.506   1.390  -9.764  1.00  0.00     0.106 CG0
ATOM     16  G   UNL     1     -10.569   0.374 -10.397  1.00  0.00     0.000 G0
ENDBRANCH  13  15
ENDBRANCH  12  13
BRANCH  12  17
ATOM     17  C   UNL     1     -15.171   1.943 -10.995  1.00  0.00    -0.006 C 
ATOM     18  C   UNL     1     -15.995   1.802 -12.289  1.00  0.00     0.008 C 
ATOM     19  C   UNL     1     -15.454   3.325 -10.376  1.00  0.00     0.008 C 
ENDBRANCH  12  17
ENDBRANCH  11  12
ENDBRANCH   1  11
TORSDOF 1
ENDMDL
MODEL 7
REMARK VINA RESULT:    -3.133      3.177      5.239
REMARK INTER + INTRA:          -5.062
REMARK INTER:                  -4.767
REMARK INTRA:                  -0.295
REMARK UNBOUND:                -0.281
REMARK SMILES CC1=CCC[C@H](C)C(=O)C[C@H](C(C)C)C(=O)C1
REMARK SMILES IDX 8 1 9 2 6 3 7 4 5 5 4 6 3 7 2 8 1 9 10 11 11 12 15 13 16 14
REMARK SMILES IDX 17 15 12 17 13 18 14 19
REMARK H PARENT
REMARK Flexibility Score: 70.00
ROOT
ATOM      1  C   UNL     1     -16.083   2.913 -14.003  1.00  0.00     0.136 C 
ATOM      2  O   UNL     1     -16.276   3.456 -15.082  1.00  0.00    -0.299 OA
ENDROOT
BRANCH   1   3
ATOM      3  C   UNL     1     -17.098   3.124 -12.894  1.00  0.00     0.053 C 
ATOM      4  C   UNL     1     -18.507   2.849 -13.433  1.00  0.00     0.016 C 
BRANCH   3   5
ATOM      5  C   UNL     1     -16.817   2.243 -11.648  1.00  0.00     0.015 C 
BRANCH   5   6
ATOM      6  C   UNL     1     -15.973   2.901 -10.529  1.00  0.00     0.028 C 
BRANCH   6   7
ATOM      7  C   UNL     1     -14.830   2.057 -10.014  1.00  0.00    -0.028 C 
ATOM      8  C   UNL     1     -13.547   2.066 -10.449  1.00  0.00    -0.070 CG0
ATOM      9  C   UNL     1     -12.623   1.011  -9.891  1.00  0.00     0.039 C 
ATOM     10  G   UNL     1     -12.956   3.122 -11.370  1.00  0.00     0.000 G0
ENDBRANCH   6   7
ENDBRANCH   5   6
ENDBRANCH   3   5
ENDBRANCH   1   3
BRANCH   1  11
ATOM     11  C   UNL     1     -14.798   2.124 -13.824  1.00  0.00     0.087 C 
BRANCH  11  12
ATOM     12  C   UNL     1     -13.463   2.912 -13.949  1.00  0.00     0.066 C 
BRANCH  12  13
ATOM     13  C   UNL     1     -12.558   2.651 -12.753  1.00  0.00     0.140 C 
ATOM     14  O   UNL     1     -11.451   2.159 -12.927  1.00  0.00    -0.299 OA
BRANCH  13  15
ATOM     15  C   UNL     1     -12.957   3.133 -11.377  1.00  0.00     0.106 CG0
ATOM     16  G   UNL     1     -13.540   2.069 -10.460  1.00  0.00     0.000 G0
ENDBRANCH  13  15
ENDBRANCH  12  13
BRANCH  12  17
ATOM     17  C   UNL     1     -12.712   2.569 -15.277  1.00  0.00    -0.006 C 
ATOM     18  C   UNL     1     -12.513   3.822 -16.152  1.00  0.00     0.008 C 
ATOM     19  C   UNL     1     -13.447   1.498 -16.105  1.00  0.00     0.008 C 
ENDBRANCH  12  17
ENDBRANCH  11  12
ENDBRANCH   1  11
TORSDOF 1
ENDMDL
MODEL 8
REMARK VINA RESULT:    -3.075      3.406      6.043
REMARK INTER + INTRA:          -4.973
REMARK INTER:                  -4.663
REMARK INTRA:                  -0.310
REMARK UNBOUND:                -0.281
REMARK SMILES CC1=CCC[C@H](C)C(=O)C[C@H](C(C)C)C(=O)C1
REMARK SMILES IDX 8 1 9 2 6 3 7 4 5 5 4 6 3 7 2 8 1 9 10 11 11 12 15 13 16 14
REMARK SMILES IDX 17 15 12 17 13 18 14 19
REMARK H PARENT
REMARK Flexibility Score: 70.00
ROOT
ATOM      1  C   UNL     1     -13.421   3.249 -10.869  1.00  0.00     0.136 C 
ATOM      2  O   UNL     1     -12.962   4.309 -10.468  1.00  0.00    -0.299 OA
ENDROOT
BRANCH   1   3
ATOM      3  C   UNL     1     -14.678   2.707 -10.211  1.00  0.00     0.053 C 
ATOM      4  C   UNL     1     -15.818   2.673 -11.237  1.00  0.00     0.016 C 
BRANCH   3   5
ATOM      5  C   UNL     1     -14.472   1.301  -9.589  1.00  0.00     0.015 C 
BRANCH   5   6
ATOM      6  C   UNL     1     -13.231   1.138  -8.677  1.00  0.00     0.028 C 
BRANCH   6   7
ATOM      7  C   UNL     1     -12.343  -0.037  -9.014  1.00  0.00    -0.028 C 
ATOM      8  C   UNL     1     -11.178  -0.008  -9.705  1.00  0.00    -0.070 CG0
ATOM      9  C   UNL     1     -10.554  -1.336 -10.060  1.00  0.00     0.039 C 
ATOM     10  G   UNL     1     -10.410   1.259 -10.049  1.00  0.00     0.000 G0
ENDBRANCH   6   7
ENDBRANCH   5   6
ENDBRANCH   3   5
ENDBRANCH   1   3
BRANCH   1  11
ATOM     11  C   UNL     1     -12.658   2.509 -11.953  1.00  0.00     0.087 C 
BRANCH  11  12
ATOM     12  C   UNL     1     -11.132   2.789 -12.057  1.00  0.00     0.066 C 
BRANCH  12  13
ATOM     13  C   UNL     1     -10.321   1.622 -11.509  1.00  0.00     0.140 C 
ATOM     14  O   UNL     1      -9.516   1.051 -12.232  1.00  0.00    -0.299 OA
BRANCH  13  15
ATOM     15  C   UNL     1     -10.395   1.267 -10.042  1.00  0.00     0.106 CG0
ATOM     16  G   UNL     1     -11.180   0.005  -9.718  1.00  0.00     0.000 G0
ENDBRANCH  13  15
ENDBRANCH  12  13
BRANCH  12  17
ATOM     17  C   UNL     1     -10.700   3.099 -13.528  1.00  0.00    -0.006 C 
ATOM     18  C   UNL     1      -9.837   4.373 -13.605  1.00  0.00     0.008 C 
ATOM     19  C   UNL     1     -11.909   3.261 -14.469  1.00  0.00     0.008 C 
ENDBRANCH  12  17
ENDBRANCH  11  12
ENDBRANCH   1  11
TORSDOF 1
ENDMDL
MODEL 9
REMARK VINA RESULT:    -3.064      2.769      4.709
REMARK INTER + INTRA:          -4.957
REMARK INTER:                  -4.751
REMARK INTRA:                  -0.206
REMARK UNBOUND:                -0.281
REMARK SMILES CC1=CCC[C@H](C)C(=O)C[C@H](C(C)C)C(=O)C1
REMARK SMILES IDX 8 1 9 2 6 3 7 4 5 5 4 6 3 7 2 8 1 9 10 11 11 12 15 13 16 14
REMARK SMILES IDX 17 15 12 17 13 18 14 19
REMARK H PARENT
REMARK Flexibility Score: 70.00
ROOT
ATOM      1  C   UNL     1     -13.596   2.497 -13.750  1.00  0.00     0.136 C 
ATOM      2  O   UNL     1     -14.713   2.125 -14.082  1.00  0.00    -0.299 OA
ENDROOT
BRANCH   1   3
ATOM      3  C   UNL     1     -12.489   2.483 -14.788  1.00  0.00     0.053 C 
ATOM      4  C   UNL     1     -13.000   3.116 -16.089  1.00  0.00     0.016 C 
BRANCH   3   5
ATOM      5  C   UNL     1     -11.204   3.207 -14.306  1.00  0.00     0.015 C 
BRANCH   5   6
ATOM      6  C   UNL     1     -10.073   2.296 -13.768  1.00  0.00     0.028 C 
BRANCH   6   7
ATOM      7  C   UNL     1      -9.483   2.727 -12.446  1.00  0.00    -0.028 C 
ATOM      8  C   UNL     1      -9.907   2.374 -11.209  1.00  0.00    -0.070 CG0
ATOM      9  C   UNL     1      -9.258   3.067 -10.034  1.00  0.00     0.039 C 
ATOM     10  G   UNL     1     -10.903   1.261 -10.923  1.00  0.00     0.000 G0
ENDBRANCH   6   7
ENDBRANCH   5   6
ENDBRANCH   3   5
ENDBRANCH   1   3
BRANCH   1  11
ATOM     11  C   UNL     1     -13.377   2.879 -12.297  1.00  0.00     0.087 C 
BRANCH  11  12
ATOM     12  C   UNL     1     -13.479   1.738 -11.245  1.00  0.00     0.066 C 
BRANCH  12  13
ATOM     13  C   UNL     1     -12.246   1.702 -10.353  1.00  0.00     0.140 C 
ATOM     14  O   UNL     1     -12.359   1.918  -9.154  1.00  0.00    -0.299 OA
BRANCH  13  15
ATOM     15  C   UNL     1     -10.915   1.254 -10.913  1.00  0.00     0.106 CG0
ATOM     16  G   UNL     1      -9.925   2.370 -11.206  1.00  0.00     0.000 G0
ENDBRANCH  13  15
ENDBRANCH  12  13
BRANCH  12  17
ATOM     17  C   UNL     1     -14.770   1.872 -10.372  1.00  0.00    -0.006 C 
ATOM     18  C   UNL     1     -15.436   0.503 -10.136  1.00  0.00     0.008 C 
ATOM     19  C   UNL     1     -15.805   2.825 -11.000  1.00  0.00     0.008 C 
ENDBRANCH  12  17
ENDBRANCH  11  12
ENDBRANCH   1  11
TORSDOF 1
ENDMDL
