MODEL 1
REMARK VINA RESULT:    -3.430      0.000      0.000
REMARK INTER + INTRA:          -5.419
REMARK INTER:                  -4.633
REMARK INTRA:                  -0.786
REMARK UNBOUND:                -0.786
REMARK SMILES CC(=O)CCC=C(C)CCC=C(C)C
REMARK SMILES IDX 7 1 6 2 8 3 9 4 10 5 11 6 13 7 12 8 14 9 5 10 4 11 2 12 3 13
REMARK SMILES IDX 1 14
REMARK H PARENT
REMARK Flexibility Score: inf
ROOT
ATOM      1  C   UNL     1      19.443  38.228  89.431  1.00  0.00    -0.077 C 
ATOM      2  C   UNL     1      19.026  38.714  90.620  1.00  0.00    -0.028 C 
ATOM      3  C   UNL     1      18.932  36.912  88.894  1.00  0.00     0.039 C 
ENDROOT
BRANCH   1   4
ATOM      4  C   UNL     1      20.448  39.019  88.618  1.00  0.00     0.034 C 
BRANCH   4   5
ATOM      5  C   UNL     1      21.441  39.776  89.512  1.00  0.00     0.032 C 
BRANCH   5   6
ATOM      6  C   UNL     1      21.667  41.188  89.026  1.00  0.00    -0.028 C 
ATOM      7  C   UNL     1      20.451  42.228  90.952  1.00  0.00     0.039 C 
ATOM      8  C   UNL     1      21.204  42.296  89.645  1.00  0.00    -0.080 C 
ATOM      9  C   UNL     1      21.470  43.636  89.009  1.00  0.00     0.039 C 
ENDBRANCH   5   6
ENDBRANCH   4   5
ENDBRANCH   1   4
BRANCH   2  10
ATOM     10  C   UNL     1      18.034  37.992  91.502  1.00  0.00     0.035 C 
BRANCH  10  11
ATOM     11  C   UNL     1      16.719  38.775  91.613  1.00  0.00     0.079 C 
BRANCH  11  12
ATOM     12  C   UNL     1      15.516  38.121  90.964  1.00  0.00     0.130 C 
ATOM     13  O   UNL     1      15.661  37.648  89.847  1.00  0.00    -0.300 OA
ATOM     14  C   UNL     1      14.152  38.015  91.597  1.00  0.00     0.087 C 
ENDBRANCH  11  12
ENDBRANCH  10  11
ENDBRANCH   2  10
TORSDOF 6
ENDMDL
MODEL 2
REMARK VINA RESULT:    -3.394      2.852      6.205
REMARK INTER + INTRA:          -5.371
REMARK INTER:                  -4.515
REMARK INTRA:                  -0.856
REMARK UNBOUND:                -0.786
REMARK SMILES CC(=O)CCC=C(C)CCC=C(C)C
REMARK SMILES IDX 7 1 6 2 8 3 9 4 10 5 11 6 13 7 12 8 14 9 5 10 4 11 2 12 3 13
REMARK SMILES IDX 1 14
REMARK H PARENT
REMARK Flexibility Score: inf
ROOT
ATOM      1  C   UNL     1      20.946  42.866  92.414  1.00  0.00    -0.077 C 
ATOM      2  C   UNL     1      20.463  42.368  91.256  1.00  0.00    -0.028 C 
ATOM      3  C   UNL     1      22.255  43.618  92.463  1.00  0.00     0.039 C 
ENDROOT
BRANCH   1   4
ATOM      4  C   UNL     1      20.160  42.666  93.694  1.00  0.00     0.034 C 
BRANCH   4   5
ATOM      5  C   UNL     1      20.212  41.208  94.177  1.00  0.00     0.032 C 
BRANCH   5   6
ATOM      6  C   UNL     1      18.851  40.711  94.601  1.00  0.00    -0.028 C 
ATOM      7  C   UNL     1      18.454  39.459  92.468  1.00  0.00     0.039 C 
ATOM      8  C   UNL     1      18.039  39.950  93.834  1.00  0.00    -0.080 C 
ATOM      9  C   UNL     1      16.685  39.574  94.379  1.00  0.00     0.039 C 
ENDBRANCH   5   6
ENDBRANCH   4   5
ENDBRANCH   1   4
BRANCH   2  10
ATOM     10  C   UNL     1      21.181  42.512  89.935  1.00  0.00     0.035 C 
BRANCH  10  11
ATOM     11  C   UNL     1      21.902  41.213  89.551  1.00  0.00     0.079 C 
BRANCH  11  12
ATOM     12  C   UNL     1      21.146  40.304  88.602  1.00  0.00     0.130 C 
ATOM     13  O   UNL     1      21.250  40.524  87.404  1.00  0.00    -0.300 OA
ATOM     14  C   UNL     1      20.276  39.152  89.029  1.00  0.00     0.087 C 
ENDBRANCH  11  12
ENDBRANCH  10  11
ENDBRANCH   2  10
TORSDOF 6
ENDMDL
MODEL 3
REMARK VINA RESULT:    -3.387      4.027      6.459
REMARK INTER + INTRA:          -5.360
REMARK INTER:                  -4.562
REMARK INTRA:                  -0.798
REMARK UNBOUND:                -0.786
REMARK SMILES CC(=O)CCC=C(C)CCC=C(C)C
REMARK SMILES IDX 7 1 6 2 8 3 9 4 10 5 11 6 13 7 12 8 14 9 5 10 4 11 2 12 3 13
REMARK SMILES IDX 1 14
REMARK H PARENT
REMARK Flexibility Score: inf
ROOT
ATOM      1  C   UNL     1      20.183  42.207  93.781  1.00  0.00    -0.077 C 
ATOM      2  C   UNL     1      20.631  42.490  92.539  1.00  0.00    -0.028 C 
ATOM      3  C   UNL     1      19.204  41.082  94.028  1.00  0.00     0.039 C 
ENDROOT
BRANCH   1   4
ATOM      4  C   UNL     1      20.670  43.035  94.953  1.00  0.00     0.034 C 
BRANCH   4   5
ATOM      5  C   UNL     1      22.145  43.433  94.800  1.00  0.00     0.032 C 
BRANCH   5   6
ATOM      6  C   UNL     1      22.337  44.926  94.926  1.00  0.00    -0.028 C 
ATOM      7  C   UNL     1      22.892  45.231  92.502  1.00  0.00     0.039 C 
ATOM      8  C   UNL     1      22.701  45.741  93.911  1.00  0.00    -0.080 C 
ATOM      9  C   UNL     1      22.902  47.205  94.205  1.00  0.00     0.039 C 
ENDBRANCH   5   6
ENDBRANCH   4   5
ENDBRANCH   1   4
BRANCH   2  10
ATOM     10  C   UNL     1      20.195  41.725  91.312  1.00  0.00     0.035 C 
BRANCH  10  11
ATOM     11  C   UNL     1      21.402  41.310  90.460  1.00  0.00     0.079 C 
BRANCH  11  12
ATOM     12  C   UNL     1      21.515  41.996  89.113  1.00  0.00     0.130 C 
ATOM     13  O   UNL     1      21.653  41.289  88.127  1.00  0.00    -0.300 OA
ATOM     14  C   UNL     1      21.471  43.487  88.904  1.00  0.00     0.087 C 
ENDBRANCH  11  12
ENDBRANCH  10  11
ENDBRANCH   2  10
TORSDOF 6
ENDMDL
MODEL 4
REMARK VINA RESULT:    -3.384      1.709      2.188
REMARK INTER + INTRA:          -5.357
REMARK INTER:                  -4.528
REMARK INTRA:                  -0.828
REMARK UNBOUND:                -0.786
REMARK SMILES CC(=O)CCC=C(C)CCC=C(C)C
REMARK SMILES IDX 7 1 6 2 8 3 9 4 10 5 11 6 13 7 12 8 14 9 5 10 4 11 2 12 3 13
REMARK SMILES IDX 1 14
REMARK H PARENT
REMARK Flexibility Score: inf
ROOT
ATOM      1  C   UNL     1      19.451  38.302  89.498  1.00  0.00    -0.077 C 
ATOM      2  C   UNL     1      19.236  38.728  90.761  1.00  0.00    -0.028 C 
ATOM      3  C   UNL     1      18.749  37.082  88.948  1.00  0.00     0.039 C 
ENDROOT
BRANCH   1   4
ATOM      4  C   UNL     1      20.418  39.061  88.612  1.00  0.00     0.034 C 
BRANCH   4   5
ATOM      5  C   UNL     1      21.500  39.782  89.430  1.00  0.00     0.032 C 
BRANCH   5   6
ATOM      6  C   UNL     1      21.699  41.204  88.963  1.00  0.00    -0.028 C 
ATOM      7  C   UNL     1      20.514  42.199  90.933  1.00  0.00     0.039 C 
ATOM      8  C   UNL     1      21.238  42.296  89.610  1.00  0.00    -0.080 C 
ATOM      9  C   UNL     1      21.474  43.649  88.991  1.00  0.00     0.039 C 
ENDBRANCH   5   6
ENDBRANCH   4   5
ENDBRANCH   1   4
BRANCH   2  10
ATOM     10  C   UNL     1      18.297  38.031  91.717  1.00  0.00     0.035 C 
BRANCH  10  11
ATOM     11  C   UNL     1      17.168  38.968  92.167  1.00  0.00     0.079 C 
BRANCH  11  12
ATOM     12  C   UNL     1      17.319  39.550  93.558  1.00  0.00     0.130 C 
ATOM     13  O   UNL     1      16.404  39.376  94.348  1.00  0.00    -0.300 OA
ATOM     14  C   UNL     1      18.517  40.329  94.036  1.00  0.00     0.087 C 
ENDBRANCH  11  12
ENDBRANCH  10  11
ENDBRANCH   2  10
TORSDOF 6
ENDMDL
MODEL 5
REMARK VINA RESULT:    -3.352      2.586      5.870
REMARK INTER + INTRA:          -5.314
REMARK INTER:                  -4.480
REMARK INTRA:                  -0.834
REMARK UNBOUND:                -0.786
REMARK SMILES CC(=O)CCC=C(C)CCC=C(C)C
REMARK SMILES IDX 7 1 6 2 8 3 9 4 10 5 11 6 13 7 12 8 14 9 5 10 4 11 2 12 3 13
REMARK SMILES IDX 1 14
REMARK H PARENT
REMARK Flexibility Score: inf
ROOT
ATOM      1  C   UNL     1      20.220  39.043  89.327  1.00  0.00    -0.077 C 
ATOM      2  C   UNL     1      20.286  39.459  90.610  1.00  0.00    -0.028 C 
ATOM      3  C   UNL     1      21.061  39.683  88.248  1.00  0.00     0.039 C 
ENDROOT
BRANCH   1   4
ATOM      4  C   UNL     1      19.282  37.911  88.960  1.00  0.00     0.034 C 
BRANCH   4   5
ATOM      5  C   UNL     1      18.645  37.269  90.202  1.00  0.00     0.032 C 
BRANCH   5   6
ATOM      6  C   UNL     1      17.139  37.379  90.179  1.00  0.00    -0.028 C 
ATOM      7  C   UNL     1      17.048  38.896  92.170  1.00  0.00     0.039 C 
ATOM      8  C   UNL     1      16.407  38.080  91.072  1.00  0.00    -0.080 C 
ATOM      9  C   UNL     1      14.906  38.053  90.947  1.00  0.00     0.039 C 
ENDBRANCH   5   6
ENDBRANCH   4   5
ENDBRANCH   1   4
BRANCH   2  10
ATOM     10  C   UNL     1      21.185  40.584  91.066  1.00  0.00     0.035 C 
BRANCH  10  11
ATOM     11  C   UNL     1      20.482  41.942  90.937  1.00  0.00     0.079 C 
BRANCH  11  12
ATOM     12  C   UNL     1      21.328  43.060  90.361  1.00  0.00     0.130 C 
ATOM     13  O   UNL     1      22.002  43.720  91.138  1.00  0.00    -0.300 OA
ATOM     14  C   UNL     1      21.395  43.418  88.899  1.00  0.00     0.087 C 
ENDBRANCH  11  12
ENDBRANCH  10  11
ENDBRANCH   2  10
TORSDOF 6
ENDMDL
MODEL 6
REMARK VINA RESULT:    -3.348      2.483      4.703
REMARK INTER + INTRA:          -5.308
REMARK INTER:                  -4.076
REMARK INTRA:                  -1.232
REMARK UNBOUND:                -0.786
REMARK SMILES CC(=O)CCC=C(C)CCC=C(C)C
REMARK SMILES IDX 7 1 6 2 8 3 9 4 10 5 11 6 13 7 12 8 14 9 5 10 4 11 2 12 3 13
REMARK SMILES IDX 1 14
REMARK H PARENT
REMARK Flexibility Score: inf
ROOT
ATOM      1  C   UNL     1      21.526  43.020  90.816  1.00  0.00    -0.077 C 
ATOM      2  C   UNL     1      20.445  42.536  91.466  1.00  0.00    -0.028 C 
ATOM      3  C   UNL     1      22.720  43.560  91.568  1.00  0.00     0.039 C 
ENDROOT
BRANCH   1   4
ATOM      4  C   UNL     1      21.540  43.026  89.301  1.00  0.00     0.034 C 
BRANCH   4   5
ATOM      5  C   UNL     1      22.202  41.763  88.730  1.00  0.00     0.032 C 
BRANCH   5   6
ATOM      6  C   UNL     1      21.193  40.667  88.481  1.00  0.00    -0.028 C 
ATOM      7  C   UNL     1      21.883  39.340  90.490  1.00  0.00     0.039 C 
ATOM      8  C   UNL     1      21.058  39.560  89.244  1.00  0.00    -0.080 C 
ATOM      9  C   UNL     1      20.037  38.529  88.838  1.00  0.00     0.039 C 
ENDBRANCH   5   6
ENDBRANCH   4   5
ENDBRANCH   1   4
BRANCH   2  10
ATOM     10  C   UNL     1      20.338  42.498  92.972  1.00  0.00     0.035 C 
BRANCH  10  11
ATOM     11  C   UNL     1      20.287  41.054  93.488  1.00  0.00     0.079 C 
BRANCH  11  12
ATOM     12  C   UNL     1      18.944  40.364  93.360  1.00  0.00     0.130 C 
ATOM     13  O   UNL     1      18.123  40.552  94.244  1.00  0.00    -0.300 OA
ATOM     14  C   UNL     1      18.550  39.460  92.220  1.00  0.00     0.087 C 
ENDBRANCH  11  12
ENDBRANCH  10  11
ENDBRANCH   2  10
TORSDOF 6
ENDMDL
MODEL 7
REMARK VINA RESULT:    -3.343      2.860      4.521
REMARK INTER + INTRA:          -5.301
REMARK INTER:                  -4.469
REMARK INTRA:                  -0.832
REMARK UNBOUND:                -0.786
REMARK SMILES CC(=O)CCC=C(C)CCC=C(C)C
REMARK SMILES IDX 7 1 6 2 8 3 9 4 10 5 11 6 13 7 12 8 14 9 5 10 4 11 2 12 3 13
REMARK SMILES IDX 1 14
REMARK H PARENT
REMARK Flexibility Score: inf
ROOT
ATOM      1  C   UNL     1      20.391  42.345  94.538  1.00  0.00    -0.077 C 
ATOM      2  C   UNL     1      19.395  41.585  94.031  1.00  0.00    -0.028 C 
ATOM      3  C   UNL     1      20.842  42.197  95.972  1.00  0.00     0.039 C 
ENDROOT
BRANCH   1   4
ATOM      4  C   UNL     1      21.068  43.369  93.650  1.00  0.00     0.034 C 
BRANCH   4   5
ATOM      5  C   UNL     1      22.076  42.720  92.690  1.00  0.00     0.032 C 
BRANCH   5   6
ATOM      6  C   UNL     1      21.974  43.297  91.298  1.00  0.00    -0.028 C 
ATOM      7  C   UNL     1      20.510  41.448  90.454  1.00  0.00     0.039 C 
ATOM      8  C   UNL     1      21.300  42.723  90.278  1.00  0.00    -0.080 C 
ATOM      9  C   UNL     1      21.333  43.396  88.930  1.00  0.00     0.039 C 
ENDBRANCH   5   6
ENDBRANCH   4   5
ENDBRANCH   1   4
BRANCH   2  10
ATOM     10  C   UNL     1      18.658  40.546  94.842  1.00  0.00     0.035 C 
BRANCH  10  11
ATOM     11  C   UNL     1      18.519  39.231  94.063  1.00  0.00     0.079 C 
BRANCH  11  12
ATOM     12  C   UNL     1      17.386  39.187  93.058  1.00  0.00     0.130 C 
ATOM     13  O   UNL     1      16.244  39.237  93.489  1.00  0.00    -0.300 OA
ATOM     14  C   UNL     1      17.567  39.083  91.566  1.00  0.00     0.087 C 
ENDBRANCH  11  12
ENDBRANCH  10  11
ENDBRANCH   2  10
TORSDOF 6
ENDMDL
MODEL 8
REMARK VINA RESULT:    -3.301      2.430      3.957
REMARK INTER + INTRA:          -5.245
REMARK INTER:                  -3.956
REMARK INTRA:                  -1.288
REMARK UNBOUND:                -0.786
REMARK SMILES CC(=O)CCC=C(C)CCC=C(C)C
REMARK SMILES IDX 7 1 6 2 8 3 9 4 10 5 11 6 13 7 12 8 14 9 5 10 4 11 2 12 3 13
REMARK SMILES IDX 1 14
REMARK H PARENT
REMARK Flexibility Score: inf
ROOT
ATOM      1  C   UNL     1      20.899  41.284  90.327  1.00  0.00    -0.077 C 
ATOM      2  C   UNL     1      19.724  40.840  90.824  1.00  0.00    -0.028 C 
ATOM      3  C   UNL     1      21.928  40.329  89.768  1.00  0.00     0.039 C 
ENDROOT
BRANCH   1   4
ATOM      4  C   UNL     1      21.194  42.770  90.332  1.00  0.00     0.034 C 
BRANCH   4   5
ATOM      5  C   UNL     1      22.158  43.160  91.462  1.00  0.00     0.032 C 
BRANCH   5   6
ATOM      6  C   UNL     1      21.425  43.426  92.755  1.00  0.00    -0.028 C 
ATOM      7  C   UNL     1      22.056  41.223  93.766  1.00  0.00     0.039 C 
ATOM      8  C   UNL     1      21.345  42.556  93.785  1.00  0.00    -0.080 C 
ATOM      9  C   UNL     1      20.532  42.947  94.993  1.00  0.00     0.039 C 
ENDBRANCH   5   6
ENDBRANCH   4   5
ENDBRANCH   1   4
BRANCH   2  10
ATOM     10  C   UNL     1      19.348  39.378  90.868  1.00  0.00     0.035 C 
BRANCH  10  11
ATOM     11  C   UNL     1      19.208  38.885  92.315  1.00  0.00     0.079 C 
BRANCH  11  12
ATOM     12  C   UNL     1      18.004  39.412  93.069  1.00  0.00     0.130 C 
ATOM     13  O   UNL     1      16.897  39.144  92.628  1.00  0.00    -0.300 OA
ATOM     14  C   UNL     1      18.074  40.245  94.322  1.00  0.00     0.087 C 
ENDBRANCH  11  12
ENDBRANCH  10  11
ENDBRANCH   2  10
TORSDOF 6
ENDMDL
MODEL 9
REMARK VINA RESULT:    -3.212      3.430      6.019
REMARK INTER + INTRA:          -5.124
REMARK INTER:                  -4.269
REMARK INTRA:                  -0.855
REMARK UNBOUND:                -0.786
REMARK SMILES CC(=O)CCC=C(C)CCC=C(C)C
REMARK SMILES IDX 7 1 6 2 8 3 9 4 10 5 11 6 13 7 12 8 14 9 5 10 4 11 2 12 3 13
REMARK SMILES IDX 1 14
REMARK H PARENT
REMARK Flexibility Score: inf
ROOT
ATOM      1  C   UNL     1      21.902  42.495  89.397  1.00  0.00    -0.077 C 
ATOM      2  C   UNL     1      22.393  42.451  90.655  1.00  0.00    -0.028 C 
ATOM      3  C   UNL     1      21.267  43.749  88.843  1.00  0.00     0.039 C 
ENDROOT
BRANCH   1   4
ATOM      4  C   UNL     1      21.987  41.260  88.524  1.00  0.00     0.034 C 
BRANCH   4   5
ATOM      5  C   UNL     1      22.123  39.976  89.356  1.00  0.00     0.032 C 
BRANCH   5   6
ATOM      6  C   UNL     1      21.068  38.959  88.991  1.00  0.00    -0.028 C 
ATOM      7  C   UNL     1      19.425  39.801  90.684  1.00  0.00     0.039 C 
ATOM      8  C   UNL     1      19.866  38.849  89.597  1.00  0.00    -0.080 C 
ATOM      9  C   UNL     1      18.938  37.748  89.153  1.00  0.00     0.039 C 
ENDBRANCH   5   6
ENDBRANCH   4   5
ENDBRANCH   1   4
BRANCH   2  10
ATOM     10  C   UNL     1      22.345  43.629  91.599  1.00  0.00     0.035 C 
BRANCH  10  11
ATOM     11  C   UNL     1      22.572  43.185  93.050  1.00  0.00     0.079 C 
BRANCH  11  12
ATOM     12  C   UNL     1      21.339  43.185  93.932  1.00  0.00     0.130 C 
ATOM     13  O   UNL     1      21.431  43.700  95.036  1.00  0.00    -0.300 OA
ATOM     14  C   UNL     1      20.008  42.594  93.545  1.00  0.00     0.087 C 
ENDBRANCH  11  12
ENDBRANCH  10  11
ENDBRANCH   2  10
TORSDOF 6
ENDMDL
