MODEL 1
REMARK VINA RESULT:    -2.006      0.000      0.000
REMARK INTER + INTRA:          -3.695
REMARK INTER:                  -3.413
REMARK INTRA:                  -0.282
REMARK UNBOUND:                -0.282
REMARK SMILES CCCCCCCCCCCCCC(=O)[O-]
REMARK SMILES IDX 8 1 9 2 10 3 11 4 12 5 13 6 14 7 15 8 16 9 7 10 6 11 5 12
REMARK SMILES IDX 4 13 3 14 2 15 1 16
REMARK H PARENT
REMARK Flexibility Score: inf
ROOT
ATOM      1  C   UNL     1     -12.398  57.212 -10.125  1.00  0.00     0.000 C 
ENDROOT
BRANCH   1   2
ATOM      2  C   UNL     1     -13.321  58.436 -10.046  1.00  0.00     0.000 C 
BRANCH   2   3
ATOM      3  C   UNL     1     -12.555  59.769 -10.124  1.00  0.00     0.000 C 
BRANCH   3   4
ATOM      4  C   UNL     1     -12.806  60.738  -8.952  1.00  0.00     0.000 C 
BRANCH   4   5
ATOM      5  C   UNL     1     -12.564  62.225  -9.270  1.00  0.00     0.006 C 
BRANCH   5   6
ATOM      6  C   UNL     1     -13.296  63.168  -8.310  1.00  0.00     0.053 C 
BRANCH   6   7
ATOM      7  C   UNL     1     -14.635  63.541  -8.864  1.00  0.00     0.041 C 
ATOM      8  O   UNL     1     -15.686  63.225  -8.249  1.00  0.00    -0.550 OA
ATOM      9  O   UNL     1     -14.722  64.197 -10.086  1.00  0.00    -0.550 OA
ENDBRANCH   6   7
ENDBRANCH   5   6
ENDBRANCH   4   5
ENDBRANCH   3   4
ENDBRANCH   2   3
ENDBRANCH   1   2
BRANCH   1  10
ATOM     10  C   UNL     1     -13.068  55.978  -9.508  1.00  0.00     0.000 C 
BRANCH  10  11
ATOM     11  C   UNL     1     -12.143  54.754  -9.583  1.00  0.00    -0.000 C 
BRANCH  11  12
ATOM     12  C   UNL     1     -11.902  54.097  -8.211  1.00  0.00    -0.000 C 
BRANCH  12  13
ATOM     13  C   UNL     1     -11.894  52.558  -8.214  1.00  0.00    -0.000 C 
BRANCH  13  14
ATOM     14  C   UNL     1     -11.933  51.954  -6.801  1.00  0.00    -0.000 C 
BRANCH  14  15
ATOM     15  C   UNL     1     -12.435  50.502  -6.794  1.00  0.00    -0.003 C 
ATOM     16  C   UNL     1     -13.711  50.318  -5.972  1.00  0.00     0.004 C 
ENDBRANCH  14  15
ENDBRANCH  13  14
ENDBRANCH  12  13
ENDBRANCH  11  12
ENDBRANCH  10  11
ENDBRANCH   1  10
TORSDOF 12
ENDMDL
MODEL 2
REMARK VINA RESULT:     0.392      1.140      2.027
REMARK INTER + INTRA:           0.384
REMARK INTER:                   0.702
REMARK INTRA:                  -0.318
REMARK UNBOUND:                -0.282
REMARK SMILES CCCCCCCCCCCCCC(=O)[O-]
REMARK SMILES IDX 8 1 9 2 10 3 11 4 12 5 13 6 14 7 15 8 16 9 7 10 6 11 5 12
REMARK SMILES IDX 4 13 3 14 2 15 1 16
REMARK H PARENT
REMARK Flexibility Score: inf
ROOT
ATOM      1  C   UNL     1     -12.513  55.228  -9.228  1.00  0.00     0.000 C 
ENDROOT
BRANCH   1   2
ATOM      2  C   UNL     1     -12.932  56.474 -10.021  1.00  0.00     0.000 C 
BRANCH   2   3
ATOM      3  C   UNL     1     -12.229  57.756  -9.538  1.00  0.00     0.000 C 
BRANCH   3   4
ATOM      4  C   UNL     1     -13.172  58.907  -9.133  1.00  0.00     0.000 C 
BRANCH   4   5
ATOM      5  C   UNL     1     -12.973  60.218  -9.914  1.00  0.00     0.006 C 
BRANCH   5   6
ATOM      6  C   UNL     1     -12.419  61.353  -9.045  1.00  0.00     0.053 C 
BRANCH   6   7
ATOM      7  C   UNL     1     -13.114  62.639  -9.361  1.00  0.00     0.041 C 
ATOM      8  O   UNL     1     -12.476  63.724  -9.347  1.00  0.00    -0.550 OA
ATOM      9  O   UNL     1     -14.478  62.646  -9.623  1.00  0.00    -0.550 OA
ENDBRANCH   6   7
ENDBRANCH   5   6
ENDBRANCH   4   5
ENDBRANCH   3   4
ENDBRANCH   2   3
ENDBRANCH   1   2
BRANCH   1  10
ATOM     10  C   UNL     1     -12.566  53.974 -10.108  1.00  0.00     0.000 C 
BRANCH  10  11
ATOM     11  C   UNL     1     -11.876  52.788  -9.418  1.00  0.00    -0.000 C 
BRANCH  11  12
ATOM     12  C   UNL     1     -12.253  52.656  -7.930  1.00  0.00    -0.000 C 
BRANCH  12  13
ATOM     13  C   UNL     1     -12.321  51.213  -7.398  1.00  0.00    -0.000 C 
BRANCH  13  14
ATOM     14  C   UNL     1     -12.897  51.125  -5.974  1.00  0.00    -0.000 C 
BRANCH  14  15
ATOM     15  C   UNL     1     -13.766  49.875  -5.767  1.00  0.00    -0.003 C 
ATOM     16  C   UNL     1     -14.917  50.108  -4.788  1.00  0.00     0.004 C 
ENDBRANCH  14  15
ENDBRANCH  13  14
ENDBRANCH  12  13
ENDBRANCH  11  12
ENDBRANCH  10  11
ENDBRANCH   1  10
TORSDOF 12
ENDMDL
