MODEL 1
REMARK VINA RESULT:    -3.208      0.000      0.000
REMARK INTER + INTRA:          -8.410
REMARK INTER:                  -5.834
REMARK INTRA:                  -2.577
REMARK UNBOUND:                -2.577
REMARK SMILES CCCCCCCCCCCCCC[C@@H](C)C(=O)[O-]
REMARK SMILES IDX 9 1 10 2 11 3 12 4 13 5 14 6 15 7 16 8 17 9 18 10 19 11 8 12
REMARK SMILES IDX 7 13 6 14 5 15 4 16 3 17 2 18 1 19
REMARK H PARENT
REMARK Flexibility Score: inf
ROOT
ATOM      1  C   UNL     1      16.513 -12.216 187.117  1.00  0.00     0.000 C 
ENDROOT
BRANCH   1   2
ATOM      2  C   UNL     1      17.842 -12.436 186.362  1.00  0.00     0.000 C 
BRANCH   2   3
ATOM      3  C   UNL     1      19.092 -12.281 187.250  1.00  0.00     0.000 C 
BRANCH   3   4
ATOM      4  C   UNL     1      19.337 -10.858 187.777  1.00  0.00     0.000 C 
BRANCH   4   5
ATOM      5  C   UNL     1      19.567  -9.835 186.649  1.00  0.00     0.001 C 
BRANCH   5   6
ATOM      6  C   UNL     1      18.949  -8.458 186.976  1.00  0.00     0.009 C 
BRANCH   6   7
ATOM      7  C   UNL     1      17.632  -8.176 186.219  1.00  0.00     0.032 C 
ATOM      8  C   UNL     1      17.501  -9.007 184.937  1.00  0.00     0.014 C 
BRANCH   7   9
ATOM      9  C   UNL     1      16.459  -8.452 187.121  1.00  0.00     0.044 C 
ATOM     10  O   UNL     1      15.290  -8.464 186.652  1.00  0.00    -0.550 OA
ATOM     11  O   UNL     1      16.657  -8.692 188.475  1.00  0.00    -0.550 OA
ENDBRANCH   7   9
ENDBRANCH   6   7
ENDBRANCH   5   6
ENDBRANCH   4   5
ENDBRANCH   3   4
ENDBRANCH   2   3
ENDBRANCH   1   2
BRANCH   1  12
ATOM     12  C   UNL     1      15.332 -11.969 186.160  1.00  0.00     0.000 C 
BRANCH  12  13
ATOM     13  C   UNL     1      15.331 -12.933 184.964  1.00  0.00    -0.000 C 
BRANCH  13  14
ATOM     14  C   UNL     1      14.459 -14.177 185.211  1.00  0.00    -0.000 C 
BRANCH  14  15
ATOM     15  C   UNL     1      15.129 -15.474 184.727  1.00  0.00    -0.000 C 
BRANCH  15  16
ATOM     16  C   UNL     1      16.327 -15.881 185.599  1.00  0.00    -0.000 C 
BRANCH  16  17
ATOM     17  C   UNL     1      15.938 -15.919 187.084  1.00  0.00    -0.000 C 
BRANCH  17  18
ATOM     18  C   UNL     1      17.156 -15.831 188.017  1.00  0.00    -0.003 C 
ATOM     19  C   UNL     1      18.482 -16.007 187.277  1.00  0.00     0.004 C 
ENDBRANCH  17  18
ENDBRANCH  16  17
ENDBRANCH  15  16
ENDBRANCH  14  15
ENDBRANCH  13  14
ENDBRANCH  12  13
ENDBRANCH   1  12
TORSDOF 14
ENDMDL
MODEL 2
REMARK VINA RESULT:    -3.199      1.637      4.076
REMARK INTER + INTRA:          -8.393
REMARK INTER:                  -6.283
REMARK INTRA:                  -2.110
REMARK UNBOUND:                -2.577
REMARK SMILES CCCCCCCCCCCCCC[C@@H](C)C(=O)[O-]
REMARK SMILES IDX 9 1 10 2 11 3 12 4 13 5 14 6 15 7 16 8 17 9 18 10 19 11 8 12
REMARK SMILES IDX 7 13 6 14 5 15 4 16 3 17 2 18 1 19
REMARK H PARENT
REMARK Flexibility Score: inf
ROOT
ATOM      1  C   UNL     1      16.005 -14.149 186.661  1.00  0.00     0.000 C 
ENDROOT
BRANCH   1   2
ATOM      2  C   UNL     1      17.297 -14.890 187.069  1.00  0.00     0.000 C 
BRANCH   2   3
ATOM      3  C   UNL     1      18.579 -14.064 186.857  1.00  0.00     0.000 C 
BRANCH   3   4
ATOM      4  C   UNL     1      18.363 -12.542 186.796  1.00  0.00     0.000 C 
BRANCH   4   5
ATOM      5  C   UNL     1      19.451 -11.754 187.548  1.00  0.00     0.001 C 
BRANCH   5   6
ATOM      6  C   UNL     1      18.881 -10.510 188.262  1.00  0.00     0.009 C 
BRANCH   6   7
ATOM      7  C   UNL     1      19.730  -9.236 188.059  1.00  0.00     0.032 C 
ATOM      8  C   UNL     1      19.728  -8.754 186.602  1.00  0.00     0.014 C 
BRANCH   7   9
ATOM      9  C   UNL     1      19.221  -8.138 188.953  1.00  0.00     0.044 C 
ATOM     10  O   UNL     1      19.441  -8.178 190.192  1.00  0.00    -0.550 OA
ATOM     11  O   UNL     1      18.504  -7.074 188.418  1.00  0.00    -0.550 OA
ENDBRANCH   7   9
ENDBRANCH   6   7
ENDBRANCH   5   6
ENDBRANCH   4   5
ENDBRANCH   3   4
ENDBRANCH   2   3
ENDBRANCH   1   2
BRANCH   1  12
ATOM     12  C   UNL     1      15.226 -14.896 185.562  1.00  0.00     0.000 C 
BRANCH  12  13
ATOM     13  C   UNL     1      14.978 -14.026 184.320  1.00  0.00    -0.000 C 
BRANCH  13  14
ATOM     14  C   UNL     1      14.933 -12.523 184.653  1.00  0.00    -0.000 C 
BRANCH  14  15
ATOM     15  C   UNL     1      15.984 -11.714 183.875  1.00  0.00    -0.000 C 
BRANCH  15  16
ATOM     16  C   UNL     1      16.393 -10.424 184.602  1.00  0.00    -0.000 C 
BRANCH  16  17
ATOM     17  C   UNL     1      15.494 -10.171 185.821  1.00  0.00    -0.000 C 
BRANCH  17  18
ATOM     18  C   UNL     1      16.014  -9.034 186.714  1.00  0.00    -0.003 C 
ATOM     19  C   UNL     1      15.877  -7.658 186.063  1.00  0.00     0.004 C 
ENDBRANCH  17  18
ENDBRANCH  16  17
ENDBRANCH  15  16
ENDBRANCH  14  15
ENDBRANCH  13  14
ENDBRANCH  12  13
ENDBRANCH   1  12
TORSDOF 14
ENDMDL
MODEL 3
REMARK VINA RESULT:    -3.146     17.725     20.185
REMARK INTER + INTRA:          -8.298
REMARK INTER:                  -5.853
REMARK INTRA:                  -2.444
REMARK UNBOUND:                -2.577
REMARK SMILES CCCCCCCCCCCCCC[C@@H](C)C(=O)[O-]
REMARK SMILES IDX 9 1 10 2 11 3 12 4 13 5 14 6 15 7 16 8 17 9 18 10 19 11 8 12
REMARK SMILES IDX 7 13 6 14 5 15 4 16 3 17 2 18 1 19
REMARK H PARENT
REMARK Flexibility Score: inf
ROOT
ATOM      1  C   UNL     1      11.837   1.731 202.172  1.00  0.00     0.000 C 
ENDROOT
BRANCH   1   2
ATOM      2  C   UNL     1      13.228   2.201 202.651  1.00  0.00     0.000 C 
BRANCH   2   3
ATOM      3  C   UNL     1      14.362   1.210 202.325  1.00  0.00     0.000 C 
BRANCH   3   4
ATOM      4  C   UNL     1      15.707   1.525 203.001  1.00  0.00     0.000 C 
BRANCH   4   5
ATOM      5  C   UNL     1      16.201   0.384 203.909  1.00  0.00     0.001 C 
BRANCH   5   6
ATOM      6  C   UNL     1      17.501  -0.259 203.380  1.00  0.00     0.009 C 
BRANCH   6   7
ATOM      7  C   UNL     1      18.542   0.768 202.882  1.00  0.00     0.032 C 
ATOM      8  C   UNL     1      19.824   0.762 203.723  1.00  0.00     0.014 C 
BRANCH   7   9
ATOM      9  C   UNL     1      18.882   0.489 201.443  1.00  0.00     0.044 C 
ATOM     10  O   UNL     1      18.221  -0.361 200.790  1.00  0.00    -0.550 OA
ATOM     11  O   UNL     1      19.928   1.164 200.826  1.00  0.00    -0.550 OA
ENDBRANCH   7   9
ENDBRANCH   6   7
ENDBRANCH   5   6
ENDBRANCH   4   5
ENDBRANCH   3   4
ENDBRANCH   2   3
ENDBRANCH   1   2
BRANCH   1  12
ATOM     12  C   UNL     1      11.894   0.363 201.467  1.00  0.00     0.000 C 
BRANCH  12  13
ATOM     13  C   UNL     1      10.824  -0.611 201.983  1.00  0.00    -0.000 C 
BRANCH  13  14
ATOM     14  C   UNL     1      11.432  -1.904 202.556  1.00  0.00    -0.000 C 
BRANCH  14  15
ATOM     15  C   UNL     1      12.217  -1.662 203.856  1.00  0.00    -0.000 C 
BRANCH  15  16
ATOM     16  C   UNL     1      13.644  -2.228 203.799  1.00  0.00    -0.000 C 
BRANCH  16  17
ATOM     17  C   UNL     1      13.887  -2.976 202.480  1.00  0.00    -0.000 C 
BRANCH  17  18
ATOM     18  C   UNL     1      15.086  -2.420 201.697  1.00  0.00    -0.003 C 
ATOM     19  C   UNL     1      14.685  -1.808 200.355  1.00  0.00     0.004 C 
ENDBRANCH  17  18
ENDBRANCH  16  17
ENDBRANCH  15  16
ENDBRANCH  14  15
ENDBRANCH  13  14
ENDBRANCH  12  13
ENDBRANCH   1  12
TORSDOF 14
ENDMDL
MODEL 4
REMARK VINA RESULT:    -3.093      2.740      5.626
REMARK INTER + INTRA:          -8.202
REMARK INTER:                  -5.824
REMARK INTRA:                  -2.378
REMARK UNBOUND:                -2.577
REMARK SMILES CCCCCCCCCCCCCC[C@@H](C)C(=O)[O-]
REMARK SMILES IDX 9 1 10 2 11 3 12 4 13 5 14 6 15 7 16 8 17 9 18 10 19 11 8 12
REMARK SMILES IDX 7 13 6 14 5 15 4 16 3 17 2 18 1 19
REMARK H PARENT
REMARK Flexibility Score: inf
ROOT
ATOM      1  C   UNL     1      18.699  -8.059 188.556  1.00  0.00     0.000 C 
ENDROOT
BRANCH   1   2
ATOM      2  C   UNL     1      19.358  -9.430 188.819  1.00  0.00     0.000 C 
BRANCH   2   3
ATOM      3  C   UNL     1      20.009 -10.056 187.571  1.00  0.00     0.000 C 
BRANCH   3   4
ATOM      4  C   UNL     1      19.782 -11.569 187.415  1.00  0.00     0.000 C 
BRANCH   4   5
ATOM      5  C   UNL     1      18.291 -11.953 187.424  1.00  0.00     0.001 C 
BRANCH   5   6
ATOM      6  C   UNL     1      17.988 -13.135 186.478  1.00  0.00     0.009 C 
BRANCH   6   7
ATOM      7  C   UNL     1      16.865 -14.064 186.989  1.00  0.00     0.032 C 
ATOM      8  C   UNL     1      15.873 -14.449 185.884  1.00  0.00     0.014 C 
BRANCH   7   9
ATOM      9  C   UNL     1      17.465 -15.309 187.583  1.00  0.00     0.044 C 
ATOM     10  O   UNL     1      18.472 -15.843 187.048  1.00  0.00    -0.550 OA
ATOM     11  O   UNL     1      16.912 -15.879 188.723  1.00  0.00    -0.550 OA
ENDBRANCH   7   9
ENDBRANCH   6   7
ENDBRANCH   5   6
ENDBRANCH   4   5
ENDBRANCH   3   4
ENDBRANCH   2   3
ENDBRANCH   1   2
BRANCH   1  12
ATOM     12  C   UNL     1      18.815  -7.630 187.081  1.00  0.00     0.000 C 
BRANCH  12  13
ATOM     13  C   UNL     1      17.446  -7.503 186.395  1.00  0.00    -0.000 C 
BRANCH  13  14
ATOM     14  C   UNL     1      17.410  -8.196 185.021  1.00  0.00    -0.000 C 
BRANCH  14  15
ATOM     15  C   UNL     1      17.077  -9.693 185.122  1.00  0.00    -0.000 C 
BRANCH  15  16
ATOM     16  C   UNL     1      15.610  -9.996 184.779  1.00  0.00    -0.000 C 
BRANCH  16  17
ATOM     17  C   UNL     1      14.940 -10.806 185.898  1.00  0.00    -0.000 C 
BRANCH  17  18
ATOM     18  C   UNL     1      15.032 -10.112 187.267  1.00  0.00    -0.003 C 
ATOM     19  C   UNL     1      14.978 -11.097 188.435  1.00  0.00     0.004 C 
ENDBRANCH  17  18
ENDBRANCH  16  17
ENDBRANCH  15  16
ENDBRANCH  14  15
ENDBRANCH  13  14
ENDBRANCH  12  13
ENDBRANCH   1  12
TORSDOF 14
ENDMDL
MODEL 5
REMARK VINA RESULT:    -3.074      1.972      4.276
REMARK INTER + INTRA:          -8.166
REMARK INTER:                  -5.939
REMARK INTRA:                  -2.227
REMARK UNBOUND:                -2.577
REMARK SMILES CCCCCCCCCCCCCC[C@@H](C)C(=O)[O-]
REMARK SMILES IDX 9 1 10 2 11 3 12 4 13 5 14 6 15 7 16 8 17 9 18 10 19 11 8 12
REMARK SMILES IDX 7 13 6 14 5 15 4 16 3 17 2 18 1 19
REMARK H PARENT
REMARK Flexibility Score: inf
ROOT
ATOM      1  C   UNL     1      15.905 -14.010 187.532  1.00  0.00     0.000 C 
ENDROOT
BRANCH   1   2
ATOM      2  C   UNL     1      17.136 -14.925 187.351  1.00  0.00     0.000 C 
BRANCH   2   3
ATOM      3  C   UNL     1      18.381 -14.192 186.817  1.00  0.00     0.000 C 
BRANCH   3   4
ATOM      4  C   UNL     1      18.253 -12.661 186.759  1.00  0.00     0.000 C 
BRANCH   4   5
ATOM      5  C   UNL     1      19.395 -11.939 187.497  1.00  0.00     0.001 C 
BRANCH   5   6
ATOM      6  C   UNL     1      19.003 -10.505 187.917  1.00  0.00     0.009 C 
BRANCH   6   7
ATOM      7  C   UNL     1      17.892  -9.886 187.041  1.00  0.00     0.032 C 
ATOM      8  C   UNL     1      16.794  -9.213 187.873  1.00  0.00     0.014 C 
BRANCH   7   9
ATOM      9  C   UNL     1      18.492  -8.883 186.093  1.00  0.00     0.044 C 
ATOM     10  O   UNL     1      18.051  -8.779 184.919  1.00  0.00    -0.550 OA
ATOM     11  O   UNL     1      19.539  -8.067 186.506  1.00  0.00    -0.550 OA
ENDBRANCH   7   9
ENDBRANCH   6   7
ENDBRANCH   5   6
ENDBRANCH   4   5
ENDBRANCH   3   4
ENDBRANCH   2   3
ENDBRANCH   1   2
BRANCH   1  12
ATOM     12  C   UNL     1      14.725 -14.437 186.641  1.00  0.00     0.000 C 
BRANCH  12  13
ATOM     13  C   UNL     1      14.320 -13.346 185.637  1.00  0.00    -0.000 C 
BRANCH  13  14
ATOM     14  C   UNL     1      15.296 -13.246 184.451  1.00  0.00    -0.000 C 
BRANCH  14  15
ATOM     15  C   UNL     1      15.792 -11.810 184.214  1.00  0.00    -0.000 C 
BRANCH  15  16
ATOM     16  C   UNL     1      14.949 -10.763 184.959  1.00  0.00    -0.000 C 
BRANCH  16  17
ATOM     17  C   UNL     1      14.746  -9.508 184.098  1.00  0.00    -0.000 C 
BRANCH  17  18
ATOM     18  C   UNL     1      14.039  -8.376 184.860  1.00  0.00    -0.003 C 
ATOM     19  C   UNL     1      14.960  -7.191 185.149  1.00  0.00     0.004 C 
ENDBRANCH  17  18
ENDBRANCH  16  17
ENDBRANCH  15  16
ENDBRANCH  14  15
ENDBRANCH  13  14
ENDBRANCH  12  13
ENDBRANCH   1  12
TORSDOF 14
ENDMDL
MODEL 6
REMARK VINA RESULT:    -3.060      1.838      3.590
REMARK INTER + INTRA:          -8.141
REMARK INTER:                  -5.593
REMARK INTRA:                  -2.548
REMARK UNBOUND:                -2.577
REMARK SMILES CCCCCCCCCCCCCC[C@@H](C)C(=O)[O-]
REMARK SMILES IDX 9 1 10 2 11 3 12 4 13 5 14 6 15 7 16 8 17 9 18 10 19 11 8 12
REMARK SMILES IDX 7 13 6 14 5 15 4 16 3 17 2 18 1 19
REMARK H PARENT
REMARK Flexibility Score: inf
ROOT
ATOM      1  C   UNL     1      15.365 -15.893 187.601  1.00  0.00     0.000 C 
ENDROOT
BRANCH   1   2
ATOM      2  C   UNL     1      16.753 -15.361 188.021  1.00  0.00     0.000 C 
BRANCH   2   3
ATOM      3  C   UNL     1      17.788 -15.360 186.880  1.00  0.00     0.000 C 
BRANCH   3   4
ATOM      4  C   UNL     1      18.819 -14.221 186.944  1.00  0.00     0.000 C 
BRANCH   4   5
ATOM      5  C   UNL     1      18.177 -12.828 186.810  1.00  0.00     0.001 C 
BRANCH   5   6
ATOM      6  C   UNL     1      19.128 -11.702 187.270  1.00  0.00     0.009 C 
BRANCH   6   7
ATOM      7  C   UNL     1      18.967 -10.390 186.472  1.00  0.00     0.032 C 
ATOM      8  C   UNL     1      17.531 -10.176 185.977  1.00  0.00     0.014 C 
BRANCH   7   9
ATOM      9  C   UNL     1      19.386  -9.222 187.323  1.00  0.00     0.044 C 
ATOM     10  O   UNL     1      19.392  -8.059 186.841  1.00  0.00    -0.550 OA
ATOM     11  O   UNL     1      19.772  -9.420 188.643  1.00  0.00    -0.550 OA
ENDBRANCH   7   9
ENDBRANCH   6   7
ENDBRANCH   5   6
ENDBRANCH   4   5
ENDBRANCH   3   4
ENDBRANCH   2   3
ENDBRANCH   1   2
BRANCH   1  12
ATOM     12  C   UNL     1      15.263 -16.120 186.081  1.00  0.00     0.000 C 
BRANCH  12  13
ATOM     13  C   UNL     1      14.388 -15.066 185.385  1.00  0.00    -0.000 C 
BRANCH  13  14
ATOM     14  C   UNL     1      15.221 -13.948 184.731  1.00  0.00    -0.000 C 
BRANCH  14  15
ATOM     15  C   UNL     1      14.770 -12.544 185.166  1.00  0.00    -0.000 C 
BRANCH  15  16
ATOM     16  C   UNL     1      13.920 -12.566 186.445  1.00  0.00    -0.000 C 
BRANCH  16  17
ATOM     17  C   UNL     1      14.748 -12.128 187.662  1.00  0.00    -0.000 C 
BRANCH  17  18
ATOM     18  C   UNL     1      14.138 -12.596 188.992  1.00  0.00    -0.003 C 
ATOM     19  C   UNL     1      12.914 -13.491 188.800  1.00  0.00     0.004 C 
ENDBRANCH  17  18
ENDBRANCH  16  17
ENDBRANCH  15  16
ENDBRANCH  14  15
ENDBRANCH  13  14
ENDBRANCH  12  13
ENDBRANCH   1  12
TORSDOF 14
ENDMDL
MODEL 7
REMARK VINA RESULT:    -3.051      1.933      3.648
REMARK INTER + INTRA:          -8.125
REMARK INTER:                  -6.270
REMARK INTRA:                  -1.855
REMARK UNBOUND:                -2.577
REMARK SMILES CCCCCCCCCCCCCC[C@@H](C)C(=O)[O-]
REMARK SMILES IDX 9 1 10 2 11 3 12 4 13 5 14 6 15 7 16 8 17 9 18 10 19 11 8 12
REMARK SMILES IDX 7 13 6 14 5 15 4 16 3 17 2 18 1 19
REMARK H PARENT
REMARK Flexibility Score: inf
ROOT
ATOM      1  C   UNL     1      18.439 -14.256 186.882  1.00  0.00     0.000 C 
ENDROOT
BRANCH   1   2
ATOM      2  C   UNL     1      18.309 -12.721 186.780  1.00  0.00     0.000 C 
BRANCH   2   3
ATOM      3  C   UNL     1      19.404 -11.954 187.548  1.00  0.00     0.000 C 
BRANCH   3   4
ATOM      4  C   UNL     1      19.573 -10.483 187.132  1.00  0.00     0.000 C 
BRANCH   4   5
ATOM      5  C   UNL     1      19.725  -9.536 188.336  1.00  0.00     0.001 C 
BRANCH   5   6
ATOM      6  C   UNL     1      18.395  -8.842 188.702  1.00  0.00     0.009 C 
BRANCH   6   7
ATOM      7  C   UNL     1      18.016  -7.689 187.747  1.00  0.00     0.032 C 
ATOM      8  C   UNL     1      16.607  -7.144 188.013  1.00  0.00     0.014 C 
BRANCH   7   9
ATOM      9  C   UNL     1      19.019  -6.574 187.871  1.00  0.00     0.044 C 
ATOM     10  O   UNL     1      19.144  -5.955 188.959  1.00  0.00    -0.550 OA
ATOM     11  O   UNL     1      19.812  -6.221 186.785  1.00  0.00    -0.550 OA
ENDBRANCH   7   9
ENDBRANCH   6   7
ENDBRANCH   5   6
ENDBRANCH   4   5
ENDBRANCH   3   4
ENDBRANCH   2   3
ENDBRANCH   1   2
BRANCH   1  12
ATOM     12  C   UNL     1      17.132 -14.978 186.506  1.00  0.00     0.000 C 
BRANCH  12  13
ATOM     13  C   UNL     1      15.964 -14.004 186.287  1.00  0.00    -0.000 C 
BRANCH  13  14
ATOM     14  C   UNL     1      14.992 -14.488 185.196  1.00  0.00    -0.000 C 
BRANCH  14  15
ATOM     15  C   UNL     1      14.742 -13.425 184.114  1.00  0.00    -0.000 C 
BRANCH  15  16
ATOM     16  C   UNL     1      15.832 -12.343 184.086  1.00  0.00    -0.000 C 
BRANCH  16  17
ATOM     17  C   UNL     1      15.237 -10.956 184.369  1.00  0.00    -0.000 C 
BRANCH  17  18
ATOM     18  C   UNL     1      16.106 -10.123 185.325  1.00  0.00    -0.003 C 
ATOM     19  C   UNL     1      17.090  -9.213 184.589  1.00  0.00     0.004 C 
ENDBRANCH  17  18
ENDBRANCH  16  17
ENDBRANCH  15  16
ENDBRANCH  14  15
ENDBRANCH  13  14
ENDBRANCH  12  13
ENDBRANCH   1  12
TORSDOF 14
ENDMDL
MODEL 8
REMARK VINA RESULT:    -3.031     17.946     20.313
REMARK INTER + INTRA:          -8.088
REMARK INTER:                  -5.157
REMARK INTRA:                  -2.931
REMARK UNBOUND:                -2.577
REMARK SMILES CCCCCCCCCCCCCC[C@@H](C)C(=O)[O-]
REMARK SMILES IDX 9 1 10 2 11 3 12 4 13 5 14 6 15 7 16 8 17 9 18 10 19 11 8 12
REMARK SMILES IDX 7 13 6 14 5 15 4 16 3 17 2 18 1 19
REMARK H PARENT
REMARK Flexibility Score: inf
ROOT
ATOM      1  C   UNL     1      14.677  -1.774 201.055  1.00  0.00     0.000 C 
ENDROOT
BRANCH   1   2
ATOM      2  C   UNL     1      14.104  -2.948 201.878  1.00  0.00     0.000 C 
BRANCH   2   3
ATOM      3  C   UNL     1      13.916  -2.625 203.373  1.00  0.00     0.000 C 
BRANCH   3   4
ATOM      4  C   UNL     1      13.042  -1.394 203.662  1.00  0.00     0.000 C 
BRANCH   4   5
ATOM      5  C   UNL     1      11.541  -1.664 203.446  1.00  0.00     0.001 C 
BRANCH   5   6
ATOM      6  C   UNL     1      10.857  -0.540 202.638  1.00  0.00     0.009 C 
BRANCH   6   7
ATOM      7  C   UNL     1      11.191  -0.569 201.131  1.00  0.00     0.032 C 
ATOM      8  C   UNL     1      10.727  -1.864 200.451  1.00  0.00     0.014 C 
BRANCH   7   9
ATOM      9  C   UNL     1      10.559   0.613 200.447  1.00  0.00     0.044 C 
ATOM     10  O   UNL     1      10.613   0.723 199.194  1.00  0.00    -0.550 OA
ATOM     11  O   UNL     1       9.914   1.593 201.194  1.00  0.00    -0.550 OA
ENDBRANCH   7   9
ENDBRANCH   6   7
ENDBRANCH   5   6
ENDBRANCH   4   5
ENDBRANCH   3   4
ENDBRANCH   2   3
ENDBRANCH   1   2
BRANCH   1  12
ATOM     12  C   UNL     1      16.204  -1.871 200.885  1.00  0.00     0.000 C 
BRANCH  12  13
ATOM     13  C   UNL     1      16.941  -0.660 201.477  1.00  0.00    -0.000 C 
BRANCH  13  14
ATOM     14  C   UNL     1      17.107  -0.760 203.004  1.00  0.00    -0.000 C 
BRANCH  14  15
ATOM     15  C   UNL     1      16.380   0.369 203.752  1.00  0.00    -0.000 C 
BRANCH  15  16
ATOM     16  C   UNL     1      16.012   1.545 202.834  1.00  0.00    -0.000 C 
BRANCH  16  17
ATOM     17  C   UNL     1      14.688   2.189 203.271  1.00  0.00    -0.000 C 
BRANCH  17  18
ATOM     18  C   UNL     1      13.562   1.980 202.247  1.00  0.00    -0.003 C 
ATOM     19  C   UNL     1      14.080   1.846 200.815  1.00  0.00     0.004 C 
ENDBRANCH  17  18
ENDBRANCH  16  17
ENDBRANCH  15  16
ENDBRANCH  14  15
ENDBRANCH  13  14
ENDBRANCH  12  13
ENDBRANCH   1  12
TORSDOF 14
ENDMDL
MODEL 9
REMARK VINA RESULT:    -3.008      1.824      4.405
REMARK INTER + INTRA:          -8.047
REMARK INTER:                  -5.800
REMARK INTRA:                  -2.246
REMARK UNBOUND:                -2.577
REMARK SMILES CCCCCCCCCCCCCC[C@@H](C)C(=O)[O-]
REMARK SMILES IDX 9 1 10 2 11 3 12 4 13 5 14 6 15 7 16 8 17 9 18 10 19 11 8 12
REMARK SMILES IDX 7 13 6 14 5 15 4 16 3 17 2 18 1 19
REMARK H PARENT
REMARK Flexibility Score: inf
ROOT
ATOM      1  C   UNL     1      14.884 -14.347 188.587  1.00  0.00     0.000 C 
ENDROOT
BRANCH   1   2
ATOM      2  C   UNL     1      14.406 -13.360 187.500  1.00  0.00     0.000 C 
BRANCH   2   3
ATOM      3  C   UNL     1      14.196 -14.013 186.120  1.00  0.00     0.000 C 
BRANCH   3   4
ATOM      4  C   UNL     1      14.796 -13.233 184.939  1.00  0.00     0.000 C 
BRANCH   4   5
ATOM      5  C   UNL     1      15.186 -11.791 185.313  1.00  0.00     0.001 C 
BRANCH   5   6
ATOM      6  C   UNL     1      15.887 -11.056 184.149  1.00  0.00     0.009 C 
BRANCH   6   7
ATOM      7  C   UNL     1      15.340  -9.634 183.897  1.00  0.00     0.032 C 
ATOM      8  C   UNL     1      14.012  -9.377 184.621  1.00  0.00     0.014 C 
BRANCH   7   9
ATOM      9  C   UNL     1      16.357  -8.614 184.331  1.00  0.00     0.044 C 
ATOM     10  O   UNL     1      17.539  -8.677 183.902  1.00  0.00    -0.550 OA
ATOM     11  O   UNL     1      15.999  -7.597 185.209  1.00  0.00    -0.550 OA
ENDBRANCH   7   9
ENDBRANCH   6   7
ENDBRANCH   5   6
ENDBRANCH   4   5
ENDBRANCH   3   4
ENDBRANCH   2   3
ENDBRANCH   1   2
BRANCH   1  12
ATOM     12  C   UNL     1      15.321 -15.700 187.996  1.00  0.00     0.000 C 
BRANCH  12  13
ATOM     13  C   UNL     1      16.840 -15.915 188.078  1.00  0.00    -0.000 C 
BRANCH  13  14
ATOM     14  C   UNL     1      17.561 -15.536 186.772  1.00  0.00    -0.000 C 
BRANCH  14  15
ATOM     15  C   UNL     1      18.616 -14.437 186.977  1.00  0.00    -0.000 C 
BRANCH  15  16
ATOM     16  C   UNL     1      18.025 -13.023 186.869  1.00  0.00    -0.000 C 
BRANCH  16  17
ATOM     17  C   UNL     1      19.075 -11.960 187.227  1.00  0.00    -0.000 C 
BRANCH  17  18
ATOM     18  C   UNL     1      18.598 -10.532 186.922  1.00  0.00    -0.003 C 
ATOM     19  C   UNL     1      17.370 -10.131 187.740  1.00  0.00     0.004 C 
ENDBRANCH  17  18
ENDBRANCH  16  17
ENDBRANCH  15  16
ENDBRANCH  14  15
ENDBRANCH  13  14
ENDBRANCH  12  13
ENDBRANCH   1  12
TORSDOF 14
ENDMDL
