MODEL 1
REMARK VINA RESULT:    -7.374      0.000      0.000
REMARK INTER + INTRA:         -12.687
REMARK INTER:                 -11.470
REMARK INTRA:                  -1.217
REMARK UNBOUND:                -1.217
REMARK SMILES COc1cc(CNC(=O)CCCCC=CC(C)C)ccc1O
REMARK SMILES IDX 11 1 12 2 13 3 14 4 15 5 16 6 17 7 18 8 10 9 8 10 9 11 7 12
REMARK SMILES IDX 6 14 5 15 4 16 19 17 3 18 20 19 21 20 2 21 1 22 22 23
REMARK H PARENT 7 13 22 24
REMARK Flexibility Score: inf
ROOT
ATOM      1  C   UNL     1     148.529 147.927 148.700  1.00  0.00     0.010 C 
ENDROOT
BRANCH   1   2
ATOM      2  C   UNL     1     148.794 147.528 150.165  1.00  0.00     0.005 C 
BRANCH   2   3
ATOM      3  C   UNL     1     147.538 147.032 150.901  1.00  0.00     0.027 C 
BRANCH   3   4
ATOM      4  C   UNL     1     146.264 147.651 150.386  1.00  0.00    -0.031 C 
ATOM      5  C   UNL     1     145.735 148.808 150.824  1.00  0.00    -0.028 C 
BRANCH   5   6
ATOM      6  C   UNL     1     146.312 149.676 151.920  1.00  0.00     0.005 C 
ATOM      7  C   UNL     1     145.175 150.322 152.714  1.00  0.00     0.012 C 
ATOM      8  C   UNL     1     147.216 150.749 151.302  1.00  0.00     0.012 C 
ENDBRANCH   5   6
ENDBRANCH   3   4
ENDBRANCH   2   3
ENDBRANCH   1   2
BRANCH   1   9
ATOM      9  C   UNL     1     149.100 146.908 147.704  1.00  0.00     0.100 C 
BRANCH   9  10
ATOM     10  C   UNL     1     150.502 147.279 147.320  1.00  0.00     0.220 C 
ATOM     11  O   UNL     1     150.716 147.795 146.189  1.00  0.00    -0.275 OA
ATOM     12  N   UNL     1     151.593 147.021 148.218  1.00  0.00    -0.352 N 
ATOM     13  H   UNL     1     151.404 146.554 149.139  1.00  0.00     0.163 HD
BRANCH  12  14
ATOM     14  C   UNL     1     152.971 147.386 147.898  1.00  0.00     0.151 C 
BRANCH  14  15
ATOM     15  C   UNL     1     153.384 148.603 148.684  1.00  0.00    -0.025 A 
ATOM     16  C   UNL     1     152.551 149.120 149.691  1.00  0.00     0.056 A 
ATOM     17  C   UNL     1     154.626 149.206 148.437  1.00  0.00     0.009 A 
ATOM     18  C   UNL     1     152.956 150.238 150.450  1.00  0.00     0.160 A 
ATOM     19  C   UNL     1     155.030 150.315 149.184  1.00  0.00     0.050 A 
ATOM     20  C   UNL     1     154.201 150.829 150.191  1.00  0.00     0.157 A 
BRANCH  18  21
ATOM     21  O   UNL     1     152.155 150.785 151.464  1.00  0.00    -0.493 OA
ATOM     22  C   UNL     1     150.970 150.181 151.969  1.00  0.00     0.278 C 
ENDBRANCH  18  21
BRANCH  20  23
ATOM     23  O   UNL     1     154.610 151.933 150.941  1.00  0.00    -0.504 OA
ATOM     24  H   UNL     1     155.249 151.835 151.722  1.00  0.00     0.293 HD
ENDBRANCH  20  23
ENDBRANCH  14  15
ENDBRANCH  12  14
ENDBRANCH   9  10
ENDBRANCH   1   9
TORSDOF 10
ENDMDL
MODEL 2
REMARK VINA RESULT:    -7.294      2.920      6.820
REMARK INTER + INTRA:         -12.563
REMARK INTER:                 -11.365
REMARK INTRA:                  -1.197
REMARK UNBOUND:                -1.217
REMARK SMILES COc1cc(CNC(=O)CCCCC=CC(C)C)ccc1O
REMARK SMILES IDX 11 1 12 2 13 3 14 4 15 5 16 6 17 7 18 8 10 9 8 10 9 11 7 12
REMARK SMILES IDX 6 14 5 15 4 16 19 17 3 18 20 19 21 20 2 21 1 22 22 23
REMARK H PARENT 7 13 22 24
REMARK Flexibility Score: inf
ROOT
ATOM      1  C   UNL     1     151.358 146.346 149.369  1.00  0.00     0.010 C 
ENDROOT
BRANCH   1   2
ATOM      2  C   UNL     1     152.063 146.774 148.067  1.00  0.00     0.005 C 
BRANCH   2   3
ATOM      3  C   UNL     1     153.128 147.863 148.277  1.00  0.00     0.027 C 
BRANCH   3   4
ATOM      4  C   UNL     1     152.587 149.261 148.120  1.00  0.00    -0.031 C 
ATOM      5  C   UNL     1     152.686 150.237 149.042  1.00  0.00    -0.028 C 
BRANCH   5   6
ATOM      6  C   UNL     1     153.337 150.095 150.400  1.00  0.00     0.005 C 
ATOM      7  C   UNL     1     152.281 150.268 151.494  1.00  0.00     0.012 C 
ATOM      8  C   UNL     1     154.445 151.144 150.550  1.00  0.00     0.012 C 
ENDBRANCH   5   6
ENDBRANCH   3   4
ENDBRANCH   2   3
ENDBRANCH   1   2
BRANCH   1   9
ATOM      9  C   UNL     1     149.830 146.316 149.223  1.00  0.00     0.100 C 
BRANCH   9  10
ATOM     10  C   UNL     1     149.280 147.711 149.180  1.00  0.00     0.220 C 
ATOM     11  O   UNL     1     148.747 148.132 148.116  1.00  0.00    -0.275 OA
ATOM     12  N   UNL     1     149.388 148.570 150.326  1.00  0.00    -0.352 N 
ATOM     13  H   UNL     1     149.872 148.219 151.190  1.00  0.00     0.163 HD
BRANCH  12  14
ATOM     14  C   UNL     1     148.848 149.927 150.340  1.00  0.00     0.151 C 
BRANCH  14  15
ATOM     15  C   UNL     1     147.539 149.960 151.085  1.00  0.00    -0.025 A 
ATOM     16  C   UNL     1     146.437 149.217 150.627  1.00  0.00     0.056 A 
ATOM     17  C   UNL     1     147.425 150.708 152.266  1.00  0.00     0.009 A 
ATOM     18  C   UNL     1     145.224 149.221 151.347  1.00  0.00     0.160 A 
ATOM     19  C   UNL     1     146.225 150.717 152.980  1.00  0.00     0.050 A 
ATOM     20  C   UNL     1     145.127 149.973 152.526  1.00  0.00     0.157 A 
BRANCH  18  21
ATOM     21  O   UNL     1     144.101 148.493 150.924  1.00  0.00    -0.493 OA
ATOM     22  C   UNL     1     144.157 147.237 150.259  1.00  0.00     0.278 C 
ENDBRANCH  18  21
BRANCH  20  23
ATOM     23  O   UNL     1     143.930 149.978 153.245  1.00  0.00    -0.504 OA
ATOM     24  H   UNL     1     143.759 150.652 153.982  1.00  0.00     0.293 HD
ENDBRANCH  20  23
ENDBRANCH  14  15
ENDBRANCH  12  14
ENDBRANCH   9  10
ENDBRANCH   1   9
TORSDOF 10
ENDMDL
MODEL 3
REMARK VINA RESULT:    -6.910      2.298      6.807
REMARK INTER + INTRA:         -11.965
REMARK INTER:                 -11.070
REMARK INTRA:                  -0.895
REMARK UNBOUND:                -1.217
REMARK SMILES COc1cc(CNC(=O)CCCCC=CC(C)C)ccc1O
REMARK SMILES IDX 11 1 12 2 13 3 14 4 15 5 16 6 17 7 18 8 10 9 8 10 9 11 7 12
REMARK SMILES IDX 6 14 5 15 4 16 19 17 3 18 20 19 21 20 2 21 1 22 22 23
REMARK H PARENT 7 13 22 24
REMARK Flexibility Score: inf
ROOT
ATOM      1  C   UNL     1     151.404 147.465 149.609  1.00  0.00     0.010 C 
ENDROOT
BRANCH   1   2
ATOM      2  C   UNL     1     150.869 148.813 150.131  1.00  0.00     0.005 C 
BRANCH   2   3
ATOM      3  C   UNL     1     151.978 149.825 150.464  1.00  0.00     0.027 C 
BRANCH   3   4
ATOM      4  C   UNL     1     152.467 150.589 149.260  1.00  0.00    -0.031 C 
ATOM      5  C   UNL     1     153.639 150.377 148.634  1.00  0.00    -0.028 C 
BRANCH   5   6
ATOM      6  C   UNL     1     154.677 149.354 149.040  1.00  0.00     0.005 C 
ATOM      7  C   UNL     1     156.060 150.008 149.061  1.00  0.00     0.012 C 
ATOM      8  C   UNL     1     154.652 148.179 148.056  1.00  0.00     0.012 C 
ENDBRANCH   5   6
ENDBRANCH   3   4
ENDBRANCH   2   3
ENDBRANCH   1   2
BRANCH   1   9
ATOM      9  C   UNL     1     150.276 146.497 149.226  1.00  0.00     0.100 C 
BRANCH   9  10
ATOM     10  C   UNL     1     148.988 147.244 149.035  1.00  0.00     0.220 C 
ATOM     11  O   UNL     1     148.753 147.796 147.925  1.00  0.00    -0.275 OA
ATOM     12  N   UNL     1     148.046 147.355 150.115  1.00  0.00    -0.352 N 
ATOM     13  H   UNL     1     148.275 146.925 151.045  1.00  0.00     0.163 HD
BRANCH  12  14
ATOM     14  C   UNL     1     146.770 148.050 149.969  1.00  0.00     0.151 C 
BRANCH  14  15
ATOM     15  C   UNL     1     146.579 149.030 151.097  1.00  0.00    -0.025 A 
ATOM     16  C   UNL     1     147.666 149.770 151.593  1.00  0.00     0.056 A 
ATOM     17  C   UNL     1     145.301 149.235 151.636  1.00  0.00     0.009 A 
ATOM     18  C   UNL     1     147.478 150.713 152.625  1.00  0.00     0.160 A 
ATOM     19  C   UNL     1     145.110 150.166 152.660  1.00  0.00     0.050 A 
ATOM     20  C   UNL     1     146.193 150.907 153.153  1.00  0.00     0.157 A 
BRANCH  18  21
ATOM     21  O   UNL     1     148.537 151.471 153.148  1.00  0.00    -0.493 OA
ATOM     22  C   UNL     1     149.889 151.032 153.212  1.00  0.00     0.278 C 
ENDBRANCH  18  21
BRANCH  20  23
ATOM     23  O   UNL     1     145.999 151.841 154.172  1.00  0.00    -0.504 OA
ATOM     24  H   UNL     1     145.741 151.555 155.109  1.00  0.00     0.293 HD
ENDBRANCH  20  23
ENDBRANCH  14  15
ENDBRANCH  12  14
ENDBRANCH   9  10
ENDBRANCH   1   9
TORSDOF 10
ENDMDL
MODEL 4
REMARK VINA RESULT:    -6.857      2.481      6.238
REMARK INTER + INTRA:         -11.882
REMARK INTER:                 -10.573
REMARK INTRA:                  -1.309
REMARK UNBOUND:                -1.217
REMARK SMILES COc1cc(CNC(=O)CCCCC=CC(C)C)ccc1O
REMARK SMILES IDX 11 1 12 2 13 3 14 4 15 5 16 6 17 7 18 8 10 9 8 10 9 11 7 12
REMARK SMILES IDX 6 14 5 15 4 16 19 17 3 18 20 19 21 20 2 21 1 22 22 23
REMARK H PARENT 7 13 22 24
REMARK Flexibility Score: inf
ROOT
ATOM      1  C   UNL     1     152.196 148.807 148.227  1.00  0.00     0.010 C 
ENDROOT
BRANCH   1   2
ATOM      2  C   UNL     1     152.894 147.435 148.137  1.00  0.00     0.005 C 
BRANCH   2   3
ATOM      3  C   UNL     1     151.930 146.247 148.290  1.00  0.00     0.027 C 
BRANCH   3   4
ATOM      4  C   UNL     1     150.616 146.625 148.923  1.00  0.00    -0.031 C 
ATOM      5  C   UNL     1     149.476 146.870 148.251  1.00  0.00    -0.028 C 
BRANCH   5   6
ATOM      6  C   UNL     1     149.320 146.829 146.746  1.00  0.00     0.005 C 
ATOM      7  C   UNL     1     148.694 148.138 146.261  1.00  0.00     0.012 C 
ATOM      8  C   UNL     1     148.444 145.634 146.354  1.00  0.00     0.012 C 
ENDBRANCH   5   6
ENDBRANCH   3   4
ENDBRANCH   2   3
ENDBRANCH   1   2
BRANCH   1   9
ATOM      9  C   UNL     1     153.077 149.867 148.904  1.00  0.00     0.100 C 
BRANCH   9  10
ATOM     10  C   UNL     1     152.550 150.190 150.271  1.00  0.00     0.220 C 
ATOM     11  O   UNL     1     153.296 150.788 151.094  1.00  0.00    -0.275 OA
ATOM     12  N   UNL     1     151.222 149.796 150.649  1.00  0.00    -0.352 N 
ATOM     13  H   UNL     1     150.628 149.263 149.967  1.00  0.00     0.163 HD
BRANCH  12  14
ATOM     14  C   UNL     1     150.657 150.110 151.960  1.00  0.00     0.151 C 
BRANCH  14  15
ATOM     15  C   UNL     1     149.152 150.086 151.898  1.00  0.00    -0.025 A 
ATOM     16  C   UNL     1     148.487 149.236 150.998  1.00  0.00     0.056 A 
ATOM     17  C   UNL     1     148.405 150.891 152.769  1.00  0.00     0.009 A 
ATOM     18  C   UNL     1     147.077 149.190 150.968  1.00  0.00     0.160 A 
ATOM     19  C   UNL     1     147.008 150.851 152.741  1.00  0.00     0.050 A 
ATOM     20  C   UNL     1     146.344 150.000 151.846  1.00  0.00     0.157 A 
BRANCH  18  21
ATOM     21  O   UNL     1     146.375 148.355 150.085  1.00  0.00    -0.493 OA
ATOM     22  C   UNL     1     146.231 146.949 150.246  1.00  0.00     0.278 C 
ENDBRANCH  18  21
BRANCH  20  23
ATOM     23  O   UNL     1     144.949 149.957 151.824  1.00  0.00    -0.504 OA
ATOM     24  H   UNL     1     144.427 149.397 152.488  1.00  0.00     0.293 HD
ENDBRANCH  20  23
ENDBRANCH  14  15
ENDBRANCH  12  14
ENDBRANCH   9  10
ENDBRANCH   1   9
TORSDOF 10
ENDMDL
MODEL 5
REMARK VINA RESULT:    -6.744      2.531      6.230
REMARK INTER + INTRA:         -11.707
REMARK INTER:                  -9.604
REMARK INTRA:                  -2.102
REMARK UNBOUND:                -1.217
REMARK SMILES COc1cc(CNC(=O)CCCCC=CC(C)C)ccc1O
REMARK SMILES IDX 11 1 12 2 13 3 14 4 15 5 16 6 17 7 18 8 10 9 8 10 9 11 7 12
REMARK SMILES IDX 6 14 5 15 4 16 19 17 3 18 20 19 21 20 2 21 1 22 22 23
REMARK H PARENT 7 13 22 24
REMARK Flexibility Score: inf
ROOT
ATOM      1  C   UNL     1     149.710 150.420 152.965  1.00  0.00     0.010 C 
ENDROOT
BRANCH   1   2
ATOM      2  C   UNL     1     150.964 150.879 152.195  1.00  0.00     0.005 C 
BRANCH   2   3
ATOM      3  C   UNL     1     151.672 149.740 151.442  1.00  0.00     0.027 C 
BRANCH   3   4
ATOM      4  C   UNL     1     151.488 149.811 149.947  1.00  0.00    -0.031 C 
ATOM      5  C   UNL     1     152.470 149.658 149.039  1.00  0.00    -0.028 C 
BRANCH   5   6
ATOM      6  C   UNL     1     153.928 149.412 149.359  1.00  0.00     0.005 C 
ATOM      7  C   UNL     1     154.657 150.750 149.490  1.00  0.00     0.012 C 
ATOM      8  C   UNL     1     154.558 148.560 148.251  1.00  0.00     0.012 C 
ENDBRANCH   5   6
ENDBRANCH   3   4
ENDBRANCH   2   3
ENDBRANCH   1   2
BRANCH   1   9
ATOM      9  C   UNL     1     148.410 150.813 152.252  1.00  0.00     0.100 C 
BRANCH   9  10
ATOM     10  C   UNL     1     147.973 149.723 151.318  1.00  0.00     0.220 C 
ATOM     11  O   UNL     1     147.312 150.021 150.286  1.00  0.00    -0.275 OA
ATOM     12  N   UNL     1     148.278 148.350 151.613  1.00  0.00    -0.352 N 
ATOM     13  H   UNL     1     148.793 148.114 152.497  1.00  0.00     0.163 HD
BRANCH  12  14
ATOM     14  C   UNL     1     147.895 147.256 150.723  1.00  0.00     0.151 C 
BRANCH  14  15
ATOM     15  C   UNL     1     148.982 147.000 149.713  1.00  0.00    -0.025 A 
ATOM     16  C   UNL     1     148.862 147.476 148.396  1.00  0.00     0.056 A 
ATOM     17  C   UNL     1     150.143 146.312 150.096  1.00  0.00     0.009 A 
ATOM     18  C   UNL     1     149.898 147.266 147.463  1.00  0.00     0.160 A 
ATOM     19  C   UNL     1     151.170 146.099 149.174  1.00  0.00     0.050 A 
ATOM     20  C   UNL     1     151.053 146.577 147.861  1.00  0.00     0.157 A 
BRANCH  18  21
ATOM     21  O   UNL     1     149.817 147.725 146.139  1.00  0.00    -0.493 OA
ATOM     22  C   UNL     1     148.638 148.248 145.537  1.00  0.00     0.278 C 
ENDBRANCH  18  21
BRANCH  20  23
ATOM     23  O   UNL     1     152.083 146.369 146.943  1.00  0.00    -0.504 OA
ATOM     24  H   UNL     1     153.057 146.453 147.213  1.00  0.00     0.293 HD
ENDBRANCH  20  23
ENDBRANCH  14  15
ENDBRANCH  12  14
ENDBRANCH   9  10
ENDBRANCH   1   9
TORSDOF 10
ENDMDL
MODEL 6
REMARK VINA RESULT:    -6.708      1.256      2.432
REMARK INTER + INTRA:         -11.650
REMARK INTER:                 -10.302
REMARK INTRA:                  -1.348
REMARK UNBOUND:                -1.217
REMARK SMILES COc1cc(CNC(=O)CCCCC=CC(C)C)ccc1O
REMARK SMILES IDX 11 1 12 2 13 3 14 4 15 5 16 6 17 7 18 8 10 9 8 10 9 11 7 12
REMARK SMILES IDX 6 14 5 15 4 16 19 17 3 18 20 19 21 20 2 21 1 22 22 23
REMARK H PARENT 7 13 22 24
REMARK Flexibility Score: inf
ROOT
ATOM      1  C   UNL     1     148.170 146.876 148.674  1.00  0.00     0.010 C 
ENDROOT
BRANCH   1   2
ATOM      2  C   UNL     1     148.128 148.404 148.868  1.00  0.00     0.005 C 
BRANCH   2   3
ATOM      3  C   UNL     1     147.199 148.852 150.008  1.00  0.00     0.027 C 
BRANCH   3   4
ATOM      4  C   UNL     1     147.618 148.327 151.358  1.00  0.00    -0.031 C 
ATOM      5  C   UNL     1     147.955 149.091 152.414  1.00  0.00    -0.028 C 
BRANCH   5   6
ATOM      6  C   UNL     1     147.994 150.603 152.424  1.00  0.00     0.005 C 
ATOM      7  C   UNL     1     149.351 151.077 152.947  1.00  0.00     0.012 C 
ATOM      8  C   UNL     1     146.859 151.138 153.306  1.00  0.00     0.012 C 
ENDBRANCH   5   6
ENDBRANCH   3   4
ENDBRANCH   2   3
ENDBRANCH   1   2
BRANCH   1   9
ATOM      9  C   UNL     1     148.664 146.478 147.277  1.00  0.00     0.100 C 
BRANCH   9  10
ATOM     10  C   UNL     1     150.064 146.971 147.056  1.00  0.00     0.220 C 
ATOM     11  O   UNL     1     150.290 147.792 146.126  1.00  0.00    -0.275 OA
ATOM     12  N   UNL     1     151.141 146.489 147.876  1.00  0.00    -0.352 N 
ATOM     13  H   UNL     1     150.944 145.773 148.619  1.00  0.00     0.163 HD
BRANCH  12  14
ATOM     14  C   UNL     1     152.516 146.957 147.714  1.00  0.00     0.151 C 
BRANCH  14  15
ATOM     15  C   UNL     1     152.782 148.120 148.633  1.00  0.00    -0.025 A 
ATOM     16  C   UNL     1     153.956 148.882 148.501  1.00  0.00     0.056 A 
ATOM     17  C   UNL     1     151.836 148.471 149.607  1.00  0.00     0.009 A 
ATOM     18  C   UNL     1     154.185 149.993 149.340  1.00  0.00     0.160 A 
ATOM     19  C   UNL     1     152.060 149.569 150.441  1.00  0.00     0.050 A 
ATOM     20  C   UNL     1     153.229 150.332 150.308  1.00  0.00     0.157 A 
BRANCH  18  21
ATOM     21  O   UNL     1     155.344 150.778 149.241  1.00  0.00    -0.493 OA
ATOM     22  C   UNL     1     156.626 150.389 149.719  1.00  0.00     0.278 C 
ENDBRANCH  18  21
BRANCH  20  23
ATOM     23  O   UNL     1     153.447 151.432 151.138  1.00  0.00    -0.504 OA
ATOM     24  H   UNL     1     154.231 152.057 150.992  1.00  0.00     0.293 HD
ENDBRANCH  20  23
ENDBRANCH  14  15
ENDBRANCH  12  14
ENDBRANCH   9  10
ENDBRANCH   1   9
TORSDOF 10
ENDMDL
MODEL 7
REMARK VINA RESULT:    -6.686      3.913      5.847
REMARK INTER + INTRA:         -11.616
REMARK INTER:                 -10.881
REMARK INTRA:                  -0.735
REMARK UNBOUND:                -1.217
REMARK SMILES COc1cc(CNC(=O)CCCCC=CC(C)C)ccc1O
REMARK SMILES IDX 11 1 12 2 13 3 14 4 15 5 16 6 17 7 18 8 10 9 8 10 9 11 7 12
REMARK SMILES IDX 6 14 5 15 4 16 19 17 3 18 20 19 21 20 2 21 1 22 22 23
REMARK H PARENT 7 13 22 24
REMARK Flexibility Score: inf
ROOT
ATOM      1  C   UNL     1     143.896 146.887 150.363  1.00  0.00     0.010 C 
ENDROOT
BRANCH   1   2
ATOM      2  C   UNL     1     143.043 146.351 149.196  1.00  0.00     0.005 C 
BRANCH   2   3
ATOM      3  C   UNL     1     143.613 145.074 148.557  1.00  0.00     0.027 C 
BRANCH   3   4
ATOM      4  C   UNL     1     142.760 143.855 148.803  1.00  0.00    -0.031 C 
ATOM      5  C   UNL     1     143.164 142.582 148.634  1.00  0.00    -0.028 C 
BRANCH   5   6
ATOM      6  C   UNL     1     144.531 142.154 148.147  1.00  0.00     0.005 C 
ATOM      7  C   UNL     1     144.505 141.991 146.627  1.00  0.00     0.012 C 
ATOM      8  C   UNL     1     144.927 140.837 148.825  1.00  0.00     0.012 C 
ENDBRANCH   5   6
ENDBRANCH   3   4
ENDBRANCH   2   3
ENDBRANCH   1   2
BRANCH   1   9
ATOM      9  C   UNL     1     145.342 146.374 150.313  1.00  0.00     0.100 C 
BRANCH   9  10
ATOM     10  C   UNL     1     146.306 147.523 150.340  1.00  0.00     0.220 C 
ATOM     11  O   UNL     1     145.861 148.704 150.318  1.00  0.00    -0.275 OA
ATOM     12  N   UNL     1     147.722 147.282 150.360  1.00  0.00    -0.352 N 
ATOM     13  H   UNL     1     148.078 146.295 150.336  1.00  0.00     0.163 HD
BRANCH  12  14
ATOM     14  C   UNL     1     148.699 148.368 150.410  1.00  0.00     0.151 C 
BRANCH  14  15
ATOM     15  C   UNL     1     149.953 147.976 149.674  1.00  0.00    -0.025 A 
ATOM     16  C   UNL     1     151.058 148.843 149.631  1.00  0.00     0.056 A 
ATOM     17  C   UNL     1     150.035 146.721 149.054  1.00  0.00     0.009 A 
ATOM     18  C   UNL     1     152.244 148.458 148.971  1.00  0.00     0.160 A 
ATOM     19  C   UNL     1     151.207 146.336 148.397  1.00  0.00     0.050 A 
ATOM     20  C   UNL     1     152.311 147.199 148.357  1.00  0.00     0.157 A 
BRANCH  18  21
ATOM     21  O   UNL     1     153.369 149.294 148.906  1.00  0.00    -0.493 OA
ATOM     22  C   UNL     1     153.353 150.691 149.177  1.00  0.00     0.278 C 
ENDBRANCH  18  21
BRANCH  20  23
ATOM     23  O   UNL     1     153.482 146.810 147.706  1.00  0.00    -0.504 OA
ATOM     24  H   UNL     1     153.462 146.185 146.908  1.00  0.00     0.293 HD
ENDBRANCH  20  23
ENDBRANCH  14  15
ENDBRANCH  12  14
ENDBRANCH   9  10
ENDBRANCH   1   9
TORSDOF 10
ENDMDL
MODEL 8
REMARK VINA RESULT:    -6.588      1.907      4.575
REMARK INTER + INTRA:         -11.464
REMARK INTER:                 -10.192
REMARK INTRA:                  -1.272
REMARK UNBOUND:                -1.217
REMARK SMILES COc1cc(CNC(=O)CCCCC=CC(C)C)ccc1O
REMARK SMILES IDX 11 1 12 2 13 3 14 4 15 5 16 6 17 7 18 8 10 9 8 10 9 11 7 12
REMARK SMILES IDX 6 14 5 15 4 16 19 17 3 18 20 19 21 20 2 21 1 22 22 23
REMARK H PARENT 7 13 22 24
REMARK Flexibility Score: inf
ROOT
ATOM      1  C   UNL     1     147.433 149.712 150.329  1.00  0.00     0.010 C 
ENDROOT
BRANCH   1   2
ATOM      2  C   UNL     1     146.612 148.456 150.682  1.00  0.00     0.005 C 
BRANCH   2   3
ATOM      3  C   UNL     1     147.123 147.178 149.996  1.00  0.00     0.027 C 
BRANCH   3   4
ATOM      4  C   UNL     1     148.624 147.132 149.866  1.00  0.00    -0.031 C 
ATOM      5  C   UNL     1     149.296 147.010 148.706  1.00  0.00    -0.028 C 
BRANCH   5   6
ATOM      6  C   UNL     1     148.665 146.875 147.338  1.00  0.00     0.005 C 
ATOM      7  C   UNL     1     149.182 145.605 146.659  1.00  0.00     0.012 C 
ATOM      8  C   UNL     1     149.000 148.112 146.496  1.00  0.00     0.012 C 
ENDBRANCH   5   6
ENDBRANCH   3   4
ENDBRANCH   2   3
ENDBRANCH   1   2
BRANCH   1   9
ATOM      9  C   UNL     1     147.473 150.726 151.481  1.00  0.00     0.100 C 
BRANCH   9  10
ATOM     10  C   UNL     1     148.843 150.771 152.091  1.00  0.00     0.220 C 
ATOM     11  O   UNL     1     149.022 151.420 153.158  1.00  0.00    -0.275 OA
ATOM     12  N   UNL     1     149.946 150.109 151.451  1.00  0.00    -0.352 N 
ATOM     13  H   UNL     1     149.789 149.609 150.541  1.00  0.00     0.163 HD
BRANCH  12  14
ATOM     14  C   UNL     1     151.292 150.106 152.019  1.00  0.00     0.151 C 
BRANCH  14  15
ATOM     15  C   UNL     1     152.319 149.988 150.924  1.00  0.00    -0.025 A 
ATOM     16  C   UNL     1     152.152 149.057 149.884  1.00  0.00     0.056 A 
ATOM     17  C   UNL     1     153.435 150.837 150.918  1.00  0.00     0.009 A 
ATOM     18  C   UNL     1     153.098 148.973 148.841  1.00  0.00     0.160 A 
ATOM     19  C   UNL     1     154.376 150.756 149.888  1.00  0.00     0.050 A 
ATOM     20  C   UNL     1     154.208 149.830 148.849  1.00  0.00     0.157 A 
BRANCH  18  21
ATOM     21  O   UNL     1     152.969 148.057 147.785  1.00  0.00    -0.493 OA
ATOM     22  C   UNL     1     152.513 146.717 147.931  1.00  0.00     0.278 C 
ENDBRANCH  18  21
BRANCH  20  23
ATOM     23  O   UNL     1     155.145 149.755 147.818  1.00  0.00    -0.504 OA
ATOM     24  H   UNL     1     156.116 149.528 148.000  1.00  0.00     0.293 HD
ENDBRANCH  20  23
ENDBRANCH  14  15
ENDBRANCH  12  14
ENDBRANCH   9  10
ENDBRANCH   1   9
TORSDOF 10
ENDMDL
MODEL 9
REMARK VINA RESULT:    -6.495      1.981      5.581
REMARK INTER + INTRA:         -11.320
REMARK INTER:                  -9.881
REMARK INTRA:                  -1.439
REMARK UNBOUND:                -1.217
REMARK SMILES COc1cc(CNC(=O)CCCCC=CC(C)C)ccc1O
REMARK SMILES IDX 11 1 12 2 13 3 14 4 15 5 16 6 17 7 18 8 10 9 8 10 9 11 7 12
REMARK SMILES IDX 6 14 5 15 4 16 19 17 3 18 20 19 21 20 2 21 1 22 22 23
REMARK H PARENT 7 13 22 24
REMARK Flexibility Score: inf
ROOT
ATOM      1  C   UNL     1     151.334 145.864 147.125  1.00  0.00     0.010 C 
ENDROOT
BRANCH   1   2
ATOM      2  C   UNL     1     151.683 146.606 148.430  1.00  0.00     0.005 C 
BRANCH   2   3
ATOM      3  C   UNL     1     152.941 147.484 148.318  1.00  0.00     0.027 C 
BRANCH   3   4
ATOM      4  C   UNL     1     152.636 148.918 147.970  1.00  0.00    -0.031 C 
ATOM      5  C   UNL     1     153.257 149.990 148.496  1.00  0.00    -0.028 C 
BRANCH   5   6
ATOM      6  C   UNL     1     154.350 149.944 149.541  1.00  0.00     0.005 C 
ATOM      7  C   UNL     1     154.193 151.126 150.499  1.00  0.00     0.012 C 
ATOM      8  C   UNL     1     155.719 149.987 148.852  1.00  0.00     0.012 C 
ENDBRANCH   5   6
ENDBRANCH   3   4
ENDBRANCH   2   3
ENDBRANCH   1   2
BRANCH   1   9
ATOM      9  C   UNL     1     149.822 145.824 146.862  1.00  0.00     0.100 C 
BRANCH   9  10
ATOM     10  C   UNL     1     149.209 147.168 147.125  1.00  0.00     0.220 C 
ATOM     11  O   UNL     1     149.343 148.086 146.269  1.00  0.00    -0.275 OA
ATOM     12  N   UNL     1     148.505 147.418 148.352  1.00  0.00    -0.352 N 
ATOM     13  H   UNL     1     148.438 146.657 149.072  1.00  0.00     0.163 HD
BRANCH  12  14
ATOM     14  C   UNL     1     147.871 148.702 148.642  1.00  0.00     0.151 C 
BRANCH  14  15
ATOM     15  C   UNL     1     148.475 149.313 149.879  1.00  0.00    -0.025 A 
ATOM     16  C   UNL     1     147.654 149.859 150.881  1.00  0.00     0.056 A 
ATOM     17  C   UNL     1     149.867 149.307 150.053  1.00  0.00     0.009 A 
ATOM     18  C   UNL     1     148.221 150.398 152.055  1.00  0.00     0.160 A 
ATOM     19  C   UNL     1     150.433 149.842 151.213  1.00  0.00     0.050 A 
ATOM     20  C   UNL     1     149.614 150.383 152.214  1.00  0.00     0.157 A 
BRANCH  18  21
ATOM     21  O   UNL     1     147.437 150.952 153.078  1.00  0.00    -0.493 OA
ATOM     22  C   UNL     1     146.044 150.717 153.245  1.00  0.00     0.278 C 
ENDBRANCH  18  21
BRANCH  20  23
ATOM     23  O   UNL     1     150.182 150.912 153.375  1.00  0.00    -0.504 OA
ATOM     24  H   UNL     1     149.607 151.280 154.124  1.00  0.00     0.293 HD
ENDBRANCH  20  23
ENDBRANCH  14  15
ENDBRANCH  12  14
ENDBRANCH   9  10
ENDBRANCH   1   9
TORSDOF 10
ENDMDL
