MODEL 1
REMARK VINA RESULT:     0.011      0.000      0.000
REMARK INTER + INTRA:           0.011
REMARK INTER:                   0.011
REMARK INTRA:                   0.000
REMARK UNBOUND:                 0.000
REMARK SMILES CC1=CC[C@]23C[C@H]1C(C)(C)[C@H]2CC[C@H]3C
REMARK SMILES IDX 15 1 14 2 13 3 12 4 11 5 5 6 4 7 3 8 2 9 7 10 6 11 8 12 9 13
REMARK SMILES IDX 10 14 1 15
REMARK H PARENT
REMARK Flexibility Score: inf
ROOT
ATOM      1  C   UNL     1     151.568 136.441 158.608  1.00  0.00     0.008 C 
ATOM      2  C   UNL     1     151.010 136.698 160.018  1.00  0.00    -0.007 C 
ATOM      3  C   UNL     1     150.439 138.115 160.161  1.00  0.00     0.004 C 
ATOM      4  C   UNL     1     151.366 138.855 161.108  1.00  0.00     0.005 C 
ATOM      5  C   UNL     1     151.920 137.778 162.051  1.00  0.00     0.002 C 
ATOM      6  C   UNL     1     152.037 136.517 161.176  1.00  0.00    -0.020 C 
ATOM      7  C   UNL     1     151.742 135.221 162.000  1.00  0.00     0.035 C 
ATOM      8  C   UNL     1     152.845 134.875 162.984  1.00  0.00    -0.027 C 
ATOM      9  C   UNL     1     154.011 135.561 163.012  1.00  0.00    -0.074 C 
ATOM     10  C   UNL     1     154.175 136.806 162.142  1.00  0.00     0.021 C 
ATOM     11  C   UNL     1     153.525 136.508 160.792  1.00  0.00     0.016 C 
ATOM     12  C   UNL     1     153.343 138.013 162.679  1.00  0.00    -0.025 C 
ATOM     13  C   UNL     1     153.247 138.048 164.227  1.00  0.00     0.012 C 
ATOM     14  C   UNL     1     154.030 139.334 162.244  1.00  0.00     0.012 C 
ATOM     15  C   UNL     1     155.117 135.120 163.930  1.00  0.00     0.039 C 
ENDROOT
TORSDOF 0
ENDMDL
MODEL 2
REMARK VINA RESULT:     0.552      1.075      3.145
REMARK INTER + INTRA:           0.552
REMARK INTER:                   0.552
REMARK INTRA:                   0.000
REMARK UNBOUND:                 0.000
REMARK SMILES CC1=CC[C@]23C[C@H]1C(C)(C)[C@H]2CC[C@H]3C
REMARK SMILES IDX 15 1 14 2 13 3 12 4 11 5 5 6 4 7 3 8 2 9 7 10 6 11 8 12 9 13
REMARK SMILES IDX 10 14 1 15
REMARK H PARENT
REMARK Flexibility Score: inf
ROOT
ATOM      1  C   UNL     1     150.187 137.595 160.075  1.00  0.00     0.008 C 
ATOM      2  C   UNL     1     151.718 137.474 159.982  1.00  0.00    -0.007 C 
ATOM      3  C   UNL     1     152.155 136.101 159.454  1.00  0.00     0.004 C 
ATOM      4  C   UNL     1     152.828 135.392 160.616  1.00  0.00     0.005 C 
ATOM      5  C   UNL     1     153.454 136.511 161.461  1.00  0.00     0.002 C 
ATOM      6  C   UNL     1     152.479 137.694 161.324  1.00  0.00    -0.020 C 
ATOM      7  C   UNL     1     153.237 139.062 161.330  1.00  0.00     0.035 C 
ATOM      8  C   UNL     1     153.794 139.429 162.694  1.00  0.00    -0.027 C 
ATOM      9  C   UNL     1     153.518 138.693 163.795  1.00  0.00    -0.074 C 
ATOM     10  C   UNL     1     152.754 137.378 163.651  1.00  0.00     0.021 C 
ATOM     11  C   UNL     1     151.652 137.602 162.617  1.00  0.00     0.016 C 
ATOM     12  C   UNL     1     153.627 136.257 163.004  1.00  0.00    -0.025 C 
ATOM     13  C   UNL     1     155.125 136.346 163.397  1.00  0.00     0.012 C 
ATOM     14  C   UNL     1     153.118 134.875 163.491  1.00  0.00     0.012 C 
ATOM     15  C   UNL     1     154.005 139.149 165.142  1.00  0.00     0.039 C 
ENDROOT
TORSDOF 0
ENDMDL
MODEL 3
REMARK VINA RESULT:     1.974      0.964      3.900
REMARK INTER + INTRA:           1.974
REMARK INTER:                   1.974
REMARK INTRA:                   0.000
REMARK UNBOUND:                 0.000
REMARK SMILES CC1=CC[C@]23C[C@H]1C(C)(C)[C@H]2CC[C@H]3C
REMARK SMILES IDX 15 1 14 2 13 3 12 4 11 5 5 6 4 7 3 8 2 9 7 10 6 11 8 12 9 13
REMARK SMILES IDX 10 14 1 15
REMARK H PARENT
REMARK Flexibility Score: inf
ROOT
ATOM      1  C   UNL     1     154.872 139.942 162.212  1.00  0.00     0.008 C 
ATOM      2  C   UNL     1     153.587 139.411 162.869  1.00  0.00    -0.007 C 
ATOM      3  C   UNL     1     153.795 139.078 164.353  1.00  0.00     0.004 C 
ATOM      4  C   UNL     1     153.695 137.568 164.469  1.00  0.00     0.005 C 
ATOM      5  C   UNL     1     152.724 137.143 163.358  1.00  0.00     0.002 C 
ATOM      6  C   UNL     1     152.990 138.131 162.209  1.00  0.00    -0.020 C 
ATOM      7  C   UNL     1     151.680 138.456 161.421  1.00  0.00     0.035 C 
ATOM      8  C   UNL     1     151.193 137.298 160.569  1.00  0.00    -0.027 C 
ATOM      9  C   UNL     1     151.923 136.169 160.422  1.00  0.00    -0.074 C 
ATOM     10  C   UNL     1     153.197 135.982 161.245  1.00  0.00     0.021 C 
ATOM     11  C   UNL     1     153.917 137.329 161.281  1.00  0.00     0.016 C 
ATOM     12  C   UNL     1     152.890 135.702 162.749  1.00  0.00    -0.025 C 
ATOM     13  C   UNL     1     151.595 134.876 162.965  1.00  0.00     0.012 C 
ATOM     14  C   UNL     1     154.054 134.875 163.357  1.00  0.00     0.012 C 
ATOM     15  C   UNL     1     151.452 135.089 159.488  1.00  0.00     0.039 C 
ENDROOT
TORSDOF 0
ENDMDL
MODEL 4
REMARK VINA RESULT:     2.192     20.160     22.580
REMARK INTER + INTRA:           2.192
REMARK INTER:                   2.192
REMARK INTRA:                   0.000
REMARK UNBOUND:                 0.000
REMARK SMILES CC1=CC[C@]23C[C@H]1C(C)(C)[C@H]2CC[C@H]3C
REMARK SMILES IDX 15 1 14 2 13 3 12 4 11 5 5 6 4 7 3 8 2 9 7 10 6 11 8 12 9 13
REMARK SMILES IDX 10 14 1 15
REMARK H PARENT
REMARK Flexibility Score: inf
ROOT
ATOM      1  C   UNL     1     138.946 154.632 159.068  1.00  0.00     0.008 C 
ATOM      2  C   UNL     1     139.444 154.175 160.450  1.00  0.00    -0.007 C 
ATOM      3  C   UNL     1     140.202 152.843 160.376  1.00  0.00     0.004 C 
ATOM      4  C   UNL     1     139.333 151.818 161.080  1.00  0.00     0.005 C 
ATOM      5  C   UNL     1     138.570 152.607 162.154  1.00  0.00     0.002 C 
ATOM      6  C   UNL     1     138.330 153.991 161.524  1.00  0.00    -0.020 C 
ATOM      7  C   UNL     1     138.383 155.124 162.599  1.00  0.00     0.035 C 
ATOM      8  C   UNL     1     137.180 155.125 163.526  1.00  0.00    -0.027 C 
ATOM      9  C   UNL     1     136.126 154.303 163.320  1.00  0.00    -0.074 C 
ATOM     10  C   UNL     1     136.198 153.244 162.222  1.00  0.00     0.021 C 
ATOM     11  C   UNL     1     136.883 153.884 161.015  1.00  0.00     0.016 C 
ATOM     12  C   UNL     1     137.159 152.072 162.596  1.00  0.00    -0.025 C 
ATOM     13  C   UNL     1     137.160 151.744 164.112  1.00  0.00     0.012 C 
ATOM     14  C   UNL     1     136.698 150.785 161.861  1.00  0.00     0.012 C 
ATOM     15  C   UNL     1     134.912 154.407 164.201  1.00  0.00     0.039 C 
ENDROOT
TORSDOF 0
ENDMDL
