MODEL 1
REMARK VINA RESULT:    -3.698      0.000      0.000
REMARK INTER + INTRA:          -6.961
REMARK INTER:                  -5.643
REMARK INTRA:                  -1.318
REMARK UNBOUND:                -1.318
REMARK SMILES CCCCCCCCCCC(=O)[O-]
REMARK SMILES IDX 7 1 8 2 9 3 10 4 11 5 12 6 13 7 6 8 5 9 4 10 3 11 2 12 1 13
REMARK H PARENT
REMARK Flexibility Score: inf
ROOT
ATOM      1  C   UNL     1       4.861  -5.053  -8.346  1.00  0.00     0.000 C 
ENDROOT
BRANCH   1   2
ATOM      2  C   UNL     1       3.995  -6.324  -8.326  1.00  0.00     0.000 C 
BRANCH   2   3
ATOM      3  C   UNL     1       3.289  -6.546  -6.980  1.00  0.00     0.006 C 
BRANCH   3   4
ATOM      4  C   UNL     1       3.893  -5.653  -5.892  1.00  0.00     0.053 C 
BRANCH   4   5
ATOM      5  C   UNL     1       4.705  -6.470  -4.936  1.00  0.00     0.041 C 
ATOM      6  O   UNL     1       5.944  -6.275  -4.832  1.00  0.00    -0.550 OA
ATOM      7  O   UNL     1       4.101  -7.477  -4.195  1.00  0.00    -0.550 OA
ENDBRANCH   4   5
ENDBRANCH   3   4
ENDBRANCH   2   3
ENDBRANCH   1   2
BRANCH   1   8
ATOM      8  C   UNL     1       4.662  -4.145  -9.577  1.00  0.00     0.000 C 
BRANCH   8   9
ATOM      9  C   UNL     1       4.246  -2.698  -9.260  1.00  0.00    -0.000 C 
BRANCH   9  10
ATOM     10  C   UNL     1       3.541  -2.563  -7.901  1.00  0.00    -0.000 C 
BRANCH  10  11
ATOM     11  C   UNL     1       2.029  -2.366  -8.085  1.00  0.00    -0.000 C 
BRANCH  11  12
ATOM     12  C   UNL     1       1.255  -3.693  -8.071  1.00  0.00    -0.003 C 
ATOM     13  C   UNL     1       0.813  -4.134  -9.467  1.00  0.00     0.004 C 
ENDBRANCH  11  12
ENDBRANCH  10  11
ENDBRANCH   9  10
ENDBRANCH   8   9
ENDBRANCH   1   8
TORSDOF 9
ENDMDL
MODEL 2
REMARK VINA RESULT:    -3.684      0.898      1.421
REMARK INTER + INTRA:          -6.940
REMARK INTER:                  -5.864
REMARK INTRA:                  -1.075
REMARK UNBOUND:                -1.318
REMARK SMILES CCCCCCCCCCC(=O)[O-]
REMARK SMILES IDX 7 1 8 2 9 3 10 4 11 5 12 6 13 7 6 8 5 9 4 10 3 11 2 12 1 13
REMARK H PARENT
REMARK Flexibility Score: inf
ROOT
ATOM      1  C   UNL     1       4.452  -6.462  -8.252  1.00  0.00     0.000 C 
ENDROOT
BRANCH   1   2
ATOM      2  C   UNL     1       3.200  -6.934  -7.494  1.00  0.00     0.000 C 
BRANCH   2   3
ATOM      3  C   UNL     1       3.206  -6.520  -6.014  1.00  0.00     0.006 C 
BRANCH   3   4
ATOM      4  C   UNL     1       4.542  -5.878  -5.631  1.00  0.00     0.053 C 
BRANCH   4   5
ATOM      5  C   UNL     1       5.266  -6.730  -4.637  1.00  0.00     0.041 C 
ATOM      6  O   UNL     1       4.631  -7.555  -3.928  1.00  0.00    -0.550 OA
ATOM      7  O   UNL     1       6.635  -6.580  -4.458  1.00  0.00    -0.550 OA
ENDBRANCH   4   5
ENDBRANCH   3   4
ENDBRANCH   2   3
ENDBRANCH   1   2
BRANCH   1   8
ATOM      8  C   UNL     1       4.211  -5.334  -9.275  1.00  0.00     0.000 C 
BRANCH   8   9
ATOM      9  C   UNL     1       4.777  -3.959  -8.878  1.00  0.00    -0.000 C 
BRANCH   9  10
ATOM     10  C   UNL     1       3.690  -2.882  -8.740  1.00  0.00    -0.000 C 
BRANCH  10  11
ATOM     11  C   UNL     1       2.826  -3.131  -7.495  1.00  0.00    -0.000 C 
BRANCH  11  12
ATOM     12  C   UNL     1       1.419  -3.639  -7.844  1.00  0.00    -0.003 C 
ATOM     13  C   UNL     1       0.640  -2.661  -8.725  1.00  0.00     0.004 C 
ENDBRANCH  11  12
ENDBRANCH  10  11
ENDBRANCH   9  10
ENDBRANCH   8   9
ENDBRANCH   1   8
TORSDOF 9
ENDMDL
MODEL 3
REMARK VINA RESULT:    -3.681      2.033      3.480
REMARK INTER + INTRA:          -6.935
REMARK INTER:                  -6.274
REMARK INTRA:                  -0.661
REMARK UNBOUND:                -1.318
REMARK SMILES CCCCCCCCCCC(=O)[O-]
REMARK SMILES IDX 7 1 8 2 9 3 10 4 11 5 12 6 13 7 6 8 5 9 4 10 3 11 2 12 1 13
REMARK H PARENT
REMARK Flexibility Score: inf
ROOT
ATOM      1  C   UNL     1       3.535  -6.704  -5.127  1.00  0.00     0.000 C 
ENDROOT
BRANCH   1   2
ATOM      2  C   UNL     1       4.762  -7.250  -4.376  1.00  0.00     0.000 C 
BRANCH   2   3
ATOM      3  C   UNL     1       6.047  -6.465  -4.681  1.00  0.00     0.006 C 
BRANCH   3   4
ATOM      4  C   UNL     1       6.957  -7.251  -5.630  1.00  0.00     0.053 C 
BRANCH   4   5
ATOM      5  C   UNL     1       8.130  -7.810  -4.887  1.00  0.00     0.041 C 
ATOM      6  O   UNL     1       9.277  -7.320  -5.055  1.00  0.00    -0.550 OA
ATOM      7  O   UNL     1       7.963  -8.903  -4.047  1.00  0.00    -0.550 OA
ENDBRANCH   4   5
ENDBRANCH   3   4
ENDBRANCH   2   3
ENDBRANCH   1   2
BRANCH   1   8
ATOM      8  C   UNL     1       3.435  -7.123  -6.608  1.00  0.00     0.000 C 
BRANCH   8   9
ATOM      9  C   UNL     1       3.491  -5.964  -7.619  1.00  0.00    -0.000 C 
BRANCH   9  10
ATOM     10  C   UNL     1       3.508  -4.583  -6.945  1.00  0.00    -0.000 C 
BRANCH  10  11
ATOM     11  C   UNL     1       2.210  -3.815  -7.233  1.00  0.00    -0.000 C 
BRANCH  11  12
ATOM     12  C   UNL     1       2.445  -2.552  -8.075  1.00  0.00    -0.003 C 
ATOM     13  C   UNL     1       3.924  -2.316  -8.386  1.00  0.00     0.004 C 
ENDBRANCH  11  12
ENDBRANCH  10  11
ENDBRANCH   9  10
ENDBRANCH   8   9
ENDBRANCH   1   8
TORSDOF 9
ENDMDL
MODEL 4
REMARK VINA RESULT:    -3.675      1.869      2.867
REMARK INTER + INTRA:          -6.926
REMARK INTER:                  -6.616
REMARK INTRA:                  -0.310
REMARK UNBOUND:                -1.318
REMARK SMILES CCCCCCCCCCC(=O)[O-]
REMARK SMILES IDX 7 1 8 2 9 3 10 4 11 5 12 6 13 7 6 8 5 9 4 10 3 11 2 12 1 13
REMARK H PARENT
REMARK Flexibility Score: inf
ROOT
ATOM      1  C   UNL     1       4.224  -5.554  -5.772  1.00  0.00     0.000 C 
ENDROOT
BRANCH   1   2
ATOM      2  C   UNL     1       3.820  -6.684  -4.808  1.00  0.00     0.000 C 
BRANCH   2   3
ATOM      3  C   UNL     1       5.023  -7.320  -4.096  1.00  0.00     0.006 C 
BRANCH   3   4
ATOM      4  C   UNL     1       6.327  -6.621  -4.494  1.00  0.00     0.053 C 
BRANCH   4   5
ATOM      5  C   UNL     1       7.363  -7.628  -4.882  1.00  0.00     0.041 C 
ATOM      6  O   UNL     1       7.028  -8.814  -5.140  1.00  0.00    -0.550 OA
ATOM      7  O   UNL     1       8.704  -7.270  -4.912  1.00  0.00    -0.550 OA
ENDBRANCH   4   5
ENDBRANCH   3   4
ENDBRANCH   2   3
ENDBRANCH   1   2
BRANCH   1   8
ATOM      8  C   UNL     1       3.130  -5.126  -6.772  1.00  0.00     0.000 C 
BRANCH   8   9
ATOM      9  C   UNL     1       3.427  -3.831  -7.549  1.00  0.00    -0.000 C 
BRANCH   9  10
ATOM     10  C   UNL     1       2.212  -2.895  -7.637  1.00  0.00    -0.000 C 
BRANCH  10  11
ATOM     11  C   UNL     1       1.047  -3.576  -8.372  1.00  0.00    -0.000 C 
BRANCH  11  12
ATOM     12  C   UNL     1       0.213  -2.587  -9.200  1.00  0.00    -0.003 C 
ATOM     13  C   UNL     1      -1.022  -3.235  -9.826  1.00  0.00     0.004 C 
ENDBRANCH  11  12
ENDBRANCH  10  11
ENDBRANCH   9  10
ENDBRANCH   8   9
ENDBRANCH   1   8
TORSDOF 9
ENDMDL
MODEL 5
REMARK VINA RESULT:    -3.641      1.325      2.441
REMARK INTER + INTRA:          -6.875
REMARK INTER:                  -5.818
REMARK INTRA:                  -1.057
REMARK UNBOUND:                -1.318
REMARK SMILES CCCCCCCCCCC(=O)[O-]
REMARK SMILES IDX 7 1 8 2 9 3 10 4 11 5 12 6 13 7 6 8 5 9 4 10 3 11 2 12 1 13
REMARK H PARENT
REMARK Flexibility Score: inf
ROOT
ATOM      1  C   UNL     1       2.995  -6.616  -7.747  1.00  0.00     0.000 C 
ENDROOT
BRANCH   1   2
ATOM      2  C   UNL     1       4.411  -6.189  -7.326  1.00  0.00     0.000 C 
BRANCH   2   3
ATOM      3  C   UNL     1       4.496  -5.778  -5.848  1.00  0.00     0.006 C 
BRANCH   3   4
ATOM      4  C   UNL     1       3.660  -6.715  -4.970  1.00  0.00     0.053 C 
BRANCH   4   5
ATOM      5  C   UNL     1       4.481  -7.884  -4.525  1.00  0.00     0.041 C 
ATOM      6  O   UNL     1       4.477  -8.951  -5.193  1.00  0.00    -0.550 OA
ATOM      7  O   UNL     1       5.211  -7.813  -3.346  1.00  0.00    -0.550 OA
ENDBRANCH   4   5
ENDBRANCH   3   4
ENDBRANCH   2   3
ENDBRANCH   1   2
BRANCH   1   8
ATOM      8  C   UNL     1       2.738  -6.618  -9.268  1.00  0.00     0.000 C 
BRANCH   8   9
ATOM      9  C   UNL     1       1.579  -5.719  -9.736  1.00  0.00    -0.000 C 
BRANCH   9  10
ATOM     10  C   UNL     1       1.940  -4.226  -9.726  1.00  0.00    -0.000 C 
BRANCH  10  11
ATOM     11  C   UNL     1       1.257  -3.504  -8.554  1.00  0.00    -0.000 C 
BRANCH  11  12
ATOM     12  C   UNL     1       2.260  -3.003  -7.504  1.00  0.00    -0.003 C 
ATOM     13  C   UNL     1       3.617  -2.641  -8.109  1.00  0.00     0.004 C 
ENDBRANCH  11  12
ENDBRANCH  10  11
ENDBRANCH   9  10
ENDBRANCH   8   9
ENDBRANCH   1   8
TORSDOF 9
ENDMDL
MODEL 6
REMARK VINA RESULT:    -3.559      1.760      3.044
REMARK INTER + INTRA:          -6.749
REMARK INTER:                  -5.969
REMARK INTRA:                  -0.780
REMARK UNBOUND:                -1.318
REMARK SMILES CCCCCCCCCCC(=O)[O-]
REMARK SMILES IDX 7 1 8 2 9 3 10 4 11 5 12 6 13 7 6 8 5 9 4 10 3 11 2 12 1 13
REMARK H PARENT
REMARK Flexibility Score: inf
ROOT
ATOM      1  C   UNL     1       4.405  -5.435  -6.395  1.00  0.00     0.000 C 
ENDROOT
BRANCH   1   2
ATOM      2  C   UNL     1       5.025  -6.230  -5.232  1.00  0.00     0.000 C 
BRANCH   2   3
ATOM      3  C   UNL     1       3.999  -7.101  -4.492  1.00  0.00     0.006 C 
BRANCH   3   4
ATOM      4  C   UNL     1       4.606  -8.454  -4.108  1.00  0.00     0.053 C 
BRANCH   4   5
ATOM      5  C   UNL     1       4.988  -9.223  -5.335  1.00  0.00     0.041 C 
ATOM      6  O   UNL     1       6.138  -9.724  -5.434  1.00  0.00    -0.550 OA
ATOM      7  O   UNL     1       4.090  -9.343  -6.387  1.00  0.00    -0.550 OA
ENDBRANCH   4   5
ENDBRANCH   3   4
ENDBRANCH   2   3
ENDBRANCH   1   2
BRANCH   1   8
ATOM      8  C   UNL     1       2.997  -5.895  -6.825  1.00  0.00     0.000 C 
BRANCH   8   9
ATOM      9  C   UNL     1       2.340  -5.043  -7.925  1.00  0.00    -0.000 C 
BRANCH   9  10
ATOM     10  C   UNL     1       2.075  -3.596  -7.482  1.00  0.00    -0.000 C 
BRANCH  10  11
ATOM     11  C   UNL     1       2.642  -2.597  -8.503  1.00  0.00    -0.000 C 
BRANCH  11  12
ATOM     12  C   UNL     1       4.108  -2.235  -8.222  1.00  0.00    -0.003 C 
ATOM     13  C   UNL     1       5.049  -2.667  -9.347  1.00  0.00     0.004 C 
ENDBRANCH  11  12
ENDBRANCH  10  11
ENDBRANCH   9  10
ENDBRANCH   8   9
ENDBRANCH   1   8
TORSDOF 9
ENDMDL
MODEL 7
REMARK VINA RESULT:    -3.534      2.104      3.584
REMARK INTER + INTRA:          -6.712
REMARK INTER:                  -6.238
REMARK INTRA:                  -0.474
REMARK UNBOUND:                -1.318
REMARK SMILES CCCCCCCCCCC(=O)[O-]
REMARK SMILES IDX 7 1 8 2 9 3 10 4 11 5 12 6 13 7 6 8 5 9 4 10 3 11 2 12 1 13
REMARK H PARENT
REMARK Flexibility Score: inf
ROOT
ATOM      1  C   UNL     1       3.300  -3.012  -8.027  1.00  0.00     0.000 C 
ENDROOT
BRANCH   1   2
ATOM      2  C   UNL     1       2.779  -4.140  -7.119  1.00  0.00     0.000 C 
BRANCH   2   3
ATOM      3  C   UNL     1       3.876  -5.135  -6.713  1.00  0.00     0.006 C 
BRANCH   3   4
ATOM      4  C   UNL     1       3.325  -6.200  -5.760  1.00  0.00     0.053 C 
BRANCH   4   5
ATOM      5  C   UNL     1       4.418  -6.747  -4.897  1.00  0.00     0.041 C 
ATOM      6  O   UNL     1       4.207  -7.753  -4.170  1.00  0.00    -0.550 OA
ATOM      7  O   UNL     1       5.655  -6.118  -4.860  1.00  0.00    -0.550 OA
ENDBRANCH   4   5
ENDBRANCH   3   4
ENDBRANCH   2   3
ENDBRANCH   1   2
BRANCH   1   8
ATOM      8  C   UNL     1       4.319  -3.453  -9.098  1.00  0.00     0.000 C 
BRANCH   8   9
ATOM      9  C   UNL     1       4.984  -2.306  -9.878  1.00  0.00    -0.000 C 
BRANCH   9  10
ATOM     10  C   UNL     1       6.412  -2.006  -9.398  1.00  0.00    -0.000 C 
BRANCH  10  11
ATOM     11  C   UNL     1       6.565  -0.523  -9.024  1.00  0.00    -0.000 C 
BRANCH  11  12
ATOM     12  C   UNL     1       5.980  -0.200  -7.640  1.00  0.00    -0.003 C 
ATOM     13  C   UNL     1       6.671   0.988  -6.970  1.00  0.00     0.004 C 
ENDBRANCH  11  12
ENDBRANCH  10  11
ENDBRANCH   9  10
ENDBRANCH   8   9
ENDBRANCH   1   8
TORSDOF 9
ENDMDL
MODEL 8
REMARK VINA RESULT:    -3.461      1.653      2.354
REMARK INTER + INTRA:          -6.600
REMARK INTER:                  -5.622
REMARK INTRA:                  -0.978
REMARK UNBOUND:                -1.318
REMARK SMILES CCCCCCCCCCC(=O)[O-]
REMARK SMILES IDX 7 1 8 2 9 3 10 4 11 5 12 6 13 7 6 8 5 9 4 10 3 11 2 12 1 13
REMARK H PARENT
REMARK Flexibility Score: inf
ROOT
ATOM      1  C   UNL     1       3.801  -4.735  -6.890  1.00  0.00     0.000 C 
ENDROOT
BRANCH   1   2
ATOM      2  C   UNL     1       3.028  -5.910  -6.267  1.00  0.00     0.000 C 
BRANCH   2   3
ATOM      3  C   UNL     1       3.878  -7.184  -6.141  1.00  0.00     0.006 C 
BRANCH   3   4
ATOM      4  C   UNL     1       5.367  -6.841  -6.040  1.00  0.00     0.053 C 
BRANCH   4   5
ATOM      5  C   UNL     1       5.879  -7.133  -4.665  1.00  0.00     0.041 C 
ATOM      6  O   UNL     1       7.117  -7.220  -4.456  1.00  0.00    -0.550 OA
ATOM      7  O   UNL     1       4.987  -7.359  -3.624  1.00  0.00    -0.550 OA
ENDBRANCH   4   5
ENDBRANCH   3   4
ENDBRANCH   2   3
ENDBRANCH   1   2
BRANCH   1   8
ATOM      8  C   UNL     1       2.946  -3.496  -7.227  1.00  0.00     0.000 C 
BRANCH   8   9
ATOM      9  C   UNL     1       1.474  -3.790  -7.564  1.00  0.00    -0.000 C 
BRANCH   9  10
ATOM     10  C   UNL     1       1.089  -3.358  -8.987  1.00  0.00    -0.000 C 
BRANCH  10  11
ATOM     11  C   UNL     1       1.716  -4.294 -10.032  1.00  0.00    -0.000 C 
BRANCH  11  12
ATOM     12  C   UNL     1       1.159  -5.723  -9.956  1.00  0.00    -0.003 C 
ATOM     13  C   UNL     1       2.252  -6.774  -9.762  1.00  0.00     0.004 C 
ENDBRANCH  11  12
ENDBRANCH  10  11
ENDBRANCH   9  10
ENDBRANCH   8   9
ENDBRANCH   1   8
TORSDOF 9
ENDMDL
MODEL 9
REMARK VINA RESULT:    -3.461      1.643      2.835
REMARK INTER + INTRA:          -6.599
REMARK INTER:                  -5.588
REMARK INTRA:                  -1.011
REMARK UNBOUND:                -1.318
REMARK SMILES CCCCCCCCCCC(=O)[O-]
REMARK SMILES IDX 7 1 8 2 9 3 10 4 11 5 12 6 13 7 6 8 5 9 4 10 3 11 2 12 1 13
REMARK H PARENT
REMARK Flexibility Score: inf
ROOT
ATOM      1  C   UNL     1       6.560  -6.721  -7.919  1.00  0.00     0.000 C 
ENDROOT
BRANCH   1   2
ATOM      2  C   UNL     1       6.211  -7.667  -6.757  1.00  0.00     0.000 C 
BRANCH   2   3
ATOM      3  C   UNL     1       6.829  -7.225  -5.422  1.00  0.00     0.006 C 
BRANCH   3   4
ATOM      4  C   UNL     1       5.838  -6.384  -4.612  1.00  0.00     0.053 C 
BRANCH   4   5
ATOM      5  C   UNL     1       4.621  -7.188  -4.276  1.00  0.00     0.041 C 
ATOM      6  O   UNL     1       3.474  -6.691  -4.422  1.00  0.00    -0.550 OA
ATOM      7  O   UNL     1       4.755  -8.469  -3.756  1.00  0.00    -0.550 OA
ENDBRANCH   4   5
ENDBRANCH   3   4
ENDBRANCH   2   3
ENDBRANCH   1   2
BRANCH   1   8
ATOM      8  C   UNL     1       5.354  -6.022  -8.579  1.00  0.00     0.000 C 
BRANCH   8   9
ATOM      9  C   UNL     1       3.997  -6.713  -8.357  1.00  0.00    -0.000 C 
BRANCH   9  10
ATOM     10  C   UNL     1       2.967  -5.801  -7.675  1.00  0.00    -0.000 C 
BRANCH  10  11
ATOM     11  C   UNL     1       3.647  -4.565  -7.066  1.00  0.00    -0.000 C 
BRANCH  11  12
ATOM     12  C   UNL     1       2.960  -3.252  -7.473  1.00  0.00    -0.003 C 
ATOM     13  C   UNL     1       3.889  -2.314  -8.245  1.00  0.00     0.004 C 
ENDBRANCH  11  12
ENDBRANCH  10  11
ENDBRANCH   9  10
ENDBRANCH   8   9
ENDBRANCH   1   8
TORSDOF 9
ENDMDL
