MODEL 1
REMARK VINA RESULT:    -5.283      0.000      0.000
REMARK INTER + INTRA:          -8.146
REMARK INTER:                  -7.445
REMARK INTRA:                  -0.701
REMARK UNBOUND:                -0.701
REMARK SMILES OC[C@@H]1O[C@@H](O[C@@H]2OC=C[C@H]3[C@@H](O)[C@@H]4O[C@]4(CO)[C@@H]23)[C@H](O)[C@H](O)[C@H]1O
REMARK SMILES IDX 6 1 7 2 10 3 9 4 11 5 8 6 19 7 12 8 16 9 14 10 15 11 13 12
REMARK SMILES IDX 17 14 18 15 5 17 20 18 4 19 22 20 3 21 24 22 21 23 23 25
REMARK SMILES IDX 2 27 1 28 25 30
REMARK H PARENT 13 13 18 16 21 24 23 26 1 29 25 31
REMARK Flexibility Score: inf
ROOT
ATOM      1  O   UNL     1     -14.166 -28.963 -11.368  1.00  0.00    -0.310 OA
ENDROOT
BRANCH   1   2
ATOM      2  C   UNL     1     -13.150 -29.679 -12.055  1.00  0.00     0.315 C 
ATOM      3  C   UNL     1     -14.193 -29.267 -14.684  1.00  0.00     0.018 C 
ATOM      4  C   UNL     1     -13.197 -28.506 -14.221  1.00  0.00     0.186 C 
ATOM      5  C   UNL     1     -14.676 -30.508 -13.952  1.00  0.00     0.059 C 
ATOM      6  O   UNL     1     -12.565 -28.803 -13.012  1.00  0.00    -0.472 OA
ATOM      7  C   UNL     1     -13.760 -30.909 -12.775  1.00  0.00     0.105 C 
ATOM      8  C   UNL     1     -14.663 -31.752 -14.864  1.00  0.00     0.154 C 
ATOM      9  C   UNL     1     -12.742 -31.880 -13.391  1.00  0.00     0.130 C 
ATOM     10  C   UNL     1     -13.293 -32.392 -14.664  1.00  0.00     0.183 C 
ATOM     11  O   UNL     1     -13.217 -33.203 -13.511  1.00  0.00    -0.360 OA
BRANCH   8  12
ATOM     12  O   UNL     1     -14.870 -31.429 -16.215  1.00  0.00    -0.390 OA
ATOM     13  H   UNL     1     -15.487 -30.648 -16.226  1.00  0.00     0.211 HD
ENDBRANCH   8  12
BRANCH   9  14
ATOM     14  C   UNL     1     -11.216 -31.765 -13.295  1.00  0.00     0.195 C 
BRANCH  14  15
ATOM     15  O   UNL     1     -10.665 -33.006 -12.946  1.00  0.00    -0.393 OA
ATOM     16  H   UNL     1      -9.698 -32.948 -13.160  1.00  0.00     0.210 HD
ENDBRANCH  14  15
ENDBRANCH   9  14
ENDBRANCH   1   2
BRANCH   1  17
ATOM     17  C   UNL     1     -13.677 -27.780 -10.755  1.00  0.00     0.286 C 
ATOM     18  C   UNL     1     -14.850 -26.779 -10.539  1.00  0.00     0.202 C 
ATOM     19  O   UNL     1     -13.108 -28.155  -9.511  1.00  0.00    -0.341 OA
ATOM     20  C   UNL     1     -14.676 -25.983  -9.223  1.00  0.00     0.179 C 
ATOM     21  C   UNL     1     -12.436 -27.076  -8.867  1.00  0.00     0.178 C 
ATOM     22  C   UNL     1     -13.187 -25.719  -8.965  1.00  0.00     0.177 C 
BRANCH  18  23
ATOM     23  O   UNL     1     -14.895 -25.899 -11.638  1.00  0.00    -0.385 OA
ATOM     24  H   UNL     1     -14.880 -24.971 -11.277  1.00  0.00     0.211 HD
ENDBRANCH  18  23
BRANCH  20  25
ATOM     25  O   UNL     1     -15.373 -24.765  -9.281  1.00  0.00    -0.387 OA
ATOM     26  H   UNL     1     -14.752 -24.106  -9.692  1.00  0.00     0.211 HD
ENDBRANCH  20  25
BRANCH  21  27
ATOM     27  C   UNL     1     -10.976 -26.969  -9.343  1.00  0.00     0.191 C 
BRANCH  27  28
ATOM     28  O   UNL     1     -10.386 -25.787  -8.873  1.00  0.00    -0.394 OA
ATOM     29  H   UNL     1     -10.975 -25.440  -8.154  1.00  0.00     0.210 HD
ENDBRANCH  27  28
ENDBRANCH  21  27
BRANCH  22  30
ATOM     30  O   UNL     1     -13.026 -25.010  -7.764  1.00  0.00    -0.387 OA
ATOM     31  H   UNL     1     -12.049 -24.952  -7.591  1.00  0.00     0.211 HD
ENDBRANCH  22  30
ENDBRANCH   1  17
TORSDOF 10
ENDMDL
MODEL 2
REMARK VINA RESULT:    -5.245      2.232      4.461
REMARK INTER + INTRA:          -8.093
REMARK INTER:                  -8.579
REMARK INTRA:                   0.486
REMARK UNBOUND:                -0.701
REMARK SMILES OC[C@@H]1O[C@@H](O[C@@H]2OC=C[C@H]3[C@@H](O)[C@@H]4O[C@]4(CO)[C@@H]23)[C@H](O)[C@H](O)[C@H]1O
REMARK SMILES IDX 6 1 7 2 10 3 9 4 11 5 8 6 19 7 12 8 16 9 14 10 15 11 13 12
REMARK SMILES IDX 17 14 18 15 5 17 20 18 4 19 22 20 3 21 24 22 21 23 23 25
REMARK SMILES IDX 2 27 1 28 25 30
REMARK H PARENT 13 13 18 16 21 24 23 26 1 29 25 31
REMARK Flexibility Score: inf
ROOT
ATOM      1  O   UNL     1     -11.437 -27.383 -11.884  1.00  0.00    -0.310 OA
ENDROOT
BRANCH   1   2
ATOM      2  C   UNL     1     -12.693 -26.914 -12.348  1.00  0.00     0.315 C 
ATOM      3  C   UNL     1     -14.103 -29.375 -11.991  1.00  0.00     0.018 C 
ATOM      4  C   UNL     1     -14.194 -28.402 -11.081  1.00  0.00     0.186 C 
ATOM      5  C   UNL     1     -13.442 -29.164 -13.344  1.00  0.00     0.059 C 
ATOM      6  O   UNL     1     -13.653 -27.137 -11.320  1.00  0.00    -0.472 OA
ATOM      7  C   UNL     1     -13.109 -27.683 -13.628  1.00  0.00     0.105 C 
ATOM      8  C   UNL     1     -14.377 -29.558 -14.505  1.00  0.00     0.154 C 
ATOM      9  C   UNL     1     -14.353 -27.139 -14.346  1.00  0.00     0.130 C 
ATOM     10  C   UNL     1     -15.125 -28.282 -14.879  1.00  0.00     0.183 C 
ATOM     11  O   UNL     1     -14.386 -27.427 -15.727  1.00  0.00    -0.360 OA
BRANCH   8  12
ATOM     12  O   UNL     1     -15.276 -30.577 -14.150  1.00  0.00    -0.390 OA
ATOM     13  H   UNL     1     -15.332 -31.187 -14.934  1.00  0.00     0.211 HD
ENDBRANCH   8  12
BRANCH   9  14
ATOM     14  C   UNL     1     -15.152 -25.893 -13.943  1.00  0.00     0.195 C 
BRANCH  14  15
ATOM     15  O   UNL     1     -14.508 -24.741 -14.418  1.00  0.00    -0.393 OA
ATOM     16  H   UNL     1     -14.032 -25.013 -15.245  1.00  0.00     0.210 HD
ENDBRANCH  14  15
ENDBRANCH   9  14
ENDBRANCH   1   2
BRANCH   1  17
ATOM     17  C   UNL     1     -11.437 -27.650 -10.490  1.00  0.00     0.286 C 
ATOM     18  C   UNL     1     -10.801 -29.046 -10.223  1.00  0.00     0.202 C 
ATOM     19  O   UNL     1     -10.675 -26.629  -9.866  1.00  0.00    -0.341 OA
ATOM     20  C   UNL     1      -9.984 -29.051  -8.908  1.00  0.00     0.179 C 
ATOM     21  C   UNL     1     -10.732 -26.692  -8.444  1.00  0.00     0.178 C 
ATOM     22  C   UNL     1     -10.652 -28.136  -7.875  1.00  0.00     0.177 C 
BRANCH  18  23
ATOM     23  O   UNL     1     -11.833 -30.003 -10.159  1.00  0.00    -0.385 OA
ATOM     24  H   UNL     1     -12.620 -29.563  -9.735  1.00  0.00     0.211 HD
ENDBRANCH  18  23
BRANCH  20  25
ATOM     25  O   UNL     1      -9.875 -30.353  -8.394  1.00  0.00    -0.387 OA
ATOM     26  H   UNL     1     -10.501 -30.916  -8.924  1.00  0.00     0.211 HD
ENDBRANCH  20  25
BRANCH  21  27
ATOM     27  C   UNL     1     -11.949 -25.920  -7.903  1.00  0.00     0.191 C 
BRANCH  27  28
ATOM     28  O   UNL     1     -13.135 -26.626  -8.151  1.00  0.00    -0.394 OA
ATOM     29  H   UNL     1     -13.729 -26.017  -8.660  1.00  0.00     0.210 HD
ENDBRANCH  27  28
ENDBRANCH  21  27
BRANCH  22  30
ATOM     30  O   UNL     1      -9.904 -28.127  -6.686  1.00  0.00    -0.387 OA
ATOM     31  H   UNL     1     -10.458 -27.669  -5.999  1.00  0.00     0.211 HD
ENDBRANCH  22  30
ENDBRANCH   1  17
TORSDOF 10
ENDMDL
MODEL 3
REMARK VINA RESULT:    -5.147      1.700      6.679
REMARK INTER + INTRA:          -7.955
REMARK INTER:                  -7.204
REMARK INTRA:                  -0.751
REMARK UNBOUND:                -0.701
REMARK SMILES OC[C@@H]1O[C@@H](O[C@@H]2OC=C[C@H]3[C@@H](O)[C@@H]4O[C@]4(CO)[C@@H]23)[C@H](O)[C@H](O)[C@H]1O
REMARK SMILES IDX 6 1 7 2 10 3 9 4 11 5 8 6 19 7 12 8 16 9 14 10 15 11 13 12
REMARK SMILES IDX 17 14 18 15 5 17 20 18 4 19 22 20 3 21 24 22 21 23 23 25
REMARK SMILES IDX 2 27 1 28 25 30
REMARK H PARENT 13 13 18 16 21 24 23 26 1 29 25 31
REMARK Flexibility Score: inf
ROOT
ATOM      1  O   UNL     1     -12.805 -27.214 -12.179  1.00  0.00    -0.310 OA
ENDROOT
BRANCH   1   2
ATOM      2  C   UNL     1     -12.358 -27.901 -11.020  1.00  0.00     0.315 C 
ATOM      3  C   UNL     1     -14.007 -26.491  -9.158  1.00  0.00     0.018 C 
ATOM      4  C   UNL     1     -14.366 -27.697  -9.606  1.00  0.00     0.186 C 
ATOM      5  C   UNL     1     -12.632 -25.900  -9.428  1.00  0.00     0.059 C 
ATOM      6  O   UNL     1     -13.495 -28.469 -10.379  1.00  0.00    -0.472 OA
ATOM      7  C   UNL     1     -11.651 -26.915 -10.055  1.00  0.00     0.105 C 
ATOM      8  C   UNL     1     -11.929 -25.470  -8.125  1.00  0.00     0.154 C 
ATOM      9  C   UNL     1     -10.946 -27.562  -8.855  1.00  0.00     0.130 C 
ATOM     10  C   UNL     1     -11.116 -26.682  -7.679  1.00  0.00     0.183 C 
ATOM     11  O   UNL     1      -9.875 -26.798  -8.343  1.00  0.00    -0.360 OA
BRANCH   8  12
ATOM     12  O   UNL     1     -12.838 -25.084  -7.125  1.00  0.00    -0.390 OA
ATOM     13  H   UNL     1     -13.743 -25.137  -7.534  1.00  0.00     0.211 HD
ENDBRANCH   8  12
BRANCH   9  14
ATOM     14  C   UNL     1     -10.834 -29.067  -8.582  1.00  0.00     0.195 C 
BRANCH  14  15
ATOM     15  O   UNL     1      -9.896 -29.640  -9.452  1.00  0.00    -0.393 OA
ATOM     16  H   UNL     1      -9.044 -29.156  -9.297  1.00  0.00     0.210 HD
ENDBRANCH  14  15
ENDBRANCH   9  14
ENDBRANCH   1   2
BRANCH   1  17
ATOM     17  C   UNL     1     -13.504 -28.061 -13.078  1.00  0.00     0.286 C 
ATOM     18  C   UNL     1     -13.799 -27.294 -14.400  1.00  0.00     0.202 C 
ATOM     19  O   UNL     1     -12.675 -29.185 -13.328  1.00  0.00    -0.341 OA
ATOM     20  C   UNL     1     -13.706 -28.232 -15.628  1.00  0.00     0.179 C 
ATOM     21  C   UNL     1     -13.331 -30.192 -14.092  1.00  0.00     0.178 C 
ATOM     22  C   UNL     1     -14.202 -29.634 -15.252  1.00  0.00     0.177 C 
BRANCH  18  23
ATOM     23  O   UNL     1     -15.086 -26.731 -14.313  1.00  0.00    -0.385 OA
ATOM     24  H   UNL     1     -15.736 -27.482 -14.242  1.00  0.00     0.211 HD
ENDBRANCH  18  23
BRANCH  20  25
ATOM     25  O   UNL     1     -14.464 -27.728 -16.698  1.00  0.00    -0.387 OA
ATOM     26  H   UNL     1     -13.817 -27.516 -17.423  1.00  0.00     0.211 HD
ENDBRANCH  20  25
BRANCH  21  27
ATOM     27  C   UNL     1     -14.119 -31.153 -13.184  1.00  0.00     0.191 C 
BRANCH  27  28
ATOM     28  O   UNL     1     -14.232 -32.417 -13.778  1.00  0.00    -0.394 OA
ATOM     29  H   UNL     1     -13.698 -33.043 -13.223  1.00  0.00     0.210 HD
ENDBRANCH  27  28
ENDBRANCH  21  27
BRANCH  22  30
ATOM     30  O   UNL     1     -14.105 -30.491 -16.361  1.00  0.00    -0.387 OA
ATOM     31  H   UNL     1     -14.897 -31.090 -16.334  1.00  0.00     0.211 HD
ENDBRANCH  22  30
ENDBRANCH   1  17
TORSDOF 10
ENDMDL
MODEL 4
REMARK VINA RESULT:    -5.078      1.462      7.230
REMARK INTER + INTRA:          -7.858
REMARK INTER:                  -7.043
REMARK INTRA:                  -0.815
REMARK UNBOUND:                -0.701
REMARK SMILES OC[C@@H]1O[C@@H](O[C@@H]2OC=C[C@H]3[C@@H](O)[C@@H]4O[C@]4(CO)[C@@H]23)[C@H](O)[C@H](O)[C@H]1O
REMARK SMILES IDX 6 1 7 2 10 3 9 4 11 5 8 6 19 7 12 8 16 9 14 10 15 11 13 12
REMARK SMILES IDX 17 14 18 15 5 17 20 18 4 19 22 20 3 21 24 22 21 23 23 25
REMARK SMILES IDX 2 27 1 28 25 30
REMARK H PARENT 13 13 18 16 21 24 23 26 1 29 25 31
REMARK Flexibility Score: inf
ROOT
ATOM      1  O   UNL     1     -12.067 -30.023 -11.289  1.00  0.00    -0.310 OA
ENDROOT
BRANCH   1   2
ATOM      2  C   UNL     1     -12.769 -28.817 -11.029  1.00  0.00     0.315 C 
ATOM      3  C   UNL     1     -10.479 -27.106 -11.044  1.00  0.00     0.018 C 
ATOM      4  C   UNL     1     -11.260 -27.205 -12.123  1.00  0.00     0.186 C 
ATOM      5  C   UNL     1     -10.866 -27.707  -9.702  1.00  0.00     0.059 C 
ATOM      6  O   UNL     1     -12.471 -27.900 -12.076  1.00  0.00    -0.472 OA
ATOM      7  C   UNL     1     -12.322 -28.223  -9.669  1.00  0.00     0.105 C 
ATOM      8  C   UNL     1     -10.824 -26.659  -8.572  1.00  0.00     0.154 C 
ATOM      9  C   UNL     1     -13.144 -27.025  -9.174  1.00  0.00     0.130 C 
ATOM     10  C   UNL     1     -12.231 -26.072  -8.507  1.00  0.00     0.183 C 
ATOM     11  O   UNL     1     -13.136 -26.869  -7.771  1.00  0.00    -0.360 OA
BRANCH   8  12
ATOM     12  O   UNL     1      -9.875 -25.651  -8.808  1.00  0.00    -0.390 OA
ATOM     13  H   UNL     1      -9.598 -25.744  -9.760  1.00  0.00     0.211 HD
ENDBRANCH   8  12
BRANCH   9  14
ATOM     14  C   UNL     1     -14.377 -26.432  -9.867  1.00  0.00     0.195 C 
BRANCH  14  15
ATOM     15  O   UNL     1     -15.495 -27.244  -9.628  1.00  0.00    -0.393 OA
ATOM     16  H   UNL     1     -16.269 -26.773 -10.032  1.00  0.00     0.210 HD
ENDBRANCH  14  15
ENDBRANCH   9  14
ENDBRANCH   1   2
BRANCH   1  17
ATOM     17  C   UNL     1     -12.403 -30.588 -12.547  1.00  0.00     0.286 C 
ATOM     18  C   UNL     1     -11.847 -32.039 -12.636  1.00  0.00     0.202 C 
ATOM     19  O   UNL     1     -13.818 -30.591 -12.643  1.00  0.00    -0.341 OA
ATOM     20  C   UNL     1     -12.808 -32.964 -13.422  1.00  0.00     0.179 C 
ATOM     21  C   UNL     1     -14.281 -30.986 -13.931  1.00  0.00     0.178 C 
ATOM     22  C   UNL     1     -13.489 -32.174 -14.546  1.00  0.00     0.177 C 
BRANCH  18  23
ATOM     23  O   UNL     1     -10.587 -31.998 -13.265  1.00  0.00    -0.385 OA
ATOM     24  H   UNL     1      -9.912 -32.309 -12.601  1.00  0.00     0.211 HD
ENDBRANCH  18  23
BRANCH  20  25
ATOM     25  O   UNL     1     -12.114 -34.060 -13.961  1.00  0.00    -0.387 OA
ATOM     26  H   UNL     1     -12.606 -34.873 -13.669  1.00  0.00     0.211 HD
ENDBRANCH  20  25
BRANCH  21  27
ATOM     27  C   UNL     1     -14.359 -29.782 -14.886  1.00  0.00     0.191 C 
BRANCH  27  28
ATOM     28  O   UNL     1     -14.003 -30.158 -16.189  1.00  0.00    -0.394 OA
ATOM     29  H   UNL     1     -14.449 -31.025 -16.368  1.00  0.00     0.210 HD
ENDBRANCH  27  28
ENDBRANCH  21  27
BRANCH  22  30
ATOM     30  O   UNL     1     -14.373 -33.007 -15.251  1.00  0.00    -0.387 OA
ATOM     31  H   UNL     1     -14.187 -32.873 -16.219  1.00  0.00     0.211 HD
ENDBRANCH  22  30
ENDBRANCH   1  17
TORSDOF 10
ENDMDL
MODEL 5
REMARK VINA RESULT:    -4.994      1.591      7.147
REMARK INTER + INTRA:          -7.738
REMARK INTER:                  -7.052
REMARK INTRA:                  -0.686
REMARK UNBOUND:                -0.701
REMARK SMILES OC[C@@H]1O[C@@H](O[C@@H]2OC=C[C@H]3[C@@H](O)[C@@H]4O[C@]4(CO)[C@@H]23)[C@H](O)[C@H](O)[C@H]1O
REMARK SMILES IDX 6 1 7 2 10 3 9 4 11 5 8 6 19 7 12 8 16 9 14 10 15 11 13 12
REMARK SMILES IDX 17 14 18 15 5 17 20 18 4 19 22 20 3 21 24 22 21 23 23 25
REMARK SMILES IDX 2 27 1 28 25 30
REMARK H PARENT 13 13 18 16 21 24 23 26 1 29 25 31
REMARK Flexibility Score: inf
ROOT
ATOM      1  O   UNL     1     -11.951 -30.028 -11.786  1.00  0.00    -0.310 OA
ENDROOT
BRANCH   1   2
ATOM      2  C   UNL     1     -12.540 -28.754 -11.993  1.00  0.00     0.315 C 
ATOM      3  C   UNL     1     -11.036 -27.378  -9.990  1.00  0.00     0.018 C 
ATOM      4  C   UNL     1     -10.680 -27.306 -11.275  1.00  0.00     0.186 C 
ATOM      5  C   UNL     1     -12.351 -27.995  -9.543  1.00  0.00     0.059 C 
ATOM      6  O   UNL     1     -11.498 -27.828 -12.280  1.00  0.00    -0.472 OA
ATOM      7  C   UNL     1     -13.303 -28.306 -10.720  1.00  0.00     0.105 C 
ATOM      8  C   UNL     1     -13.167 -27.029  -8.660  1.00  0.00     0.154 C 
ATOM      9  C   UNL     1     -14.151 -27.036 -10.875  1.00  0.00     0.130 C 
ATOM     10  C   UNL     1     -14.067 -26.258  -9.621  1.00  0.00     0.183 C 
ATOM     11  O   UNL     1     -15.238 -26.963  -9.978  1.00  0.00    -0.360 OA
BRANCH   8  12
ATOM     12  O   UNL     1     -12.350 -26.150  -7.929  1.00  0.00    -0.390 OA
ATOM     13  H   UNL     1     -11.518 -26.653  -7.715  1.00  0.00     0.211 HD
ENDBRANCH   8  12
BRANCH   9  14
ATOM     14  C   UNL     1     -14.350 -26.239 -12.171  1.00  0.00     0.195 C 
BRANCH  14  15
ATOM     15  O   UNL     1     -15.008 -27.032 -13.122  1.00  0.00    -0.393 OA
ATOM     16  H   UNL     1     -15.190 -26.439 -13.896  1.00  0.00     0.210 HD
ENDBRANCH  14  15
ENDBRANCH   9  14
ENDBRANCH   1   2
BRANCH   1  17
ATOM     17  C   UNL     1     -12.143 -30.903 -12.888  1.00  0.00     0.286 C 
ATOM     18  C   UNL     1     -11.366 -32.229 -12.646  1.00  0.00     0.202 C 
ATOM     19  O   UNL     1     -13.536 -31.153 -12.988  1.00  0.00    -0.341 OA
ATOM     20  C   UNL     1     -12.139 -33.446 -13.211  1.00  0.00     0.179 C 
ATOM     21  C   UNL     1     -13.878 -31.891 -14.157  1.00  0.00     0.178 C 
ATOM     22  C   UNL     1     -12.887 -33.042 -14.487  1.00  0.00     0.177 C 
BRANCH  18  23
ATOM     23  O   UNL     1     -10.103 -32.127 -13.261  1.00  0.00    -0.385 OA
ATOM     24  H   UNL     1      -9.793 -33.052 -13.461  1.00  0.00     0.211 HD
ENDBRANCH  18  23
BRANCH  20  25
ATOM     25  O   UNL     1     -11.262 -34.508 -13.487  1.00  0.00    -0.387 OA
ATOM     26  H   UNL     1     -10.559 -34.142 -14.087  1.00  0.00     0.211 HD
ENDBRANCH  20  25
BRANCH  21  27
ATOM     27  C   UNL     1     -14.102 -30.955 -15.359  1.00  0.00     0.191 C 
BRANCH  27  28
ATOM     28  O   UNL     1     -14.458 -29.670 -14.926  1.00  0.00    -0.394 OA
ATOM     29  H   UNL     1     -13.790 -29.401 -14.245  1.00  0.00     0.210 HD
ENDBRANCH  27  28
ENDBRANCH  21  27
BRANCH  22  30
ATOM     30  O   UNL     1     -13.601 -34.141 -14.993  1.00  0.00    -0.387 OA
ATOM     31  H   UNL     1     -13.062 -34.519 -15.737  1.00  0.00     0.211 HD
ENDBRANCH  22  30
ENDBRANCH   1  17
TORSDOF 10
ENDMDL
MODEL 6
REMARK VINA RESULT:    -4.187      1.555      6.850
REMARK INTER + INTRA:          -6.602
REMARK INTER:                  -5.987
REMARK INTRA:                  -0.615
REMARK UNBOUND:                -0.701
REMARK SMILES OC[C@@H]1O[C@@H](O[C@@H]2OC=C[C@H]3[C@@H](O)[C@@H]4O[C@]4(CO)[C@@H]23)[C@H](O)[C@H](O)[C@H]1O
REMARK SMILES IDX 6 1 7 2 10 3 9 4 11 5 8 6 19 7 12 8 16 9 14 10 15 11 13 12
REMARK SMILES IDX 17 14 18 15 5 17 20 18 4 19 22 20 3 21 24 22 21 23 23 25
REMARK SMILES IDX 2 27 1 28 25 30
REMARK H PARENT 13 13 18 16 21 24 23 26 1 29 25 31
REMARK Flexibility Score: inf
ROOT
ATOM      1  O   UNL     1     -11.757 -29.796 -11.278  1.00  0.00    -0.310 OA
ENDROOT
BRANCH   1   2
ATOM      2  C   UNL     1     -12.354 -28.567 -11.664  1.00  0.00     0.315 C 
ATOM      3  C   UNL     1     -11.167 -26.978  -9.606  1.00  0.00     0.018 C 
ATOM      4  C   UNL     1     -10.649 -26.992 -10.837  1.00  0.00     0.186 C 
ATOM      5  C   UNL     1     -12.509 -27.612  -9.281  1.00  0.00     0.059 C 
ATOM      6  O   UNL     1     -11.312 -27.624 -11.891  1.00  0.00    -0.472 OA
ATOM      7  C   UNL     1     -13.289 -28.053 -10.539  1.00  0.00     0.105 C 
ATOM      8  C   UNL     1     -13.462 -26.614  -8.592  1.00  0.00     0.154 C 
ATOM      9  C   UNL     1     -14.149 -26.835 -10.906  1.00  0.00     0.130 C 
ATOM     10  C   UNL     1     -14.253 -25.959  -9.720  1.00  0.00     0.183 C 
ATOM     11  O   UNL     1     -15.345 -26.737 -10.164  1.00  0.00    -0.360 OA
BRANCH   8  12
ATOM     12  O   UNL     1     -12.775 -25.649  -7.838  1.00  0.00    -0.390 OA
ATOM     13  H   UNL     1     -12.196 -26.149  -7.202  1.00  0.00     0.211 HD
ENDBRANCH   8  12
BRANCH   9  14
ATOM     14  C   UNL     1     -14.201 -26.151 -12.278  1.00  0.00     0.195 C 
BRANCH  14  15
ATOM     15  O   UNL     1     -14.911 -26.952 -13.183  1.00  0.00    -0.393 OA
ATOM     16  H   UNL     1     -14.652 -26.640 -14.089  1.00  0.00     0.210 HD
ENDBRANCH  14  15
ENDBRANCH   9  14
ENDBRANCH   1   2
BRANCH   1  17
ATOM     17  C   UNL     1     -12.239 -30.896 -12.035  1.00  0.00     0.286 C 
ATOM     18  C   UNL     1     -13.501 -30.467 -12.839  1.00  0.00     0.202 C 
ATOM     19  O   UNL     1     -11.198 -31.289 -12.915  1.00  0.00    -0.341 OA
ATOM     20  C   UNL     1     -13.550 -31.161 -14.222  1.00  0.00     0.179 C 
ATOM     21  C   UNL     1     -11.498 -32.490 -13.620  1.00  0.00     0.178 C 
ATOM     22  C   UNL     1     -12.968 -32.576 -14.117  1.00  0.00     0.177 C 
BRANCH  18  23
ATOM     23  O   UNL     1     -14.645 -30.798 -12.087  1.00  0.00    -0.385 OA
ATOM     24  H   UNL     1     -15.375 -31.008 -12.732  1.00  0.00     0.211 HD
ENDBRANCH  18  23
BRANCH  20  25
ATOM     25  O   UNL     1     -14.869 -31.221 -14.702  1.00  0.00    -0.387 OA
ATOM     26  H   UNL     1     -15.457 -30.994 -13.933  1.00  0.00     0.211 HD
ENDBRANCH  20  25
BRANCH  21  27
ATOM     27  C   UNL     1     -11.086 -33.729 -12.805  1.00  0.00     0.191 C 
BRANCH  27  28
ATOM     28  O   UNL     1     -11.021 -34.864 -13.626  1.00  0.00    -0.394 OA
ATOM     29  H   UNL     1     -10.476 -34.614 -14.416  1.00  0.00     0.210 HD
ENDBRANCH  27  28
ENDBRANCH  21  27
BRANCH  22  30
ATOM     30  O   UNL     1     -12.998 -33.202 -15.374  1.00  0.00    -0.387 OA
ATOM     31  H   UNL     1     -12.167 -33.741 -15.449  1.00  0.00     0.211 HD
ENDBRANCH  22  30
ENDBRANCH   1  17
TORSDOF 10
ENDMDL
MODEL 7
REMARK VINA RESULT:    -4.037      2.138      6.624
REMARK INTER + INTRA:          -6.390
REMARK INTER:                  -6.077
REMARK INTRA:                  -0.313
REMARK UNBOUND:                -0.701
REMARK SMILES OC[C@@H]1O[C@@H](O[C@@H]2OC=C[C@H]3[C@@H](O)[C@@H]4O[C@]4(CO)[C@@H]23)[C@H](O)[C@H](O)[C@H]1O
REMARK SMILES IDX 6 1 7 2 10 3 9 4 11 5 8 6 19 7 12 8 16 9 14 10 15 11 13 12
REMARK SMILES IDX 17 14 18 15 5 17 20 18 4 19 22 20 3 21 24 22 21 23 23 25
REMARK SMILES IDX 2 27 1 28 25 30
REMARK H PARENT 13 13 18 16 21 24 23 26 1 29 25 31
REMARK Flexibility Score: inf
ROOT
ATOM      1  O   UNL     1     -13.006 -29.831 -11.070  1.00  0.00    -0.310 OA
ENDROOT
BRANCH   1   2
ATOM      2  C   UNL     1     -11.892 -28.956 -10.991  1.00  0.00     0.315 C 
ATOM      3  C   UNL     1     -10.475 -30.422  -8.988  1.00  0.00     0.018 C 
ATOM      4  C   UNL     1     -10.152 -30.549 -10.278  1.00  0.00     0.186 C 
ATOM      5  C   UNL     1     -11.440 -29.357  -8.492  1.00  0.00     0.059 C 
ATOM      6  O   UNL     1     -10.716 -29.716 -11.248  1.00  0.00    -0.472 OA
ATOM      7  C   UNL     1     -11.809 -28.324  -9.579  1.00  0.00     0.105 C 
ATOM      8  C   UNL     1     -10.819 -28.501  -7.370  1.00  0.00     0.154 C 
ATOM      9  C   UNL     1     -10.767 -27.208  -9.419  1.00  0.00     0.130 C 
ATOM     10  C   UNL     1     -10.163 -27.317  -8.074  1.00  0.00     0.183 C 
ATOM     11  O   UNL     1     -11.072 -26.285  -8.396  1.00  0.00    -0.360 OA
BRANCH   8  12
ATOM     12  O   UNL     1      -9.876 -29.213  -6.610  1.00  0.00    -0.390 OA
ATOM     13  H   UNL     1     -10.381 -29.925  -6.132  1.00  0.00     0.211 HD
ENDBRANCH   8  12
BRANCH   9  14
ATOM     14  C   UNL     1      -9.876 -26.642 -10.532  1.00  0.00     0.195 C 
BRANCH  14  15
ATOM     15  O   UNL     1     -10.408 -26.979 -11.785  1.00  0.00    -0.393 OA
ATOM     16  H   UNL     1      -9.802 -26.574 -12.459  1.00  0.00     0.210 HD
ENDBRANCH  14  15
ENDBRANCH   9  14
ENDBRANCH   1   2
BRANCH   1  17
ATOM     17  C   UNL     1     -13.673 -29.754 -12.320  1.00  0.00     0.286 C 
ATOM     18  C   UNL     1     -13.729 -28.272 -12.794  1.00  0.00     0.202 C 
ATOM     19  O   UNL     1     -12.936 -30.543 -13.240  1.00  0.00    -0.341 OA
ATOM     20  C   UNL     1     -13.583 -28.166 -14.331  1.00  0.00     0.179 C 
ATOM     21  C   UNL     1     -13.592 -30.679 -14.497  1.00  0.00     0.178 C 
ATOM     22  C   UNL     1     -14.257 -29.369 -15.003  1.00  0.00     0.177 C 
BRANCH  18  23
ATOM     23  O   UNL     1     -14.955 -27.716 -12.381  1.00  0.00    -0.385 OA
ATOM     24  H   UNL     1     -14.986 -27.766 -11.387  1.00  0.00     0.211 HD
ENDBRANCH  18  23
BRANCH  20  25
ATOM     25  O   UNL     1     -14.153 -26.973 -14.805  1.00  0.00    -0.387 OA
ATOM     26  H   UNL     1     -15.117 -27.164 -14.958  1.00  0.00     0.211 HD
ENDBRANCH  20  25
BRANCH  21  27
ATOM     27  C   UNL     1     -14.575 -31.863 -14.485  1.00  0.00     0.191 C 
BRANCH  27  28
ATOM     28  O   UNL     1     -15.388 -31.846 -15.626  1.00  0.00    -0.394 OA
ATOM     29  H   UNL     1     -15.086 -32.594 -16.204  1.00  0.00     0.210 HD
ENDBRANCH  27  28
ENDBRANCH  21  27
BRANCH  22  30
ATOM     30  O   UNL     1     -14.114 -29.283 -16.398  1.00  0.00    -0.387 OA
ATOM     31  H   UNL     1     -14.814 -29.864 -16.798  1.00  0.00     0.211 HD
ENDBRANCH  22  30
ENDBRANCH   1  17
TORSDOF 10
ENDMDL
MODEL 8
REMARK VINA RESULT:    -3.929      1.662      6.782
REMARK INTER + INTRA:          -6.238
REMARK INTER:                  -6.397
REMARK INTRA:                   0.159
REMARK UNBOUND:                -0.701
REMARK SMILES OC[C@@H]1O[C@@H](O[C@@H]2OC=C[C@H]3[C@@H](O)[C@@H]4O[C@]4(CO)[C@@H]23)[C@H](O)[C@H](O)[C@H]1O
REMARK SMILES IDX 6 1 7 2 10 3 9 4 11 5 8 6 19 7 12 8 16 9 14 10 15 11 13 12
REMARK SMILES IDX 17 14 18 15 5 17 20 18 4 19 22 20 3 21 24 22 21 23 23 25
REMARK SMILES IDX 2 27 1 28 25 30
REMARK H PARENT 13 13 18 16 21 24 23 26 1 29 25 31
REMARK Flexibility Score: inf
ROOT
ATOM      1  O   UNL     1     -12.616 -27.629 -12.183  1.00  0.00    -0.310 OA
ENDROOT
BRANCH   1   2
ATOM      2  C   UNL     1     -12.266 -28.212 -10.938  1.00  0.00     0.315 C 
ATOM      3  C   UNL     1     -13.937 -26.546  -9.325  1.00  0.00     0.018 C 
ATOM      4  C   UNL     1     -14.333 -27.775  -9.669  1.00  0.00     0.186 C 
ATOM      5  C   UNL     1     -12.522 -26.048  -9.573  1.00  0.00     0.059 C 
ATOM      6  O   UNL     1     -13.462 -28.660 -10.309  1.00  0.00    -0.472 OA
ATOM      7  C   UNL     1     -11.562 -27.165 -10.038  1.00  0.00     0.105 C 
ATOM      8  C   UNL     1     -11.868 -25.518  -8.281  1.00  0.00     0.154 C 
ATOM      9  C   UNL     1     -10.954 -27.716  -8.740  1.00  0.00     0.130 C 
ATOM     10  C   UNL     1     -11.142 -26.713  -7.670  1.00  0.00     0.183 C 
ATOM     11  O   UNL     1      -9.875 -26.953  -8.247  1.00  0.00    -0.360 OA
BRANCH   8  12
ATOM     12  O   UNL     1     -12.807 -24.991  -7.380  1.00  0.00    -0.390 OA
ATOM     13  H   UNL     1     -13.385 -25.752  -7.101  1.00  0.00     0.211 HD
ENDBRANCH   8  12
BRANCH   9  14
ATOM     14  C   UNL     1     -10.933 -29.188  -8.311  1.00  0.00     0.195 C 
BRANCH  14  15
ATOM     15  O   UNL     1      -9.884 -29.858  -8.958  1.00  0.00    -0.393 OA
ATOM     16  H   UNL     1      -9.682 -30.655  -8.403  1.00  0.00     0.210 HD
ENDBRANCH  14  15
ENDBRANCH   9  14
ENDBRANCH   1   2
BRANCH   1  17
ATOM     17  C   UNL     1     -12.893 -28.601 -13.180  1.00  0.00     0.286 C 
ATOM     18  C   UNL     1     -12.861 -30.023 -12.550  1.00  0.00     0.202 C 
ATOM     19  O   UNL     1     -14.182 -28.315 -13.700  1.00  0.00    -0.341 OA
ATOM     20  C   UNL     1     -13.923 -30.948 -13.193  1.00  0.00     0.179 C 
ATOM     21  C   UNL     1     -14.513 -29.124 -14.824  1.00  0.00     0.178 C 
ATOM     22  C   UNL     1     -14.079 -30.609 -14.680  1.00  0.00     0.177 C 
BRANCH  18  23
ATOM     23  O   UNL     1     -11.573 -30.563 -12.728  1.00  0.00    -0.385 OA
ATOM     24  H   UNL     1     -10.922 -29.812 -12.654  1.00  0.00     0.211 HD
ENDBRANCH  18  23
BRANCH  20  25
ATOM     25  O   UNL     1     -13.562 -32.298 -13.046  1.00  0.00    -0.387 OA
ATOM     26  H   UNL     1     -14.135 -32.663 -12.321  1.00  0.00     0.211 HD
ENDBRANCH  20  25
BRANCH  21  27
ATOM     27  C   UNL     1     -14.001 -28.492 -16.132  1.00  0.00     0.191 C 
BRANCH  27  28
ATOM     28  O   UNL     1     -14.399 -27.151 -16.224  1.00  0.00    -0.394 OA
ATOM     29  H   UNL     1     -14.934 -27.068 -17.054  1.00  0.00     0.210 HD
ENDBRANCH  27  28
ENDBRANCH  21  27
BRANCH  22  30
ATOM     30  O   UNL     1     -15.052 -31.437 -15.263  1.00  0.00    -0.387 OA
ATOM     31  H   UNL     1     -15.014 -32.309 -14.786  1.00  0.00     0.211 HD
ENDBRANCH  22  30
ENDBRANCH   1  17
TORSDOF 10
ENDMDL
MODEL 9
REMARK VINA RESULT:    -3.794      0.875      2.411
REMARK INTER + INTRA:          -6.048
REMARK INTER:                  -5.865
REMARK INTRA:                  -0.184
REMARK UNBOUND:                -0.701
REMARK SMILES OC[C@@H]1O[C@@H](O[C@@H]2OC=C[C@H]3[C@@H](O)[C@@H]4O[C@]4(CO)[C@@H]23)[C@H](O)[C@H](O)[C@H]1O
REMARK SMILES IDX 6 1 7 2 10 3 9 4 11 5 8 6 19 7 12 8 16 9 14 10 15 11 13 12
REMARK SMILES IDX 17 14 18 15 5 17 20 18 4 19 22 20 3 21 24 22 21 23 23 25
REMARK SMILES IDX 2 27 1 28 25 30
REMARK H PARENT 13 13 18 16 21 24 23 26 1 29 25 31
REMARK Flexibility Score: inf
ROOT
ATOM      1  O   UNL     1     -14.050 -28.814 -11.439  1.00  0.00    -0.310 OA
ENDROOT
BRANCH   1   2
ATOM      2  C   UNL     1     -13.107 -29.572 -12.181  1.00  0.00     0.315 C 
ATOM      3  C   UNL     1     -14.421 -29.328 -14.708  1.00  0.00     0.018 C 
ATOM      4  C   UNL     1     -13.387 -28.540 -14.401  1.00  0.00     0.186 C 
ATOM      5  C   UNL     1     -14.817 -30.520 -13.852  1.00  0.00     0.059 C 
ATOM      6  O   UNL     1     -12.630 -28.760 -13.248  1.00  0.00    -0.472 OA
ATOM      7  C   UNL     1     -13.781 -30.846 -12.753  1.00  0.00     0.105 C 
ATOM      8  C   UNL     1     -14.892 -31.819 -14.679  1.00  0.00     0.154 C 
ATOM      9  C   UNL     1     -12.827 -31.854 -13.410  1.00  0.00     0.130 C 
ATOM     10  C   UNL     1     -13.504 -32.446 -14.583  1.00  0.00     0.183 C 
ATOM     11  O   UNL     1     -13.304 -33.182 -13.394  1.00  0.00    -0.360 OA
BRANCH   8  12
ATOM     12  O   UNL     1     -15.240 -31.584 -16.019  1.00  0.00    -0.390 OA
ATOM     13  H   UNL     1     -16.216 -31.766 -16.092  1.00  0.00     0.211 HD
ENDBRANCH   8  12
BRANCH   9  14
ATOM     14  C   UNL     1     -11.299 -31.734 -13.481  1.00  0.00     0.195 C 
BRANCH  14  15
ATOM     15  O   UNL     1     -10.706 -32.914 -13.009  1.00  0.00    -0.393 OA
ATOM     16  H   UNL     1     -11.307 -33.654 -13.287  1.00  0.00     0.210 HD
ENDBRANCH  14  15
ENDBRANCH   9  14
ENDBRANCH   1   2
BRANCH   1  17
ATOM     17  C   UNL     1     -13.445 -28.063 -10.397  1.00  0.00     0.286 C 
ATOM     18  C   UNL     1     -11.935 -28.427 -10.296  1.00  0.00     0.202 C 
ATOM     19  O   UNL     1     -13.606 -26.691 -10.718  1.00  0.00    -0.341 OA
ATOM     20  C   UNL     1     -11.081 -27.191  -9.922  1.00  0.00     0.179 C 
ATOM     21  C   UNL     1     -13.182 -25.827  -9.668  1.00  0.00     0.178 C 
ATOM     22  C   UNL     1     -11.869 -26.282  -8.971  1.00  0.00     0.177 C 
BRANCH  18  23
ATOM     23  O   UNL     1     -11.781 -29.437  -9.327  1.00  0.00    -0.385 OA
ATOM     24  H   UNL     1     -12.678 -29.606  -8.928  1.00  0.00     0.211 HD
ENDBRANCH  18  23
BRANCH  20  25
ATOM     25  O   UNL     1      -9.875 -27.583  -9.317  1.00  0.00    -0.387 OA
ATOM     26  H   UNL     1     -10.110 -27.899  -8.404  1.00  0.00     0.211 HD
ENDBRANCH  20  25
BRANCH  21  27
ATOM     27  C   UNL     1     -14.320 -25.580  -8.660  1.00  0.00     0.191 C 
BRANCH  27  28
ATOM     28  O   UNL     1     -15.352 -24.837  -9.250  1.00  0.00    -0.394 OA
ATOM     29  H   UNL     1     -15.601 -24.129  -8.602  1.00  0.00     0.210 HD
ENDBRANCH  27  28
ENDBRANCH  21  27
BRANCH  22  30
ATOM     30  O   UNL     1     -11.102 -25.152  -8.642  1.00  0.00    -0.387 OA
ATOM     31  H   UNL     1     -10.160 -25.457  -8.554  1.00  0.00     0.211 HD
ENDBRANCH  22  30
ENDBRANCH   1  17
TORSDOF 10
ENDMDL
