MODEL 1
REMARK VINA RESULT:    -5.424      0.000      0.000
REMARK INTER + INTRA:          -6.862
REMARK INTER:                  -6.534
REMARK INTRA:                  -0.328
REMARK UNBOUND:                -0.328
REMARK SMILES O=c1c(O)c(-c2ccc(O)c(O)c2)oc2cc(O)cc(O)c12
REMARK SMILES IDX 5 1 3 2 2 3 1 4 22 5 20 6 19 7 17 8 16 9 15 10 14 11 6 12
REMARK SMILES IDX 7 13 8 14 9 15 13 16 11 17 10 18 12 20 4 22 21 24 18 26
REMARK H PARENT 10 19 12 21 4 23 21 25 18 27
REMARK Flexibility Score: inf
ROOT
ATOM      1  C   UNL     1    -105.821 186.909  49.826  1.00  0.00     0.180 A 
ATOM      2  C   UNL     1    -105.910 185.851  50.752  1.00  0.00     0.208 A 
ATOM      3  C   UNL     1    -104.778 185.055  50.983  1.00  0.00     0.238 A 
ATOM      4  O   UNL     1    -104.842 184.111  51.818  1.00  0.00    -0.285 OA
ATOM      5  C   UNL     1    -103.587 185.313  50.273  1.00  0.00     0.111 A 
ATOM      6  C   UNL     1    -102.404 184.555  50.443  1.00  0.00     0.134 A 
ATOM      7  C   UNL     1    -101.262 184.870  49.691  1.00  0.00     0.093 A 
ATOM      8  C   UNL     1    -101.280 185.923  48.775  1.00  0.00     0.123 A 
ATOM      9  C   UNL     1    -102.445 186.676  48.603  1.00  0.00     0.094 A 
ATOM     10  C   UNL     1    -103.594 186.380  49.343  1.00  0.00     0.146 A 
ATOM     11  O   UNL     1    -104.686 187.114  49.164  1.00  0.00    -0.452 OA
ENDROOT
BRANCH   1  12
ATOM     12  C   UNL     1    -106.965 187.804  49.543  1.00  0.00     0.025 A 
ATOM     13  C   UNL     1    -107.868 187.469  48.524  1.00  0.00     0.016 A 
ATOM     14  C   UNL     1    -108.943 188.308  48.227  1.00  0.00     0.051 A 
ATOM     15  C   UNL     1    -109.129 189.504  48.928  1.00  0.00     0.157 A 
ATOM     16  C   UNL     1    -107.137 189.016  50.235  1.00  0.00     0.062 A 
ATOM     17  C   UNL     1    -108.210 189.867  49.941  1.00  0.00     0.158 A 
BRANCH  15  18
ATOM     18  O   UNL     1    -110.228 190.296  48.588  1.00  0.00    -0.504 OA
ATOM     19  H   UNL     1    -110.303 191.280  48.802  1.00  0.00     0.293 HD
ENDBRANCH  15  18
BRANCH  17  20
ATOM     20  O   UNL     1    -108.319 191.053  50.669  1.00  0.00    -0.504 OA
ATOM     21  H   UNL     1    -107.882 191.208  51.566  1.00  0.00     0.293 HD
ENDBRANCH  17  20
ENDBRANCH   1  12
BRANCH   2  22
ATOM     22  O   UNL     1    -107.116 185.586  51.407  1.00  0.00    -0.502 OA
ATOM     23  H   UNL     1    -107.986 185.455  50.908  1.00  0.00     0.293 HD
ENDBRANCH   2  22
BRANCH   6  24
ATOM     24  O   UNL     1    -102.353 183.496  51.350  1.00  0.00    -0.507 OA
ATOM     25  H   UNL     1    -101.751 182.695  51.202  1.00  0.00     0.293 HD
ENDBRANCH   6  24
BRANCH   8  26
ATOM     26  O   UNL     1    -100.132 186.215  48.040  1.00  0.00    -0.508 OA
ATOM     27  H   UNL     1     -99.891 187.166  47.789  1.00  0.00     0.293 HD
ENDBRANCH   8  26
TORSDOF 6
ENDMDL
MODEL 2
REMARK VINA RESULT:    -5.399      0.592      1.469
REMARK INTER + INTRA:          -6.832
REMARK INTER:                  -6.510
REMARK INTRA:                  -0.321
REMARK UNBOUND:                -0.328
REMARK SMILES O=c1c(O)c(-c2ccc(O)c(O)c2)oc2cc(O)cc(O)c12
REMARK SMILES IDX 5 1 3 2 2 3 1 4 22 5 20 6 19 7 17 8 16 9 15 10 14 11 6 12
REMARK SMILES IDX 7 13 8 14 9 15 13 16 11 17 10 18 12 20 4 22 21 24 18 26
REMARK H PARENT 10 19 12 21 4 23 21 25 18 27
REMARK Flexibility Score: inf
ROOT
ATOM      1  C   UNL     1    -105.820 186.887  49.815  1.00  0.00     0.180 A 
ATOM      2  C   UNL     1    -105.895 185.825  50.738  1.00  0.00     0.208 A 
ATOM      3  C   UNL     1    -104.753 185.042  50.965  1.00  0.00     0.238 A 
ATOM      4  O   UNL     1    -104.805 184.095  51.797  1.00  0.00    -0.285 OA
ATOM      5  C   UNL     1    -103.566 185.316  50.254  1.00  0.00     0.111 A 
ATOM      6  C   UNL     1    -102.374 184.572  50.420  1.00  0.00     0.134 A 
ATOM      7  C   UNL     1    -101.237 184.902  49.668  1.00  0.00     0.093 A 
ATOM      8  C   UNL     1    -101.269 185.958  48.755  1.00  0.00     0.123 A 
ATOM      9  C   UNL     1    -102.443 186.697  48.586  1.00  0.00     0.094 A 
ATOM     10  C   UNL     1    -103.587 186.385  49.327  1.00  0.00     0.146 A 
ATOM     11  O   UNL     1    -104.689 187.107  49.152  1.00  0.00    -0.452 OA
ENDROOT
BRANCH   1  12
ATOM     12  C   UNL     1    -106.975 187.769  49.536  1.00  0.00     0.025 A 
ATOM     13  C   UNL     1    -107.142 188.943  50.285  1.00  0.00     0.016 A 
ATOM     14  C   UNL     1    -108.235 189.780  50.053  1.00  0.00     0.051 A 
ATOM     15  C   UNL     1    -109.189 189.456  49.083  1.00  0.00     0.157 A 
ATOM     16  C   UNL     1    -107.943 187.429  48.577  1.00  0.00     0.062 A 
ATOM     17  C   UNL     1    -109.046 188.260  48.339  1.00  0.00     0.158 A 
BRANCH  15  18
ATOM     18  O   UNL     1    -110.255 190.338  48.894  1.00  0.00    -0.504 OA
ATOM     19  H   UNL     1    -110.578 190.992  49.592  1.00  0.00     0.293 HD
ENDBRANCH  15  18
BRANCH  17  20
ATOM     20  O   UNL     1    -109.967 187.861  47.369  1.00  0.00    -0.504 OA
ATOM     21  H   UNL     1    -110.845 187.408  47.577  1.00  0.00     0.293 HD
ENDBRANCH  17  20
ENDBRANCH   1  12
BRANCH   2  22
ATOM     22  O   UNL     1    -107.097 185.544  51.394  1.00  0.00    -0.502 OA
ATOM     23  H   UNL     1    -107.517 184.623  51.385  1.00  0.00     0.293 HD
ENDBRANCH   2  22
BRANCH   6  24
ATOM     24  O   UNL     1    -102.310 183.511  51.325  1.00  0.00    -0.507 OA
ATOM     25  H   UNL     1    -103.122 182.946  51.543  1.00  0.00     0.293 HD
ENDBRANCH   6  24
BRANCH   8  26
ATOM     26  O   UNL     1    -100.126 186.265  48.019  1.00  0.00    -0.508 OA
ATOM     27  H   UNL     1    -100.185 186.682  47.098  1.00  0.00     0.293 HD
ENDBRANCH   8  26
TORSDOF 6
ENDMDL
MODEL 3
REMARK VINA RESULT:    -5.378      1.799      2.298
REMARK INTER + INTRA:          -6.807
REMARK INTER:                  -6.474
REMARK INTRA:                  -0.333
REMARK UNBOUND:                -0.328
REMARK SMILES O=c1c(O)c(-c2ccc(O)c(O)c2)oc2cc(O)cc(O)c12
REMARK SMILES IDX 5 1 3 2 2 3 1 4 22 5 20 6 19 7 17 8 16 9 15 10 14 11 6 12
REMARK SMILES IDX 7 13 8 14 9 15 13 16 11 17 10 18 12 20 4 22 21 24 18 26
REMARK H PARENT 10 19 12 21 4 23 21 25 18 27
REMARK Flexibility Score: inf
ROOT
ATOM      1  C   UNL     1    -105.015 187.738  50.946  1.00  0.00     0.180 A 
ATOM      2  C   UNL     1    -105.341 186.411  51.290  1.00  0.00     0.208 A 
ATOM      3  C   UNL     1    -104.487 185.376  50.880  1.00  0.00     0.238 A 
ATOM      4  O   UNL     1    -104.763 184.184  51.190  1.00  0.00    -0.285 OA
ATOM      5  C   UNL     1    -103.338 185.678  50.120  1.00  0.00     0.111 A 
ATOM      6  C   UNL     1    -102.430 184.694  49.663  1.00  0.00     0.134 A 
ATOM      7  C   UNL     1    -101.314 185.075  48.904  1.00  0.00     0.093 A 
ATOM      8  C   UNL     1    -101.090 186.417  48.591  1.00  0.00     0.123 A 
ATOM      9  C   UNL     1    -101.984 187.395  49.039  1.00  0.00     0.094 A 
ATOM     10  C   UNL     1    -103.101 187.036  49.798  1.00  0.00     0.146 A 
ATOM     11  O   UNL     1    -103.932 187.985  50.216  1.00  0.00    -0.452 OA
ENDROOT
BRANCH   1  12
ATOM     12  C   UNL     1    -105.855 188.885  51.359  1.00  0.00     0.025 A 
ATOM     13  C   UNL     1    -106.809 189.397  50.467  1.00  0.00     0.016 A 
ATOM     14  C   UNL     1    -107.598 190.490  50.828  1.00  0.00     0.051 A 
ATOM     15  C   UNL     1    -107.441 191.105  52.075  1.00  0.00     0.157 A 
ATOM     16  C   UNL     1    -105.678 189.513  52.603  1.00  0.00     0.062 A 
ATOM     17  C   UNL     1    -106.462 190.614  52.972  1.00  0.00     0.158 A 
BRANCH  15  18
ATOM     18  O   UNL     1    -108.266 192.190  52.377  1.00  0.00    -0.504 OA
ATOM     19  H   UNL     1    -109.239 192.106  52.629  1.00  0.00     0.293 HD
ENDBRANCH  15  18
BRANCH  17  20
ATOM     20  O   UNL     1    -106.234 191.187  54.225  1.00  0.00    -0.504 OA
ATOM     21  H   UNL     1    -105.961 190.663  55.044  1.00  0.00     0.293 HD
ENDBRANCH  17  20
ENDBRANCH   1  12
BRANCH   2  22
ATOM     22  O   UNL     1    -106.511 186.133  52.002  1.00  0.00    -0.502 OA
ATOM     23  H   UNL     1    -107.430 186.205  51.584  1.00  0.00     0.293 HD
ENDBRANCH   2  22
BRANCH   6  24
ATOM     24  O   UNL     1    -102.625 183.343  49.959  1.00  0.00    -0.507 OA
ATOM     25  H   UNL     1    -102.722 182.646  49.230  1.00  0.00     0.293 HD
ENDBRANCH   6  24
BRANCH   8  26
ATOM     26  O   UNL     1     -99.975 186.770  47.834  1.00  0.00    -0.508 OA
ATOM     27  H   UNL     1     -99.997 186.761  46.821  1.00  0.00     0.293 HD
ENDBRANCH   8  26
TORSDOF 6
ENDMDL
MODEL 4
REMARK VINA RESULT:    -5.114      2.067      6.985
REMARK INTER + INTRA:          -6.488
REMARK INTER:                  -6.160
REMARK INTRA:                  -0.329
REMARK UNBOUND:                -0.328
REMARK SMILES O=c1c(O)c(-c2ccc(O)c(O)c2)oc2cc(O)cc(O)c12
REMARK SMILES IDX 5 1 3 2 2 3 1 4 22 5 20 6 19 7 17 8 16 9 15 10 14 11 6 12
REMARK SMILES IDX 7 13 8 14 9 15 13 16 11 17 10 18 12 20 4 22 21 24 18 26
REMARK H PARENT 10 19 12 21 4 23 21 25 18 27
REMARK Flexibility Score: inf
ROOT
ATOM      1  C   UNL     1    -105.285 187.905  50.273  1.00  0.00     0.180 A 
ATOM      2  C   UNL     1    -106.353 188.090  49.373  1.00  0.00     0.208 A 
ATOM      3  C   UNL     1    -107.092 189.282  49.433  1.00  0.00     0.238 A 
ATOM      4  O   UNL     1    -108.043 189.465  48.626  1.00  0.00    -0.285 OA
ATOM      5  C   UNL     1    -106.767 190.256  50.400  1.00  0.00     0.111 A 
ATOM      6  C   UNL     1    -107.463 191.480  50.531  1.00  0.00     0.134 A 
ATOM      7  C   UNL     1    -107.084 192.394  51.526  1.00  0.00     0.093 A 
ATOM      8  C   UNL     1    -106.027 192.107  52.391  1.00  0.00     0.123 A 
ATOM      9  C   UNL     1    -105.334 190.899  52.267  1.00  0.00     0.094 A 
ATOM     10  C   UNL     1    -105.695 189.975  51.281  1.00  0.00     0.146 A 
ATOM     11  O   UNL     1    -105.017 188.837  51.181  1.00  0.00    -0.452 OA
ENDROOT
BRANCH   1  12
ATOM     12  C   UNL     1    -104.449 186.684  50.258  1.00  0.00     0.025 A 
ATOM     13  C   UNL     1    -104.820 185.584  51.044  1.00  0.00     0.016 A 
ATOM     14  C   UNL     1    -104.035 184.430  51.061  1.00  0.00     0.051 A 
ATOM     15  C   UNL     1    -102.858 184.355  50.308  1.00  0.00     0.157 A 
ATOM     16  C   UNL     1    -103.256 186.621  49.518  1.00  0.00     0.062 A 
ATOM     17  C   UNL     1    -102.459 185.469  49.531  1.00  0.00     0.158 A 
BRANCH  15  18
ATOM     18  O   UNL     1    -102.122 183.170  50.362  1.00  0.00    -0.504 OA
ATOM     19  H   UNL     1    -102.500 182.283  50.659  1.00  0.00     0.293 HD
ENDBRANCH  15  18
BRANCH  17  20
ATOM     20  O   UNL     1    -101.289 185.477  48.770  1.00  0.00    -0.504 OA
ATOM     21  H   UNL     1    -101.200 185.038  47.865  1.00  0.00     0.293 HD
ENDBRANCH  17  20
ENDBRANCH   1  12
BRANCH   2  22
ATOM     22  O   UNL     1    -106.686 187.090  48.456  1.00  0.00    -0.502 OA
ATOM     23  H   UNL     1    -105.992 186.628  47.881  1.00  0.00     0.293 HD
ENDBRANCH   2  22
BRANCH   6  24
ATOM     24  O   UNL     1    -108.526 191.797  49.683  1.00  0.00    -0.507 OA
ATOM     25  H   UNL     1    -109.060 191.080  49.207  1.00  0.00     0.293 HD
ENDBRANCH   6  24
BRANCH   8  26
ATOM     26  O   UNL     1    -105.670 193.031  53.372  1.00  0.00    -0.508 OA
ATOM     27  H   UNL     1    -105.685 192.791  54.355  1.00  0.00     0.293 HD
ENDBRANCH   8  26
TORSDOF 6
ENDMDL
MODEL 5
REMARK VINA RESULT:    -5.014      3.124      5.991
REMARK INTER + INTRA:          -6.368
REMARK INTER:                  -6.105
REMARK INTRA:                  -0.263
REMARK UNBOUND:                -0.328
REMARK SMILES O=c1c(O)c(-c2ccc(O)c(O)c2)oc2cc(O)cc(O)c12
REMARK SMILES IDX 5 1 3 2 2 3 1 4 22 5 20 6 19 7 17 8 16 9 15 10 14 11 6 12
REMARK SMILES IDX 7 13 8 14 9 15 13 16 11 17 10 18 12 20 4 22 21 24 18 26
REMARK H PARENT 10 19 12 21 4 23 21 25 18 27
REMARK Flexibility Score: inf
ROOT
ATOM      1  C   UNL     1    -105.462 184.247  52.173  1.00  0.00     0.180 A 
ATOM      2  C   UNL     1    -106.494 184.856  51.432  1.00  0.00     0.208 A 
ATOM      3  C   UNL     1    -106.175 185.495  50.224  1.00  0.00     0.238 A 
ATOM      4  O   UNL     1    -107.092 186.035  49.546  1.00  0.00    -0.285 OA
ATOM      5  C   UNL     1    -104.834 185.533  49.788  1.00  0.00     0.111 A 
ATOM      6  C   UNL     1    -104.428 186.161  48.586  1.00  0.00     0.134 A 
ATOM      7  C   UNL     1    -103.072 186.163  48.226  1.00  0.00     0.093 A 
ATOM      8  C   UNL     1    -102.117 185.555  49.042  1.00  0.00     0.123 A 
ATOM      9  C   UNL     1    -102.512 184.933  50.231  1.00  0.00     0.094 A 
ATOM     10  C   UNL     1    -103.858 184.918  50.607  1.00  0.00     0.146 A 
ATOM     11  O   UNL     1    -104.207 184.316  51.739  1.00  0.00    -0.452 OA
ENDROOT
BRANCH   1  12
ATOM     12  C   UNL     1    -105.721 183.538  53.446  1.00  0.00     0.025 A 
ATOM     13  C   UNL     1    -106.321 182.270  53.419  1.00  0.00     0.016 A 
ATOM     14  C   UNL     1    -106.593 181.592  54.608  1.00  0.00     0.051 A 
ATOM     15  C   UNL     1    -106.289 182.169  55.845  1.00  0.00     0.157 A 
ATOM     16  C   UNL     1    -105.434 184.130  54.687  1.00  0.00     0.062 A 
ATOM     17  C   UNL     1    -105.707 183.459  55.886  1.00  0.00     0.158 A 
BRANCH  15  18
ATOM     18  O   UNL     1    -106.579 181.436  56.998  1.00  0.00    -0.504 OA
ATOM     19  H   UNL     1    -105.888 180.944  57.544  1.00  0.00     0.293 HD
ENDBRANCH  15  18
BRANCH  17  20
ATOM     20  O   UNL     1    -105.394 184.107  57.082  1.00  0.00    -0.504 OA
ATOM     21  H   UNL     1    -104.453 184.247  57.419  1.00  0.00     0.293 HD
ENDBRANCH  17  20
ENDBRANCH   1  12
BRANCH   2  22
ATOM     22  O   UNL     1    -107.807 184.846  51.910  1.00  0.00    -0.502 OA
ATOM     23  H   UNL     1    -108.112 184.219  52.644  1.00  0.00     0.293 HD
ENDBRANCH   2  22
BRANCH   6  24
ATOM     24  O   UNL     1    -105.359 186.778  47.748  1.00  0.00    -0.507 OA
ATOM     25  H   UNL     1    -105.824 187.639  48.010  1.00  0.00     0.293 HD
ENDBRANCH   6  24
BRANCH   8  26
ATOM     26  O   UNL     1    -100.777 185.572  48.662  1.00  0.00    -0.508 OA
ATOM     27  H   UNL     1    -100.230 184.722  48.610  1.00  0.00     0.293 HD
ENDBRANCH   8  26
TORSDOF 6
ENDMDL
MODEL 6
REMARK VINA RESULT:    -4.966      2.512      6.348
REMARK INTER + INTRA:          -6.311
REMARK INTER:                  -6.050
REMARK INTRA:                  -0.260
REMARK UNBOUND:                -0.328
REMARK SMILES O=c1c(O)c(-c2ccc(O)c(O)c2)oc2cc(O)cc(O)c12
REMARK SMILES IDX 5 1 3 2 2 3 1 4 22 5 20 6 19 7 17 8 16 9 15 10 14 11 6 12
REMARK SMILES IDX 7 13 8 14 9 15 13 16 11 17 10 18 12 20 4 22 21 24 18 26
REMARK H PARENT 10 19 12 21 4 23 21 25 18 27
REMARK Flexibility Score: inf
ROOT
ATOM      1  C   UNL     1    -104.723 185.733  50.630  1.00  0.00     0.180 A 
ATOM      2  C   UNL     1    -105.936 186.390  50.344  1.00  0.00     0.208 A 
ATOM      3  C   UNL     1    -107.067 186.095  51.121  1.00  0.00     0.238 A 
ATOM      4  O   UNL     1    -108.156 186.685  50.882  1.00  0.00    -0.285 OA
ATOM      5  C   UNL     1    -106.974 185.139  52.154  1.00  0.00     0.111 A 
ATOM      6  C   UNL     1    -108.066 184.781  52.979  1.00  0.00     0.134 A 
ATOM      7  C   UNL     1    -107.894 183.813  53.980  1.00  0.00     0.093 A 
ATOM      8  C   UNL     1    -106.656 183.196  54.170  1.00  0.00     0.123 A 
ATOM      9  C   UNL     1    -105.573 183.545  53.358  1.00  0.00     0.094 A 
ATOM     10  C   UNL     1    -105.723 184.509  52.356  1.00  0.00     0.146 A 
ATOM     11  O   UNL     1    -104.676 184.826  51.601  1.00  0.00    -0.452 OA
ENDROOT
BRANCH   1  12
ATOM     12  C   UNL     1    -103.484 186.004  49.868  1.00  0.00     0.025 A 
ATOM     13  C   UNL     1    -102.969 185.017  49.015  1.00  0.00     0.016 A 
ATOM     14  C   UNL     1    -101.791 185.244  48.302  1.00  0.00     0.051 A 
ATOM     15  C   UNL     1    -101.095 186.450  48.436  1.00  0.00     0.157 A 
ATOM     16  C   UNL     1    -102.776 187.208  50.023  1.00  0.00     0.062 A 
ATOM     17  C   UNL     1    -101.591 187.443  49.315  1.00  0.00     0.158 A 
BRANCH  15  18
ATOM     18  O   UNL     1     -99.927 186.617  47.690  1.00  0.00    -0.504 OA
ATOM     19  H   UNL     1     -99.889 187.090  46.799  1.00  0.00     0.293 HD
ENDBRANCH  15  18
BRANCH  17  20
ATOM     20  O   UNL     1    -100.942 188.662  49.516  1.00  0.00    -0.504 OA
ATOM     21  H   UNL     1    -100.107 188.773  50.074  1.00  0.00     0.293 HD
ENDBRANCH  17  20
ENDBRANCH   1  12
BRANCH   2  22
ATOM     22  O   UNL     1    -106.015 187.298  49.284  1.00  0.00    -0.502 OA
ATOM     23  H   UNL     1    -105.751 188.270  49.383  1.00  0.00     0.293 HD
ENDBRANCH   2  22
BRANCH   6  24
ATOM     24  O   UNL     1    -109.317 185.379  52.815  1.00  0.00    -0.507 OA
ATOM     25  H   UNL     1    -109.614 186.161  53.387  1.00  0.00     0.293 HD
ENDBRANCH   6  24
BRANCH   8  26
ATOM     26  O   UNL     1    -106.513 182.237  55.170  1.00  0.00    -0.508 OA
ATOM     27  H   UNL     1    -105.727 181.598  55.182  1.00  0.00     0.293 HD
ENDBRANCH   8  26
TORSDOF 6
ENDMDL
MODEL 7
REMARK VINA RESULT:    -4.846      3.206      6.847
REMARK INTER + INTRA:          -6.165
REMARK INTER:                  -5.833
REMARK INTRA:                  -0.332
REMARK UNBOUND:                -0.328
REMARK SMILES O=c1c(O)c(-c2ccc(O)c(O)c2)oc2cc(O)cc(O)c12
REMARK SMILES IDX 5 1 3 2 2 3 1 4 22 5 20 6 19 7 17 8 16 9 15 10 14 11 6 12
REMARK SMILES IDX 7 13 8 14 9 15 13 16 11 17 10 18 12 20 4 22 21 24 18 26
REMARK H PARENT 10 19 12 21 4 23 21 25 18 27
REMARK Flexibility Score: inf
ROOT
ATOM      1  C   UNL     1    -105.755 184.876  50.740  1.00  0.00     0.180 A 
ATOM      2  C   UNL     1    -106.329 185.654  51.765  1.00  0.00     0.208 A 
ATOM      3  C   UNL     1    -107.603 185.312  52.243  1.00  0.00     0.238 A 
ATOM      4  O   UNL     1    -108.123 185.994  53.168  1.00  0.00    -0.285 OA
ATOM      5  C   UNL     1    -108.289 184.216  51.680  1.00  0.00     0.111 A 
ATOM      6  C   UNL     1    -109.577 183.807  52.100  1.00  0.00     0.134 A 
ATOM      7  C   UNL     1    -110.196 182.711  51.482  1.00  0.00     0.093 A 
ATOM      8  C   UNL     1    -109.556 182.018  50.453  1.00  0.00     0.123 A 
ATOM      9  C   UNL     1    -108.283 182.416  50.032  1.00  0.00     0.094 A 
ATOM     10  C   UNL     1    -107.648 183.505  50.636  1.00  0.00     0.146 A 
ATOM     11  O   UNL     1    -106.437 183.859  50.222  1.00  0.00    -0.452 OA
ENDROOT
BRANCH   1  12
ATOM     12  C   UNL     1    -104.408 185.163  50.197  1.00  0.00     0.025 A 
ATOM     13  C   UNL     1    -104.282 185.971  49.058  1.00  0.00     0.016 A 
ATOM     14  C   UNL     1    -103.023 186.238  48.517  1.00  0.00     0.051 A 
ATOM     15  C   UNL     1    -101.869 185.693  49.090  1.00  0.00     0.157 A 
ATOM     16  C   UNL     1    -103.254 184.596  50.762  1.00  0.00     0.062 A 
ATOM     17  C   UNL     1    -101.986 184.854  50.224  1.00  0.00     0.158 A 
BRANCH  15  18
ATOM     18  O   UNL     1    -100.640 186.005  48.506  1.00  0.00    -0.504 OA
ATOM     19  H   UNL     1    -100.254 185.520  47.709  1.00  0.00     0.293 HD
ENDBRANCH  15  18
BRANCH  17  20
ATOM     20  O   UNL     1    -100.883 184.259  50.838  1.00  0.00    -0.504 OA
ATOM     21  H   UNL     1    -100.870 183.307  51.175  1.00  0.00     0.293 HD
ENDBRANCH  17  20
ENDBRANCH   1  12
BRANCH   2  22
ATOM     22  O   UNL     1    -105.650 186.765  52.273  1.00  0.00    -0.502 OA
ATOM     23  H   UNL     1    -105.218 186.764  53.189  1.00  0.00     0.293 HD
ENDBRANCH   2  22
BRANCH   6  24
ATOM     24  O   UNL     1    -110.244 184.479  53.126  1.00  0.00    -0.507 OA
ATOM     25  H   UNL     1    -110.427 185.474  53.081  1.00  0.00     0.293 HD
ENDBRANCH   6  24
BRANCH   8  26
ATOM     26  O   UNL     1    -110.193 180.933  49.855  1.00  0.00    -0.508 OA
ATOM     27  H   UNL     1    -110.457 180.113  50.388  1.00  0.00     0.293 HD
ENDBRANCH   8  26
TORSDOF 6
ENDMDL
MODEL 8
REMARK VINA RESULT:    -4.719      2.384      6.966
REMARK INTER + INTRA:          -6.013
REMARK INTER:                  -5.769
REMARK INTRA:                  -0.244
REMARK UNBOUND:                -0.328
REMARK SMILES O=c1c(O)c(-c2ccc(O)c(O)c2)oc2cc(O)cc(O)c12
REMARK SMILES IDX 5 1 3 2 2 3 1 4 22 5 20 6 19 7 17 8 16 9 15 10 14 11 6 12
REMARK SMILES IDX 7 13 8 14 9 15 13 16 11 17 10 18 12 20 4 22 21 24 18 26
REMARK H PARENT 10 19 12 21 4 23 21 25 18 27
REMARK Flexibility Score: inf
ROOT
ATOM      1  C   UNL     1    -105.556 186.736  48.391  1.00  0.00     0.180 A 
ATOM      2  C   UNL     1    -106.231 187.801  49.020  1.00  0.00     0.208 A 
ATOM      3  C   UNL     1    -107.324 188.390  48.368  1.00  0.00     0.238 A 
ATOM      4  O   UNL     1    -107.943 189.337  48.926  1.00  0.00    -0.285 OA
ATOM      5  C   UNL     1    -107.713 187.923  47.095  1.00  0.00     0.111 A 
ATOM      6  C   UNL     1    -108.799 188.465  46.369  1.00  0.00     0.134 A 
ATOM      7  C   UNL     1    -109.117 187.950  45.103  1.00  0.00     0.093 A 
ATOM      8  C   UNL     1    -108.370 186.908  44.550  1.00  0.00     0.123 A 
ATOM      9  C   UNL     1    -107.295 186.368  45.262  1.00  0.00     0.094 A 
ATOM     10  C   UNL     1    -106.963 186.866  46.526  1.00  0.00     0.146 A 
ATOM     11  O   UNL     1    -105.940 186.331  47.184  1.00  0.00    -0.452 OA
ENDROOT
BRANCH   1  12
ATOM     12  C   UNL     1    -104.406 186.051  49.023  1.00  0.00     0.025 A 
ATOM     13  C   UNL     1    -104.626 185.205  50.120  1.00  0.00     0.016 A 
ATOM     14  C   UNL     1    -103.555 184.564  50.744  1.00  0.00     0.051 A 
ATOM     15  C   UNL     1    -102.244 184.766  50.299  1.00  0.00     0.157 A 
ATOM     16  C   UNL     1    -103.090 186.273  48.587  1.00  0.00     0.062 A 
ATOM     17  C   UNL     1    -102.007 185.638  49.209  1.00  0.00     0.158 A 
BRANCH  15  18
ATOM     18  O   UNL     1    -101.218 184.090  50.961  1.00  0.00    -0.504 OA
ATOM     19  H   UNL     1    -100.253 184.389  50.963  1.00  0.00     0.293 HD
ENDBRANCH  15  18
BRANCH  17  20
ATOM     20  O   UNL     1    -100.727 185.904  48.722  1.00  0.00    -0.504 OA
ATOM     21  H   UNL     1    -100.278 186.807  48.774  1.00  0.00     0.293 HD
ENDBRANCH  17  20
ENDBRANCH   1  12
BRANCH   2  22
ATOM     22  O   UNL     1    -105.796 188.277  50.260  1.00  0.00    -0.502 OA
ATOM     23  H   UNL     1    -106.364 188.886  50.836  1.00  0.00     0.293 HD
ENDBRANCH   2  22
BRANCH   6  24
ATOM     24  O   UNL     1    -109.566 189.507  46.894  1.00  0.00    -0.507 OA
ATOM     25  H   UNL     1    -109.171 190.193  47.526  1.00  0.00     0.293 HD
ENDBRANCH   6  24
BRANCH   8  26
ATOM     26  O   UNL     1    -108.705 186.416  43.291  1.00  0.00    -0.508 OA
ATOM     27  H   UNL     1    -109.300 185.604  43.180  1.00  0.00     0.293 HD
ENDBRANCH   8  26
TORSDOF 6
ENDMDL
MODEL 9
REMARK VINA RESULT:    -4.680      1.609      6.968
REMARK INTER + INTRA:          -5.966
REMARK INTER:                  -5.673
REMARK INTRA:                  -0.293
REMARK UNBOUND:                -0.328
REMARK SMILES O=c1c(O)c(-c2ccc(O)c(O)c2)oc2cc(O)cc(O)c12
REMARK SMILES IDX 5 1 3 2 2 3 1 4 22 5 20 6 19 7 17 8 16 9 15 10 14 11 6 12
REMARK SMILES IDX 7 13 8 14 9 15 13 16 11 17 10 18 12 20 4 22 21 24 18 26
REMARK H PARENT 10 19 12 21 4 23 21 25 18 27
REMARK Flexibility Score: inf
ROOT
ATOM      1  C   UNL     1    -105.449 187.753  49.984  1.00  0.00     0.180 A 
ATOM      2  C   UNL     1    -105.511 188.767  50.960  1.00  0.00     0.208 A 
ATOM      3  C   UNL     1    -106.410 189.829  50.776  1.00  0.00     0.238 A 
ATOM      4  O   UNL     1    -106.483 190.738  51.648  1.00  0.00    -0.285 OA
ATOM      5  C   UNL     1    -107.214 189.871  49.618  1.00  0.00     0.111 A 
ATOM      6  C   UNL     1    -108.140 190.908  49.355  1.00  0.00     0.134 A 
ATOM      7  C   UNL     1    -108.897 190.882  48.174  1.00  0.00     0.093 A 
ATOM      8  C   UNL     1    -108.744 189.844  47.252  1.00  0.00     0.123 A 
ATOM      9  C   UNL     1    -107.830 188.817  47.506  1.00  0.00     0.094 A 
ATOM     10  C   UNL     1    -107.067 188.823  48.678  1.00  0.00     0.146 A 
ATOM     11  O   UNL     1    -106.210 187.833  48.897  1.00  0.00    -0.452 OA
ENDROOT
BRANCH   1  12
ATOM     12  C   UNL     1    -104.540 186.591  50.116  1.00  0.00     0.025 A 
ATOM     13  C   UNL     1    -104.897 185.530  50.960  1.00  0.00     0.016 A 
ATOM     14  C   UNL     1    -104.046 184.433  51.115  1.00  0.00     0.051 A 
ATOM     15  C   UNL     1    -102.819 184.381  50.445  1.00  0.00     0.157 A 
ATOM     16  C   UNL     1    -103.299 186.553  49.459  1.00  0.00     0.062 A 
ATOM     17  C   UNL     1    -102.437 185.459  49.611  1.00  0.00     0.158 A 
BRANCH  15  18
ATOM     18  O   UNL     1    -102.018 183.254  50.637  1.00  0.00    -0.504 OA
ATOM     19  H   UNL     1    -102.246 182.498  51.265  1.00  0.00     0.293 HD
ENDBRANCH  15  18
BRANCH  17  20
ATOM     20  O   UNL     1    -101.221 185.487  48.927  1.00  0.00    -0.504 OA
ATOM     21  H   UNL     1    -100.725 184.663  48.620  1.00  0.00     0.293 HD
ENDBRANCH  17  20
ENDBRANCH   1  12
BRANCH   2  22
ATOM     22  O   UNL     1    -104.670 188.728  52.075  1.00  0.00    -0.502 OA
ATOM     23  H   UNL     1    -104.019 189.473  52.290  1.00  0.00     0.293 HD
ENDBRANCH   2  22
BRANCH   6  24
ATOM     24  O   UNL     1    -108.317 191.960  50.256  1.00  0.00    -0.507 OA
ATOM     25  H   UNL     1    -109.044 192.653  50.130  1.00  0.00     0.293 HD
ENDBRANCH   6  24
BRANCH   8  26
ATOM     26  O   UNL     1    -109.506 189.843  46.086  1.00  0.00    -0.508 OA
ATOM     27  H   UNL     1    -109.197 189.359  45.252  1.00  0.00     0.293 HD
ENDBRANCH   8  26
TORSDOF 6
ENDMDL
