MODEL 1
REMARK VINA RESULT:    -3.972      0.000      0.000
REMARK INTER + INTRA:          -5.897
REMARK INTER:                  -5.482
REMARK INTRA:                  -0.415
REMARK UNBOUND:                -0.415
REMARK SMILES OC[C@@H](O)[C@H](O)[C@@H](O)CO
REMARK SMILES IDX 5 1 7 2 9 3 10 4 8 6 3 8 2 9 1 10 4 12 6 14
REMARK H PARENT 10 5 8 7 1 11 4 13 6 15
REMARK Flexibility Score: inf
ROOT
ATOM      1  C   UNL     1      29.597  19.028 143.433  1.00  0.00     0.176 C 
ENDROOT
BRANCH   1   2
ATOM      2  C   UNL     1      30.322  19.666 142.217  1.00  0.00     0.171 C 
BRANCH   2   3
ATOM      3  C   UNL     1      31.040  18.617 141.344  1.00  0.00     0.190 C 
BRANCH   3   4
ATOM      4  O   UNL     1      30.798  17.320 141.819  1.00  0.00    -0.394 OA
ATOM      5  H   UNL     1      31.375  17.198 142.619  1.00  0.00     0.210 HD
ENDBRANCH   3   4
ENDBRANCH   2   3
BRANCH   2   6
ATOM      6  O   UNL     1      31.230  20.659 142.628  1.00  0.00    -0.388 OA
ATOM      7  H   UNL     1      31.354  21.287 141.869  1.00  0.00     0.211 HD
ENDBRANCH   2   6
ENDBRANCH   1   2
BRANCH   1   8
ATOM      8  C   UNL     1      28.052  18.996 143.277  1.00  0.00     0.171 C 
BRANCH   8   9
ATOM      9  C   UNL     1      27.488  17.567 143.197  1.00  0.00     0.190 C 
BRANCH   9  10
ATOM     10  O   UNL     1      28.435  16.640 143.653  1.00  0.00    -0.394 OA
ATOM     11  H   UNL     1      28.981  16.392 142.862  1.00  0.00     0.210 HD
ENDBRANCH   9  10
ENDBRANCH   8   9
BRANCH   8  12
ATOM     12  O   UNL     1      27.465  19.632 144.385  1.00  0.00    -0.388 OA
ATOM     13  H   UNL     1      27.920  20.508 144.496  1.00  0.00     0.211 HD
ENDBRANCH   8  12
ENDBRANCH   1   8
BRANCH   1  14
ATOM     14  O   UNL     1      29.931  19.746 144.596  1.00  0.00    -0.388 OA
ATOM     15  H   UNL     1      30.231  19.087 145.275  1.00  0.00     0.211 HD
ENDBRANCH   1  14
TORSDOF 9
ENDMDL
MODEL 2
REMARK VINA RESULT:    -3.963     10.000     11.264
REMARK INTER + INTRA:          -5.885
REMARK INTER:                  -4.923
REMARK INTRA:                  -0.961
REMARK UNBOUND:                -0.415
REMARK SMILES OC[C@@H](O)[C@H](O)[C@@H](O)CO
REMARK SMILES IDX 5 1 7 2 9 3 10 4 8 6 3 8 2 9 1 10 4 12 6 14
REMARK H PARENT 10 5 8 7 1 11 4 13 6 15
REMARK Flexibility Score: inf
ROOT
ATOM      1  C   UNL     1      33.061  23.297 134.621  1.00  0.00     0.176 C 
ENDROOT
BRANCH   1   2
ATOM      2  C   UNL     1      32.590  22.669 133.281  1.00  0.00     0.171 C 
BRANCH   2   3
ATOM      3  C   UNL     1      33.384  21.398 132.917  1.00  0.00     0.190 C 
BRANCH   3   4
ATOM      4  O   UNL     1      34.739  21.695 132.716  1.00  0.00    -0.394 OA
ATOM      5  H   UNL     1      35.076  22.078 133.568  1.00  0.00     0.210 HD
ENDBRANCH   3   4
ENDBRANCH   2   3
BRANCH   2   6
ATOM      6  O   UNL     1      32.656  23.600 132.230  1.00  0.00    -0.388 OA
ATOM      7  H   UNL     1      31.725  23.853 131.992  1.00  0.00     0.211 HD
ENDBRANCH   2   6
ENDBRANCH   1   2
BRANCH   1   8
ATOM      8  C   UNL     1      33.798  24.652 134.436  1.00  0.00     0.171 C 
BRANCH   8   9
ATOM      9  C   UNL     1      34.223  25.289 135.770  1.00  0.00     0.190 C 
BRANCH   9  10
ATOM     10  O   UNL     1      33.367  24.883 136.802  1.00  0.00    -0.394 OA
ATOM     11  H   UNL     1      33.716  25.302 137.631  1.00  0.00     0.210 HD
ENDBRANCH   9  10
ENDBRANCH   8   9
BRANCH   8  12
ATOM     12  O   UNL     1      34.957  24.443 133.667  1.00  0.00    -0.388 OA
ATOM     13  H   UNL     1      35.181  23.477 133.729  1.00  0.00     0.211 HD
ENDBRANCH   8  12
ENDBRANCH   1   8
BRANCH   1  14
ATOM     14  O   UNL     1      33.913  22.391 135.279  1.00  0.00    -0.388 OA
ATOM     15  H   UNL     1      34.341  22.880 136.030  1.00  0.00     0.211 HD
ENDBRANCH   1  14
TORSDOF 9
ENDMDL
MODEL 3
REMARK VINA RESULT:    -3.909      1.370      2.571
REMARK INTER + INTRA:          -5.810
REMARK INTER:                  -5.143
REMARK INTRA:                  -0.667
REMARK UNBOUND:                -0.415
REMARK SMILES OC[C@@H](O)[C@H](O)[C@@H](O)CO
REMARK SMILES IDX 5 1 7 2 9 3 10 4 8 6 3 8 2 9 1 10 4 12 6 14
REMARK H PARENT 10 5 8 7 1 11 4 13 6 15
REMARK Flexibility Score: inf
ROOT
ATOM      1  C   UNL     1      29.490  18.519 142.150  1.00  0.00     0.176 C 
ENDROOT
BRANCH   1   2
ATOM      2  C   UNL     1      29.459  19.842 142.962  1.00  0.00     0.171 C 
BRANCH   2   3
ATOM      3  C   UNL     1      30.209  20.986 142.249  1.00  0.00     0.190 C 
BRANCH   3   4
ATOM      4  O   UNL     1      31.583  20.930 142.520  1.00  0.00    -0.394 OA
ATOM      5  H   UNL     1      31.915  20.079 142.128  1.00  0.00     0.210 HD
ENDBRANCH   3   4
ENDBRANCH   2   3
BRANCH   2   6
ATOM      6  O   UNL     1      29.974  19.658 144.257  1.00  0.00    -0.388 OA
ATOM      7  H   UNL     1      30.953  19.815 144.218  1.00  0.00     0.211 HD
ENDBRANCH   2   6
ENDBRANCH   1   2
BRANCH   1   8
ATOM      8  C   UNL     1      28.717  17.360 142.837  1.00  0.00     0.171 C 
BRANCH   8   9
ATOM      9  C   UNL     1      28.420  16.189 141.885  1.00  0.00     0.190 C 
BRANCH   9  10
ATOM     10  O   UNL     1      29.498  15.295 141.858  1.00  0.00    -0.394 OA
ATOM     11  H   UNL     1      29.657  15.025 142.800  1.00  0.00     0.210 HD
ENDBRANCH   9  10
ENDBRANCH   8   9
BRANCH   8  12
ATOM     12  O   UNL     1      29.487  16.865 143.905  1.00  0.00    -0.388 OA
ATOM     13  H   UNL     1      28.867  16.389 144.519  1.00  0.00     0.211 HD
ENDBRANCH   8  12
ENDBRANCH   1   8
BRANCH   1  14
ATOM     14  O   UNL     1      30.828  18.132 141.952  1.00  0.00    -0.388 OA
ATOM     15  H   UNL     1      31.358  18.506 142.702  1.00  0.00     0.211 HD
ENDBRANCH   1  14
TORSDOF 9
ENDMDL
MODEL 4
REMARK VINA RESULT:    -3.896      9.374     11.108
REMARK INTER + INTRA:          -5.791
REMARK INTER:                  -5.390
REMARK INTRA:                  -0.401
REMARK UNBOUND:                -0.415
REMARK SMILES OC[C@@H](O)[C@H](O)[C@@H](O)CO
REMARK SMILES IDX 5 1 7 2 9 3 10 4 8 6 3 8 2 9 1 10 4 12 6 14
REMARK H PARENT 10 5 8 7 1 11 4 13 6 15
REMARK Flexibility Score: inf
ROOT
ATOM      1  C   UNL     1      33.193  24.063 134.731  1.00  0.00     0.176 C 
ENDROOT
BRANCH   1   2
ATOM      2  C   UNL     1      33.753  24.359 133.313  1.00  0.00     0.171 C 
BRANCH   2   3
ATOM      3  C   UNL     1      33.166  23.417 132.242  1.00  0.00     0.190 C 
BRANCH   3   4
ATOM      4  O   UNL     1      32.865  24.121 131.067  1.00  0.00    -0.394 OA
ATOM      5  H   UNL     1      33.721  24.500 130.734  1.00  0.00     0.210 HD
ENDBRANCH   3   4
ENDBRANCH   2   3
BRANCH   2   6
ATOM      6  O   UNL     1      35.157  24.298 133.296  1.00  0.00    -0.388 OA
ATOM      7  H   UNL     1      35.500  25.073 133.815  1.00  0.00     0.211 HD
ENDBRANCH   2   6
ENDBRANCH   1   2
BRANCH   1   8
ATOM      8  C   UNL     1      33.377  25.245 135.721  1.00  0.00     0.171 C 
BRANCH   8   9
ATOM      9  C   UNL     1      32.284  25.297 136.802  1.00  0.00     0.190 C 
BRANCH   9  10
ATOM     10  O   UNL     1      32.346  24.159 137.617  1.00  0.00    -0.394 OA
ATOM     11  H   UNL     1      32.319  24.488 138.553  1.00  0.00     0.210 HD
ENDBRANCH   9  10
ENDBRANCH   8   9
BRANCH   8  12
ATOM     12  O   UNL     1      34.619  25.113 136.368  1.00  0.00    -0.388 OA
ATOM     13  H   UNL     1      34.942  26.029 136.575  1.00  0.00     0.211 HD
ENDBRANCH   8  12
ENDBRANCH   1   8
BRANCH   1  14
ATOM     14  O   UNL     1      33.831  22.920 135.248  1.00  0.00    -0.388 OA
ATOM     15  H   UNL     1      33.279  22.590 136.003  1.00  0.00     0.211 HD
ENDBRANCH   1  14
TORSDOF 9
ENDMDL
MODEL 5
REMARK VINA RESULT:    -3.890      6.615      8.116
REMARK INTER + INTRA:          -5.783
REMARK INTER:                  -5.348
REMARK INTRA:                  -0.435
REMARK UNBOUND:                -0.415
REMARK SMILES OC[C@@H](O)[C@H](O)[C@@H](O)CO
REMARK SMILES IDX 5 1 7 2 9 3 10 4 8 6 3 8 2 9 1 10 4 12 6 14
REMARK H PARENT 10 5 8 7 1 11 4 13 6 15
REMARK Flexibility Score: inf
ROOT
ATOM      1  C   UNL     1      22.838  19.045 139.145  1.00  0.00     0.176 C 
ENDROOT
BRANCH   1   2
ATOM      2  C   UNL     1      22.084  19.666 140.351  1.00  0.00     0.171 C 
BRANCH   2   3
ATOM      3  C   UNL     1      21.427  18.596 141.247  1.00  0.00     0.190 C 
BRANCH   3   4
ATOM      4  O   UNL     1      21.501  17.329 140.650  1.00  0.00    -0.394 OA
ATOM      5  H   UNL     1      22.416  17.246 140.271  1.00  0.00     0.210 HD
ENDBRANCH   3   4
ENDBRANCH   2   3
BRANCH   2   6
ATOM      6  O   UNL     1      21.122  20.599 139.926  1.00  0.00    -0.388 OA
ATOM      7  H   UNL     1      20.276  20.403 140.408  1.00  0.00     0.211 HD
ENDBRANCH   2   6
ENDBRANCH   1   2
BRANCH   1   8
ATOM      8  C   UNL     1      24.377  18.987 139.349  1.00  0.00     0.171 C 
BRANCH   8   9
ATOM      9  C   UNL     1      24.928  17.551 139.349  1.00  0.00     0.190 C 
BRANCH   9  10
ATOM     10  O   UNL     1      23.928  16.643 138.978  1.00  0.00    -0.394 OA
ATOM     11  H   UNL     1      24.394  15.876 138.554  1.00  0.00     0.210 HD
ENDBRANCH   9  10
ENDBRANCH   8   9
BRANCH   8  12
ATOM     12  O   UNL     1      25.006  19.692 138.306  1.00  0.00    -0.388 OA
ATOM     13  H   UNL     1      24.552  20.573 138.232  1.00  0.00     0.211 HD
ENDBRANCH   8  12
ENDBRANCH   1   8
BRANCH   1  14
ATOM     14  O   UNL     1      22.552  19.794 137.988  1.00  0.00    -0.388 OA
ATOM     15  H   UNL     1      23.344  19.734 137.393  1.00  0.00     0.211 HD
ENDBRANCH   1  14
TORSDOF 9
ENDMDL
MODEL 6
REMARK VINA RESULT:    -3.838      7.270      8.277
REMARK INTER + INTRA:          -5.711
REMARK INTER:                  -5.231
REMARK INTRA:                  -0.480
REMARK UNBOUND:                -0.415
REMARK SMILES OC[C@@H](O)[C@H](O)[C@@H](O)CO
REMARK SMILES IDX 5 1 7 2 9 3 10 4 8 6 3 8 2 9 1 10 4 12 6 14
REMARK H PARENT 10 5 8 7 1 11 4 13 6 15
REMARK Flexibility Score: inf
ROOT
ATOM      1  C   UNL     1      22.885  19.893 140.470  1.00  0.00     0.176 C 
ENDROOT
BRANCH   1   2
ATOM      2  C   UNL     1      22.169  21.251 140.238  1.00  0.00     0.171 C 
BRANCH   2   3
ATOM      3  C   UNL     1      22.234  22.168 141.477  1.00  0.00     0.190 C 
BRANCH   3   4
ATOM      4  O   UNL     1      23.247  23.127 141.338  1.00  0.00    -0.394 OA
ATOM      5  H   UNL     1      23.345  23.299 140.364  1.00  0.00     0.210 HD
ENDBRANCH   3   4
ENDBRANCH   2   3
BRANCH   2   6
ATOM      6  O   UNL     1      20.833  21.063 139.843  1.00  0.00    -0.388 OA
ATOM      7  H   UNL     1      20.653  21.678 139.084  1.00  0.00     0.211 HD
ENDBRANCH   2   6
ENDBRANCH   1   2
BRANCH   1   8
ATOM      8  C   UNL     1      23.612  19.360 139.204  1.00  0.00     0.171 C 
BRANCH   8   9
ATOM      9  C   UNL     1      23.903  17.851 139.271  1.00  0.00     0.190 C 
BRANCH   9  10
ATOM     10  O   UNL     1      22.849  17.123 138.704  1.00  0.00    -0.394 OA
ATOM     11  H   UNL     1      22.058  17.287 139.281  1.00  0.00     0.210 HD
ENDBRANCH   9  10
ENDBRANCH   8   9
BRANCH   8  12
ATOM     12  O   UNL     1      22.804  19.595 138.077  1.00  0.00    -0.388 OA
ATOM     13  H   UNL     1      23.407  19.850 137.330  1.00  0.00     0.211 HD
ENDBRANCH   8  12
ENDBRANCH   1   8
BRANCH   1  14
ATOM     14  O   UNL     1      21.939  18.942 140.896  1.00  0.00    -0.388 OA
ATOM     15  H   UNL     1      22.228  18.618 141.789  1.00  0.00     0.211 HD
ENDBRANCH   1  14
TORSDOF 9
ENDMDL
MODEL 7
REMARK VINA RESULT:    -3.822      8.940     10.723
REMARK INTER + INTRA:          -5.689
REMARK INTER:                  -4.985
REMARK INTRA:                  -0.704
REMARK UNBOUND:                -0.415
REMARK SMILES OC[C@@H](O)[C@H](O)[C@@H](O)CO
REMARK SMILES IDX 5 1 7 2 9 3 10 4 8 6 3 8 2 9 1 10 4 12 6 14
REMARK H PARENT 10 5 8 7 1 11 4 13 6 15
REMARK Flexibility Score: inf
ROOT
ATOM      1  C   UNL     1      21.132  24.662 146.183  1.00  0.00     0.176 C 
ENDROOT
BRANCH   1   2
ATOM      2  C   UNL     1      22.554  24.213 146.617  1.00  0.00     0.171 C 
BRANCH   2   3
ATOM      3  C   UNL     1      23.312  23.489 145.485  1.00  0.00     0.190 C 
BRANCH   3   4
ATOM      4  O   UNL     1      23.777  24.404 144.529  1.00  0.00    -0.394 OA
ATOM      5  H   UNL     1      24.307  23.882 143.871  1.00  0.00     0.210 HD
ENDBRANCH   3   4
ENDBRANCH   2   3
BRANCH   2   6
ATOM      6  O   UNL     1      22.505  23.402 147.764  1.00  0.00    -0.388 OA
ATOM      7  H   UNL     1      22.927  23.906 148.508  1.00  0.00     0.211 HD
ENDBRANCH   2   6
ENDBRANCH   1   2
BRANCH   1   8
ATOM      8  C   UNL     1      20.024  24.246 147.189  1.00  0.00     0.171 C 
BRANCH   8   9
ATOM      9  C   UNL     1      18.814  25.195 147.175  1.00  0.00     0.190 C 
BRANCH   9  10
ATOM     10  O   UNL     1      18.454  25.509 145.858  1.00  0.00    -0.394 OA
ATOM     11  H   UNL     1      19.196  25.186 145.284  1.00  0.00     0.210 HD
ENDBRANCH   9  10
ENDBRANCH   8   9
BRANCH   8  12
ATOM     12  O   UNL     1      19.567  22.957 146.862  1.00  0.00    -0.388 OA
ATOM     13  H   UNL     1      18.741  22.795 147.389  1.00  0.00     0.211 HD
ENDBRANCH   8  12
ENDBRANCH   1   8
BRANCH   1  14
ATOM     14  O   UNL     1      20.842  24.113 144.920  1.00  0.00    -0.388 OA
ATOM     15  H   UNL     1      21.025  24.815 144.243  1.00  0.00     0.211 HD
ENDBRANCH   1  14
TORSDOF 9
ENDMDL
MODEL 8
REMARK VINA RESULT:    -3.802     10.152     11.929
REMARK INTER + INTRA:          -5.662
REMARK INTER:                  -5.190
REMARK INTRA:                  -0.472
REMARK UNBOUND:                -0.415
REMARK SMILES OC[C@@H](O)[C@H](O)[C@@H](O)CO
REMARK SMILES IDX 5 1 7 2 9 3 10 4 8 6 3 8 2 9 1 10 4 12 6 14
REMARK H PARENT 10 5 8 7 1 11 4 13 6 15
REMARK Flexibility Score: inf
ROOT
ATOM      1  C   UNL     1      20.867  24.910 146.294  1.00  0.00     0.176 C 
ENDROOT
BRANCH   1   2
ATOM      2  C   UNL     1      19.451  25.171 146.875  1.00  0.00     0.171 C 
BRANCH   2   3
ATOM      3  C   UNL     1      18.919  23.974 147.688  1.00  0.00     0.190 C 
BRANCH   3   4
ATOM      4  O   UNL     1      18.971  22.793 146.934  1.00  0.00    -0.394 OA
ATOM      5  H   UNL     1      19.253  23.053 146.017  1.00  0.00     0.210 HD
ENDBRANCH   3   4
ENDBRANCH   2   3
BRANCH   2   6
ATOM      6  O   UNL     1      18.538  25.512 145.861  1.00  0.00    -0.388 OA
ATOM      7  H   UNL     1      17.627  25.486 146.253  1.00  0.00     0.211 HD
ENDBRANCH   2   6
ENDBRANCH   1   2
BRANCH   1   8
ATOM      8  C   UNL     1      21.729  26.197 146.178  1.00  0.00     0.171 C 
BRANCH   8   9
ATOM      9  C   UNL     1      23.121  25.934 145.580  1.00  0.00     0.190 C 
BRANCH   9  10
ATOM     10  O   UNL     1      24.071  26.788 146.157  1.00  0.00    -0.394 OA
ATOM     11  H   UNL     1      23.572  27.587 146.467  1.00  0.00     0.210 HD
ENDBRANCH   9  10
ENDBRANCH   8   9
BRANCH   8  12
ATOM     12  O   UNL     1      21.068  27.119 145.347  1.00  0.00    -0.388 OA
ATOM     13  H   UNL     1      20.637  27.792 145.938  1.00  0.00     0.211 HD
ENDBRANCH   8  12
ENDBRANCH   1   8
BRANCH   1  14
ATOM     14  O   UNL     1      20.741  24.320 145.022  1.00  0.00    -0.388 OA
ATOM     15  H   UNL     1      21.655  24.230 144.647  1.00  0.00     0.211 HD
ENDBRANCH   1  14
TORSDOF 9
ENDMDL
MODEL 9
REMARK VINA RESULT:    -3.786      6.826      8.145
REMARK INTER + INTRA:          -5.640
REMARK INTER:                  -4.920
REMARK INTRA:                  -0.721
REMARK UNBOUND:                -0.415
REMARK SMILES OC[C@@H](O)[C@H](O)[C@@H](O)CO
REMARK SMILES IDX 5 1 7 2 9 3 10 4 8 6 3 8 2 9 1 10 4 12 6 14
REMARK H PARENT 10 5 8 7 1 11 4 13 6 15
REMARK Flexibility Score: inf
ROOT
ATOM      1  C   UNL     1      22.816  19.238 140.904  1.00  0.00     0.176 C 
ENDROOT
BRANCH   1   2
ATOM      2  C   UNL     1      22.439  17.737 141.024  1.00  0.00     0.171 C 
BRANCH   2   3
ATOM      3  C   UNL     1      23.215  16.855 140.025  1.00  0.00     0.190 C 
BRANCH   3   4
ATOM      4  O   UNL     1      22.860  17.161 138.704  1.00  0.00    -0.394 OA
ATOM      5  H   UNL     1      21.899  16.927 138.606  1.00  0.00     0.210 HD
ENDBRANCH   3   4
ENDBRANCH   2   3
BRANCH   2   6
ATOM      6  O   UNL     1      21.055  17.544 140.866  1.00  0.00    -0.388 OA
ATOM      7  H   UNL     1      20.681  17.302 141.754  1.00  0.00     0.211 HD
ENDBRANCH   2   6
ENDBRANCH   1   2
BRANCH   1   8
ATOM      8  C   UNL     1      21.796  20.062 140.070  1.00  0.00     0.171 C 
BRANCH   8   9
ATOM      9  C   UNL     1      21.560  21.473 140.636  1.00  0.00     0.190 C 
BRANCH   9  10
ATOM     10  O   UNL     1      22.783  22.113 140.880  1.00  0.00    -0.394 OA
ATOM     11  H   UNL     1      23.451  21.391 141.011  1.00  0.00     0.210 HD
ENDBRANCH   9  10
ENDBRANCH   8   9
BRANCH   8  12
ATOM     12  O   UNL     1      22.280  20.197 138.757  1.00  0.00    -0.388 OA
ATOM     13  H   UNL     1      21.946  19.418 138.239  1.00  0.00     0.211 HD
ENDBRANCH   8  12
ENDBRANCH   1   8
BRANCH   1  14
ATOM     14  O   UNL     1      24.090  19.347 140.318  1.00  0.00    -0.388 OA
ATOM     15  H   UNL     1      24.747  18.986 140.968  1.00  0.00     0.211 HD
ENDBRANCH   1  14
TORSDOF 9
ENDMDL
