MODEL 1
REMARK VINA RESULT:    -3.994      0.000      0.000
REMARK INTER + INTRA:          -4.731
REMARK INTER:                  -4.694
REMARK INTRA:                  -0.036
REMARK UNBOUND:                -0.036
REMARK SMILES O=C([O-])CCC(=O)[O-]
REMARK SMILES IDX 4 1 2 2 1 3 3 4 5 5 6 6 7 7 8 8
REMARK H PARENT
REMARK Flexibility Score: inf
ROOT
ATOM      1  C   UNL     1      23.798   8.142  15.060  1.00  0.00     0.059 C 
ENDROOT
BRANCH   1   2
ATOM      2  C   UNL     1      22.858   9.258  15.390  1.00  0.00     0.042 C 
ATOM      3  O   UNL     1      21.669   9.228  14.981  1.00  0.00    -0.550 OA
ATOM      4  O   UNL     1      23.283  10.309  16.194  1.00  0.00    -0.550 OA
ENDBRANCH   1   2
BRANCH   1   5
ATOM      5  C   UNL     1      23.050   6.808  15.017  1.00  0.00     0.059 C 
BRANCH   5   6
ATOM      6  C   UNL     1      23.928   5.734  14.456  1.00  0.00     0.042 C 
ATOM      7  O   UNL     1      24.366   5.822  13.280  1.00  0.00    -0.550 OA
ATOM      8  O   UNL     1      24.221   4.608  15.217  1.00  0.00    -0.550 OA
ENDBRANCH   5   6
ENDBRANCH   1   5
TORSDOF 3
ENDMDL
MODEL 2
REMARK VINA RESULT:    -3.982      0.081      4.265
REMARK INTER + INTRA:          -4.717
REMARK INTER:                  -4.680
REMARK INTRA:                  -0.037
REMARK UNBOUND:                -0.036
REMARK SMILES O=C([O-])CCC(=O)[O-]
REMARK SMILES IDX 4 1 2 2 1 3 3 4 5 5 6 6 7 7 8 8
REMARK H PARENT
REMARK Flexibility Score: inf
ROOT
ATOM      1  C   UNL     1      23.099   6.749  15.070  1.00  0.00     0.059 C 
ENDROOT
BRANCH   1   2
ATOM      2  C   UNL     1      23.975   5.687  14.484  1.00  0.00     0.042 C 
ATOM      3  O   UNL     1      24.392   5.791  13.301  1.00  0.00    -0.550 OA
ATOM      4  O   UNL     1      24.371   4.605  15.262  1.00  0.00    -0.550 OA
ENDBRANCH   1   2
BRANCH   1   5
ATOM      5  C   UNL     1      23.816   8.100  15.059  1.00  0.00     0.059 C 
BRANCH   5   6
ATOM      6  C   UNL     1      22.862   9.202  15.400  1.00  0.00     0.042 C 
ATOM      7  O   UNL     1      21.678   9.169  14.975  1.00  0.00    -0.550 OA
ATOM      8  O   UNL     1      23.297  10.291  16.145  1.00  0.00    -0.550 OA
ENDBRANCH   5   6
ENDBRANCH   1   5
TORSDOF 3
ENDMDL
MODEL 3
REMARK VINA RESULT:    -3.808      2.024      4.132
REMARK INTER + INTRA:          -4.512
REMARK INTER:                  -4.400
REMARK INTRA:                  -0.111
REMARK UNBOUND:                -0.036
REMARK SMILES O=C([O-])CCC(=O)[O-]
REMARK SMILES IDX 4 1 2 2 1 3 3 4 5 5 6 6 7 7 8 8
REMARK H PARENT
REMARK Flexibility Score: inf
ROOT
ATOM      1  C   UNL     1      24.030   5.025  14.794  1.00  0.00     0.059 C 
ENDROOT
BRANCH   1   2
ATOM      2  C   UNL     1      24.849   4.721  16.009  1.00  0.00     0.042 C 
ATOM      3  O   UNL     1      24.316   4.184  17.014  1.00  0.00    -0.550 OA
ATOM      4  O   UNL     1      26.213   4.986  16.011  1.00  0.00    -0.550 OA
ENDBRANCH   1   2
BRANCH   1   5
ATOM      5  C   UNL     1      23.799   6.532  14.667  1.00  0.00     0.059 C 
BRANCH   5   6
ATOM      6  C   UNL     1      22.473   6.909  15.249  1.00  0.00     0.042 C 
ATOM      7  O   UNL     1      22.165   8.121  15.391  1.00  0.00    -0.550 OA
ATOM      8  O   UNL     1      21.597   5.921  15.681  1.00  0.00    -0.550 OA
ENDBRANCH   5   6
ENDBRANCH   1   5
TORSDOF 3
ENDMDL
MODEL 4
REMARK VINA RESULT:    -3.799      2.012      2.631
REMARK INTER + INTRA:          -4.501
REMARK INTER:                  -4.390
REMARK INTRA:                  -0.111
REMARK UNBOUND:                -0.036
REMARK SMILES O=C([O-])CCC(=O)[O-]
REMARK SMILES IDX 4 1 2 2 1 3 3 4 5 5 6 6 7 7 8 8
REMARK H PARENT
REMARK Flexibility Score: inf
ROOT
ATOM      1  C   UNL     1      23.831   6.493  14.679  1.00  0.00     0.059 C 
ENDROOT
BRANCH   1   2
ATOM      2  C   UNL     1      22.497   6.916  15.209  1.00  0.00     0.042 C 
ATOM      3  O   UNL     1      21.646   6.052  15.544  1.00  0.00    -0.550 OA
ATOM      4  O   UNL     1      22.213   8.265  15.380  1.00  0.00    -0.550 OA
ENDBRANCH   1   2
BRANCH   1   5
ATOM      5  C   UNL     1      24.012   4.982  14.826  1.00  0.00     0.059 C 
BRANCH   5   6
ATOM      6  C   UNL     1      24.809   4.667  16.053  1.00  0.00     0.042 C 
ATOM      7  O   UNL     1      24.243   4.194  17.072  1.00  0.00    -0.550 OA
ATOM      8  O   UNL     1      26.170   4.945  16.088  1.00  0.00    -0.550 OA
ENDBRANCH   5   6
ENDBRANCH   1   5
TORSDOF 3
ENDMDL
MODEL 5
REMARK VINA RESULT:    -3.751      1.945      4.171
REMARK INTER + INTRA:          -4.445
REMARK INTER:                  -4.353
REMARK INTRA:                  -0.092
REMARK UNBOUND:                -0.036
REMARK SMILES O=C([O-])CCC(=O)[O-]
REMARK SMILES IDX 4 1 2 2 1 3 3 4 5 5 6 6 7 7 8 8
REMARK H PARENT
REMARK Flexibility Score: inf
ROOT
ATOM      1  C   UNL     1      24.207   5.248  14.684  1.00  0.00     0.059 C 
ENDROOT
BRANCH   1   2
ATOM      2  C   UNL     1      24.958   4.810  15.902  1.00  0.00     0.042 C 
ATOM      3  O   UNL     1      26.189   5.046  16.006  1.00  0.00    -0.550 OA
ATOM      4  O   UNL     1      24.285   4.185  16.945  1.00  0.00    -0.550 OA
ENDBRANCH   1   2
BRANCH   1   5
ATOM      5  C   UNL     1      23.942   6.754  14.731  1.00  0.00     0.059 C 
BRANCH   5   6
ATOM      6  C   UNL     1      22.559   7.027  15.230  1.00  0.00     0.042 C 
ATOM      7  O   UNL     1      22.133   8.209  15.304  1.00  0.00    -0.550 OA
ATOM      8  O   UNL     1      21.756   5.978  15.662  1.00  0.00    -0.550 OA
ENDBRANCH   5   6
ENDBRANCH   1   5
TORSDOF 3
ENDMDL
MODEL 6
REMARK VINA RESULT:    -3.715      1.666      4.208
REMARK INTER + INTRA:          -4.403
REMARK INTER:                  -4.316
REMARK INTRA:                  -0.087
REMARK UNBOUND:                -0.036
REMARK SMILES O=C([O-])CCC(=O)[O-]
REMARK SMILES IDX 4 1 2 2 1 3 3 4 5 5 6 6 7 7 8 8
REMARK H PARENT
REMARK Flexibility Score: inf
ROOT
ATOM      1  C   UNL     1      24.087   5.496  14.684  1.00  0.00     0.059 C 
ENDROOT
BRANCH   1   2
ATOM      2  C   UNL     1      24.810   4.862  15.831  1.00  0.00     0.042 C 
ATOM      3  O   UNL     1      24.181   4.163  16.668  1.00  0.00    -0.550 OA
ATOM      4  O   UNL     1      26.187   5.002  15.947  1.00  0.00    -0.550 OA
ENDBRANCH   1   2
BRANCH   1   5
ATOM      5  C   UNL     1      24.365   7.000  14.642  1.00  0.00     0.059 C 
BRANCH   5   6
ATOM      6  C   UNL     1      23.162   7.767  15.092  1.00  0.00     0.042 C 
ATOM      7  O   UNL     1      22.063   7.180  15.265  1.00  0.00    -0.550 OA
ATOM      8  O   UNL     1      23.243   9.143  15.271  1.00  0.00    -0.550 OA
ENDBRANCH   5   6
ENDBRANCH   1   5
TORSDOF 3
ENDMDL
MODEL 7
REMARK VINA RESULT:    -3.594      1.437      2.051
REMARK INTER + INTRA:          -4.260
REMARK INTER:                  -4.173
REMARK INTRA:                  -0.087
REMARK UNBOUND:                -0.036
REMARK SMILES O=C([O-])CCC(=O)[O-]
REMARK SMILES IDX 4 1 2 2 1 3 3 4 5 5 6 6 7 7 8 8
REMARK H PARENT
REMARK Flexibility Score: inf
ROOT
ATOM      1  C   UNL     1      22.822   6.716  15.107  1.00  0.00     0.059 C 
ENDROOT
BRANCH   1   2
ATOM      2  C   UNL     1      22.992   8.202  15.146  1.00  0.00     0.042 C 
ATOM      3  O   UNL     1      24.144   8.709  15.134  1.00  0.00    -0.550 OA
ATOM      4  O   UNL     1      21.876   9.030  15.146  1.00  0.00    -0.550 OA
ENDBRANCH   1   2
BRANCH   1   5
ATOM      5  C   UNL     1      24.034   6.056  14.449  1.00  0.00     0.059 C 
BRANCH   5   6
ATOM      6  C   UNL     1      24.767   5.203  15.436  1.00  0.00     0.042 C 
ATOM      7  O   UNL     1      24.174   4.261  16.023  1.00  0.00    -0.550 OA
ATOM      8  O   UNL     1      26.093   5.481  15.746  1.00  0.00    -0.550 OA
ENDBRANCH   5   6
ENDBRANCH   1   5
TORSDOF 3
ENDMDL
MODEL 8
REMARK VINA RESULT:    -3.546      1.327      1.529
REMARK INTER + INTRA:          -4.205
REMARK INTER:                  -4.091
REMARK INTRA:                  -0.113
REMARK UNBOUND:                -0.036
REMARK SMILES O=C([O-])CCC(=O)[O-]
REMARK SMILES IDX 4 1 2 2 1 3 3 4 5 5 6 6 7 7 8 8
REMARK H PARENT
REMARK Flexibility Score: inf
ROOT
ATOM      1  C   UNL     1      22.707   6.806  15.174  1.00  0.00     0.059 C 
ENDROOT
BRANCH   1   2
ATOM      2  C   UNL     1      22.882   8.291  15.162  1.00  0.00     0.042 C 
ATOM      3  O   UNL     1      21.877   9.048  15.143  1.00  0.00    -0.550 OA
ATOM      4  O   UNL     1      24.157   8.842  15.222  1.00  0.00    -0.550 OA
ENDBRANCH   1   2
BRANCH   1   5
ATOM      5  C   UNL     1      23.799   6.131  14.343  1.00  0.00     0.059 C 
BRANCH   5   6
ATOM      6  C   UNL     1      24.704   5.325  15.222  1.00  0.00     0.042 C 
ATOM      7  O   UNL     1      25.807   5.798  15.600  1.00  0.00    -0.550 OA
ATOM      8  O   UNL     1      24.350   4.030  15.582  1.00  0.00    -0.550 OA
ENDBRANCH   5   6
ENDBRANCH   1   5
TORSDOF 3
ENDMDL
MODEL 9
REMARK VINA RESULT:    -3.421      1.504      3.967
REMARK INTER + INTRA:          -4.058
REMARK INTER:                  -4.000
REMARK INTRA:                  -0.058
REMARK UNBOUND:                -0.036
REMARK SMILES O=C([O-])CCC(=O)[O-]
REMARK SMILES IDX 4 1 2 2 1 3 3 4 5 5 6 6 7 7 8 8
REMARK H PARENT
REMARK Flexibility Score: inf
ROOT
ATOM      1  C   UNL     1      23.126   6.957  14.698  1.00  0.00     0.059 C 
ENDROOT
BRANCH   1   2
ATOM      2  C   UNL     1      22.652   5.770  15.477  1.00  0.00     0.042 C 
ATOM      3  O   UNL     1      21.479   5.738  15.931  1.00  0.00    -0.550 OA
ATOM      4  O   UNL     1      23.490   4.676  15.656  1.00  0.00    -0.550 OA
ENDBRANCH   1   2
BRANCH   1   5
ATOM      5  C   UNL     1      22.499   8.241  15.244  1.00  0.00     0.059 C 
BRANCH   5   6
ATOM      6  C   UNL     1      23.556   9.265  15.516  1.00  0.00     0.042 C 
ATOM      7  O   UNL     1      24.758   9.028  15.228  1.00  0.00    -0.550 OA
ATOM      8  O   UNL     1      23.219  10.463  16.135  1.00  0.00    -0.550 OA
ENDBRANCH   5   6
ENDBRANCH   1   5
TORSDOF 3
ENDMDL
