MODEL 1
REMARK VINA RESULT:    -2.525      0.000      0.000
REMARK INTER + INTRA:          -2.834
REMARK INTER:                  -2.820
REMARK INTRA:                  -0.014
REMARK UNBOUND:                -0.014
REMARK SMILES CCCC(=O)[O-]
REMARK SMILES IDX 3 1 4 2 5 3 6 4 2 5 1 6
REMARK H PARENT
REMARK Flexibility Score: inf
ROOT
ATOM      1  C   UNL     1     -18.048  22.437  42.467  1.00  0.00     0.052 C 
ENDROOT
BRANCH   1   2
ATOM      2  C   UNL     1     -17.794  23.911  42.379  1.00  0.00     0.041 C 
ATOM      3  O   UNL     1     -16.654  24.374  42.647  1.00  0.00    -0.550 OA
ATOM      4  O   UNL     1     -18.825  24.775  42.032  1.00  0.00    -0.550 OA
ENDBRANCH   1   2
BRANCH   1   5
ATOM      5  C   UNL     1     -17.023  21.736  43.367  1.00  0.00     0.003 C 
ATOM      6  C   UNL     1     -17.666  20.679  44.266  1.00  0.00     0.004 C 
ENDBRANCH   1   5
TORSDOF 2
ENDMDL
MODEL 2
REMARK VINA RESULT:    -2.485      1.873      2.501
REMARK INTER + INTRA:          -2.789
REMARK INTER:                  -2.782
REMARK INTRA:                  -0.007
REMARK UNBOUND:                -0.014
REMARK SMILES CCCC(=O)[O-]
REMARK SMILES IDX 3 1 4 2 5 3 6 4 2 5 1 6
REMARK H PARENT
REMARK Flexibility Score: inf
ROOT
ATOM      1  C   UNL     1     -17.632  20.757  44.265  1.00  0.00     0.052 C 
ENDROOT
BRANCH   1   2
ATOM      2  C   UNL     1     -17.146  21.742  43.247  1.00  0.00     0.041 C 
ATOM      3  O   UNL     1     -15.927  22.052  43.196  1.00  0.00    -0.550 OA
ATOM      4  O   UNL     1     -18.047  22.342  42.375  1.00  0.00    -0.550 OA
ENDBRANCH   1   2
BRANCH   1   5
ATOM      5  C   UNL     1     -18.805  21.315  45.082  1.00  0.00     0.003 C 
ATOM      6  C   UNL     1     -19.459  20.249  45.962  1.00  0.00     0.004 C 
ENDBRANCH   1   5
TORSDOF 2
ENDMDL
MODEL 3
REMARK VINA RESULT:    -2.404      1.858      2.656
REMARK INTER + INTRA:          -2.699
REMARK INTER:                  -2.693
REMARK INTRA:                  -0.006
REMARK UNBOUND:                -0.014
REMARK SMILES CCCC(=O)[O-]
REMARK SMILES IDX 3 1 4 2 5 3 6 4 2 5 1 6
REMARK H PARENT
REMARK Flexibility Score: inf
ROOT
ATOM      1  C   UNL     1     -18.374  21.719  44.431  1.00  0.00     0.052 C 
ENDROOT
BRANCH   1   2
ATOM      2  C   UNL     1     -17.583  22.072  43.209  1.00  0.00     0.041 C 
ATOM      3  O   UNL     1     -18.161  22.547  42.195  1.00  0.00    -0.550 OA
ATOM      4  O   UNL     1     -16.213  21.846  43.177  1.00  0.00    -0.550 OA
ENDBRANCH   1   2
BRANCH   1   5
ATOM      5  C   UNL     1     -18.085  20.287  44.901  1.00  0.00     0.003 C 
ATOM      6  C   UNL     1     -19.116  19.791  45.917  1.00  0.00     0.004 C 
ENDBRANCH   1   5
TORSDOF 2
ENDMDL
MODEL 4
REMARK VINA RESULT:    -2.373      2.185      3.450
REMARK INTER + INTRA:          -2.665
REMARK INTER:                  -2.659
REMARK INTRA:                  -0.006
REMARK UNBOUND:                -0.014
REMARK SMILES CCCC(=O)[O-]
REMARK SMILES IDX 3 1 4 2 5 3 6 4 2 5 1 6
REMARK H PARENT
REMARK Flexibility Score: inf
ROOT
ATOM      1  C   UNL     1     -18.088  22.481  42.510  1.00  0.00     0.052 C 
ENDROOT
BRANCH   1   2
ATOM      2  C   UNL     1     -17.153  21.617  43.297  1.00  0.00     0.041 C 
ATOM      3  O   UNL     1     -17.596  20.643  43.961  1.00  0.00    -0.550 OA
ATOM      4  O   UNL     1     -15.794  21.907  43.324  1.00  0.00    -0.550 OA
ENDBRANCH   1   2
BRANCH   1   5
ATOM      5  C   UNL     1     -17.822  23.973  42.749  1.00  0.00     0.003 C 
ATOM      6  C   UNL     1     -18.961  24.856  42.236  1.00  0.00     0.004 C 
ENDBRANCH   1   5
TORSDOF 2
ENDMDL
MODEL 5
REMARK VINA RESULT:    -2.315      1.342      1.789
REMARK INTER + INTRA:          -2.599
REMARK INTER:                  -2.562
REMARK INTRA:                  -0.037
REMARK UNBOUND:                -0.014
REMARK SMILES CCCC(=O)[O-]
REMARK SMILES IDX 3 1 4 2 5 3 6 4 2 5 1 6
REMARK H PARENT
REMARK Flexibility Score: inf
ROOT
ATOM      1  C   UNL     1     -17.679  23.721  42.333  1.00  0.00     0.052 C 
ENDROOT
BRANCH   1   2
ATOM      2  C   UNL     1     -18.859  24.588  42.646  1.00  0.00     0.041 C 
ATOM      3  O   UNL     1     -19.194  25.512  41.859  1.00  0.00    -0.550 OA
ATOM      4  O   UNL     1     -19.569  24.397  43.825  1.00  0.00    -0.550 OA
ENDBRANCH   1   2
BRANCH   1   5
ATOM      5  C   UNL     1     -18.000  22.232  42.522  1.00  0.00     0.003 C 
ATOM      6  C   UNL     1     -17.138  21.586  43.607  1.00  0.00     0.004 C 
ENDBRANCH   1   5
TORSDOF 2
ENDMDL
MODEL 6
REMARK VINA RESULT:    -2.220      2.862      3.795
REMARK INTER + INTRA:          -2.493
REMARK INTER:                  -2.456
REMARK INTRA:                  -0.037
REMARK UNBOUND:                -0.014
REMARK SMILES CCCC(=O)[O-]
REMARK SMILES IDX 3 1 4 2 5 3 6 4 2 5 1 6
REMARK H PARENT
REMARK Flexibility Score: inf
ROOT
ATOM      1  C   UNL     1     -17.262  21.519  43.503  1.00  0.00     0.052 C 
ENDROOT
BRANCH   1   2
ATOM      2  C   UNL     1     -18.173  20.945  44.544  1.00  0.00     0.041 C 
ATOM      3  O   UNL     1     -19.092  21.648  45.039  1.00  0.00    -0.550 OA
ATOM      4  O   UNL     1     -17.984  19.643  44.991  1.00  0.00    -0.550 OA
ENDBRANCH   1   2
BRANCH   1   5
ATOM      5  C   UNL     1     -18.032  22.356  42.472  1.00  0.00     0.003 C 
ATOM      6  C   UNL     1     -17.576  23.815  42.451  1.00  0.00     0.004 C 
ENDBRANCH   1   5
TORSDOF 2
ENDMDL
MODEL 7
REMARK VINA RESULT:    -2.206     13.923     14.507
REMARK INTER + INTRA:          -2.478
REMARK INTER:                  -2.464
REMARK INTRA:                  -0.013
REMARK UNBOUND:                -0.014
REMARK SMILES CCCC(=O)[O-]
REMARK SMILES IDX 3 1 4 2 5 3 6 4 2 5 1 6
REMARK H PARENT
REMARK Flexibility Score: inf
ROOT
ATOM      1  C   UNL     1      -8.508  22.551  32.708  1.00  0.00     0.052 C 
ENDROOT
BRANCH   1   2
ATOM      2  C   UNL     1      -8.242  21.721  31.489  1.00  0.00     0.041 C 
ATOM      3  O   UNL     1      -7.992  22.276  30.387  1.00  0.00    -0.550 OA
ATOM      4  O   UNL     1      -8.304  20.335  31.565  1.00  0.00    -0.550 OA
ENDBRANCH   1   2
BRANCH   1   5
ATOM      5  C   UNL     1      -8.798  24.014  32.347  1.00  0.00     0.003 C 
ATOM      6  C   UNL     1      -9.819  24.653  33.290  1.00  0.00     0.004 C 
ENDBRANCH   1   5
TORSDOF 2
ENDMDL
MODEL 8
REMARK VINA RESULT:    -2.169      2.754      3.185
REMARK INTER + INTRA:          -2.436
REMARK INTER:                  -2.397
REMARK INTRA:                  -0.039
REMARK UNBOUND:                -0.014
REMARK SMILES CCCC(=O)[O-]
REMARK SMILES IDX 3 1 4 2 5 3 6 4 2 5 1 6
REMARK H PARENT
REMARK Flexibility Score: inf
ROOT
ATOM      1  C   UNL     1     -16.392  22.794  43.224  1.00  0.00     0.052 C 
ENDROOT
BRANCH   1   2
ATOM      2  C   UNL     1     -15.058  22.115  43.259  1.00  0.00     0.041 C 
ATOM      3  O   UNL     1     -14.884  21.097  43.979  1.00  0.00    -0.550 OA
ATOM      4  O   UNL     1     -13.997  22.627  42.523  1.00  0.00    -0.550 OA
ENDBRANCH   1   2
BRANCH   1   5
ATOM      5  C   UNL     1     -17.545  21.782  43.170  1.00  0.00     0.003 C 
ATOM      6  C   UNL     1     -18.385  21.792  44.448  1.00  0.00     0.004 C 
ENDBRANCH   1   5
TORSDOF 2
ENDMDL
MODEL 9
REMARK VINA RESULT:    -2.149      2.663      3.376
REMARK INTER + INTRA:          -2.413
REMARK INTER:                  -2.400
REMARK INTRA:                  -0.013
REMARK UNBOUND:                -0.014
REMARK SMILES CCCC(=O)[O-]
REMARK SMILES IDX 3 1 4 2 5 3 6 4 2 5 1 6
REMARK H PARENT
REMARK Flexibility Score: inf
ROOT
ATOM      1  C   UNL     1     -16.018  22.524  43.796  1.00  0.00     0.052 C 
ENDROOT
BRANCH   1   2
ATOM      2  C   UNL     1     -17.229  21.778  43.329  1.00  0.00     0.041 C 
ATOM      3  O   UNL     1     -17.933  22.235  42.390  1.00  0.00    -0.550 OA
ATOM      4  O   UNL     1     -17.599  20.593  43.954  1.00  0.00    -0.550 OA
ENDBRANCH   1   2
BRANCH   1   5
ATOM      5  C   UNL     1     -14.720  21.861  43.315  1.00  0.00     0.003 C 
ATOM      6  C   UNL     1     -13.809  22.839  42.572  1.00  0.00     0.004 C 
ENDBRANCH   1   5
TORSDOF 2
ENDMDL
