MODEL 1
REMARK VINA RESULT:    -5.457      0.000      0.000
REMARK INTER + INTRA:          -6.305
REMARK INTER:                  -6.255
REMARK INTRA:                  -0.050
REMARK UNBOUND:                -0.050
REMARK SMILES O=C([O-])c1cc(O)c(O)c(O)c1
REMARK SMILES IDX 4 1 5 2 12 3 6 4 10 5 8 6 2 7 1 8 3 9 7 10 11 12 9 14
REMARK H PARENT 7 11 11 13 9 15
REMARK Flexibility Score: inf
ROOT
ATOM      1  C   UNL     1      30.692 -91.229  37.457  1.00  0.00     0.005 A 
ATOM      2  C   UNL     1      29.424 -90.748  37.822  1.00  0.00     0.060 A 
ATOM      3  C   UNL     1      31.645 -90.325  36.957  1.00  0.00     0.060 A 
ATOM      4  C   UNL     1      29.109 -89.388  37.691  1.00  0.00     0.162 A 
ATOM      5  C   UNL     1      31.340 -88.966  36.822  1.00  0.00     0.162 A 
ATOM      6  C   UNL     1      30.069 -88.492  37.190  1.00  0.00     0.200 A 
ENDROOT
BRANCH   1   7
ATOM      7  C   UNL     1      31.017 -92.665  37.598  1.00  0.00     0.072 C 
ATOM      8  O   UNL     1      32.193 -93.034  37.856  1.00  0.00    -0.545 OA
ATOM      9  O   UNL     1      30.027 -93.630  37.447  1.00  0.00    -0.545 OA
ENDBRANCH   1   7
BRANCH   4  10
ATOM     10  O   UNL     1      27.847 -88.924  38.058  1.00  0.00    -0.504 OA
ATOM     11  H   UNL     1      27.725 -88.041  38.541  1.00  0.00     0.293 HD
ENDBRANCH   4  10
BRANCH   5  12
ATOM     12  O   UNL     1      32.314 -88.102  36.322  1.00  0.00    -0.504 OA
ATOM     13  H   UNL     1      32.138 -87.113  36.186  1.00  0.00     0.293 HD
ENDBRANCH   5  12
BRANCH   6  14
ATOM     14  O   UNL     1      29.773 -87.136  37.053  1.00  0.00    -0.502 OA
ATOM     15  H   UNL     1      28.902 -86.737  37.383  1.00  0.00     0.293 HD
ENDBRANCH   6  14
TORSDOF 4
ENDMDL
MODEL 2
REMARK VINA RESULT:    -5.443      0.039      2.430
REMARK INTER + INTRA:          -6.289
REMARK INTER:                  -6.239
REMARK INTRA:                  -0.051
REMARK UNBOUND:                -0.050
REMARK SMILES O=C([O-])c1cc(O)c(O)c(O)c1
REMARK SMILES IDX 4 1 5 2 12 3 6 4 10 5 8 6 2 7 1 8 3 9 7 10 11 12 9 14
REMARK H PARENT 7 11 11 13 9 15
REMARK Flexibility Score: inf
ROOT
ATOM      1  C   UNL     1      30.692 -91.241  37.460  1.00  0.00     0.005 A 
ATOM      2  C   UNL     1      31.641 -90.330  36.969  1.00  0.00     0.060 A 
ATOM      3  C   UNL     1      29.420 -90.768  37.828  1.00  0.00     0.060 A 
ATOM      4  C   UNL     1      31.329 -88.968  36.846  1.00  0.00     0.162 A 
ATOM      5  C   UNL     1      29.100 -89.411  37.710  1.00  0.00     0.162 A 
ATOM      6  C   UNL     1      30.055 -88.505  37.217  1.00  0.00     0.200 A 
ENDROOT
BRANCH   1   7
ATOM      7  C   UNL     1      31.028 -92.675  37.588  1.00  0.00     0.072 C 
ATOM      8  O   UNL     1      32.211 -93.039  37.825  1.00  0.00    -0.545 OA
ATOM      9  O   UNL     1      30.042 -93.646  37.447  1.00  0.00    -0.545 OA
ENDBRANCH   1   7
BRANCH   4  10
ATOM     10  O   UNL     1      32.280 -88.074  36.357  1.00  0.00    -0.504 OA
ATOM     11  H   UNL     1      32.223 -87.699  35.417  1.00  0.00     0.293 HD
ENDBRANCH   4  10
BRANCH   5  12
ATOM     12  O   UNL     1      27.827 -88.983  38.085  1.00  0.00    -0.504 OA
ATOM     13  H   UNL     1      27.185 -89.581  38.592  1.00  0.00     0.293 HD
ENDBRANCH   5  12
BRANCH   6  14
ATOM     14  O   UNL     1      29.728 -87.154  37.101  1.00  0.00    -0.502 OA
ATOM     15  H   UNL     1      29.791 -86.513  37.883  1.00  0.00     0.293 HD
ENDBRANCH   6  14
TORSDOF 4
ENDMDL
MODEL 3
REMARK VINA RESULT:    -4.704     13.479     15.604
REMARK INTER + INTRA:          -5.442
REMARK INTER:                  -5.389
REMARK INTRA:                  -0.053
REMARK UNBOUND:                -0.050
REMARK SMILES O=C([O-])c1cc(O)c(O)c(O)c1
REMARK SMILES IDX 4 1 5 2 12 3 6 4 10 5 8 6 2 7 1 8 3 9 7 10 11 12 9 14
REMARK H PARENT 7 11 11 13 9 15
REMARK Flexibility Score: inf
ROOT
ATOM      1  C   UNL     1      41.495 -78.851  39.899  1.00  0.00     0.005 A 
ATOM      2  C   UNL     1      40.525 -79.662  40.510  1.00  0.00     0.060 A 
ATOM      3  C   UNL     1      41.981 -79.207  38.629  1.00  0.00     0.060 A 
ATOM      4  C   UNL     1      40.047 -80.812  39.866  1.00  0.00     0.162 A 
ATOM      5  C   UNL     1      41.509 -80.353  37.980  1.00  0.00     0.162 A 
ATOM      6  C   UNL     1      40.539 -81.161  38.597  1.00  0.00     0.200 A 
ENDROOT
BRANCH   1   7
ATOM      7  C   UNL     1      41.995 -77.639  40.585  1.00  0.00     0.072 C 
ATOM      8  O   UNL     1      42.962 -76.987  40.109  1.00  0.00    -0.545 OA
ATOM      9  O   UNL     1      41.404 -77.202  41.765  1.00  0.00    -0.545 OA
ENDBRANCH   1   7
BRANCH   4  10
ATOM     10  O   UNL     1      39.084 -81.610  40.484  1.00  0.00    -0.504 OA
ATOM     11  H   UNL     1      38.158 -81.728  40.087  1.00  0.00     0.293 HD
ENDBRANCH   4  10
BRANCH   5  12
ATOM     12  O   UNL     1      42.017 -80.672  36.720  1.00  0.00    -0.504 OA
ATOM     13  H   UNL     1      42.347 -81.602  36.492  1.00  0.00     0.293 HD
ENDBRANCH   5  12
BRANCH   6  14
ATOM     14  O   UNL     1      40.074 -82.302  37.943  1.00  0.00    -0.502 OA
ATOM     15  H   UNL     1      39.586 -82.256  37.056  1.00  0.00     0.293 HD
ENDBRANCH   6  14
TORSDOF 4
ENDMDL
MODEL 4
REMARK VINA RESULT:    -4.671     13.545     15.830
REMARK INTER + INTRA:          -5.404
REMARK INTER:                  -5.351
REMARK INTRA:                  -0.053
REMARK UNBOUND:                -0.050
REMARK SMILES O=C([O-])c1cc(O)c(O)c(O)c1
REMARK SMILES IDX 4 1 5 2 12 3 6 4 10 5 8 6 2 7 1 8 3 9 7 10 11 12 9 14
REMARK H PARENT 7 11 11 13 9 15
REMARK Flexibility Score: inf
ROOT
ATOM      1  C   UNL     1      41.515 -78.749  39.918  1.00  0.00     0.005 A 
ATOM      2  C   UNL     1      42.000 -79.172  38.670  1.00  0.00     0.060 A 
ATOM      3  C   UNL     1      40.498 -79.493  40.542  1.00  0.00     0.060 A 
ATOM      4  C   UNL     1      41.480 -80.318  38.051  1.00  0.00     0.162 A 
ATOM      5  C   UNL     1      39.974 -80.638  39.932  1.00  0.00     0.162 A 
ATOM      6  C   UNL     1      40.463 -81.055  38.683  1.00  0.00     0.200 A 
ENDROOT
BRANCH   1   7
ATOM      7  C   UNL     1      42.068 -77.539  40.564  1.00  0.00     0.072 C 
ATOM      8  O   UNL     1      43.017 -76.905  40.032  1.00  0.00    -0.545 OA
ATOM      9  O   UNL     1      41.546 -77.083  41.770  1.00  0.00    -0.545 OA
ENDBRANCH   1   7
BRANCH   4  10
ATOM     10  O   UNL     1      41.970 -80.727  36.812  1.00  0.00    -0.504 OA
ATOM     11  H   UNL     1      42.778 -80.284  36.387  1.00  0.00     0.293 HD
ENDBRANCH   4  10
BRANCH   5  12
ATOM     12  O   UNL     1      38.966 -81.348  40.584  1.00  0.00    -0.504 OA
ATOM     13  H   UNL     1      38.586 -82.210  40.210  1.00  0.00     0.293 HD
ENDBRANCH   5  12
BRANCH   6  14
ATOM     14  O   UNL     1      39.935 -82.197  38.081  1.00  0.00    -0.502 OA
ATOM     15  H   UNL     1      40.202 -83.132  38.367  1.00  0.00     0.293 HD
ENDBRANCH   6  14
TORSDOF 4
ENDMDL
MODEL 5
REMARK VINA RESULT:    -4.584     13.280     15.151
REMARK INTER + INTRA:          -5.304
REMARK INTER:                  -5.251
REMARK INTRA:                  -0.052
REMARK UNBOUND:                -0.050
REMARK SMILES O=C([O-])c1cc(O)c(O)c(O)c1
REMARK SMILES IDX 4 1 5 2 12 3 6 4 10 5 8 6 2 7 1 8 3 9 7 10 11 12 9 14
REMARK H PARENT 7 11 11 13 9 15
REMARK Flexibility Score: inf
ROOT
ATOM      1  C   UNL     1      40.422 -79.582  40.313  1.00  0.00     0.005 A 
ATOM      2  C   UNL     1      39.941 -80.752  39.705  1.00  0.00     0.060 A 
ATOM      3  C   UNL     1      41.449 -78.859  39.683  1.00  0.00     0.060 A 
ATOM      4  C   UNL     1      40.475 -81.197  38.487  1.00  0.00     0.162 A 
ATOM      5  C   UNL     1      41.989 -79.295  38.469  1.00  0.00     0.162 A 
ATOM      6  C   UNL     1      41.503 -80.467  37.864  1.00  0.00     0.200 A 
ENDROOT
BRANCH   1   7
ATOM      7  C   UNL     1      39.853 -79.120  41.599  1.00  0.00     0.072 C 
ATOM      8  O   UNL     1      40.107 -77.965  42.033  1.00  0.00    -0.545 OA
ATOM      9  O   UNL     1      39.030 -79.954  42.346  1.00  0.00    -0.545 OA
ENDBRANCH   1   7
BRANCH   4  10
ATOM     10  O   UNL     1      39.988 -82.361  37.893  1.00  0.00    -0.504 OA
ATOM     11  H   UNL     1      39.129 -82.363  37.355  1.00  0.00     0.293 HD
ENDBRANCH   4  10
BRANCH   5  12
ATOM     12  O   UNL     1      43.007 -78.549  37.876  1.00  0.00    -0.504 OA
ATOM     13  H   UNL     1      42.826 -77.672  37.401  1.00  0.00     0.293 HD
ENDBRANCH   5  12
BRANCH   6  14
ATOM     14  O   UNL     1      42.045 -80.895  36.653  1.00  0.00    -0.502 OA
ATOM     15  H   UNL     1      42.814 -81.553  36.607  1.00  0.00     0.293 HD
ENDBRANCH   6  14
TORSDOF 4
ENDMDL
MODEL 6
REMARK VINA RESULT:    -4.550     15.680     16.501
REMARK INTER + INTRA:          -5.265
REMARK INTER:                  -5.214
REMARK INTRA:                  -0.051
REMARK UNBOUND:                -0.050
REMARK SMILES O=C([O-])c1cc(O)c(O)c(O)c1
REMARK SMILES IDX 4 1 5 2 12 3 6 4 10 5 8 6 2 7 1 8 3 9 7 10 11 12 9 14
REMARK H PARENT 7 11 11 13 9 15
REMARK Flexibility Score: inf
ROOT
ATOM      1  C   UNL     1      27.252 -77.870  27.397  1.00  0.00     0.005 A 
ATOM      2  C   UNL     1      26.282 -78.242  26.452  1.00  0.00     0.060 A 
ATOM      3  C   UNL     1      26.860 -77.666  28.732  1.00  0.00     0.060 A 
ATOM      4  C   UNL     1      24.942 -78.408  26.830  1.00  0.00     0.162 A 
ATOM      5  C   UNL     1      25.525 -77.829  29.117  1.00  0.00     0.162 A 
ATOM      6  C   UNL     1      24.560 -78.202  28.166  1.00  0.00     0.200 A 
ENDROOT
BRANCH   1   7
ATOM      7  C   UNL     1      28.664 -77.696  26.992  1.00  0.00     0.072 C 
ATOM      8  O   UNL     1      29.115 -78.282  25.972  1.00  0.00    -0.545 OA
ATOM      9  O   UNL     1      29.514 -76.881  27.732  1.00  0.00    -0.545 OA
ENDBRANCH   1   7
BRANCH   4  10
ATOM     10  O   UNL     1      23.990 -78.778  25.881  1.00  0.00    -0.504 OA
ATOM     11  H   UNL     1      24.160 -78.671  24.887  1.00  0.00     0.293 HD
ENDBRANCH   4  10
BRANCH   5  12
ATOM     12  O   UNL     1      25.177 -77.618  30.451  1.00  0.00    -0.504 OA
ATOM     13  H   UNL     1      25.025 -78.385  31.096  1.00  0.00     0.293 HD
ENDBRANCH   5  12
BRANCH   6  14
ATOM     14  O   UNL     1      23.231 -78.363  28.559  1.00  0.00    -0.502 OA
ATOM     15  H   UNL     1      22.609 -77.576  28.700  1.00  0.00     0.293 HD
ENDBRANCH   6  14
TORSDOF 4
ENDMDL
MODEL 7
REMARK VINA RESULT:    -4.545     15.677     16.426
REMARK INTER + INTRA:          -5.260
REMARK INTER:                  -5.209
REMARK INTRA:                  -0.051
REMARK UNBOUND:                -0.050
REMARK SMILES O=C([O-])c1cc(O)c(O)c(O)c1
REMARK SMILES IDX 4 1 5 2 12 3 6 4 10 5 8 6 2 7 1 8 3 9 7 10 11 12 9 14
REMARK H PARENT 7 11 11 13 9 15
REMARK Flexibility Score: inf
ROOT
ATOM      1  C   UNL     1      27.136 -77.840  27.617  1.00  0.00     0.005 A 
ATOM      2  C   UNL     1      26.669 -77.656  28.928  1.00  0.00     0.060 A 
ATOM      3  C   UNL     1      26.222 -78.206  26.613  1.00  0.00     0.060 A 
ATOM      4  C   UNL     1      25.313 -77.834  29.236  1.00  0.00     0.162 A 
ATOM      5  C   UNL     1      24.867 -78.386  26.911  1.00  0.00     0.162 A 
ATOM      6  C   UNL     1      24.407 -78.200  28.226  1.00  0.00     0.200 A 
ENDROOT
BRANCH   1   7
ATOM      7  C   UNL     1      28.568 -77.651  27.299  1.00  0.00     0.072 C 
ATOM      8  O   UNL     1      29.282 -76.878  27.992  1.00  0.00    -0.545 OA
ATOM      9  O   UNL     1      29.148 -78.325  26.230  1.00  0.00    -0.545 OA
ENDBRANCH   1   7
BRANCH   4  10
ATOM     10  O   UNL     1      24.862 -77.648  30.542  1.00  0.00    -0.504 OA
ATOM     11  H   UNL     1      25.044 -78.331  31.269  1.00  0.00     0.293 HD
ENDBRANCH   4  10
BRANCH   5  12
ATOM     12  O   UNL     1      23.993 -78.748  25.886  1.00  0.00    -0.504 OA
ATOM     13  H   UNL     1      24.082 -79.626  25.388  1.00  0.00     0.293 HD
ENDBRANCH   5  12
BRANCH   6  14
ATOM     14  O   UNL     1      23.054 -78.381  28.515  1.00  0.00    -0.502 OA
ATOM     15  H   UNL     1      22.320 -78.015  27.921  1.00  0.00     0.293 HD
ENDBRANCH   6  14
TORSDOF 4
ENDMDL
MODEL 8
REMARK VINA RESULT:    -4.535     11.026     12.985
REMARK INTER + INTRA:          -5.249
REMARK INTER:                  -5.197
REMARK INTRA:                  -0.052
REMARK UNBOUND:                -0.050
REMARK SMILES O=C([O-])c1cc(O)c(O)c(O)c1
REMARK SMILES IDX 4 1 5 2 12 3 6 4 10 5 8 6 2 7 1 8 3 9 7 10 11 12 9 14
REMARK H PARENT 7 11 11 13 9 15
REMARK Flexibility Score: inf
ROOT
ATOM      1  C   UNL     1      26.596 -80.236  42.192  1.00  0.00     0.005 A 
ATOM      2  C   UNL     1      26.336 -78.970  41.645  1.00  0.00     0.060 A 
ATOM      3  C   UNL     1      25.870 -80.654  43.321  1.00  0.00     0.060 A 
ATOM      4  C   UNL     1      25.367 -78.131  42.214  1.00  0.00     0.162 A 
ATOM      5  C   UNL     1      24.903 -79.823  43.896  1.00  0.00     0.162 A 
ATOM      6  C   UNL     1      24.646 -78.557  43.343  1.00  0.00     0.200 A 
ENDROOT
BRANCH   1   7
ATOM      7  C   UNL     1      27.620 -81.116  41.587  1.00  0.00     0.072 C 
ATOM      8  O   UNL     1      28.019 -80.920  40.408  1.00  0.00    -0.545 OA
ATOM      9  O   UNL     1      28.157 -82.174  42.311  1.00  0.00    -0.545 OA
ENDBRANCH   1   7
BRANCH   4  10
ATOM     10  O   UNL     1      25.118 -76.875  41.661  1.00  0.00    -0.504 OA
ATOM     11  H   UNL     1      25.023 -76.049  42.241  1.00  0.00     0.293 HD
ENDBRANCH   4  10
BRANCH   5  12
ATOM     12  O   UNL     1      24.204 -80.275  45.015  1.00  0.00    -0.504 OA
ATOM     13  H   UNL     1      24.190 -81.252  45.283  1.00  0.00     0.293 HD
ENDBRANCH   5  12
BRANCH   6  14
ATOM     14  O   UNL     1      23.680 -77.734  43.921  1.00  0.00    -0.502 OA
ATOM     15  H   UNL     1      23.250 -76.967  43.418  1.00  0.00     0.293 HD
ENDBRANCH   6  14
TORSDOF 4
ENDMDL
MODEL 9
REMARK VINA RESULT:    -4.522     11.051     12.888
REMARK INTER + INTRA:          -5.233
REMARK INTER:                  -5.181
REMARK INTRA:                  -0.052
REMARK UNBOUND:                -0.050
REMARK SMILES O=C([O-])c1cc(O)c(O)c(O)c1
REMARK SMILES IDX 4 1 5 2 12 3 6 4 10 5 8 6 2 7 1 8 3 9 7 10 11 12 9 14
REMARK H PARENT 7 11 11 13 9 15
REMARK Flexibility Score: inf
ROOT
ATOM      1  C   UNL     1      26.572 -80.228  42.206  1.00  0.00     0.005 A 
ATOM      2  C   UNL     1      25.872 -80.655  43.346  1.00  0.00     0.060 A 
ATOM      3  C   UNL     1      26.294 -78.957  41.672  1.00  0.00     0.060 A 
ATOM      4  C   UNL     1      24.909 -79.831  43.945  1.00  0.00     0.162 A 
ATOM      5  C   UNL     1      25.334 -78.128  42.263  1.00  0.00     0.162 A 
ATOM      6  C   UNL     1      24.637 -78.562  43.404  1.00  0.00     0.200 A 
ENDROOT
BRANCH   1   7
ATOM      7  C   UNL     1      27.586 -81.103  41.579  1.00  0.00     0.072 C 
ATOM      8  O   UNL     1      27.958 -80.905  40.392  1.00  0.00    -0.545 OA
ATOM      9  O   UNL     1      28.144 -82.158  42.292  1.00  0.00    -0.545 OA
ENDBRANCH   1   7
BRANCH   4  10
ATOM     10  O   UNL     1      24.221 -80.267  45.077  1.00  0.00    -0.504 OA
ATOM     11  H   UNL     1      24.154 -79.696  45.912  1.00  0.00     0.293 HD
ENDBRANCH   4  10
BRANCH   5  12
ATOM     12  O   UNL     1      25.088 -76.875  41.703  1.00  0.00    -0.504 OA
ATOM     13  H   UNL     1      25.822 -76.321  41.279  1.00  0.00     0.293 HD
ENDBRANCH   5  12
BRANCH   6  14
ATOM     14  O   UNL     1      23.683 -77.730  43.988  1.00  0.00    -0.502 OA
ATOM     15  H   UNL     1      23.074 -77.135  43.438  1.00  0.00     0.293 HD
ENDBRANCH   6  14
TORSDOF 4
ENDMDL
