MODEL 1
REMARK VINA RESULT:    -3.802      0.000      0.000
REMARK INTER + INTRA:          -5.310
REMARK INTER:                  -4.913
REMARK INTRA:                  -0.397
REMARK UNBOUND:                -0.397
REMARK SMILES CCCCCCC(=O)[O-]
REMARK SMILES IDX 5 1 6 2 7 3 8 4 9 5 4 6 3 7 2 8 1 9
REMARK H PARENT
REMARK Flexibility Score: inf
ROOT
ATOM      1  C   UNL     1      -3.090  56.142  46.695  1.00  0.00     0.006 C 
ENDROOT
BRANCH   1   2
ATOM      2  C   UNL     1      -4.065  57.220  46.196  1.00  0.00     0.053 C 
BRANCH   2   3
ATOM      3  C   UNL     1      -3.404  58.185  45.260  1.00  0.00     0.041 C 
ATOM      4  O   UNL     1      -2.562  57.774  44.419  1.00  0.00    -0.550 OA
ATOM      5  O   UNL     1      -3.743  59.531  45.294  1.00  0.00    -0.550 OA
ENDBRANCH   2   3
ENDBRANCH   1   2
BRANCH   1   6
ATOM      6  C   UNL     1      -2.049  56.643  47.716  1.00  0.00     0.000 C 
BRANCH   6   7
ATOM      7  C   UNL     1      -2.629  57.424  48.908  1.00  0.00    -0.000 C 
BRANCH   7   8
ATOM      8  C   UNL     1      -2.220  58.904  48.910  1.00  0.00    -0.003 C 
ATOM      9  C   UNL     1      -3.444  59.814  48.894  1.00  0.00     0.004 C 
ENDBRANCH   7   8
ENDBRANCH   6   7
ENDBRANCH   1   6
TORSDOF 5
ENDMDL
MODEL 2
REMARK VINA RESULT:    -3.716      2.468      3.583
REMARK INTER + INTRA:          -5.199
REMARK INTER:                  -4.779
REMARK INTRA:                  -0.419
REMARK UNBOUND:                -0.397
REMARK SMILES CCCCCCC(=O)[O-]
REMARK SMILES IDX 5 1 6 2 7 3 8 4 9 5 4 6 3 7 2 8 1 9
REMARK H PARENT
REMARK Flexibility Score: inf
ROOT
ATOM      1  C   UNL     1      -3.212  56.129  46.669  1.00  0.00     0.006 C 
ENDROOT
BRANCH   1   2
ATOM      2  C   UNL     1      -1.985  56.646  47.438  1.00  0.00     0.053 C 
BRANCH   2   3
ATOM      3  C   UNL     1      -2.359  57.224  48.768  1.00  0.00     0.041 C 
ATOM      4  O   UNL     1      -2.690  56.466  49.717  1.00  0.00    -0.550 OA
ATOM      5  O   UNL     1      -2.309  58.597  48.969  1.00  0.00    -0.550 OA
ENDBRANCH   2   3
ENDBRANCH   1   2
BRANCH   1   6
ATOM      6  C   UNL     1      -4.094  57.233  46.054  1.00  0.00     0.000 C 
BRANCH   6   7
ATOM      7  C   UNL     1      -3.376  58.164  45.060  1.00  0.00    -0.000 C 
BRANCH   7   8
ATOM      8  C   UNL     1      -3.311  59.619  45.544  1.00  0.00    -0.003 C 
ATOM      9  C   UNL     1      -1.866  60.072  45.733  1.00  0.00     0.004 C 
ENDBRANCH   7   8
ENDBRANCH   6   7
ENDBRANCH   1   6
TORSDOF 5
ENDMDL
MODEL 3
REMARK VINA RESULT:    -3.693      2.585      3.827
REMARK INTER + INTRA:          -5.170
REMARK INTER:                  -4.799
REMARK INTRA:                  -0.370
REMARK UNBOUND:                -0.397
REMARK SMILES CCCCCCC(=O)[O-]
REMARK SMILES IDX 5 1 6 2 7 3 8 4 9 5 4 6 3 7 2 8 1 9
REMARK H PARENT
REMARK Flexibility Score: inf
ROOT
ATOM      1  C   UNL     1      -3.813  56.927  46.481  1.00  0.00     0.006 C 
ENDROOT
BRANCH   1   2
ATOM      2  C   UNL     1      -2.664  56.419  47.366  1.00  0.00     0.053 C 
BRANCH   2   3
ATOM      3  C   UNL     1      -2.642  57.096  48.702  1.00  0.00     0.041 C 
ATOM      4  O   UNL     1      -2.683  56.414  49.759  1.00  0.00    -0.550 OA
ATOM      5  O   UNL     1      -2.541  58.479  48.779  1.00  0.00    -0.550 OA
ENDBRANCH   2   3
ENDBRANCH   1   2
BRANCH   1   6
ATOM      6  C   UNL     1      -3.363  57.586  45.162  1.00  0.00     0.000 C 
BRANCH   6   7
ATOM      7  C   UNL     1      -2.922  59.055  45.285  1.00  0.00    -0.000 C 
BRANCH   7   8
ATOM      8  C   UNL     1      -1.397  59.227  45.258  1.00  0.00    -0.003 C 
ATOM      9  C   UNL     1      -0.718  58.015  44.626  1.00  0.00     0.004 C 
ENDBRANCH   7   8
ENDBRANCH   6   7
ENDBRANCH   1   6
TORSDOF 5
ENDMDL
MODEL 4
REMARK VINA RESULT:    -3.661      1.804      3.368
REMARK INTER + INTRA:          -5.127
REMARK INTER:                  -4.731
REMARK INTRA:                  -0.397
REMARK UNBOUND:                -0.397
REMARK SMILES CCCCCCC(=O)[O-]
REMARK SMILES IDX 5 1 6 2 7 3 8 4 9 5 4 6 3 7 2 8 1 9
REMARK H PARENT
REMARK Flexibility Score: inf
ROOT
ATOM      1  C   UNL     1      -2.194  58.618  48.876  1.00  0.00     0.006 C 
ENDROOT
BRANCH   1   2
ATOM      2  C   UNL     1      -2.609  57.139  48.827  1.00  0.00     0.053 C 
BRANCH   2   3
ATOM      3  C   UNL     1      -2.400  56.543  47.469  1.00  0.00     0.041 C 
ATOM      4  O   UNL     1      -1.236  56.305  47.054  1.00  0.00    -0.550 OA
ATOM      5  O   UNL     1      -3.493  56.218  46.676  1.00  0.00    -0.550 OA
ENDBRANCH   2   3
ENDBRANCH   1   2
BRANCH   1   6
ATOM      6  C   UNL     1      -3.360  59.615  48.725  1.00  0.00     0.000 C 
BRANCH   6   7
ATOM      7  C   UNL     1      -3.378  60.400  47.401  1.00  0.00    -0.000 C 
BRANCH   7   8
ATOM      8  C   UNL     1      -4.125  59.664  46.279  1.00  0.00    -0.003 C 
ATOM      9  C   UNL     1      -3.193  59.349  45.113  1.00  0.00     0.004 C 
ENDBRANCH   7   8
ENDBRANCH   6   7
ENDBRANCH   1   6
TORSDOF 5
ENDMDL
MODEL 5
REMARK VINA RESULT:    -3.647      2.126      3.090
REMARK INTER + INTRA:          -5.109
REMARK INTER:                  -4.761
REMARK INTRA:                  -0.348
REMARK UNBOUND:                -0.397
REMARK SMILES CCCCCCC(=O)[O-]
REMARK SMILES IDX 5 1 6 2 7 3 8 4 9 5 4 6 3 7 2 8 1 9
REMARK H PARENT
REMARK Flexibility Score: inf
ROOT
ATOM      1  C   UNL     1      -3.368  57.512  45.476  1.00  0.00     0.006 C 
ENDROOT
BRANCH   1   2
ATOM      2  C   UNL     1      -3.662  56.706  46.751  1.00  0.00     0.053 C 
BRANCH   2   3
ATOM      3  C   UNL     1      -2.427  56.473  47.566  1.00  0.00     0.041 C 
ATOM      4  O   UNL     1      -2.500  56.401  48.820  1.00  0.00    -0.550 OA
ATOM      5  O   UNL     1      -1.200  56.302  46.937  1.00  0.00    -0.550 OA
ENDBRANCH   2   3
ENDBRANCH   1   2
BRANCH   1   6
ATOM      6  C   UNL     1      -3.761  59.000  45.554  1.00  0.00     0.000 C 
BRANCH   6   7
ATOM      7  C   UNL     1      -2.851  59.868  46.441  1.00  0.00    -0.000 C 
BRANCH   7   8
ATOM      8  C   UNL     1      -3.610  60.557  47.584  1.00  0.00    -0.003 C 
ATOM      9  C   UNL     1      -3.319  59.884  48.922  1.00  0.00     0.004 C 
ENDBRANCH   7   8
ENDBRANCH   6   7
ENDBRANCH   1   6
TORSDOF 5
ENDMDL
MODEL 6
REMARK VINA RESULT:    -3.585      1.281      2.749
REMARK INTER + INTRA:          -5.029
REMARK INTER:                  -4.594
REMARK INTRA:                  -0.435
REMARK UNBOUND:                -0.397
REMARK SMILES CCCCCCC(=O)[O-]
REMARK SMILES IDX 5 1 6 2 7 3 8 4 9 5 4 6 3 7 2 8 1 9
REMARK H PARENT
REMARK Flexibility Score: inf
ROOT
ATOM      1  C   UNL     1      -3.680  59.537  48.145  1.00  0.00     0.006 C 
ENDROOT
BRANCH   1   2
ATOM      2  C   UNL     1      -3.450  60.470  46.945  1.00  0.00     0.053 C 
BRANCH   2   3
ATOM      3  C   UNL     1      -2.839  59.749  45.783  1.00  0.00     0.041 C 
ATOM      4  O   UNL     1      -1.626  59.926  45.496  1.00  0.00    -0.550 OA
ATOM      5  O   UNL     1      -3.599  58.856  45.040  1.00  0.00    -0.550 OA
ENDBRANCH   2   3
ENDBRANCH   1   2
BRANCH   1   6
ATOM      6  C   UNL     1      -2.391  59.077  48.854  1.00  0.00     0.000 C 
BRANCH   6   7
ATOM      7  C   UNL     1      -2.285  57.560  49.092  1.00  0.00    -0.000 C 
BRANCH   7   8
ATOM      8  C   UNL     1      -2.719  56.731  47.875  1.00  0.00    -0.003 C 
ATOM      9  C   UNL     1      -1.537  56.451  46.951  1.00  0.00     0.004 C 
ENDBRANCH   7   8
ENDBRANCH   6   7
ENDBRANCH   1   6
TORSDOF 5
ENDMDL
MODEL 7
REMARK VINA RESULT:    -3.560      1.367      2.287
REMARK INTER + INTRA:          -4.998
REMARK INTER:                  -4.616
REMARK INTRA:                  -0.381
REMARK UNBOUND:                -0.397
REMARK SMILES CCCCCCC(=O)[O-]
REMARK SMILES IDX 5 1 6 2 7 3 8 4 9 5 4 6 3 7 2 8 1 9
REMARK H PARENT
REMARK Flexibility Score: inf
ROOT
ATOM      1  C   UNL     1      -3.704  57.388  45.322  1.00  0.00     0.006 C 
ENDROOT
BRANCH   1   2
ATOM      2  C   UNL     1      -3.189  58.821  45.116  1.00  0.00     0.053 C 
BRANCH   2   3
ATOM      3  C   UNL     1      -1.697  58.901  45.215  1.00  0.00     0.041 C 
ATOM      4  O   UNL     1      -1.153  59.860  45.821  1.00  0.00    -0.550 OA
ATOM      5  O   UNL     1      -0.909  57.896  44.669  1.00  0.00    -0.550 OA
ENDBRANCH   2   3
ENDBRANCH   1   2
BRANCH   1   6
ATOM      6  C   UNL     1      -3.855  56.967  46.797  1.00  0.00     0.000 C 
BRANCH   6   7
ATOM      7  C   UNL     1      -2.651  56.208  47.384  1.00  0.00    -0.000 C 
BRANCH   7   8
ATOM      8  C   UNL     1      -2.196  56.765  48.740  1.00  0.00    -0.003 C 
ATOM      9  C   UNL     1      -2.495  58.257  48.851  1.00  0.00     0.004 C 
ENDBRANCH   7   8
ENDBRANCH   6   7
ENDBRANCH   1   6
TORSDOF 5
ENDMDL
MODEL 8
REMARK VINA RESULT:    -3.533      2.139      3.244
REMARK INTER + INTRA:          -4.962
REMARK INTER:                  -4.640
REMARK INTRA:                  -0.323
REMARK UNBOUND:                -0.397
REMARK SMILES CCCCCCC(=O)[O-]
REMARK SMILES IDX 5 1 6 2 7 3 8 4 9 5 4 6 3 7 2 8 1 9
REMARK H PARENT
REMARK Flexibility Score: inf
ROOT
ATOM      1  C   UNL     1      -3.112  58.828  45.559  1.00  0.00     0.006 C 
ENDROOT
BRANCH   1   2
ATOM      2  C   UNL     1      -4.125  59.944  45.858  1.00  0.00     0.053 C 
BRANCH   2   3
ATOM      3  C   UNL     1      -3.777  60.698  47.105  1.00  0.00     0.041 C 
ATOM      4  O   UNL     1      -3.813  61.956  47.114  1.00  0.00    -0.550 OA
ATOM      5  O   UNL     1      -3.447  60.010  48.265  1.00  0.00    -0.550 OA
ENDBRANCH   2   3
ENDBRANCH   1   2
BRANCH   1   6
ATOM      6  C   UNL     1      -3.725  57.416  45.463  1.00  0.00     0.000 C 
BRANCH   6   7
ATOM      7  C   UNL     1      -3.692  56.602  46.769  1.00  0.00    -0.000 C 
BRANCH   7   8
ATOM      8  C   UNL     1      -2.296  56.551  47.408  1.00  0.00    -0.003 C 
ATOM      9  C   UNL     1      -2.378  56.722  48.921  1.00  0.00     0.004 C 
ENDBRANCH   7   8
ENDBRANCH   6   7
ENDBRANCH   1   6
TORSDOF 5
ENDMDL
MODEL 9
REMARK VINA RESULT:    -3.390     13.421     13.998
REMARK INTER + INTRA:          -4.777
REMARK INTER:                  -4.574
REMARK INTRA:                  -0.203
REMARK UNBOUND:                -0.397
REMARK SMILES CCCCCCC(=O)[O-]
REMARK SMILES IDX 5 1 6 2 7 3 8 4 9 5 4 6 3 7 2 8 1 9
REMARK H PARENT
REMARK Flexibility Score: inf
ROOT
ATOM      1  C   UNL     1       7.651  59.081  56.734  1.00  0.00     0.006 C 
ENDROOT
BRANCH   1   2
ATOM      2  C   UNL     1       7.913  59.282  55.233  1.00  0.00     0.053 C 
BRANCH   2   3
ATOM      3  C   UNL     1       8.186  60.716  54.897  1.00  0.00     0.041 C 
ATOM      4  O   UNL     1       8.521  61.524  55.801  1.00  0.00    -0.550 OA
ATOM      5  O   UNL     1       8.106  61.150  53.580  1.00  0.00    -0.550 OA
ENDBRANCH   2   3
ENDBRANCH   1   2
BRANCH   1   6
ATOM      6  C   UNL     1       6.175  59.232  57.153  1.00  0.00     0.000 C 
BRANCH   6   7
ATOM      7  C   UNL     1       5.849  60.514  57.939  1.00  0.00    -0.000 C 
BRANCH   7   8
ATOM      8  C   UNL     1       4.632  61.265  57.380  1.00  0.00    -0.003 C 
ATOM      9  C   UNL     1       3.699  61.712  58.502  1.00  0.00     0.004 C 
ENDBRANCH   7   8
ENDBRANCH   6   7
ENDBRANCH   1   6
TORSDOF 5
ENDMDL
