MODEL 1
REMARK VINA RESULT:    -3.579      0.000      0.000
REMARK INTER + INTRA:         -15.327
REMARK INTER:                  -9.438
REMARK INTRA:                  -5.888
REMARK UNBOUND:                -5.888
REMARK SMILES CCCCCCCCCCCCCCCCCCCCCCCCCCCCCC(=O)[O-]
REMARK SMILES IDX 16 1 17 2 18 3 19 4 20 5 21 6 22 7 23 8 24 9 25 10 26 11
REMARK SMILES IDX 27 12 28 13 29 14 30 15 31 16 32 17 15 18 14 19 13 20 12 21
REMARK SMILES IDX 11 22 10 23 9 24 8 25 7 26 6 27 5 28 4 29 3 30 2 31 1 32
REMARK H PARENT
REMARK Flexibility Score: inf
ROOT
ATOM      1  C   UNL     1      40.351  22.935 227.045  1.00  0.00     0.000 C 
ENDROOT
BRANCH   1   2
ATOM      2  C   UNL     1      41.778  23.077 227.598  1.00  0.00     0.000 C 
BRANCH   2   3
ATOM      3  C   UNL     1      42.704  22.013 226.994  1.00  0.00     0.000 C 
BRANCH   3   4
ATOM      4  C   UNL     1      43.658  22.577 225.924  1.00  0.00     0.000 C 
BRANCH   4   5
ATOM      5  C   UNL     1      43.047  22.783 224.522  1.00  0.00     0.000 C 
BRANCH   5   6
ATOM      6  C   UNL     1      43.244  21.620 223.525  1.00  0.00     0.000 C 
BRANCH   6   7
ATOM      7  C   UNL     1      44.222  20.528 223.999  1.00  0.00     0.000 C 
BRANCH   7   8
ATOM      8  C   UNL     1      43.528  19.213 224.384  1.00  0.00     0.000 C 
BRANCH   8   9
ATOM      9  C   UNL     1      42.104  19.098 223.814  1.00  0.00     0.000 C 
BRANCH   9  10
ATOM     10  C   UNL     1      41.039  18.761 224.880  1.00  0.00     0.000 C 
BRANCH  10  11
ATOM     11  C   UNL     1      39.713  18.294 224.256  1.00  0.00     0.000 C 
BRANCH  11  12
ATOM     12  C   UNL     1      38.581  18.151 225.289  1.00  0.00     0.000 C 
BRANCH  12  13
ATOM     13  C   UNL     1      38.971  17.425 226.593  1.00  0.00     0.006 C 
BRANCH  13  14
ATOM     14  C   UNL     1      38.115  17.797 227.814  1.00  0.00     0.053 C 
BRANCH  14  15
ATOM     15  C   UNL     1      38.956  18.171 228.995  1.00  0.00     0.041 C 
ATOM     16  O   UNL     1      40.066  17.609 229.185  1.00  0.00    -0.550 OA
ATOM     17  O   UNL     1      38.525  19.158 229.874  1.00  0.00    -0.550 OA
ENDBRANCH  14  15
ENDBRANCH  13  14
ENDBRANCH  12  13
ENDBRANCH  11  12
ENDBRANCH  10  11
ENDBRANCH   9  10
ENDBRANCH   8   9
ENDBRANCH   7   8
ENDBRANCH   6   7
ENDBRANCH   5   6
ENDBRANCH   4   5
ENDBRANCH   3   4
ENDBRANCH   2   3
ENDBRANCH   1   2
BRANCH   1  18
ATOM     18  C   UNL     1      39.716  21.566 227.356  1.00  0.00     0.000 C 
BRANCH  18  19
ATOM     19  C   UNL     1      38.333  21.328 226.723  1.00  0.00     0.000 C 
BRANCH  19  20
ATOM     20  C   UNL     1      37.963  22.279 225.568  1.00  0.00     0.000 C 
BRANCH  20  21
ATOM     21  C   UNL     1      38.167  21.674 224.163  1.00  0.00     0.000 C 
BRANCH  21  22
ATOM     22  C   UNL     1      39.569  21.955 223.590  1.00  0.00     0.000 C 
BRANCH  22  23
ATOM     23  C   UNL     1      39.521  22.719 222.257  1.00  0.00     0.000 C 
BRANCH  23  24
ATOM     24  C   UNL     1      40.201  24.094 222.337  1.00  0.00    -0.000 C 
BRANCH  24  25
ATOM     25  C   UNL     1      39.974  24.739 223.712  1.00  0.00    -0.000 C 
BRANCH  25  26
ATOM     26  C   UNL     1      38.965  25.902 223.667  1.00  0.00    -0.000 C 
BRANCH  26  27
ATOM     27  C   UNL     1      37.496  25.502 223.913  1.00  0.00    -0.000 C 
BRANCH  27  28
ATOM     28  C   UNL     1      36.666  25.250 222.640  1.00  0.00    -0.000 C 
BRANCH  28  29
ATOM     29  C   UNL     1      35.683  24.069 222.730  1.00  0.00    -0.000 C 
BRANCH  29  30
ATOM     30  C   UNL     1      35.761  23.099 221.531  1.00  0.00    -0.000 C 
BRANCH  30  31
ATOM     31  C   UNL     1      36.642  23.640 220.394  1.00  0.00    -0.003 C 
ATOM     32  C   UNL     1      35.792  24.122 219.222  1.00  0.00     0.004 C 
ENDBRANCH  30  31
ENDBRANCH  29  30
ENDBRANCH  28  29
ENDBRANCH  27  28
ENDBRANCH  26  27
ENDBRANCH  25  26
ENDBRANCH  24  25
ENDBRANCH  23  24
ENDBRANCH  22  23
ENDBRANCH  21  22
ENDBRANCH  20  21
ENDBRANCH  19  20
ENDBRANCH  18  19
ENDBRANCH   1  18
TORSDOF 28
ENDMDL
MODEL 2
REMARK VINA RESULT:    -3.474      2.007      5.697
REMARK INTER + INTRA:         -15.049
REMARK INTER:                  -9.008
REMARK INTRA:                  -6.041
REMARK UNBOUND:                -5.888
REMARK SMILES CCCCCCCCCCCCCCCCCCCCCCCCCCCCCC(=O)[O-]
REMARK SMILES IDX 16 1 17 2 18 3 19 4 20 5 21 6 22 7 23 8 24 9 25 10 26 11
REMARK SMILES IDX 27 12 28 13 29 14 30 15 31 16 32 17 15 18 14 19 13 20 12 21
REMARK SMILES IDX 11 22 10 23 9 24 8 25 7 26 6 27 5 28 4 29 3 30 2 31 1 32
REMARK H PARENT
REMARK Flexibility Score: inf
ROOT
ATOM      1  C   UNL     1      41.181  22.827 222.964  1.00  0.00     0.000 C 
ENDROOT
BRANCH   1   2
ATOM      2  C   UNL     1      40.562  24.232 222.920  1.00  0.00     0.000 C 
BRANCH   2   3
ATOM      3  C   UNL     1      39.106  24.171 222.441  1.00  0.00     0.000 C 
BRANCH   3   4
ATOM      4  C   UNL     1      38.330  25.477 222.696  1.00  0.00     0.000 C 
BRANCH   4   5
ATOM      5  C   UNL     1      37.113  25.362 223.639  1.00  0.00     0.000 C 
BRANCH   5   6
ATOM      6  C   UNL     1      36.874  23.969 224.261  1.00  0.00     0.000 C 
BRANCH   6   7
ATOM      7  C   UNL     1      37.433  23.798 225.686  1.00  0.00     0.000 C 
BRANCH   7   8
ATOM      8  C   UNL     1      37.945  22.379 225.975  1.00  0.00     0.000 C 
BRANCH   8   9
ATOM      9  C   UNL     1      39.480  22.286 225.983  1.00  0.00     0.000 C 
BRANCH   9  10
ATOM     10  C   UNL     1      40.038  21.422 227.134  1.00  0.00     0.000 C 
BRANCH  10  11
ATOM     11  C   UNL     1      40.403  19.999 226.676  1.00  0.00     0.000 C 
BRANCH  11  12
ATOM     12  C   UNL     1      40.304  19.817 225.150  1.00  0.00     0.000 C 
BRANCH  12  13
ATOM     13  C   UNL     1      39.387  18.666 224.685  1.00  0.00     0.006 C 
BRANCH  13  14
ATOM     14  C   UNL     1      37.884  18.936 224.858  1.00  0.00     0.053 C 
BRANCH  14  15
ATOM     15  C   UNL     1      37.249  17.979 225.818  1.00  0.00     0.041 C 
ATOM     16  O   UNL     1      36.094  17.531 225.594  1.00  0.00    -0.550 OA
ATOM     17  O   UNL     1      37.941  17.563 226.949  1.00  0.00    -0.550 OA
ENDBRANCH  14  15
ENDBRANCH  13  14
ENDBRANCH  12  13
ENDBRANCH  11  12
ENDBRANCH  10  11
ENDBRANCH   9  10
ENDBRANCH   8   9
ENDBRANCH   7   8
ENDBRANCH   6   7
ENDBRANCH   5   6
ENDBRANCH   4   5
ENDBRANCH   3   4
ENDBRANCH   2   3
ENDBRANCH   1   2
BRANCH   1  18
ATOM     18  C   UNL     1      40.535  21.851 221.963  1.00  0.00     0.000 C 
BRANCH  18  19
ATOM     19  C   UNL     1      41.361  20.588 221.654  1.00  0.00     0.000 C 
BRANCH  19  20
ATOM     20  C   UNL     1      42.852  20.665 222.034  1.00  0.00     0.000 C 
BRANCH  20  21
ATOM     21  C   UNL     1      43.353  19.467 222.869  1.00  0.00     0.000 C 
BRANCH  21  22
ATOM     22  C   UNL     1      44.317  19.884 223.995  1.00  0.00     0.000 C 
BRANCH  22  23
ATOM     23  C   UNL     1      44.003  21.281 224.556  1.00  0.00     0.000 C 
BRANCH  23  24
ATOM     24  C   UNL     1      43.634  21.251 226.046  1.00  0.00    -0.000 C 
BRANCH  24  25
ATOM     25  C   UNL     1      43.654  22.666 226.644  1.00  0.00    -0.000 C 
BRANCH  25  26
ATOM     26  C   UNL     1      43.996  23.749 225.605  1.00  0.00    -0.000 C 
BRANCH  26  27
ATOM     27  C   UNL     1      43.032  24.953 225.574  1.00  0.00    -0.000 C 
BRANCH  27  28
ATOM     28  C   UNL     1      41.952  24.953 226.671  1.00  0.00    -0.000 C 
BRANCH  28  29
ATOM     29  C   UNL     1      41.176  26.275 226.818  1.00  0.00    -0.000 C 
BRANCH  29  30
ATOM     30  C   UNL     1      39.999  26.420 225.830  1.00  0.00    -0.000 C 
BRANCH  30  31
ATOM     31  C   UNL     1      40.025  27.758 225.075  1.00  0.00    -0.003 C 
ATOM     32  C   UNL     1      41.362  28.470 225.263  1.00  0.00     0.004 C 
ENDBRANCH  30  31
ENDBRANCH  29  30
ENDBRANCH  28  29
ENDBRANCH  27  28
ENDBRANCH  26  27
ENDBRANCH  25  26
ENDBRANCH  24  25
ENDBRANCH  23  24
ENDBRANCH  22  23
ENDBRANCH  21  22
ENDBRANCH  20  21
ENDBRANCH  19  20
ENDBRANCH  18  19
ENDBRANCH   1  18
TORSDOF 28
ENDMDL
MODEL 3
REMARK VINA RESULT:    -3.449      1.753      4.140
REMARK INTER + INTRA:         -14.984
REMARK INTER:                  -9.684
REMARK INTRA:                  -5.301
REMARK UNBOUND:                -5.888
REMARK SMILES CCCCCCCCCCCCCCCCCCCCCCCCCCCCCC(=O)[O-]
REMARK SMILES IDX 16 1 17 2 18 3 19 4 20 5 21 6 22 7 23 8 24 9 25 10 26 11
REMARK SMILES IDX 27 12 28 13 29 14 30 15 31 16 32 17 15 18 14 19 13 20 12 21
REMARK SMILES IDX 11 22 10 23 9 24 8 25 7 26 6 27 5 28 4 29 3 30 2 31 1 32
REMARK H PARENT
REMARK Flexibility Score: inf
ROOT
ATOM      1  C   UNL     1      42.203  20.993 221.411  1.00  0.00     0.000 C 
ENDROOT
BRANCH   1   2
ATOM      2  C   UNL     1      43.511  20.617 222.123  1.00  0.00     0.000 C 
BRANCH   2   3
ATOM      3  C   UNL     1      43.226  20.011 223.504  1.00  0.00     0.000 C 
BRANCH   3   4
ATOM      4  C   UNL     1      44.269  20.407 224.565  1.00  0.00     0.000 C 
BRANCH   4   5
ATOM      5  C   UNL     1      43.977  21.709 225.341  1.00  0.00     0.000 C 
BRANCH   5   6
ATOM      6  C   UNL     1      42.523  22.225 225.267  1.00  0.00     0.000 C 
BRANCH   6   7
ATOM      7  C   UNL     1      41.688  21.975 226.538  1.00  0.00     0.000 C 
BRANCH   7   8
ATOM      8  C   UNL     1      41.589  20.492 226.921  1.00  0.00     0.000 C 
BRANCH   8   9
ATOM      9  C   UNL     1      40.551  19.725 226.084  1.00  0.00     0.000 C 
BRANCH   9  10
ATOM     10  C   UNL     1      39.162  20.399 226.059  1.00  0.00     0.000 C 
BRANCH  10  11
ATOM     11  C   UNL     1      38.278  19.876 224.914  1.00  0.00     0.000 C 
BRANCH  11  12
ATOM     12  C   UNL     1      38.063  18.352 224.969  1.00  0.00     0.000 C 
BRANCH  12  13
ATOM     13  C   UNL     1      36.985  17.878 225.966  1.00  0.00     0.006 C 
BRANCH  13  14
ATOM     14  C   UNL     1      37.432  16.741 226.898  1.00  0.00     0.053 C 
BRANCH  14  15
ATOM     15  C   UNL     1      38.569  17.154 227.780  1.00  0.00     0.041 C 
ATOM     16  O   UNL     1      38.387  18.005 228.690  1.00  0.00    -0.550 OA
ATOM     17  O   UNL     1      39.825  16.582 227.614  1.00  0.00    -0.550 OA
ENDBRANCH  14  15
ENDBRANCH  13  14
ENDBRANCH  12  13
ENDBRANCH  11  12
ENDBRANCH  10  11
ENDBRANCH   9  10
ENDBRANCH   8   9
ENDBRANCH   7   8
ENDBRANCH   6   7
ENDBRANCH   5   6
ENDBRANCH   4   5
ENDBRANCH   3   4
ENDBRANCH   2   3
ENDBRANCH   1   2
BRANCH   1  18
ATOM     18  C   UNL     1      40.946  20.598 222.209  1.00  0.00     0.000 C 
BRANCH  18  19
ATOM     19  C   UNL     1      40.116  21.779 222.748  1.00  0.00     0.000 C 
BRANCH  19  20
ATOM     20  C   UNL     1      40.628  23.179 222.357  1.00  0.00     0.000 C 
BRANCH  20  21
ATOM     21  C   UNL     1      39.554  24.088 221.723  1.00  0.00     0.000 C 
BRANCH  21  22
ATOM     22  C   UNL     1      38.472  23.296 220.965  1.00  0.00     0.000 C 
BRANCH  22  23
ATOM     23  C   UNL     1      37.050  23.625 221.447  1.00  0.00     0.000 C 
BRANCH  23  24
ATOM     24  C   UNL     1      37.001  24.873 222.342  1.00  0.00    -0.000 C 
BRANCH  24  25
ATOM     25  C   UNL     1      36.459  24.525 223.736  1.00  0.00    -0.000 C 
BRANCH  25  26
ATOM     26  C   UNL     1      37.251  23.397 224.422  1.00  0.00    -0.000 C 
BRANCH  26  27
ATOM     27  C   UNL     1      37.930  23.789 225.750  1.00  0.00    -0.000 C 
BRANCH  27  28
ATOM     28  C   UNL     1      39.178  24.680 225.608  1.00  0.00    -0.000 C 
BRANCH  28  29
ATOM     29  C   UNL     1      38.946  26.173 225.903  1.00  0.00    -0.000 C 
BRANCH  29  30
ATOM     30  C   UNL     1      39.622  27.121 224.889  1.00  0.00    -0.000 C 
BRANCH  30  31
ATOM     31  C   UNL     1      41.031  27.547 225.330  1.00  0.00    -0.003 C 
ATOM     32  C   UNL     1      41.295  29.011 224.991  1.00  0.00     0.004 C 
ENDBRANCH  30  31
ENDBRANCH  29  30
ENDBRANCH  28  29
ENDBRANCH  27  28
ENDBRANCH  26  27
ENDBRANCH  25  26
ENDBRANCH  24  25
ENDBRANCH  23  24
ENDBRANCH  22  23
ENDBRANCH  21  22
ENDBRANCH  20  21
ENDBRANCH  19  20
ENDBRANCH  18  19
ENDBRANCH   1  18
TORSDOF 28
ENDMDL
MODEL 4
REMARK VINA RESULT:    -3.447      1.837      3.950
REMARK INTER + INTRA:         -14.977
REMARK INTER:                  -9.582
REMARK INTRA:                  -5.394
REMARK UNBOUND:                -5.888
REMARK SMILES CCCCCCCCCCCCCCCCCCCCCCCCCCCCCC(=O)[O-]
REMARK SMILES IDX 16 1 17 2 18 3 19 4 20 5 21 6 22 7 23 8 24 9 25 10 26 11
REMARK SMILES IDX 27 12 28 13 29 14 30 15 31 16 32 17 15 18 14 19 13 20 12 21
REMARK SMILES IDX 11 22 10 23 9 24 8 25 7 26 6 27 5 28 4 29 3 30 2 31 1 32
REMARK H PARENT
REMARK Flexibility Score: inf
ROOT
ATOM      1  C   UNL     1      41.804  19.510 223.043  1.00  0.00     0.000 C 
ENDROOT
BRANCH   1   2
ATOM      2  C   UNL     1      40.569  19.156 223.886  1.00  0.00     0.000 C 
BRANCH   2   3
ATOM      3  C   UNL     1      39.502  20.253 223.778  1.00  0.00     0.000 C 
BRANCH   3   4
ATOM      4  C   UNL     1      39.102  20.846 225.142  1.00  0.00     0.000 C 
BRANCH   4   5
ATOM      5  C   UNL     1      40.228  20.925 226.195  1.00  0.00     0.000 C 
BRANCH   5   6
ATOM      6  C   UNL     1      39.831  20.532 227.635  1.00  0.00     0.000 C 
BRANCH   6   7
ATOM      7  C   UNL     1      40.847  19.626 228.356  1.00  0.00     0.000 C 
BRANCH   7   8
ATOM      8  C   UNL     1      42.023  19.198 227.466  1.00  0.00     0.000 C 
BRANCH   8   9
ATOM      9  C   UNL     1      42.470  17.748 227.721  1.00  0.00     0.000 C 
BRANCH   9  10
ATOM     10  C   UNL     1      42.898  17.001 226.439  1.00  0.00     0.000 C 
BRANCH  10  11
ATOM     11  C   UNL     1      42.028  15.763 226.165  1.00  0.00     0.000 C 
BRANCH  11  12
ATOM     12  C   UNL     1      40.831  15.644 227.127  1.00  0.00     0.000 C 
BRANCH  12  13
ATOM     13  C   UNL     1      39.443  15.722 226.459  1.00  0.00     0.006 C 
BRANCH  13  14
ATOM     14  C   UNL     1      38.902  17.148 226.272  1.00  0.00     0.053 C 
BRANCH  14  15
ATOM     15  C   UNL     1      37.742  17.431 227.176  1.00  0.00     0.041 C 
ATOM     16  O   UNL     1      36.565  17.363 226.735  1.00  0.00    -0.550 OA
ATOM     17  O   UNL     1      37.959  17.747 228.511  1.00  0.00    -0.550 OA
ENDBRANCH  14  15
ENDBRANCH  13  14
ENDBRANCH  12  13
ENDBRANCH  11  12
ENDBRANCH  10  11
ENDBRANCH   9  10
ENDBRANCH   8   9
ENDBRANCH   7   8
ENDBRANCH   6   7
ENDBRANCH   5   6
ENDBRANCH   4   5
ENDBRANCH   3   4
ENDBRANCH   2   3
ENDBRANCH   1   2
BRANCH   1  18
ATOM     18  C   UNL     1      43.080  18.784 223.507  1.00  0.00     0.000 C 
BRANCH  18  19
ATOM     19  C   UNL     1      44.216  19.704 223.994  1.00  0.00     0.000 C 
BRANCH  19  20
ATOM     20  C   UNL     1      43.880  21.207 224.025  1.00  0.00     0.000 C 
BRANCH  20  21
ATOM     21  C   UNL     1      43.716  21.787 225.445  1.00  0.00     0.000 C 
BRANCH  21  22
ATOM     22  C   UNL     1      42.702  22.945 225.505  1.00  0.00     0.000 C 
BRANCH  22  23
ATOM     23  C   UNL     1      42.528  23.651 224.151  1.00  0.00     0.000 C 
BRANCH  23  24
ATOM     24  C   UNL     1      41.060  23.733 223.708  1.00  0.00    -0.000 C 
BRANCH  24  25
ATOM     25  C   UNL     1      40.887  23.199 222.279  1.00  0.00    -0.000 C 
BRANCH  25  26
ATOM     26  C   UNL     1      39.466  23.416 221.727  1.00  0.00    -0.000 C 
BRANCH  26  27
ATOM     27  C   UNL     1      38.535  24.251 222.630  1.00  0.00    -0.000 C 
BRANCH  27  28
ATOM     28  C   UNL     1      37.059  23.812 222.628  1.00  0.00    -0.000 C 
BRANCH  28  29
ATOM     29  C   UNL     1      36.574  23.169 221.315  1.00  0.00    -0.000 C 
BRANCH  29  30
ATOM     30  C   UNL     1      35.555  24.030 220.538  1.00  0.00    -0.000 C 
BRANCH  30  31
ATOM     31  C   UNL     1      35.867  24.100 219.036  1.00  0.00    -0.003 C 
ATOM     32  C   UNL     1      37.089  23.254 218.687  1.00  0.00     0.004 C 
ENDBRANCH  30  31
ENDBRANCH  29  30
ENDBRANCH  28  29
ENDBRANCH  27  28
ENDBRANCH  26  27
ENDBRANCH  25  26
ENDBRANCH  24  25
ENDBRANCH  23  24
ENDBRANCH  22  23
ENDBRANCH  21  22
ENDBRANCH  20  21
ENDBRANCH  19  20
ENDBRANCH  18  19
ENDBRANCH   1  18
TORSDOF 28
ENDMDL
MODEL 5
REMARK VINA RESULT:    -3.443      3.101      6.970
REMARK INTER + INTRA:         -14.967
REMARK INTER:                  -8.660
REMARK INTRA:                  -6.307
REMARK UNBOUND:                -5.888
REMARK SMILES CCCCCCCCCCCCCCCCCCCCCCCCCCCCCC(=O)[O-]
REMARK SMILES IDX 16 1 17 2 18 3 19 4 20 5 21 6 22 7 23 8 24 9 25 10 26 11
REMARK SMILES IDX 27 12 28 13 29 14 30 15 31 16 32 17 15 18 14 19 13 20 12 21
REMARK SMILES IDX 11 22 10 23 9 24 8 25 7 26 6 27 5 28 4 29 3 30 2 31 1 32
REMARK H PARENT
REMARK Flexibility Score: inf
ROOT
ATOM      1  C   UNL     1      42.969  22.984 224.782  1.00  0.00     0.000 C 
ENDROOT
BRANCH   1   2
ATOM      2  C   UNL     1      43.879  21.965 225.485  1.00  0.00     0.000 C 
BRANCH   2   3
ATOM      3  C   UNL     1      44.048  20.703 224.630  1.00  0.00     0.000 C 
BRANCH   3   4
ATOM      4  C   UNL     1      43.500  20.864 223.199  1.00  0.00     0.000 C 
BRANCH   4   5
ATOM      5  C   UNL     1      42.461  19.812 222.755  1.00  0.00     0.000 C 
BRANCH   5   6
ATOM      6  C   UNL     1      41.277  20.347 221.920  1.00  0.00     0.000 C 
BRANCH   6   7
ATOM      7  C   UNL     1      41.261  21.877 221.737  1.00  0.00     0.000 C 
BRANCH   7   8
ATOM      8  C   UNL     1      39.882  22.506 221.982  1.00  0.00     0.000 C 
BRANCH   8   9
ATOM      9  C   UNL     1      39.902  24.042 221.905  1.00  0.00     0.000 C 
BRANCH   9  10
ATOM     10  C   UNL     1      40.134  24.724 223.271  1.00  0.00     0.000 C 
BRANCH  10  11
ATOM     11  C   UNL     1      38.820  24.984 224.027  1.00  0.00     0.000 C 
BRANCH  11  12
ATOM     12  C   UNL     1      37.796  25.779 223.196  1.00  0.00     0.000 C 
BRANCH  12  13
ATOM     13  C   UNL     1      36.359  25.218 223.215  1.00  0.00     0.006 C 
BRANCH  13  14
ATOM     14  C   UNL     1      36.238  23.753 222.767  1.00  0.00     0.053 C 
BRANCH  14  15
ATOM     15  C   UNL     1      35.829  23.638 221.331  1.00  0.00     0.041 C 
ATOM     16  O   UNL     1      34.630  23.826 220.998  1.00  0.00    -0.550 OA
ATOM     17  O   UNL     1      36.777  23.347 220.357  1.00  0.00    -0.550 OA
ENDBRANCH  14  15
ENDBRANCH  13  14
ENDBRANCH  12  13
ENDBRANCH  11  12
ENDBRANCH  10  11
ENDBRANCH   9  10
ENDBRANCH   8   9
ENDBRANCH   7   8
ENDBRANCH   6   7
ENDBRANCH   5   6
ENDBRANCH   4   5
ENDBRANCH   3   4
ENDBRANCH   2   3
ENDBRANCH   1   2
BRANCH   1  18
ATOM     18  C   UNL     1      43.243  24.437 225.214  1.00  0.00     0.000 C 
BRANCH  18  19
ATOM     19  C   UNL     1      42.637  24.840 226.572  1.00  0.00     0.000 C 
BRANCH  19  20
ATOM     20  C   UNL     1      41.210  24.323 226.838  1.00  0.00     0.000 C 
BRANCH  20  21
ATOM     21  C   UNL     1      41.098  23.380 228.054  1.00  0.00     0.000 C 
BRANCH  21  22
ATOM     22  C   UNL     1      39.655  22.911 228.317  1.00  0.00     0.000 C 
BRANCH  22  23
ATOM     23  C   UNL     1      38.709  23.223 227.146  1.00  0.00     0.000 C 
BRANCH  23  24
ATOM     24  C   UNL     1      37.926  21.990 226.671  1.00  0.00    -0.000 C 
BRANCH  24  25
ATOM     25  C   UNL     1      38.378  21.562 225.267  1.00  0.00    -0.000 C 
BRANCH  25  26
ATOM     26  C   UNL     1      39.876  21.214 225.201  1.00  0.00    -0.000 C 
BRANCH  26  27
ATOM     27  C   UNL     1      40.249  19.823 225.754  1.00  0.00    -0.000 C 
BRANCH  27  28
ATOM     28  C   UNL     1      41.276  19.830 226.902  1.00  0.00    -0.000 C 
BRANCH  28  29
ATOM     29  C   UNL     1      41.681  18.437 227.419  1.00  0.00    -0.000 C 
BRANCH  29  30
ATOM     30  C   UNL     1      41.997  17.424 226.298  1.00  0.00    -0.000 C 
BRANCH  30  31
ATOM     31  C   UNL     1      43.506  17.187 226.128  1.00  0.00    -0.003 C 
ATOM     32  C   UNL     1      43.877  17.041 224.655  1.00  0.00     0.004 C 
ENDBRANCH  30  31
ENDBRANCH  29  30
ENDBRANCH  28  29
ENDBRANCH  27  28
ENDBRANCH  26  27
ENDBRANCH  25  26
ENDBRANCH  24  25
ENDBRANCH  23  24
ENDBRANCH  22  23
ENDBRANCH  21  22
ENDBRANCH  20  21
ENDBRANCH  19  20
ENDBRANCH  18  19
ENDBRANCH   1  18
TORSDOF 28
ENDMDL
MODEL 6
REMARK VINA RESULT:    -3.427      1.992      4.046
REMARK INTER + INTRA:         -14.924
REMARK INTER:                  -8.927
REMARK INTRA:                  -5.998
REMARK UNBOUND:                -5.888
REMARK SMILES CCCCCCCCCCCCCCCCCCCCCCCCCCCCCC(=O)[O-]
REMARK SMILES IDX 16 1 17 2 18 3 19 4 20 5 21 6 22 7 23 8 24 9 25 10 26 11
REMARK SMILES IDX 27 12 28 13 29 14 30 15 31 16 32 17 15 18 14 19 13 20 12 21
REMARK SMILES IDX 11 22 10 23 9 24 8 25 7 26 6 27 5 28 4 29 3 30 2 31 1 32
REMARK H PARENT
REMARK Flexibility Score: inf
ROOT
ATOM      1  C   UNL     1      40.663  21.480 225.822  1.00  0.00     0.000 C 
ENDROOT
BRANCH   1   2
ATOM      2  C   UNL     1      39.600  20.952 224.846  1.00  0.00     0.000 C 
BRANCH   2   3
ATOM      3  C   UNL     1      40.158  19.794 224.008  1.00  0.00     0.000 C 
BRANCH   3   4
ATOM      4  C   UNL     1      40.710  20.246 222.643  1.00  0.00     0.000 C 
BRANCH   4   5
ATOM      5  C   UNL     1      42.213  19.986 222.407  1.00  0.00     0.000 C 
BRANCH   5   6
ATOM      6  C   UNL     1      43.169  21.109 222.867  1.00  0.00     0.000 C 
BRANCH   6   7
ATOM      7  C   UNL     1      44.116  20.715 224.017  1.00  0.00     0.000 C 
BRANCH   7   8
ATOM      8  C   UNL     1      43.887  19.286 224.533  1.00  0.00     0.000 C 
BRANCH   8   9
ATOM      9  C   UNL     1      43.406  19.247 225.994  1.00  0.00     0.000 C 
BRANCH   9  10
ATOM     10  C   UNL     1      43.110  17.822 226.507  1.00  0.00     0.000 C 
BRANCH  10  11
ATOM     11  C   UNL     1      41.646  17.408 226.278  1.00  0.00     0.000 C 
BRANCH  11  12
ATOM     12  C   UNL     1      40.674  18.068 227.274  1.00  0.00     0.000 C 
BRANCH  12  13
ATOM     13  C   UNL     1      39.273  17.425 227.345  1.00  0.00     0.006 C 
BRANCH  13  14
ATOM     14  C   UNL     1      38.107  18.413 227.178  1.00  0.00     0.053 C 
BRANCH  14  15
ATOM     15  C   UNL     1      37.063  17.893 226.239  1.00  0.00     0.041 C 
ATOM     16  O   UNL     1      36.121  17.178 226.673  1.00  0.00    -0.550 OA
ATOM     17  O   UNL     1      37.115  18.217 224.889  1.00  0.00    -0.550 OA
ENDBRANCH  14  15
ENDBRANCH  13  14
ENDBRANCH  12  13
ENDBRANCH  11  12
ENDBRANCH  10  11
ENDBRANCH   9  10
ENDBRANCH   8   9
ENDBRANCH   7   8
ENDBRANCH   6   7
ENDBRANCH   5   6
ENDBRANCH   4   5
ENDBRANCH   3   4
ENDBRANCH   2   3
ENDBRANCH   1   2
BRANCH   1  18
ATOM     18  C   UNL     1      41.230  22.852 225.414  1.00  0.00     0.000 C 
BRANCH  18  19
ATOM     19  C   UNL     1      40.305  23.703 224.522  1.00  0.00     0.000 C 
BRANCH  19  20
ATOM     20  C   UNL     1      40.834  23.986 223.103  1.00  0.00     0.000 C 
BRANCH  20  21
ATOM     21  C   UNL     1      39.733  24.330 222.077  1.00  0.00     0.000 C 
BRANCH  21  22
ATOM     22  C   UNL     1      38.957  23.090 221.596  1.00  0.00     0.000 C 
BRANCH  22  23
ATOM     23  C   UNL     1      37.499  23.410 221.229  1.00  0.00     0.000 C 
BRANCH  23  24
ATOM     24  C   UNL     1      36.512  23.044 222.347  1.00  0.00    -0.000 C 
BRANCH  24  25
ATOM     25  C   UNL     1      35.427  24.122 222.494  1.00  0.00    -0.000 C 
BRANCH  25  26
ATOM     26  C   UNL     1      35.734  25.130 223.617  1.00  0.00    -0.000 C 
BRANCH  26  27
ATOM     27  C   UNL     1      36.934  24.763 224.515  1.00  0.00    -0.000 C 
BRANCH  27  28
ATOM     28  C   UNL     1      36.658  24.822 226.029  1.00  0.00    -0.000 C 
BRANCH  28  29
ATOM     29  C   UNL     1      37.854  25.271 226.889  1.00  0.00    -0.000 C 
BRANCH  29  30
ATOM     30  C   UNL     1      38.514  24.126 227.686  1.00  0.00    -0.000 C 
BRANCH  30  31
ATOM     31  C   UNL     1      37.694  22.827 227.638  1.00  0.00    -0.003 C 
ATOM     32  C   UNL     1      38.167  21.838 228.700  1.00  0.00     0.004 C 
ENDBRANCH  30  31
ENDBRANCH  29  30
ENDBRANCH  28  29
ENDBRANCH  27  28
ENDBRANCH  26  27
ENDBRANCH  25  26
ENDBRANCH  24  25
ENDBRANCH  23  24
ENDBRANCH  22  23
ENDBRANCH  21  22
ENDBRANCH  20  21
ENDBRANCH  19  20
ENDBRANCH  18  19
ENDBRANCH   1  18
TORSDOF 28
ENDMDL
MODEL 7
REMARK VINA RESULT:    -3.424      2.866      7.613
REMARK INTER + INTRA:         -14.916
REMARK INTER:                  -8.760
REMARK INTRA:                  -6.156
REMARK UNBOUND:                -5.888
REMARK SMILES CCCCCCCCCCCCCCCCCCCCCCCCCCCCCC(=O)[O-]
REMARK SMILES IDX 16 1 17 2 18 3 19 4 20 5 21 6 22 7 23 8 24 9 25 10 26 11
REMARK SMILES IDX 27 12 28 13 29 14 30 15 31 16 32 17 15 18 14 19 13 20 12 21
REMARK SMILES IDX 11 22 10 23 9 24 8 25 7 26 6 27 5 28 4 29 3 30 2 31 1 32
REMARK H PARENT
REMARK Flexibility Score: inf
ROOT
ATOM      1  C   UNL     1      40.125  22.973 223.019  1.00  0.00     0.000 C 
ENDROOT
BRANCH   1   2
ATOM      2  C   UNL     1      39.453  21.774 223.705  1.00  0.00     0.000 C 
BRANCH   2   3
ATOM      3  C   UNL     1      38.519  22.242 224.829  1.00  0.00     0.000 C 
BRANCH   3   4
ATOM      4  C   UNL     1      39.258  22.525 226.150  1.00  0.00     0.000 C 
BRANCH   4   5
ATOM      5  C   UNL     1      40.556  21.722 226.379  1.00  0.00     0.000 C 
BRANCH   5   6
ATOM      6  C   UNL     1      41.789  22.545 226.813  1.00  0.00     0.000 C 
BRANCH   6   7
ATOM      7  C   UNL     1      41.656  24.064 226.591  1.00  0.00     0.000 C 
BRANCH   7   8
ATOM      8  C   UNL     1      42.398  24.566 225.344  1.00  0.00     0.000 C 
BRANCH   8   9
ATOM      9  C   UNL     1      41.776  25.841 224.750  1.00  0.00     0.000 C 
BRANCH   9  10
ATOM     10  C   UNL     1      40.501  26.305 225.487  1.00  0.00     0.000 C 
BRANCH  10  11
ATOM     11  C   UNL     1      39.398  26.763 224.518  1.00  0.00     0.000 C 
BRANCH  11  12
ATOM     12  C   UNL     1      38.224  25.770 224.431  1.00  0.00     0.000 C 
BRANCH  12  13
ATOM     13  C   UNL     1      37.572  25.645 223.039  1.00  0.00     0.006 C 
BRANCH  13  14
ATOM     14  C   UNL     1      36.139  25.090 223.050  1.00  0.00     0.053 C 
BRANCH  14  15
ATOM     15  C   UNL     1      35.937  24.040 222.003  1.00  0.00     0.041 C 
ATOM     16  O   UNL     1      35.613  24.368 220.831  1.00  0.00    -0.550 OA
ATOM     17  O   UNL     1      36.127  22.698 222.313  1.00  0.00    -0.550 OA
ENDBRANCH  14  15
ENDBRANCH  13  14
ENDBRANCH  12  13
ENDBRANCH  11  12
ENDBRANCH  10  11
ENDBRANCH   9  10
ENDBRANCH   8   9
ENDBRANCH   7   8
ENDBRANCH   6   7
ENDBRANCH   5   6
ENDBRANCH   4   5
ENDBRANCH   3   4
ENDBRANCH   2   3
ENDBRANCH   1   2
BRANCH   1  18
ATOM     18  C   UNL     1      41.338  22.573 222.158  1.00  0.00     0.000 C 
BRANCH  18  19
ATOM     19  C   UNL     1      42.006  21.240 222.547  1.00  0.00     0.000 C 
BRANCH  19  20
ATOM     20  C   UNL     1      43.116  21.344 223.610  1.00  0.00     0.000 C 
BRANCH  20  21
ATOM     21  C   UNL     1      43.282  20.076 224.474  1.00  0.00     0.000 C 
BRANCH  21  22
ATOM     22  C   UNL     1      42.410  18.903 223.988  1.00  0.00     0.000 C 
BRANCH  22  23
ATOM     23  C   UNL     1      41.212  18.634 224.912  1.00  0.00     0.000 C 
BRANCH  23  24
ATOM     24  C   UNL     1      39.901  18.422 224.139  1.00  0.00    -0.000 C 
BRANCH  24  25
ATOM     25  C   UNL     1      38.756  18.053 225.093  1.00  0.00    -0.000 C 
BRANCH  25  26
ATOM     26  C   UNL     1      38.908  18.692 226.486  1.00  0.00    -0.000 C 
BRANCH  26  27
ATOM     27  C   UNL     1      38.212  17.931 227.633  1.00  0.00    -0.000 C 
BRANCH  27  28
ATOM     28  C   UNL     1      39.136  17.027 228.472  1.00  0.00    -0.000 C 
BRANCH  28  29
ATOM     29  C   UNL     1      40.624  17.424 228.452  1.00  0.00    -0.000 C 
BRANCH  29  30
ATOM     30  C   UNL     1      41.520  16.443 227.666  1.00  0.00    -0.000 C 
BRANCH  30  31
ATOM     31  C   UNL     1      40.791  15.140 227.306  1.00  0.00    -0.003 C 
ATOM     32  C   UNL     1      40.689  14.966 225.793  1.00  0.00     0.004 C 
ENDBRANCH  30  31
ENDBRANCH  29  30
ENDBRANCH  28  29
ENDBRANCH  27  28
ENDBRANCH  26  27
ENDBRANCH  25  26
ENDBRANCH  24  25
ENDBRANCH  23  24
ENDBRANCH  22  23
ENDBRANCH  21  22
ENDBRANCH  20  21
ENDBRANCH  19  20
ENDBRANCH  18  19
ENDBRANCH   1  18
TORSDOF 28
ENDMDL
MODEL 8
REMARK VINA RESULT:    -3.417      3.281      7.054
REMARK INTER + INTRA:         -14.897
REMARK INTER:                  -8.814
REMARK INTRA:                  -6.084
REMARK UNBOUND:                -5.888
REMARK SMILES CCCCCCCCCCCCCCCCCCCCCCCCCCCCCC(=O)[O-]
REMARK SMILES IDX 16 1 17 2 18 3 19 4 20 5 21 6 22 7 23 8 24 9 25 10 26 11
REMARK SMILES IDX 27 12 28 13 29 14 30 15 31 16 32 17 15 18 14 19 13 20 12 21
REMARK SMILES IDX 11 22 10 23 9 24 8 25 7 26 6 27 5 28 4 29 3 30 2 31 1 32
REMARK H PARENT
REMARK Flexibility Score: inf
ROOT
ATOM      1  C   UNL     1      41.195  21.240 222.342  1.00  0.00     0.000 C 
ENDROOT
BRANCH   1   2
ATOM      2  C   UNL     1      40.942  22.705 222.729  1.00  0.00     0.000 C 
BRANCH   2   3
ATOM      3  C   UNL     1      41.755  23.090 223.972  1.00  0.00     0.000 C 
BRANCH   3   4
ATOM      4  C   UNL     1      40.940  23.009 225.277  1.00  0.00     0.000 C 
BRANCH   4   5
ATOM      5  C   UNL     1      41.672  23.469 226.555  1.00  0.00     0.000 C 
BRANCH   5   6
ATOM      6  C   UNL     1      41.900  24.991 226.689  1.00  0.00     0.000 C 
BRANCH   6   7
ATOM      7  C   UNL     1      40.640  25.850 226.467  1.00  0.00     0.000 C 
BRANCH   7   8
ATOM      8  C   UNL     1      40.654  26.620 225.138  1.00  0.00     0.000 C 
BRANCH   8   9
ATOM      9  C   UNL     1      39.251  26.786 224.529  1.00  0.00     0.000 C 
BRANCH   9  10
ATOM     10  C   UNL     1      38.844  25.625 223.596  1.00  0.00     0.000 C 
BRANCH  10  11
ATOM     11  C   UNL     1      37.503  24.990 224.001  1.00  0.00     0.000 C 
BRANCH  11  12
ATOM     12  C   UNL     1      37.528  23.451 223.951  1.00  0.00     0.000 C 
BRANCH  12  13
ATOM     13  C   UNL     1      36.911  22.827 222.681  1.00  0.00     0.006 C 
BRANCH  13  14
ATOM     14  C   UNL     1      37.553  23.291 221.364  1.00  0.00     0.053 C 
BRANCH  14  15
ATOM     15  C   UNL     1      36.528  23.552 220.304  1.00  0.00     0.041 C 
ATOM     16  O   UNL     1      36.789  23.303 219.097  1.00  0.00    -0.550 OA
ATOM     17  O   UNL     1      35.276  24.047 220.649  1.00  0.00    -0.550 OA
ENDBRANCH  14  15
ENDBRANCH  13  14
ENDBRANCH  12  13
ENDBRANCH  11  12
ENDBRANCH  10  11
ENDBRANCH   9  10
ENDBRANCH   8   9
ENDBRANCH   7   8
ENDBRANCH   6   7
ENDBRANCH   5   6
ENDBRANCH   4   5
ENDBRANCH   3   4
ENDBRANCH   2   3
ENDBRANCH   1   2
BRANCH   1  18
ATOM     18  C   UNL     1      42.439  21.057 221.452  1.00  0.00     0.000 C 
BRANCH  18  19
ATOM     19  C   UNL     1      43.593  20.265 222.096  1.00  0.00     0.000 C 
BRANCH  19  20
ATOM     20  C   UNL     1      43.364  19.835 223.558  1.00  0.00     0.000 C 
BRANCH  20  21
ATOM     21  C   UNL     1      44.181  20.643 224.588  1.00  0.00     0.000 C 
BRANCH  21  22
ATOM     22  C   UNL     1      43.635  20.510 226.021  1.00  0.00     0.000 C 
BRANCH  22  23
ATOM     23  C   UNL     1      42.365  19.646 226.093  1.00  0.00     0.000 C 
BRANCH  23  24
ATOM     24  C   UNL     1      42.082  19.124 227.510  1.00  0.00    -0.000 C 
BRANCH  24  25
ATOM     25  C   UNL     1      41.287  20.154 228.325  1.00  0.00    -0.000 C 
BRANCH  25  26
ATOM     26  C   UNL     1      39.911  19.628 228.774  1.00  0.00    -0.000 C 
BRANCH  26  27
ATOM     27  C   UNL     1      38.730  20.586 228.519  1.00  0.00    -0.000 C 
BRANCH  27  28
ATOM     28  C   UNL     1      38.584  21.071 227.065  1.00  0.00    -0.000 C 
BRANCH  28  29
ATOM     29  C   UNL     1      38.070  20.008 226.076  1.00  0.00    -0.000 C 
BRANCH  29  30
ATOM     30  C   UNL     1      38.826  19.991 224.730  1.00  0.00    -0.000 C 
BRANCH  30  31
ATOM     31  C   UNL     1      39.405  18.607 224.397  1.00  0.00    -0.003 C 
ATOM     32  C   UNL     1      39.190  17.629 225.550  1.00  0.00     0.004 C 
ENDBRANCH  30  31
ENDBRANCH  29  30
ENDBRANCH  28  29
ENDBRANCH  27  28
ENDBRANCH  26  27
ENDBRANCH  25  26
ENDBRANCH  24  25
ENDBRANCH  23  24
ENDBRANCH  22  23
ENDBRANCH  21  22
ENDBRANCH  20  21
ENDBRANCH  19  20
ENDBRANCH  18  19
ENDBRANCH   1  18
TORSDOF 28
ENDMDL
MODEL 9
REMARK VINA RESULT:    -3.385      3.309      7.054
REMARK INTER + INTRA:         -14.815
REMARK INTER:                  -9.496
REMARK INTRA:                  -5.319
REMARK UNBOUND:                -5.888
REMARK SMILES CCCCCCCCCCCCCCCCCCCCCCCCCCCCCC(=O)[O-]
REMARK SMILES IDX 16 1 17 2 18 3 19 4 20 5 21 6 22 7 23 8 24 9 25 10 26 11
REMARK SMILES IDX 27 12 28 13 29 14 30 15 31 16 32 17 15 18 14 19 13 20 12 21
REMARK SMILES IDX 11 22 10 23 9 24 8 25 7 26 6 27 5 28 4 29 3 30 2 31 1 32
REMARK H PARENT
REMARK Flexibility Score: inf
ROOT
ATOM      1  C   UNL     1      40.475  21.294 226.070  1.00  0.00     0.000 C 
ENDROOT
BRANCH   1   2
ATOM      2  C   UNL     1      40.947  22.507 226.887  1.00  0.00     0.000 C 
BRANCH   2   3
ATOM      3  C   UNL     1      41.711  23.499 225.998  1.00  0.00     0.000 C 
BRANCH   3   4
ATOM      4  C   UNL     1      42.354  24.651 226.792  1.00  0.00     0.000 C 
BRANCH   4   5
ATOM      5  C   UNL     1      43.172  25.663 225.963  1.00  0.00     0.000 C 
BRANCH   5   6
ATOM      6  C   UNL     1      42.388  26.432 224.876  1.00  0.00     0.000 C 
BRANCH   6   7
ATOM      7  C   UNL     1      41.394  27.476 225.421  1.00  0.00     0.000 C 
BRANCH   7   8
ATOM      8  C   UNL     1      39.971  27.311 224.866  1.00  0.00     0.000 C 
BRANCH   8   9
ATOM      9  C   UNL     1      39.169  26.218 225.592  1.00  0.00     0.000 C 
BRANCH   9  10
ATOM     10  C   UNL     1      38.584  25.151 224.643  1.00  0.00     0.000 C 
BRANCH  10  11
ATOM     11  C   UNL     1      39.546  24.796 223.496  1.00  0.00     0.000 C 
BRANCH  11  12
ATOM     12  C   UNL     1      38.818  24.505 222.170  1.00  0.00     0.000 C 
BRANCH  12  13
ATOM     13  C   UNL     1      37.278  24.477 222.260  1.00  0.00     0.006 C 
BRANCH  13  14
ATOM     14  C   UNL     1      36.608  23.376 221.423  1.00  0.00     0.053 C 
BRANCH  14  15
ATOM     15  C   UNL     1      35.458  23.903 220.622  1.00  0.00     0.041 C 
ATOM     16  O   UNL     1      35.651  24.364 219.466  1.00  0.00    -0.550 OA
ATOM     17  O   UNL     1      34.170  23.865 221.141  1.00  0.00    -0.550 OA
ENDBRANCH  14  15
ENDBRANCH  13  14
ENDBRANCH  12  13
ENDBRANCH  11  12
ENDBRANCH  10  11
ENDBRANCH   9  10
ENDBRANCH   8   9
ENDBRANCH   7   8
ENDBRANCH   6   7
ENDBRANCH   5   6
ENDBRANCH   4   5
ENDBRANCH   3   4
ENDBRANCH   2   3
ENDBRANCH   1   2
BRANCH   1  18
ATOM     18  C   UNL     1      39.078  21.490 225.451  1.00  0.00     0.000 C 
BRANCH  18  19
ATOM     19  C   UNL     1      39.022  21.376 223.916  1.00  0.00     0.000 C 
BRANCH  19  20
ATOM     20  C   UNL     1      40.207  20.637 223.265  1.00  0.00     0.000 C 
BRANCH  20  21
ATOM     21  C   UNL     1      40.991  21.483 222.239  1.00  0.00     0.000 C 
BRANCH  21  22
ATOM     22  C   UNL     1      42.479  21.095 222.157  1.00  0.00     0.000 C 
BRANCH  22  23
ATOM     23  C   UNL     1      43.252  21.438 223.440  1.00  0.00     0.000 C 
BRANCH  23  24
ATOM     24  C   UNL     1      44.095  20.263 223.957  1.00  0.00    -0.000 C 
BRANCH  24  25
ATOM     25  C   UNL     1      43.375  19.533 225.101  1.00  0.00    -0.000 C 
BRANCH  25  26
ATOM     26  C   UNL     1      42.671  18.244 224.638  1.00  0.00    -0.000 C 
BRANCH  26  27
ATOM     27  C   UNL     1      42.335  17.243 225.762  1.00  0.00    -0.000 C 
BRANCH  27  28
ATOM     28  C   UNL     1      40.907  16.669 225.720  1.00  0.00    -0.000 C 
BRANCH  28  29
ATOM     29  C   UNL     1      39.862  17.577 225.045  1.00  0.00    -0.000 C 
BRANCH  29  30
ATOM     30  C   UNL     1      38.630  17.874 225.927  1.00  0.00    -0.000 C 
BRANCH  30  31
ATOM     31  C   UNL     1      37.397  18.269 225.101  1.00  0.00    -0.003 C 
ATOM     32  C   UNL     1      36.125  17.661 225.686  1.00  0.00     0.004 C 
ENDBRANCH  30  31
ENDBRANCH  29  30
ENDBRANCH  28  29
ENDBRANCH  27  28
ENDBRANCH  26  27
ENDBRANCH  25  26
ENDBRANCH  24  25
ENDBRANCH  23  24
ENDBRANCH  22  23
ENDBRANCH  21  22
ENDBRANCH  20  21
ENDBRANCH  19  20
ENDBRANCH  18  19
ENDBRANCH   1  18
TORSDOF 28
ENDMDL
