MODEL 1
REMARK VINA RESULT:    -5.860      0.000      0.000
REMARK INTER + INTRA:         -16.064
REMARK INTER:                 -12.711
REMARK INTRA:                  -3.353
REMARK UNBOUND:                -3.353
REMARK SMILES CCCCCCCCCCCCCCCCCCCCCC(=O)[O-]
REMARK SMILES IDX 12 1 11 2 10 3 9 4 8 5 7 6 6 7 5 8 4 9 3 10 2 11 1 12 13 13
REMARK SMILES IDX 14 14 15 15 16 16 17 17 18 18 19 19 20 20 21 21 22 22 23 23
REMARK SMILES IDX 24 24
REMARK H PARENT
REMARK Flexibility Score: inf
ROOT
ATOM      1  C   UNL     1       3.361   6.620   9.334  1.00  0.00     0.000 C 
ENDROOT
BRANCH   1   2
ATOM      2  C   UNL     1       2.768   7.340   8.110  1.00  0.00     0.000 C 
BRANCH   2   3
ATOM      3  C   UNL     1       1.980   8.606   8.489  1.00  0.00     0.000 C 
BRANCH   3   4
ATOM      4  C   UNL     1       2.341   9.138   9.889  1.00  0.00    -0.000 C 
BRANCH   4   5
ATOM      5  C   UNL     1       1.171   9.205  10.886  1.00  0.00    -0.000 C 
BRANCH   5   6
ATOM      6  C   UNL     1       1.570   8.767  12.306  1.00  0.00    -0.000 C 
BRANCH   6   7
ATOM      7  C   UNL     1       0.765   7.555  12.808  1.00  0.00    -0.000 C 
BRANCH   7   8
ATOM      8  C   UNL     1       0.902   6.275  11.958  1.00  0.00    -0.000 C 
BRANCH   8   9
ATOM      9  C   UNL     1      -0.419   5.734  11.376  1.00  0.00    -0.000 C 
BRANCH   9  10
ATOM     10  C   UNL     1      -0.282   4.986  10.036  1.00  0.00    -0.000 C 
BRANCH  10  11
ATOM     11  C   UNL     1      -0.591   5.832   8.789  1.00  0.00    -0.003 C 
ATOM     12  C   UNL     1      -1.364   7.110   9.113  1.00  0.00     0.004 C 
ENDBRANCH  10  11
ENDBRANCH   9  10
ENDBRANCH   8   9
ENDBRANCH   7   8
ENDBRANCH   6   7
ENDBRANCH   5   6
ENDBRANCH   4   5
ENDBRANCH   3   4
ENDBRANCH   2   3
ENDBRANCH   1   2
BRANCH   1  13
ATOM     13  C   UNL     1       3.515   5.107   9.112  1.00  0.00     0.000 C 
BRANCH  13  14
ATOM     14  C   UNL     1       3.513   4.763   7.616  1.00  0.00     0.000 C 
BRANCH  14  15
ATOM     15  C   UNL     1       4.944   4.527   7.109  1.00  0.00     0.000 C 
BRANCH  15  16
ATOM     16  C   UNL     1       5.879   3.971   8.194  1.00  0.00     0.000 C 
BRANCH  16  17
ATOM     17  C   UNL     1       7.302   4.549   8.108  1.00  0.00     0.000 C 
BRANCH  17  18
ATOM     18  C   UNL     1       7.307   6.086   8.059  1.00  0.00     0.000 C 
BRANCH  18  19
ATOM     19  C   UNL     1       8.455   6.640   7.196  1.00  0.00     0.000 C 
BRANCH  19  20
ATOM     20  C   UNL     1       7.981   7.700   6.189  1.00  0.00     0.006 C 
BRANCH  20  21
ATOM     21  C   UNL     1       6.473   7.972   6.285  1.00  0.00     0.053 C 
BRANCH  21  22
ATOM     22  C   UNL     1       5.753   7.305   5.157  1.00  0.00     0.041 C 
ATOM     23  O   UNL     1       4.505   7.431   5.041  1.00  0.00    -0.550 OA
ATOM     24  O   UNL     1       6.464   6.592   4.200  1.00  0.00    -0.550 OA
ENDBRANCH  21  22
ENDBRANCH  20  21
ENDBRANCH  19  20
ENDBRANCH  18  19
ENDBRANCH  17  18
ENDBRANCH  16  17
ENDBRANCH  15  16
ENDBRANCH  14  15
ENDBRANCH  13  14
ENDBRANCH   1  13
TORSDOF 20
ENDMDL
MODEL 2
REMARK VINA RESULT:    -5.754      2.880      6.072
REMARK INTER + INTRA:         -15.834
REMARK INTER:                 -12.751
REMARK INTRA:                  -3.084
REMARK UNBOUND:                -3.353
REMARK SMILES CCCCCCCCCCCCCCCCCCCCCC(=O)[O-]
REMARK SMILES IDX 12 1 11 2 10 3 9 4 8 5 7 6 6 7 5 8 4 9 3 10 2 11 1 12 13 13
REMARK SMILES IDX 14 14 15 15 16 16 17 17 18 18 19 19 20 20 21 21 22 22 23 23
REMARK SMILES IDX 24 24
REMARK H PARENT
REMARK Flexibility Score: inf
ROOT
ATOM      1  C   UNL     1       8.717   7.096   6.716  1.00  0.00     0.000 C 
ENDROOT
BRANCH   1   2
ATOM      2  C   UNL     1       7.716   6.587   7.768  1.00  0.00     0.000 C 
BRANCH   2   3
ATOM      3  C   UNL     1       8.143   5.248   8.395  1.00  0.00     0.000 C 
BRANCH   3   4
ATOM      4  C   UNL     1       7.057   4.162   8.282  1.00  0.00    -0.000 C 
BRANCH   4   5
ATOM      5  C   UNL     1       5.839   4.541   7.418  1.00  0.00    -0.000 C 
BRANCH   5   6
ATOM      6  C   UNL     1       4.539   4.644   8.233  1.00  0.00    -0.000 C 
BRANCH   6   7
ATOM      7  C   UNL     1       3.318   4.073   7.488  1.00  0.00    -0.000 C 
BRANCH   7   8
ATOM      8  C   UNL     1       2.091   3.766   8.371  1.00  0.00    -0.000 C 
BRANCH   8   9
ATOM      9  C   UNL     1       1.932   4.676   9.605  1.00  0.00    -0.000 C 
BRANCH   9  10
ATOM     10  C   UNL     1       0.500   5.188   9.855  1.00  0.00    -0.000 C 
BRANCH  10  11
ATOM     11  C   UNL     1      -0.081   6.060   8.728  1.00  0.00    -0.003 C 
ATOM     12  C   UNL     1      -1.375   6.768   9.129  1.00  0.00     0.004 C 
ENDBRANCH  10  11
ENDBRANCH   9  10
ENDBRANCH   8   9
ENDBRANCH   7   8
ENDBRANCH   6   7
ENDBRANCH   5   6
ENDBRANCH   4   5
ENDBRANCH   3   4
ENDBRANCH   2   3
ENDBRANCH   1   2
BRANCH   1  13
ATOM     13  C   UNL     1       8.048   7.953   5.630  1.00  0.00     0.000 C 
BRANCH  13  14
ATOM     14  C   UNL     1       6.605   8.308   6.015  1.00  0.00     0.000 C 
BRANCH  14  15
ATOM     15  C   UNL     1       5.604   7.612   5.080  1.00  0.00     0.000 C 
BRANCH  15  16
ATOM     16  C   UNL     1       4.243   7.356   5.746  1.00  0.00     0.000 C 
BRANCH  16  17
ATOM     17  C   UNL     1       4.038   8.192   7.020  1.00  0.00     0.000 C 
BRANCH  17  18
ATOM     18  C   UNL     1       2.623   8.033   7.603  1.00  0.00     0.000 C 
BRANCH  18  19
ATOM     19  C   UNL     1       2.344   9.034   8.739  1.00  0.00     0.000 C 
BRANCH  19  20
ATOM     20  C   UNL     1       2.358   8.371  10.127  1.00  0.00     0.006 C 
BRANCH  20  21
ATOM     21  C   UNL     1       1.389   9.043  11.110  1.00  0.00     0.053 C 
BRANCH  21  22
ATOM     22  C   UNL     1       1.450   8.366  12.443  1.00  0.00     0.041 C 
ATOM     23  O   UNL     1       2.046   8.915  13.405  1.00  0.00    -0.550 OA
ATOM     24  O   UNL     1       0.798   7.154  12.638  1.00  0.00    -0.550 OA
ENDBRANCH  21  22
ENDBRANCH  20  21
ENDBRANCH  19  20
ENDBRANCH  18  19
ENDBRANCH  17  18
ENDBRANCH  16  17
ENDBRANCH  15  16
ENDBRANCH  14  15
ENDBRANCH  13  14
ENDBRANCH   1  13
TORSDOF 20
ENDMDL
MODEL 3
REMARK VINA RESULT:    -5.725      1.798      7.213
REMARK INTER + INTRA:         -15.771
REMARK INTER:                 -12.765
REMARK INTRA:                  -3.006
REMARK UNBOUND:                -3.353
REMARK SMILES CCCCCCCCCCCCCCCCCCCCCC(=O)[O-]
REMARK SMILES IDX 12 1 11 2 10 3 9 4 8 5 7 6 6 7 5 8 4 9 3 10 2 11 1 12 13 13
REMARK SMILES IDX 14 14 15 15 16 16 17 17 18 18 19 19 20 20 21 21 22 22 23 23
REMARK SMILES IDX 24 24
REMARK H PARENT
REMARK Flexibility Score: inf
ROOT
ATOM      1  C   UNL     1       2.682   8.978   8.545  1.00  0.00     0.000 C 
ENDROOT
BRANCH   1   2
ATOM      2  C   UNL     1       3.893   8.068   8.816  1.00  0.00     0.000 C 
BRANCH   2   3
ATOM      3  C   UNL     1       5.197   8.616   8.210  1.00  0.00     0.000 C 
BRANCH   3   4
ATOM      4  C   UNL     1       5.030   9.076   6.749  1.00  0.00    -0.000 C 
BRANCH   4   5
ATOM      5  C   UNL     1       6.054   8.492   5.758  1.00  0.00    -0.000 C 
BRANCH   5   6
ATOM      6  C   UNL     1       5.491   7.315   4.943  1.00  0.00    -0.000 C 
BRANCH   6   7
ATOM      7  C   UNL     1       6.103   5.961   5.347  1.00  0.00    -0.000 C 
BRANCH   7   8
ATOM      8  C   UNL     1       5.323   5.180   6.424  1.00  0.00    -0.000 C 
BRANCH   8   9
ATOM      9  C   UNL     1       5.976   5.167   7.821  1.00  0.00    -0.000 C 
BRANCH   9  10
ATOM     10  C   UNL     1       7.406   4.594   7.865  1.00  0.00    -0.000 C 
BRANCH  10  11
ATOM     11  C   UNL     1       8.451   5.515   8.518  1.00  0.00    -0.003 C 
ATOM     12  C   UNL     1       8.811   6.719   7.649  1.00  0.00     0.004 C 
ENDBRANCH  10  11
ENDBRANCH   9  10
ENDBRANCH   8   9
ENDBRANCH   7   8
ENDBRANCH   6   7
ENDBRANCH   5   6
ENDBRANCH   4   5
ENDBRANCH   3   4
ENDBRANCH   2   3
ENDBRANCH   1   2
BRANCH   1  13
ATOM     13  C   UNL     1       1.572   8.812   9.594  1.00  0.00     0.000 C 
BRANCH  13  14
ATOM     14  C   UNL     1       1.978   9.439  10.935  1.00  0.00     0.000 C 
BRANCH  14  15
ATOM     15  C   UNL     1       1.312   8.701  12.106  1.00  0.00     0.000 C 
BRANCH  15  16
ATOM     16  C   UNL     1       1.253   7.179  11.897  1.00  0.00     0.000 C 
BRANCH  16  17
ATOM     17  C   UNL     1       0.000   6.542  12.522  1.00  0.00     0.000 C 
BRANCH  17  18
ATOM     18  C   UNL     1      -0.672   5.527  11.580  1.00  0.00     0.000 C 
BRANCH  18  19
ATOM     19  C   UNL     1      -1.262   6.196  10.326  1.00  0.00     0.000 C 
BRANCH  19  20
ATOM     20  C   UNL     1      -0.454   5.886   9.055  1.00  0.00     0.006 C 
BRANCH  20  21
ATOM     21  C   UNL     1       0.430   4.641   9.207  1.00  0.00     0.053 C 
BRANCH  21  22
ATOM     22  C   UNL     1       1.832   4.944   8.783  1.00  0.00     0.041 C 
ATOM     23  O   UNL     1       2.774   4.869   9.615  1.00  0.00    -0.550 OA
ATOM     24  O   UNL     1       2.107   5.254   7.457  1.00  0.00    -0.550 OA
ENDBRANCH  21  22
ENDBRANCH  20  21
ENDBRANCH  19  20
ENDBRANCH  18  19
ENDBRANCH  17  18
ENDBRANCH  16  17
ENDBRANCH  15  16
ENDBRANCH  14  15
ENDBRANCH  13  14
ENDBRANCH   1  13
TORSDOF 20
ENDMDL
MODEL 4
REMARK VINA RESULT:    -5.721      1.868      3.636
REMARK INTER + INTRA:         -15.764
REMARK INTER:                 -12.607
REMARK INTRA:                  -3.157
REMARK UNBOUND:                -3.353
REMARK SMILES CCCCCCCCCCCCCCCCCCCCCC(=O)[O-]
REMARK SMILES IDX 12 1 11 2 10 3 9 4 8 5 7 6 6 7 5 8 4 9 3 10 2 11 1 12 13 13
REMARK SMILES IDX 14 14 15 15 16 16 17 17 18 18 19 19 20 20 21 21 22 22 23 23
REMARK SMILES IDX 24 24
REMARK H PARENT
REMARK Flexibility Score: inf
ROOT
ATOM      1  C   UNL     1       2.979   5.115   9.269  1.00  0.00     0.000 C 
ENDROOT
BRANCH   1   2
ATOM      2  C   UNL     1       1.647   4.921   8.525  1.00  0.00     0.000 C 
BRANCH   2   3
ATOM      3  C   UNL     1       0.919   6.249   8.253  1.00  0.00     0.000 C 
BRANCH   3   4
ATOM      4  C   UNL     1      -0.496   6.289   8.860  1.00  0.00    -0.000 C 
BRANCH   4   5
ATOM      5  C   UNL     1      -0.814   5.159   9.857  1.00  0.00    -0.000 C 
BRANCH   5   6
ATOM      6  C   UNL     1      -0.905   5.654  11.311  1.00  0.00    -0.000 C 
BRANCH   6   7
ATOM      7  C   UNL     1       0.470   5.985  11.919  1.00  0.00    -0.000 C 
BRANCH   7   8
ATOM      8  C   UNL     1       0.455   7.030  13.053  1.00  0.00    -0.000 C 
BRANCH   8   9
ATOM      9  C   UNL     1       1.261   8.313  12.768  1.00  0.00    -0.000 C 
BRANCH   9  10
ATOM     10  C   UNL     1       1.077   8.898  11.354  1.00  0.00    -0.000 C 
BRANCH  10  11
ATOM     11  C   UNL     1       2.352   8.921  10.493  1.00  0.00    -0.003 C 
ATOM     12  C   UNL     1       2.164   9.661   9.169  1.00  0.00     0.004 C 
ENDBRANCH  10  11
ENDBRANCH   9  10
ENDBRANCH   8   9
ENDBRANCH   7   8
ENDBRANCH   6   7
ENDBRANCH   5   6
ENDBRANCH   4   5
ENDBRANCH   3   4
ENDBRANCH   2   3
ENDBRANCH   1   2
BRANCH   1  13
ATOM     13  C   UNL     1       3.896   6.140   8.584  1.00  0.00     0.000 C 
BRANCH  13  14
ATOM     14  C   UNL     1       4.355   5.640   7.207  1.00  0.00     0.000 C 
BRANCH  14  15
ATOM     15  C   UNL     1       4.199   6.742   6.147  1.00  0.00     0.000 C 
BRANCH  15  16
ATOM     16  C   UNL     1       4.189   8.155   6.751  1.00  0.00     0.000 C 
BRANCH  16  17
ATOM     17  C   UNL     1       5.556   8.853   6.655  1.00  0.00     0.000 C 
BRANCH  17  18
ATOM     18  C   UNL     1       6.390   8.346   5.466  1.00  0.00     0.000 C 
BRANCH  18  19
ATOM     19  C   UNL     1       7.708   7.690   5.913  1.00  0.00     0.000 C 
BRANCH  19  20
ATOM     20  C   UNL     1       7.700   7.300   7.401  1.00  0.00     0.006 C 
BRANCH  20  21
ATOM     21  C   UNL     1       8.859   6.366   7.772  1.00  0.00     0.053 C 
BRANCH  21  22
ATOM     22  C   UNL     1       8.339   5.137   8.449  1.00  0.00     0.041 C 
ATOM     23  O   UNL     1       8.627   4.910   9.654  1.00  0.00    -0.550 OA
ATOM     24  O   UNL     1       7.491   4.273   7.769  1.00  0.00    -0.550 OA
ENDBRANCH  21  22
ENDBRANCH  20  21
ENDBRANCH  19  20
ENDBRANCH  18  19
ENDBRANCH  17  18
ENDBRANCH  16  17
ENDBRANCH  15  16
ENDBRANCH  14  15
ENDBRANCH  13  14
ENDBRANCH   1  13
TORSDOF 20
ENDMDL
MODEL 5
REMARK VINA RESULT:    -5.720      1.019      2.671
REMARK INTER + INTRA:         -15.762
REMARK INTER:                 -12.877
REMARK INTRA:                  -2.884
REMARK UNBOUND:                -3.353
REMARK SMILES CCCCCCCCCCCCCCCCCCCCCC(=O)[O-]
REMARK SMILES IDX 12 1 11 2 10 3 9 4 8 5 7 6 6 7 5 8 4 9 3 10 2 11 1 12 13 13
REMARK SMILES IDX 14 14 15 15 16 16 17 17 18 18 19 19 20 20 21 21 22 22 23 23
REMARK SMILES IDX 24 24
REMARK H PARENT
REMARK Flexibility Score: inf
ROOT
ATOM      1  C   UNL     1       2.938   5.073   9.440  1.00  0.00     0.000 C 
ENDROOT
BRANCH   1   2
ATOM      2  C   UNL     1       1.608   4.727   8.750  1.00  0.00     0.000 C 
BRANCH   2   3
ATOM      3  C   UNL     1       0.845   5.974   8.268  1.00  0.00     0.000 C 
BRANCH   3   4
ATOM      4  C   UNL     1      -0.487   6.183   9.013  1.00  0.00    -0.000 C 
BRANCH   4   5
ATOM      5  C   UNL     1      -0.897   5.038   9.957  1.00  0.00    -0.000 C 
BRANCH   5   6
ATOM      6  C   UNL     1      -1.024   5.489  11.422  1.00  0.00    -0.000 C 
BRANCH   6   7
ATOM      7  C   UNL     1       0.333   5.834  12.063  1.00  0.00    -0.000 C 
BRANCH   7   8
ATOM      8  C   UNL     1       0.306   6.991  13.082  1.00  0.00    -0.000 C 
BRANCH   8   9
ATOM      9  C   UNL     1       1.192   8.200  12.720  1.00  0.00    -0.000 C 
BRANCH   9  10
ATOM     10  C   UNL     1       1.893   8.107  11.351  1.00  0.00    -0.000 C 
BRANCH  10  11
ATOM     11  C   UNL     1       1.601   9.277  10.395  1.00  0.00    -0.003 C 
ATOM     12  C   UNL     1       2.440   9.227   9.118  1.00  0.00     0.004 C 
ENDBRANCH  10  11
ENDBRANCH   9  10
ENDBRANCH   8   9
ENDBRANCH   7   8
ENDBRANCH   6   7
ENDBRANCH   5   6
ENDBRANCH   4   5
ENDBRANCH   3   4
ENDBRANCH   2   3
ENDBRANCH   1   2
BRANCH   1  13
ATOM     13  C   UNL     1       3.898   5.844   8.522  1.00  0.00     0.000 C 
BRANCH  13  14
ATOM     14  C   UNL     1       4.428   4.946   7.395  1.00  0.00     0.000 C 
BRANCH  14  15
ATOM     15  C   UNL     1       5.356   3.857   7.956  1.00  0.00     0.000 C 
BRANCH  15  16
ATOM     16  C   UNL     1       6.834   4.097   7.615  1.00  0.00     0.000 C 
BRANCH  16  17
ATOM     17  C   UNL     1       7.557   4.952   8.670  1.00  0.00     0.000 C 
BRANCH  17  18
ATOM     18  C   UNL     1       8.899   5.503   8.158  1.00  0.00     0.000 C 
BRANCH  18  19
ATOM     19  C   UNL     1       8.765   6.922   7.577  1.00  0.00     0.000 C 
BRANCH  19  20
ATOM     20  C   UNL     1       7.315   7.273   7.202  1.00  0.00     0.006 C 
BRANCH  20  21
ATOM     21  C   UNL     1       7.106   7.372   5.685  1.00  0.00     0.053 C 
BRANCH  21  22
ATOM     22  C   UNL     1       5.706   7.804   5.382  1.00  0.00     0.041 C 
ATOM     23  O   UNL     1       5.157   7.456   4.304  1.00  0.00    -0.550 OA
ATOM     24  O   UNL     1       4.988   8.543   6.313  1.00  0.00    -0.550 OA
ENDBRANCH  21  22
ENDBRANCH  20  21
ENDBRANCH  19  20
ENDBRANCH  18  19
ENDBRANCH  17  18
ENDBRANCH  16  17
ENDBRANCH  15  16
ENDBRANCH  14  15
ENDBRANCH  13  14
ENDBRANCH   1  13
TORSDOF 20
ENDMDL
MODEL 6
REMARK VINA RESULT:    -5.710      1.895      3.749
REMARK INTER + INTRA:         -15.740
REMARK INTER:                 -12.741
REMARK INTRA:                  -2.999
REMARK UNBOUND:                -3.353
REMARK SMILES CCCCCCCCCCCCCCCCCCCCCC(=O)[O-]
REMARK SMILES IDX 12 1 11 2 10 3 9 4 8 5 7 6 6 7 5 8 4 9 3 10 2 11 1 12 13 13
REMARK SMILES IDX 14 14 15 15 16 16 17 17 18 18 19 19 20 20 21 21 22 22 23 23
REMARK SMILES IDX 24 24
REMARK H PARENT
REMARK Flexibility Score: inf
ROOT
ATOM      1  C   UNL     1       2.665   8.971   9.387  1.00  0.00     0.000 C 
ENDROOT
BRANCH   1   2
ATOM      2  C   UNL     1       1.381   8.964  10.233  1.00  0.00     0.000 C 
BRANCH   2   3
ATOM      3  C   UNL     1       1.665   9.009  11.745  1.00  0.00     0.000 C 
BRANCH   3   4
ATOM      4  C   UNL     1       0.882   7.940  12.532  1.00  0.00    -0.000 C 
BRANCH   4   5
ATOM      5  C   UNL     1       0.901   6.529  11.917  1.00  0.00    -0.000 C 
BRANCH   5   6
ATOM      6  C   UNL     1      -0.455   5.811  12.027  1.00  0.00    -0.000 C 
BRANCH   6   7
ATOM      7  C   UNL     1      -1.216   5.759  10.689  1.00  0.00    -0.000 C 
BRANCH   7   8
ATOM      8  C   UNL     1      -0.420   5.181   9.501  1.00  0.00    -0.000 C 
BRANCH   8   9
ATOM      9  C   UNL     1      -0.082   6.193   8.388  1.00  0.00    -0.000 C 
BRANCH   9  10
ATOM     10  C   UNL     1       1.299   6.002   7.732  1.00  0.00    -0.000 C 
BRANCH  10  11
ATOM     11  C   UNL     1       2.125   4.831   8.293  1.00  0.00    -0.003 C 
ATOM     12  C   UNL     1       3.244   5.286   9.229  1.00  0.00     0.004 C 
ENDBRANCH  10  11
ENDBRANCH   9  10
ENDBRANCH   8   9
ENDBRANCH   7   8
ENDBRANCH   6   7
ENDBRANCH   5   6
ENDBRANCH   4   5
ENDBRANCH   3   4
ENDBRANCH   2   3
ENDBRANCH   1   2
BRANCH   1  13
ATOM     13  C   UNL     1       2.549   9.867   8.144  1.00  0.00     0.000 C 
BRANCH  13  14
ATOM     14  C   UNL     1       3.779   9.721   7.239  1.00  0.00     0.000 C 
BRANCH  14  15
ATOM     15  C   UNL     1       4.416   8.332   7.402  1.00  0.00     0.000 C 
BRANCH  15  16
ATOM     16  C   UNL     1       4.286   7.463   6.142  1.00  0.00     0.000 C 
BRANCH  16  17
ATOM     17  C   UNL     1       5.549   6.632   5.859  1.00  0.00     0.000 C 
BRANCH  17  18
ATOM     18  C   UNL     1       6.590   7.410   5.037  1.00  0.00     0.000 C 
BRANCH  18  19
ATOM     19  C   UNL     1       7.853   7.739   5.853  1.00  0.00     0.000 C 
BRANCH  19  20
ATOM     20  C   UNL     1       7.754   7.264   7.313  1.00  0.00     0.006 C 
BRANCH  20  21
ATOM     21  C   UNL     1       8.869   6.278   7.688  1.00  0.00     0.053 C 
BRANCH  21  22
ATOM     22  C   UNL     1       8.295   5.090   8.394  1.00  0.00     0.041 C 
ATOM     23  O   UNL     1       8.680   4.798   9.556  1.00  0.00    -0.550 OA
ATOM     24  O   UNL     1       7.293   4.339   7.791  1.00  0.00    -0.550 OA
ENDBRANCH  21  22
ENDBRANCH  20  21
ENDBRANCH  19  20
ENDBRANCH  18  19
ENDBRANCH  17  18
ENDBRANCH  16  17
ENDBRANCH  15  16
ENDBRANCH  14  15
ENDBRANCH  13  14
ENDBRANCH   1  13
TORSDOF 20
ENDMDL
MODEL 7
REMARK VINA RESULT:    -5.694      1.330      1.904
REMARK INTER + INTRA:         -15.704
REMARK INTER:                 -12.837
REMARK INTRA:                  -2.867
REMARK UNBOUND:                -3.353
REMARK SMILES CCCCCCCCCCCCCCCCCCCCCC(=O)[O-]
REMARK SMILES IDX 12 1 11 2 10 3 9 4 8 5 7 6 6 7 5 8 4 9 3 10 2 11 1 12 13 13
REMARK SMILES IDX 14 14 15 15 16 16 17 17 18 18 19 19 20 20 21 21 22 22 23 23
REMARK SMILES IDX 24 24
REMARK H PARENT
REMARK Flexibility Score: inf
ROOT
ATOM      1  C   UNL     1       2.928   7.712   6.504  1.00  0.00     0.000 C 
ENDROOT
BRANCH   1   2
ATOM      2  C   UNL     1       3.293   8.849   7.474  1.00  0.00     0.000 C 
BRANCH   2   3
ATOM      3  C   UNL     1       3.063   8.470   8.948  1.00  0.00     0.000 C 
BRANCH   3   4
ATOM      4  C   UNL     1       2.348   9.577   9.745  1.00  0.00    -0.000 C 
BRANCH   4   5
ATOM      5  C   UNL     1       1.194   9.097  10.643  1.00  0.00    -0.000 C 
BRANCH   5   6
ATOM      6  C   UNL     1       1.615   8.918  12.112  1.00  0.00    -0.000 C 
BRANCH   6   7
ATOM      7  C   UNL     1       0.882   7.756  12.808  1.00  0.00    -0.000 C 
BRANCH   7   8
ATOM      8  C   UNL     1       0.785   6.453  11.988  1.00  0.00    -0.000 C 
BRANCH   8   9
ATOM      9  C   UNL     1      -0.568   5.719  12.087  1.00  0.00    -0.000 C 
BRANCH   9  10
ATOM     10  C   UNL     1      -1.092   5.139  10.760  1.00  0.00    -0.000 C 
BRANCH  10  11
ATOM     11  C   UNL     1      -0.506   5.788   9.494  1.00  0.00    -0.003 C 
ATOM     12  C   UNL     1      -1.340   6.965   8.988  1.00  0.00     0.004 C 
ENDBRANCH  10  11
ENDBRANCH   9  10
ENDBRANCH   8   9
ENDBRANCH   7   8
ENDBRANCH   6   7
ENDBRANCH   5   6
ENDBRANCH   4   5
ENDBRANCH   3   4
ENDBRANCH   2   3
ENDBRANCH   1   2
BRANCH   1  13
ATOM     13  C   UNL     1       1.985   6.676   7.134  1.00  0.00     0.000 C 
BRANCH  13  14
ATOM     14  C   UNL     1       2.356   5.252   6.701  1.00  0.00     0.000 C 
BRANCH  14  15
ATOM     15  C   UNL     1       2.713   4.386   7.919  1.00  0.00     0.000 C 
BRANCH  15  16
ATOM     16  C   UNL     1       4.062   4.766   8.548  1.00  0.00     0.000 C 
BRANCH  16  17
ATOM     17  C   UNL     1       5.229   3.920   8.008  1.00  0.00     0.000 C 
BRANCH  17  18
ATOM     18  C   UNL     1       6.448   4.779   7.630  1.00  0.00     0.000 C 
BRANCH  18  19
ATOM     19  C   UNL     1       6.045   6.094   6.940  1.00  0.00     0.000 C 
BRANCH  19  20
ATOM     20  C   UNL     1       7.008   7.250   7.260  1.00  0.00     0.006 C 
BRANCH  20  21
ATOM     21  C   UNL     1       7.990   7.532   6.114  1.00  0.00     0.053 C 
BRANCH  21  22
ATOM     22  C   UNL     1       7.562   8.746   5.352  1.00  0.00     0.041 C 
ATOM     23  O   UNL     1       8.413   9.605   5.002  1.00  0.00    -0.550 OA
ATOM     24  O   UNL     1       6.234   8.901   4.977  1.00  0.00    -0.550 OA
ENDBRANCH  21  22
ENDBRANCH  20  21
ENDBRANCH  19  20
ENDBRANCH  18  19
ENDBRANCH  17  18
ENDBRANCH  16  17
ENDBRANCH  15  16
ENDBRANCH  14  15
ENDBRANCH  13  14
ENDBRANCH   1  13
TORSDOF 20
ENDMDL
MODEL 8
REMARK VINA RESULT:    -5.690      2.324      7.383
REMARK INTER + INTRA:         -15.696
REMARK INTER:                 -12.651
REMARK INTRA:                  -3.045
REMARK UNBOUND:                -3.353
REMARK SMILES CCCCCCCCCCCCCCCCCCCCCC(=O)[O-]
REMARK SMILES IDX 12 1 11 2 10 3 9 4 8 5 7 6 6 7 5 8 4 9 3 10 2 11 1 12 13 13
REMARK SMILES IDX 14 14 15 15 16 16 17 17 18 18 19 19 20 20 21 21 22 22 23 23
REMARK SMILES IDX 24 24
REMARK H PARENT
REMARK Flexibility Score: inf
ROOT
ATOM      1  C   UNL     1       3.263   6.309   7.880  1.00  0.00     0.000 C 
ENDROOT
BRANCH   1   2
ATOM      2  C   UNL     1       2.875   4.826   7.756  1.00  0.00     0.000 C 
BRANCH   2   3
ATOM      3  C   UNL     1       4.096   3.905   7.582  1.00  0.00     0.000 C 
BRANCH   3   4
ATOM      4  C   UNL     1       5.423   4.681   7.496  1.00  0.00    -0.000 C 
BRANCH   4   5
ATOM      5  C   UNL     1       6.605   4.044   8.248  1.00  0.00    -0.000 C 
BRANCH   5   6
ATOM      6  C   UNL     1       7.819   4.983   8.357  1.00  0.00    -0.000 C 
BRANCH   6   7
ATOM      7  C   UNL     1       7.492   6.434   7.959  1.00  0.00    -0.000 C 
BRANCH   7   8
ATOM      8  C   UNL     1       8.523   7.112   7.035  1.00  0.00    -0.000 C 
BRANCH   8   9
ATOM      9  C   UNL     1       7.923   7.879   5.839  1.00  0.00    -0.000 C 
BRANCH   9  10
ATOM     10  C   UNL     1       6.449   8.296   6.008  1.00  0.00    -0.000 C 
BRANCH  10  11
ATOM     11  C   UNL     1       5.464   7.584   5.064  1.00  0.00    -0.003 C 
ATOM     12  C   UNL     1       6.104   6.429   4.296  1.00  0.00     0.004 C 
ENDBRANCH  10  11
ENDBRANCH   9  10
ENDBRANCH   8   9
ENDBRANCH   7   8
ENDBRANCH   6   7
ENDBRANCH   5   6
ENDBRANCH   4   5
ENDBRANCH   3   4
ENDBRANCH   2   3
ENDBRANCH   1   2
BRANCH   1  13
ATOM     13  C   UNL     1       2.439   7.216   6.954  1.00  0.00     0.000 C 
BRANCH  13  14
ATOM     14  C   UNL     1       2.366   8.648   7.500  1.00  0.00     0.000 C 
BRANCH  14  15
ATOM     15  C   UNL     1       2.870   8.705   8.950  1.00  0.00     0.000 C 
BRANCH  15  16
ATOM     16  C   UNL     1       2.253   9.861   9.753  1.00  0.00     0.000 C 
BRANCH  16  17
ATOM     17  C   UNL     1       1.509   9.382  11.010  1.00  0.00     0.000 C 
BRANCH  17  18
ATOM     18  C   UNL     1       1.789   7.904  11.329  1.00  0.00     0.000 C 
BRANCH  18  19
ATOM     19  C   UNL     1       0.812   7.336  12.374  1.00  0.00     0.000 C 
BRANCH  19  20
ATOM     20  C   UNL     1       0.142   6.032  11.911  1.00  0.00     0.006 C 
BRANCH  20  21
ATOM     21  C   UNL     1       0.721   5.509  10.590  1.00  0.00     0.053 C 
BRANCH  21  22
ATOM     22  C   UNL     1      -0.345   5.454   9.541  1.00  0.00     0.041 C 
ATOM     23  O   UNL     1      -1.059   4.424   9.419  1.00  0.00    -0.550 OA
ATOM     24  O   UNL     1      -0.589   6.560   8.737  1.00  0.00    -0.550 OA
ENDBRANCH  21  22
ENDBRANCH  20  21
ENDBRANCH  19  20
ENDBRANCH  18  19
ENDBRANCH  17  18
ENDBRANCH  16  17
ENDBRANCH  15  16
ENDBRANCH  14  15
ENDBRANCH  13  14
ENDBRANCH   1  13
TORSDOF 20
ENDMDL
MODEL 9
REMARK VINA RESULT:    -5.628      2.662      7.158
REMARK INTER + INTRA:         -15.561
REMARK INTER:                 -12.469
REMARK INTRA:                  -3.092
REMARK UNBOUND:                -3.353
REMARK SMILES CCCCCCCCCCCCCCCCCCCCCC(=O)[O-]
REMARK SMILES IDX 12 1 11 2 10 3 9 4 8 5 7 6 6 7 5 8 4 9 3 10 2 11 1 12 13 13
REMARK SMILES IDX 14 14 15 15 16 16 17 17 18 18 19 19 20 20 21 21 22 22 23 23
REMARK SMILES IDX 24 24
REMARK H PARENT
REMARK Flexibility Score: inf
ROOT
ATOM      1  C   UNL     1       5.797   4.002   7.940  1.00  0.00     0.000 C 
ENDROOT
BRANCH   1   2
ATOM      2  C   UNL     1       6.556   5.271   8.364  1.00  0.00     0.000 C 
BRANCH   2   3
ATOM      3  C   UNL     1       8.084   5.084   8.343  1.00  0.00     0.000 C 
BRANCH   3   4
ATOM      4  C   UNL     1       8.812   6.206   7.580  1.00  0.00    -0.000 C 
BRANCH   4   5
ATOM      5  C   UNL     1       7.986   7.484   7.347  1.00  0.00    -0.000 C 
BRANCH   5   6
ATOM      6  C   UNL     1       7.854   7.847   5.858  1.00  0.00    -0.000 C 
BRANCH   6   7
ATOM      7  C   UNL     1       6.483   8.455   5.509  1.00  0.00    -0.000 C 
BRANCH   7   8
ATOM      8  C   UNL     1       5.314   7.451   5.441  1.00  0.00    -0.000 C 
BRANCH   8   9
ATOM      9  C   UNL     1       4.140   7.752   6.394  1.00  0.00    -0.000 C 
BRANCH   9  10
ATOM     10  C   UNL     1       4.549   8.234   7.799  1.00  0.00    -0.000 C 
BRANCH  10  11
ATOM     11  C   UNL     1       3.400   8.808   8.646  1.00  0.00    -0.003 C 
ATOM     12  C   UNL     1       2.404   9.625   7.822  1.00  0.00     0.004 C 
ENDBRANCH  10  11
ENDBRANCH   9  10
ENDBRANCH   8   9
ENDBRANCH   7   8
ENDBRANCH   6   7
ENDBRANCH   5   6
ENDBRANCH   4   5
ENDBRANCH   3   4
ENDBRANCH   2   3
ENDBRANCH   1   2
BRANCH   1  13
ATOM     13  C   UNL     1       4.338   4.288   7.551  1.00  0.00     0.000 C 
BRANCH  13  14
ATOM     14  C   UNL     1       3.529   4.779   8.759  1.00  0.00     0.000 C 
BRANCH  14  15
ATOM     15  C   UNL     1       2.022   4.602   8.516  1.00  0.00     0.000 C 
BRANCH  15  16
ATOM     16  C   UNL     1       1.378   5.824   7.843  1.00  0.00     0.000 C 
BRANCH  16  17
ATOM     17  C   UNL     1       0.216   6.411   8.663  1.00  0.00     0.000 C 
BRANCH  17  18
ATOM     18  C   UNL     1      -0.488   5.349   9.524  1.00  0.00     0.000 C 
BRANCH  18  19
ATOM     19  C   UNL     1      -0.616   5.782  10.996  1.00  0.00     0.000 C 
BRANCH  19  20
ATOM     20  C   UNL     1       0.732   6.196  11.611  1.00  0.00     0.006 C 
BRANCH  20  21
ATOM     21  C   UNL     1       0.566   7.097  12.842  1.00  0.00     0.053 C 
BRANCH  21  22
ATOM     22  C   UNL     1       1.309   8.382  12.648  1.00  0.00     0.041 C 
ATOM     23  O   UNL     1       2.143   8.765  13.509  1.00  0.00    -0.550 OA
ATOM     24  O   UNL     1       1.122   9.126  11.490  1.00  0.00    -0.550 OA
ENDBRANCH  21  22
ENDBRANCH  20  21
ENDBRANCH  19  20
ENDBRANCH  18  19
ENDBRANCH  17  18
ENDBRANCH  16  17
ENDBRANCH  15  16
ENDBRANCH  14  15
ENDBRANCH  13  14
ENDBRANCH   1  13
TORSDOF 20
ENDMDL
