MODEL 1
REMARK VINA RESULT:    -4.400      0.000      0.000
REMARK INTER + INTRA:          -5.130
REMARK INTER:                  -4.914
REMARK INTRA:                  -0.216
REMARK UNBOUND:                -0.216
REMARK SMILES O=C([O-])c1ccccc1C(=O)[O-]
REMARK SMILES IDX 4 1 9 2 5 3 8 4 6 5 7 6 2 7 1 8 3 9 10 10 11 11 12 12
REMARK H PARENT
REMARK Flexibility Score: inf
ROOT
ATOM      1  C   UNL     1      -4.334  14.282  10.394  1.00  0.00     0.006 A 
ATOM      2  C   UNL     1      -5.230  13.418   9.706  1.00  0.00     0.006 A 
ATOM      3  C   UNL     1      -4.852  15.378  11.109  1.00  0.00     0.010 A 
ATOM      4  C   UNL     1      -6.615  13.644   9.813  1.00  0.00     0.010 A 
ATOM      5  C   UNL     1      -6.229  15.595  11.183  1.00  0.00     0.001 A 
ATOM      6  C   UNL     1      -7.108  14.724  10.546  1.00  0.00     0.001 A 
ENDROOT
BRANCH   1   7
ATOM      7  C   UNL     1      -2.874  14.039  10.452  1.00  0.00     0.072 C 
ATOM      8  O   UNL     1      -2.390  13.291  11.344  1.00  0.00    -0.545 OA
ATOM      9  O   UNL     1      -2.026  14.576   9.490  1.00  0.00    -0.545 OA
ENDBRANCH   1   7
BRANCH   2  10
ATOM     10  C   UNL     1      -4.774  12.323   8.819  1.00  0.00     0.072 C 
ATOM     11  O   UNL     1      -4.752  12.474   7.569  1.00  0.00    -0.545 OA
ATOM     12  O   UNL     1      -4.427  11.089   9.356  1.00  0.00    -0.545 OA
ENDBRANCH   2  10
TORSDOF 2
ENDMDL
MODEL 2
REMARK VINA RESULT:    -4.395      0.091      3.001
REMARK INTER + INTRA:          -5.125
REMARK INTER:                  -4.905
REMARK INTRA:                  -0.219
REMARK UNBOUND:                -0.216
REMARK SMILES O=C([O-])c1ccccc1C(=O)[O-]
REMARK SMILES IDX 4 1 9 2 5 3 8 4 6 5 7 6 2 7 1 8 3 9 10 10 11 11 12 12
REMARK H PARENT
REMARK Flexibility Score: inf
ROOT
ATOM      1  C   UNL     1      -5.204  13.414   9.657  1.00  0.00     0.006 A 
ATOM      2  C   UNL     1      -4.294  14.265  10.343  1.00  0.00     0.006 A 
ATOM      3  C   UNL     1      -6.586  13.643   9.786  1.00  0.00     0.010 A 
ATOM      4  C   UNL     1      -4.798  15.353  11.080  1.00  0.00     0.010 A 
ATOM      5  C   UNL     1      -7.064  14.715  10.541  1.00  0.00     0.001 A 
ATOM      6  C   UNL     1      -6.172  15.574  11.176  1.00  0.00     0.001 A 
ENDROOT
BRANCH   1   7
ATOM      7  C   UNL     1      -4.758  12.333   8.748  1.00  0.00     0.072 C 
ATOM      8  O   UNL     1      -4.673  12.542   7.507  1.00  0.00    -0.545 OA
ATOM      9  O   UNL     1      -4.367  11.098   9.251  1.00  0.00    -0.545 OA
ENDBRANCH   1   7
BRANCH   2  10
ATOM     10  C   UNL     1      -2.833  14.022  10.378  1.00  0.00     0.072 C 
ATOM     11  O   UNL     1      -2.070  14.563   9.535  1.00  0.00    -0.545 OA
ATOM     12  O   UNL     1      -2.295  13.137  11.305  1.00  0.00    -0.545 OA
ENDBRANCH   2  10
TORSDOF 2
ENDMDL
MODEL 3
REMARK VINA RESULT:    -4.391     14.150     15.847
REMARK INTER + INTRA:          -5.120
REMARK INTER:                  -5.051
REMARK INTRA:                  -0.069
REMARK UNBOUND:                -0.216
REMARK SMILES O=C([O-])c1ccccc1C(=O)[O-]
REMARK SMILES IDX 4 1 9 2 5 3 8 4 6 5 7 6 2 7 1 8 3 9 10 10 11 11 12 12
REMARK H PARENT
REMARK Flexibility Score: inf
ROOT
ATOM      1  C   UNL     1      -1.237   0.186   2.164  1.00  0.00     0.006 A 
ATOM      2  C   UNL     1      -0.734   1.496   2.398  1.00  0.00     0.006 A 
ATOM      3  C   UNL     1      -2.622  -0.041   2.254  1.00  0.00     0.010 A 
ATOM      4  C   UNL     1      -1.641   2.542   2.650  1.00  0.00     0.010 A 
ATOM      5  C   UNL     1      -3.502   1.007   2.527  1.00  0.00     0.001 A 
ATOM      6  C   UNL     1      -3.013   2.298   2.712  1.00  0.00     0.001 A 
ENDROOT
BRANCH   1   7
ATOM      7  C   UNL     1      -0.369  -0.943   1.755  1.00  0.00     0.072 C 
ATOM      8  O   UNL     1      -0.429  -2.043   2.368  1.00  0.00    -0.545 OA
ATOM      9  O   UNL     1       0.472  -0.829   0.655  1.00  0.00    -0.545 OA
ENDBRANCH   1   7
BRANCH   2  10
ATOM     10  C   UNL     1       0.714   1.805   2.460  1.00  0.00     0.072 C 
ATOM     11  O   UNL     1       1.370   1.608   3.516  1.00  0.00    -0.545 OA
ATOM     12  O   UNL     1       1.351   2.381   1.367  1.00  0.00    -0.545 OA
ENDBRANCH   2  10
TORSDOF 2
ENDMDL
MODEL 4
REMARK VINA RESULT:    -4.319     14.101     15.575
REMARK INTER + INTRA:          -5.040
REMARK INTER:                  -4.985
REMARK INTRA:                  -0.056
REMARK UNBOUND:                -0.216
REMARK SMILES O=C([O-])c1ccccc1C(=O)[O-]
REMARK SMILES IDX 4 1 9 2 5 3 8 4 6 5 7 6 2 7 1 8 3 9 10 10 11 11 12 12
REMARK H PARENT
REMARK Flexibility Score: inf
ROOT
ATOM      1  C   UNL     1      -0.777   1.574   2.343  1.00  0.00     0.006 A 
ATOM      2  C   UNL     1      -1.270   0.260   2.111  1.00  0.00     0.006 A 
ATOM      3  C   UNL     1      -1.689   2.606   2.628  1.00  0.00     0.010 A 
ATOM      4  C   UNL     1      -2.650   0.015   2.237  1.00  0.00     0.010 A 
ATOM      5  C   UNL     1      -3.056   2.345   2.726  1.00  0.00     0.001 A 
ATOM      6  C   UNL     1      -3.534   1.050   2.543  1.00  0.00     0.001 A 
ENDROOT
BRANCH   1   7
ATOM      7  C   UNL     1       0.669   1.893   2.369  1.00  0.00     0.072 C 
ATOM      8  O   UNL     1       1.221   2.416   1.364  1.00  0.00    -0.545 OA
ATOM      9  O   UNL     1       1.422   1.682   3.518  1.00  0.00    -0.545 OA
ENDBRANCH   1   7
BRANCH   2  10
ATOM     10  C   UNL     1      -0.405  -0.860   1.671  1.00  0.00     0.072 C 
ATOM     11  O   UNL     1       0.299  -0.761   0.632  1.00  0.00    -0.545 OA
ATOM     12  O   UNL     1      -0.414  -2.063   2.368  1.00  0.00    -0.545 OA
ENDBRANCH   2  10
TORSDOF 2
ENDMDL
MODEL 5
REMARK VINA RESULT:    -4.043     12.437     14.562
REMARK INTER + INTRA:          -4.731
REMARK INTER:                  -4.522
REMARK INTRA:                  -0.210
REMARK UNBOUND:                -0.216
REMARK SMILES O=C([O-])c1ccccc1C(=O)[O-]
REMARK SMILES IDX 4 1 9 2 5 3 8 4 6 5 7 6 2 7 1 8 3 9 10 10 11 11 12 12
REMARK H PARENT
REMARK Flexibility Score: inf
ROOT
ATOM      1  C   UNL     1      -1.829   2.357   2.631  1.00  0.00     0.006 A 
ATOM      2  C   UNL     1      -0.614   1.623   2.544  1.00  0.00     0.006 A 
ATOM      3  C   UNL     1      -3.053   1.668   2.540  1.00  0.00     0.010 A 
ATOM      4  C   UNL     1      -0.668   0.221   2.435  1.00  0.00     0.010 A 
ATOM      5  C   UNL     1      -3.082   0.279   2.410  1.00  0.00     0.001 A 
ATOM      6  C   UNL     1      -1.893  -0.443   2.369  1.00  0.00     0.001 A 
ENDROOT
BRANCH   1   7
ATOM      7  C   UNL     1      -1.867   3.816   2.887  1.00  0.00     0.072 C 
ATOM      8  O   UNL     1      -2.139   4.617   1.952  1.00  0.00    -0.545 OA
ATOM      9  O   UNL     1      -1.669   4.317   4.168  1.00  0.00    -0.545 OA
ENDBRANCH   1   7
BRANCH   2  10
ATOM     10  C   UNL     1       0.717   2.271   2.493  1.00  0.00     0.072 C 
ATOM     11  O   UNL     1       1.167   2.735   1.412  1.00  0.00    -0.545 OA
ATOM     12  O   UNL     1       1.516   2.314   3.630  1.00  0.00    -0.545 OA
ENDBRANCH   2  10
TORSDOF 2
ENDMDL
MODEL 6
REMARK VINA RESULT:    -4.026     12.422     14.498
REMARK INTER + INTRA:          -4.713
REMARK INTER:                  -4.509
REMARK INTRA:                  -0.204
REMARK UNBOUND:                -0.216
REMARK SMILES O=C([O-])c1ccccc1C(=O)[O-]
REMARK SMILES IDX 4 1 9 2 5 3 8 4 6 5 7 6 2 7 1 8 3 9 10 10 11 11 12 12
REMARK H PARENT
REMARK Flexibility Score: inf
ROOT
ATOM      1  C   UNL     1      -0.634   1.631   2.538  1.00  0.00     0.006 A 
ATOM      2  C   UNL     1      -1.862   2.340   2.643  1.00  0.00     0.006 A 
ATOM      3  C   UNL     1      -0.662   0.230   2.411  1.00  0.00     0.010 A 
ATOM      4  C   UNL     1      -3.073   1.629   2.552  1.00  0.00     0.010 A 
ATOM      5  C   UNL     1      -1.875  -0.457   2.346  1.00  0.00     0.001 A 
ATOM      6  C   UNL     1      -3.077   0.242   2.404  1.00  0.00     0.001 A 
ENDROOT
BRANCH   1   7
ATOM      7  C   UNL     1       0.681   2.310   2.483  1.00  0.00     0.072 C 
ATOM      8  O   UNL     1       1.057   2.881   1.424  1.00  0.00    -0.545 OA
ATOM      9  O   UNL     1       1.489   2.385   3.612  1.00  0.00    -0.545 OA
ENDBRANCH   1   7
BRANCH   2  10
ATOM     10  C   UNL     1      -1.932   3.795   2.915  1.00  0.00     0.072 C 
ATOM     11  O   UNL     1      -2.174   4.613   1.989  1.00  0.00    -0.545 OA
ATOM     12  O   UNL     1      -1.663   4.280   4.190  1.00  0.00    -0.545 OA
ENDBRANCH   2  10
TORSDOF 2
ENDMDL
MODEL 7
REMARK VINA RESULT:    -4.017     14.998     16.055
REMARK INTER + INTRA:          -4.702
REMARK INTER:                  -4.493
REMARK INTRA:                  -0.210
REMARK UNBOUND:                -0.216
REMARK SMILES O=C([O-])c1ccccc1C(=O)[O-]
REMARK SMILES IDX 4 1 9 2 5 3 8 4 6 5 7 6 2 7 1 8 3 9 10 10 11 11 12 12
REMARK H PARENT
REMARK Flexibility Score: inf
ROOT
ATOM      1  C   UNL     1      -1.960   0.473   2.007  1.00  0.00     0.006 A 
ATOM      2  C   UNL     1      -1.771   1.139   0.764  1.00  0.00     0.006 A 
ATOM      3  C   UNL     1      -3.136   0.713   2.740  1.00  0.00     0.010 A 
ATOM      4  C   UNL     1      -2.795   1.968   0.270  1.00  0.00     0.010 A 
ATOM      5  C   UNL     1      -4.128   1.558   2.241  1.00  0.00     0.001 A 
ATOM      6  C   UNL     1      -3.963   2.174   1.004  1.00  0.00     0.001 A 
ENDROOT
BRANCH   1   7
ATOM      7  C   UNL     1      -1.000  -0.524   2.534  1.00  0.00     0.072 C 
ATOM      8  O   UNL     1      -0.152  -0.190   3.405  1.00  0.00    -0.545 OA
ATOM      9  O   UNL     1      -1.060  -1.852   2.128  1.00  0.00    -0.545 OA
ENDBRANCH   1   7
BRANCH   2  10
ATOM     10  C   UNL     1      -0.512   1.056  -0.012  1.00  0.00     0.072 C 
ATOM     11  O   UNL     1       0.335   1.987   0.034  1.00  0.00    -0.545 OA
ATOM     12  O   UNL     1      -0.281  -0.025  -0.856  1.00  0.00    -0.545 OA
ENDBRANCH   2  10
TORSDOF 2
ENDMDL
MODEL 8
REMARK VINA RESULT:    -4.012     14.950     16.087
REMARK INTER + INTRA:          -4.697
REMARK INTER:                  -4.466
REMARK INTRA:                  -0.231
REMARK UNBOUND:                -0.216
REMARK SMILES O=C([O-])c1ccccc1C(=O)[O-]
REMARK SMILES IDX 4 1 9 2 5 3 8 4 6 5 7 6 2 7 1 8 3 9 10 10 11 11 12 12
REMARK H PARENT
REMARK Flexibility Score: inf
ROOT
ATOM      1  C   UNL     1      -1.846   1.156   0.642  1.00  0.00     0.006 A 
ATOM      2  C   UNL     1      -2.073   0.543   1.905  1.00  0.00     0.006 A 
ATOM      3  C   UNL     1      -2.806   2.048   0.131  1.00  0.00     0.010 A 
ATOM      4  C   UNL     1      -3.221   0.895   2.640  1.00  0.00     0.010 A 
ATOM      5  C   UNL     1      -3.948   2.366   0.867  1.00  0.00     0.001 A 
ATOM      6  C   UNL     1      -4.149   1.799   2.123  1.00  0.00     0.001 A 
ENDROOT
BRANCH   1   7
ATOM      7  C   UNL     1      -0.601   0.952  -0.134  1.00  0.00     0.072 C 
ATOM      8  O   UNL     1       0.387   1.716   0.038  1.00  0.00    -0.545 OA
ATOM      9  O   UNL     1      -0.479  -0.119  -1.011  1.00  0.00    -0.545 OA
ENDBRANCH   1   7
BRANCH   2  10
ATOM     10  C   UNL     1      -1.190  -0.509   2.462  1.00  0.00     0.072 C 
ATOM     11  O   UNL     1      -0.290  -0.220   3.293  1.00  0.00    -0.545 OA
ATOM     12  O   UNL     1      -1.305  -1.822   2.019  1.00  0.00    -0.545 OA
ENDBRANCH   2  10
TORSDOF 2
ENDMDL
MODEL 9
REMARK VINA RESULT:    -3.955     10.683     12.390
REMARK INTER + INTRA:          -4.633
REMARK INTER:                  -4.440
REMARK INTRA:                  -0.193
REMARK UNBOUND:                -0.216
REMARK SMILES O=C([O-])c1ccccc1C(=O)[O-]
REMARK SMILES IDX 4 1 9 2 5 3 8 4 6 5 7 6 2 7 1 8 3 9 10 10 11 11 12 12
REMARK H PARENT
REMARK Flexibility Score: inf
ROOT
ATOM      1  C   UNL     1      -3.947   4.646   2.313  1.00  0.00     0.006 A 
ATOM      2  C   UNL     1      -2.696   4.238   2.855  1.00  0.00     0.006 A 
ATOM      3  C   UNL     1      -4.704   3.723   1.568  1.00  0.00     0.010 A 
ATOM      4  C   UNL     1      -2.280   2.904   2.686  1.00  0.00     0.010 A 
ATOM      5  C   UNL     1      -4.260   2.411   1.394  1.00  0.00     0.001 A 
ATOM      6  C   UNL     1      -3.058   2.000   1.961  1.00  0.00     0.001 A 
ENDROOT
BRANCH   1   7
ATOM      7  C   UNL     1      -4.527   5.986   2.560  1.00  0.00     0.072 C 
ATOM      8  O   UNL     1      -5.083   6.243   3.662  1.00  0.00    -0.545 OA
ATOM      9  O   UNL     1      -4.411   6.996   1.612  1.00  0.00    -0.545 OA
ENDBRANCH   1   7
BRANCH   2  10
ATOM     10  C   UNL     1      -1.769   5.172   3.535  1.00  0.00     0.072 C 
ATOM     11  O   UNL     1      -1.620   5.135   4.785  1.00  0.00    -0.545 OA
ATOM     12  O   UNL     1      -1.101   6.148   2.804  1.00  0.00    -0.545 OA
ENDBRANCH   2  10
TORSDOF 2
ENDMDL
