MODEL 1
REMARK VINA RESULT:    -5.392      0.000      0.000
REMARK INTER + INTRA:         -11.238
REMARK INTER:                  -9.805
REMARK INTRA:                  -1.433
REMARK UNBOUND:                -1.433
REMARK SMILES CCCCCCCCCCCCCC[C@H](C)C(=O)[O-]
REMARK SMILES IDX 9 1 10 2 11 3 12 4 13 5 14 6 15 7 16 8 17 9 18 10 19 11 8 12
REMARK SMILES IDX 7 13 6 14 5 15 4 16 3 17 2 18 1 19
REMARK H PARENT
REMARK Flexibility Score: inf
ROOT
ATOM      1  C   UNL     1     -21.239 -24.000  40.048  1.00  0.00     0.000 C 
ENDROOT
BRANCH   1   2
ATOM      2  C   UNL     1     -20.155 -25.076  39.923  1.00  0.00     0.000 C 
BRANCH   2   3
ATOM      3  C   UNL     1     -20.776 -26.470  39.765  1.00  0.00     0.000 C 
BRANCH   3   4
ATOM      4  C   UNL     1     -21.059 -26.783  38.291  1.00  0.00     0.000 C 
BRANCH   4   5
ATOM      5  C   UNL     1     -21.976 -28.004  38.154  1.00  0.00     0.001 C 
BRANCH   5   6
ATOM      6  C   UNL     1     -22.500 -28.456  39.526  1.00  0.00     0.009 C 
BRANCH   6   7
ATOM      7  C   UNL     1     -23.710 -29.406  39.403  1.00  0.00     0.032 C 
ATOM      8  C   UNL     1     -24.492 -29.122  38.115  1.00  0.00     0.014 C 
BRANCH   7   9
ATOM      9  C   UNL     1     -24.624 -29.294  40.593  1.00  0.00     0.044 C 
ATOM     10  O   UNL     1     -25.876 -29.333  40.446  1.00  0.00    -0.550 OA
ATOM     11  O   UNL     1     -24.089 -29.143  41.866  1.00  0.00    -0.550 OA
ENDBRANCH   7   9
ENDBRANCH   6   7
ENDBRANCH   5   6
ENDBRANCH   4   5
ENDBRANCH   3   4
ENDBRANCH   2   3
ENDBRANCH   1   2
BRANCH   1  12
ATOM     12  C   UNL     1     -22.010 -24.146  41.369  1.00  0.00     0.000 C 
BRANCH  12  13
ATOM     13  C   UNL     1     -23.527 -24.274  41.161  1.00  0.00    -0.000 C 
BRANCH  13  14
ATOM     14  C   UNL     1     -24.031 -25.714  41.354  1.00  0.00    -0.000 C 
BRANCH  14  15
ATOM     15  C   UNL     1     -25.228 -25.797  42.314  1.00  0.00    -0.000 C 
BRANCH  15  16
ATOM     16  C   UNL     1     -26.555 -25.407  41.644  1.00  0.00    -0.000 C 
BRANCH  16  17
ATOM     17  C   UNL     1     -27.579 -24.938  42.685  1.00  0.00    -0.000 C 
BRANCH  17  18
ATOM     18  C   UNL     1     -28.636 -26.019  42.942  1.00  0.00    -0.003 C 
ATOM     19  C   UNL     1     -29.663 -26.065  41.814  1.00  0.00     0.004 C 
ENDBRANCH  17  18
ENDBRANCH  16  17
ENDBRANCH  15  16
ENDBRANCH  14  15
ENDBRANCH  13  14
ENDBRANCH  12  13
ENDBRANCH   1  12
TORSDOF 14
ENDMDL
MODEL 2
REMARK VINA RESULT:    -5.364      1.362      2.184
REMARK INTER + INTRA:         -11.188
REMARK INTER:                  -9.376
REMARK INTRA:                  -1.812
REMARK UNBOUND:                -1.433
REMARK SMILES CCCCCCCCCCCCCC[C@H](C)C(=O)[O-]
REMARK SMILES IDX 9 1 10 2 11 3 12 4 13 5 14 6 15 7 16 8 17 9 18 10 19 11 8 12
REMARK SMILES IDX 7 13 6 14 5 15 4 16 3 17 2 18 1 19
REMARK H PARENT
REMARK Flexibility Score: inf
ROOT
ATOM      1  C   UNL     1     -20.114 -24.709  39.622  1.00  0.00     0.000 C 
ENDROOT
BRANCH   1   2
ATOM      2  C   UNL     1     -20.236 -26.236  39.589  1.00  0.00     0.000 C 
BRANCH   2   3
ATOM      3  C   UNL     1     -20.685 -26.725  38.206  1.00  0.00     0.000 C 
BRANCH   3   4
ATOM      4  C   UNL     1     -21.780 -27.790  38.326  1.00  0.00     0.000 C 
BRANCH   4   5
ATOM      5  C   UNL     1     -22.223 -27.963  39.784  1.00  0.00     0.001 C 
BRANCH   5   6
ATOM      6  C   UNL     1     -23.207 -29.134  39.926  1.00  0.00     0.009 C 
BRANCH   6   7
ATOM      7  C   UNL     1     -24.621 -28.771  39.425  1.00  0.00     0.032 C 
ATOM      8  C   UNL     1     -25.637 -28.849  40.570  1.00  0.00     0.014 C 
BRANCH   7   9
ATOM      9  C   UNL     1     -25.053 -29.666  38.294  1.00  0.00     0.044 C 
ATOM     10  O   UNL     1     -24.578 -29.510  37.137  1.00  0.00    -0.550 OA
ATOM     11  O   UNL     1     -25.982 -30.672  38.523  1.00  0.00    -0.550 OA
ENDBRANCH   7   9
ENDBRANCH   6   7
ENDBRANCH   5   6
ENDBRANCH   4   5
ENDBRANCH   3   4
ENDBRANCH   2   3
ENDBRANCH   1   2
BRANCH   1  12
ATOM     12  C   UNL     1     -21.476 -24.042  39.374  1.00  0.00     0.000 C 
BRANCH  12  13
ATOM     13  C   UNL     1     -21.866 -23.056  40.486  1.00  0.00    -0.000 C 
BRANCH  13  14
ATOM     14  C   UNL     1     -22.869 -23.658  41.485  1.00  0.00    -0.000 C 
BRANCH  14  15
ATOM     15  C   UNL     1     -23.370 -25.046  41.053  1.00  0.00    -0.000 C 
BRANCH  15  16
ATOM     16  C   UNL     1     -24.426 -25.621  42.010  1.00  0.00    -0.000 C 
BRANCH  16  17
ATOM     17  C   UNL     1     -25.838 -25.206  41.582  1.00  0.00    -0.000 C 
BRANCH  17  18
ATOM     18  C   UNL     1     -26.869 -25.569  42.658  1.00  0.00    -0.003 C 
ATOM     19  C   UNL     1     -28.047 -26.331  42.059  1.00  0.00     0.004 C 
ENDBRANCH  17  18
ENDBRANCH  16  17
ENDBRANCH  15  16
ENDBRANCH  14  15
ENDBRANCH  13  14
ENDBRANCH  12  13
ENDBRANCH   1  12
TORSDOF 14
ENDMDL
MODEL 3
REMARK VINA RESULT:    -5.244      3.003      4.892
REMARK INTER + INTRA:         -10.970
REMARK INTER:                  -9.282
REMARK INTRA:                  -1.688
REMARK UNBOUND:                -1.433
REMARK SMILES CCCCCCCCCCCCCC[C@H](C)C(=O)[O-]
REMARK SMILES IDX 9 1 10 2 11 3 12 4 13 5 14 6 15 7 16 8 17 9 18 10 19 11 8 12
REMARK SMILES IDX 7 13 6 14 5 15 4 16 3 17 2 18 1 19
REMARK H PARENT
REMARK Flexibility Score: inf
ROOT
ATOM      1  C   UNL     1     -22.164 -28.168  38.384  1.00  0.00     0.000 C 
ENDROOT
BRANCH   1   2
ATOM      2  C   UNL     1     -21.161 -27.012  38.477  1.00  0.00     0.000 C 
BRANCH   2   3
ATOM      3  C   UNL     1     -21.219 -26.340  39.854  1.00  0.00     0.000 C 
BRANCH   3   4
ATOM      4  C   UNL     1     -20.189 -25.210  39.960  1.00  0.00     0.000 C 
BRANCH   4   5
ATOM      5  C   UNL     1     -20.836 -23.847  39.689  1.00  0.00     0.001 C 
BRANCH   5   6
ATOM      6  C   UNL     1     -22.206 -23.741  40.376  1.00  0.00     0.009 C 
BRANCH   6   7
ATOM      7  C   UNL     1     -23.141 -22.743  39.662  1.00  0.00     0.032 C 
ATOM      8  C   UNL     1     -22.610 -22.412  38.262  1.00  0.00     0.014 C 
BRANCH   7   9
ATOM      9  C   UNL     1     -23.311 -21.478  40.459  1.00  0.00     0.044 C 
ATOM     10  O   UNL     1     -23.981 -20.514  39.997  1.00  0.00    -0.550 OA
ATOM     11  O   UNL     1     -22.727 -21.365  41.714  1.00  0.00    -0.550 OA
ENDBRANCH   7   9
ENDBRANCH   6   7
ENDBRANCH   5   6
ENDBRANCH   4   5
ENDBRANCH   3   4
ENDBRANCH   2   3
ENDBRANCH   1   2
BRANCH   1  12
ATOM     12  C   UNL     1     -22.639 -28.597  39.781  1.00  0.00     0.000 C 
BRANCH  12  13
ATOM     13  C   UNL     1     -24.067 -29.168  39.773  1.00  0.00    -0.000 C 
BRANCH  13  14
ATOM     14  C   UNL     1     -25.079 -28.237  40.463  1.00  0.00    -0.000 C 
BRANCH  14  15
ATOM     15  C   UNL     1     -24.519 -27.606  41.748  1.00  0.00    -0.000 C 
BRANCH  15  16
ATOM     16  C   UNL     1     -24.499 -26.070  41.696  1.00  0.00    -0.000 C 
BRANCH  16  17
ATOM     17  C   UNL     1     -25.911 -25.510  41.488  1.00  0.00    -0.000 C 
BRANCH  17  18
ATOM     18  C   UNL     1     -26.773 -25.713  42.740  1.00  0.00    -0.003 C 
ATOM     19  C   UNL     1     -28.208 -26.075  42.368  1.00  0.00     0.004 C 
ENDBRANCH  17  18
ENDBRANCH  16  17
ENDBRANCH  15  16
ENDBRANCH  14  15
ENDBRANCH  13  14
ENDBRANCH  12  13
ENDBRANCH   1  12
TORSDOF 14
ENDMDL
MODEL 4
REMARK VINA RESULT:    -5.200      3.505      6.921
REMARK INTER + INTRA:         -10.888
REMARK INTER:                  -8.965
REMARK INTRA:                  -1.924
REMARK UNBOUND:                -1.433
REMARK SMILES CCCCCCCCCCCCCC[C@H](C)C(=O)[O-]
REMARK SMILES IDX 9 1 10 2 11 3 12 4 13 5 14 6 15 7 16 8 17 9 18 10 19 11 8 12
REMARK SMILES IDX 7 13 6 14 5 15 4 16 3 17 2 18 1 19
REMARK H PARENT
REMARK Flexibility Score: inf
ROOT
ATOM      1  C   UNL     1     -26.038 -27.357  40.759  1.00  0.00     0.000 C 
ENDROOT
BRANCH   1   2
ATOM      2  C   UNL     1     -25.488 -26.595  41.971  1.00  0.00     0.000 C 
BRANCH   2   3
ATOM      3  C   UNL     1     -24.989 -25.202  41.568  1.00  0.00     0.000 C 
BRANCH   3   4
ATOM      4  C   UNL     1     -23.458 -25.130  41.618  1.00  0.00     0.000 C 
BRANCH   4   5
ATOM      5  C   UNL     1     -22.958 -23.747  41.182  1.00  0.00     0.001 C 
BRANCH   5   6
ATOM      6  C   UNL     1     -24.102 -22.907  40.595  1.00  0.00     0.009 C 
BRANCH   6   7
ATOM      7  C   UNL     1     -23.631 -22.016  39.427  1.00  0.00     0.032 C 
ATOM      8  C   UNL     1     -22.221 -22.415  38.977  1.00  0.00     0.014 C 
BRANCH   7   9
ATOM      9  C   UNL     1     -23.657 -20.557  39.800  1.00  0.00     0.044 C 
ATOM     10  O   UNL     1     -24.480 -19.772  39.258  1.00  0.00    -0.550 OA
ATOM     11  O   UNL     1     -22.767 -20.069  40.747  1.00  0.00    -0.550 OA
ENDBRANCH   7   9
ENDBRANCH   6   7
ENDBRANCH   5   6
ENDBRANCH   4   5
ENDBRANCH   3   4
ENDBRANCH   2   3
ENDBRANCH   1   2
BRANCH   1  12
ATOM     12  C   UNL     1     -25.253 -28.657  40.525  1.00  0.00     0.000 C 
BRANCH  12  13
ATOM     13  C   UNL     1     -24.078 -28.826  41.501  1.00  0.00    -0.000 C 
BRANCH  13  14
ATOM     14  C   UNL     1     -22.713 -28.797  40.792  1.00  0.00    -0.000 C 
BRANCH  14  15
ATOM     15  C   UNL     1     -22.837 -28.956  39.268  1.00  0.00    -0.000 C 
BRANCH  15  16
ATOM     16  C   UNL     1     -22.066 -27.875  38.493  1.00  0.00    -0.000 C 
BRANCH  16  17
ATOM     17  C   UNL     1     -21.453 -26.846  39.450  1.00  0.00    -0.000 C 
BRANCH  17  18
ATOM     18  C   UNL     1     -20.102 -26.344  38.927  1.00  0.00    -0.003 C 
ATOM     19  C   UNL     1     -19.645 -25.102  39.685  1.00  0.00     0.004 C 
ENDBRANCH  17  18
ENDBRANCH  16  17
ENDBRANCH  15  16
ENDBRANCH  14  15
ENDBRANCH  13  14
ENDBRANCH  12  13
ENDBRANCH   1  12
TORSDOF 14
ENDMDL
MODEL 5
REMARK VINA RESULT:    -5.168      2.307      6.623
REMARK INTER + INTRA:         -10.832
REMARK INTER:                  -9.587
REMARK INTRA:                  -1.245
REMARK UNBOUND:                -1.433
REMARK SMILES CCCCCCCCCCCCCC[C@H](C)C(=O)[O-]
REMARK SMILES IDX 9 1 10 2 11 3 12 4 13 5 14 6 15 7 16 8 17 9 18 10 19 11 8 12
REMARK SMILES IDX 7 13 6 14 5 15 4 16 3 17 2 18 1 19
REMARK H PARENT
REMARK Flexibility Score: inf
ROOT
ATOM      1  C   UNL     1     -22.204 -24.067  41.359  1.00  0.00     0.000 C 
ENDROOT
BRANCH   1   2
ATOM      2  C   UNL     1     -23.203 -25.218  41.524  1.00  0.00     0.000 C 
BRANCH   2   3
ATOM      3  C   UNL     1     -24.646 -24.725  41.358  1.00  0.00     0.000 C 
BRANCH   3   4
ATOM      4  C   UNL     1     -25.649 -25.799  41.796  1.00  0.00     0.000 C 
BRANCH   4   5
ATOM      5  C   UNL     1     -25.013 -27.193  41.762  1.00  0.00     0.001 C 
BRANCH   5   6
ATOM      6  C   UNL     1     -25.510 -27.997  40.551  1.00  0.00     0.009 C 
BRANCH   6   7
ATOM      7  C   UNL     1     -24.676 -29.274  40.317  1.00  0.00     0.032 C 
ATOM      8  C   UNL     1     -23.178 -28.947  40.303  1.00  0.00     0.014 C 
BRANCH   7   9
ATOM      9  C   UNL     1     -25.064 -29.960  39.034  1.00  0.00     0.044 C 
ATOM     10  O   UNL     1     -25.728 -31.031  39.056  1.00  0.00    -0.550 OA
ATOM     11  O   UNL     1     -24.688 -29.412  37.815  1.00  0.00    -0.550 OA
ENDBRANCH   7   9
ENDBRANCH   6   7
ENDBRANCH   5   6
ENDBRANCH   4   5
ENDBRANCH   3   4
ENDBRANCH   2   3
ENDBRANCH   1   2
BRANCH   1  12
ATOM     12  C   UNL     1     -21.079 -24.451  40.385  1.00  0.00     0.000 C 
BRANCH  12  13
ATOM     13  C   UNL     1     -21.362 -25.764  39.637  1.00  0.00    -0.000 C 
BRANCH  13  14
ATOM     14  C   UNL     1     -20.098 -26.362  38.995  1.00  0.00    -0.000 C 
BRANCH  14  15
ATOM     15  C   UNL     1     -18.808 -25.704  39.510  1.00  0.00    -0.000 C 
BRANCH  15  16
ATOM     16  C   UNL     1     -17.648 -25.806  38.507  1.00  0.00    -0.000 C 
BRANCH  16  17
ATOM     17  C   UNL     1     -17.742 -27.099  37.689  1.00  0.00    -0.000 C 
BRANCH  17  18
ATOM     18  C   UNL     1     -16.464 -27.329  36.873  1.00  0.00    -0.003 C 
ATOM     19  C   UNL     1     -16.403 -26.391  35.670  1.00  0.00     0.004 C 
ENDBRANCH  17  18
ENDBRANCH  16  17
ENDBRANCH  15  16
ENDBRANCH  14  15
ENDBRANCH  13  14
ENDBRANCH  12  13
ENDBRANCH   1  12
TORSDOF 14
ENDMDL
MODEL 6
REMARK VINA RESULT:    -5.153      1.686      5.105
REMARK INTER + INTRA:         -10.804
REMARK INTER:                  -9.216
REMARK INTRA:                  -1.587
REMARK UNBOUND:                -1.433
REMARK SMILES CCCCCCCCCCCCCC[C@H](C)C(=O)[O-]
REMARK SMILES IDX 9 1 10 2 11 3 12 4 13 5 14 6 15 7 16 8 17 9 18 10 19 11 8 12
REMARK SMILES IDX 7 13 6 14 5 15 4 16 3 17 2 18 1 19
REMARK H PARENT
REMARK Flexibility Score: inf
ROOT
ATOM      1  C   UNL     1     -25.668 -22.516  40.705  1.00  0.00     0.000 C 
ENDROOT
BRANCH   1   2
ATOM      2  C   UNL     1     -26.392 -23.616  41.489  1.00  0.00     0.000 C 
BRANCH   2   3
ATOM      3  C   UNL     1     -25.576 -24.914  41.502  1.00  0.00     0.000 C 
BRANCH   3   4
ATOM      4  C   UNL     1     -26.463 -26.120  41.832  1.00  0.00     0.000 C 
BRANCH   4   5
ATOM      5  C   UNL     1     -26.138 -27.308  40.919  1.00  0.00     0.001 C 
BRANCH   5   6
ATOM      6  C   UNL     1     -24.638 -27.637  40.955  1.00  0.00     0.009 C 
BRANCH   6   7
ATOM      7  C   UNL     1     -24.371 -29.153  40.851  1.00  0.00     0.032 C 
ATOM      8  C   UNL     1     -22.901 -29.466  41.152  1.00  0.00     0.014 C 
BRANCH   7   9
ATOM      9  C   UNL     1     -24.742 -29.687  39.493  1.00  0.00     0.044 C 
ATOM     10  O   UNL     1     -25.405 -30.754  39.384  1.00  0.00    -0.550 OA
ATOM     11  O   UNL     1     -24.352 -29.004  38.349  1.00  0.00    -0.550 OA
ENDBRANCH   7   9
ENDBRANCH   6   7
ENDBRANCH   5   6
ENDBRANCH   4   5
ENDBRANCH   3   4
ENDBRANCH   2   3
ENDBRANCH   1   2
BRANCH   1  12
ATOM     12  C   UNL     1     -24.143 -22.682  40.806  1.00  0.00     0.000 C 
BRANCH  12  13
ATOM     13  C   UNL     1     -23.412 -22.245  39.526  1.00  0.00    -0.000 C 
BRANCH  13  14
ATOM     14  C   UNL     1     -22.274 -23.206  39.140  1.00  0.00    -0.000 C 
BRANCH  14  15
ATOM     15  C   UNL     1     -21.508 -23.735  40.363  1.00  0.00    -0.000 C 
BRANCH  15  16
ATOM     16  C   UNL     1     -21.766 -25.227  40.626  1.00  0.00    -0.000 C 
BRANCH  16  17
ATOM     17  C   UNL     1     -20.793 -26.101  39.828  1.00  0.00    -0.000 C 
BRANCH  17  18
ATOM     18  C   UNL     1     -21.550 -27.077  38.918  1.00  0.00    -0.003 C 
ATOM     19  C   UNL     1     -20.829 -27.260  37.586  1.00  0.00     0.004 C 
ENDBRANCH  17  18
ENDBRANCH  16  17
ENDBRANCH  15  16
ENDBRANCH  14  15
ENDBRANCH  13  14
ENDBRANCH  12  13
ENDBRANCH   1  12
TORSDOF 14
ENDMDL
MODEL 7
REMARK VINA RESULT:    -5.062      2.042      4.719
REMARK INTER + INTRA:         -10.638
REMARK INTER:                  -9.044
REMARK INTRA:                  -1.594
REMARK UNBOUND:                -1.433
REMARK SMILES CCCCCCCCCCCCCC[C@H](C)C(=O)[O-]
REMARK SMILES IDX 9 1 10 2 11 3 12 4 13 5 14 6 15 7 16 8 17 9 18 10 19 11 8 12
REMARK SMILES IDX 7 13 6 14 5 15 4 16 3 17 2 18 1 19
REMARK H PARENT
REMARK Flexibility Score: inf
ROOT
ATOM      1  C   UNL     1     -21.504 -27.454  38.363  1.00  0.00     0.000 C 
ENDROOT
BRANCH   1   2
ATOM      2  C   UNL     1     -22.649 -28.465  38.485  1.00  0.00     0.000 C 
BRANCH   2   3
ATOM      3  C   UNL     1     -22.660 -29.122  39.871  1.00  0.00     0.000 C 
BRANCH   3   4
ATOM      4  C   UNL     1     -24.091 -29.428  40.326  1.00  0.00     0.000 C 
BRANCH   4   5
ATOM      5  C   UNL     1     -24.577 -28.394  41.348  1.00  0.00     0.001 C 
BRANCH   5   6
ATOM      6  C   UNL     1     -25.860 -27.700  40.864  1.00  0.00     0.009 C 
BRANCH   6   7
ATOM      7  C   UNL     1     -25.912 -26.216  41.282  1.00  0.00     0.032 C 
ATOM      8  C   UNL     1     -24.581 -25.783  41.908  1.00  0.00     0.014 C 
BRANCH   7   9
ATOM      9  C   UNL     1     -27.041 -25.952  42.242  1.00  0.00     0.044 C 
ATOM     10  O   UNL     1     -26.848 -25.274  43.287  1.00  0.00    -0.550 OA
ATOM     11  O   UNL     1     -28.307 -26.460  41.980  1.00  0.00    -0.550 OA
ENDBRANCH   7   9
ENDBRANCH   6   7
ENDBRANCH   5   6
ENDBRANCH   4   5
ENDBRANCH   3   4
ENDBRANCH   2   3
ENDBRANCH   1   2
BRANCH   1  12
ATOM     12  C   UNL     1     -21.300 -26.692  39.682  1.00  0.00     0.000 C 
BRANCH  12  13
ATOM     13  C   UNL     1     -20.034 -25.821  39.675  1.00  0.00    -0.000 C 
BRANCH  13  14
ATOM     14  C   UNL     1     -20.352 -24.316  39.727  1.00  0.00    -0.000 C 
BRANCH  14  15
ATOM     15  C   UNL     1     -21.862 -24.033  39.759  1.00  0.00    -0.000 C 
BRANCH  15  16
ATOM     16  C   UNL     1     -22.184 -22.540  39.930  1.00  0.00    -0.000 C 
BRANCH  16  17
ATOM     17  C   UNL     1     -23.137 -22.316  41.109  1.00  0.00    -0.000 C 
BRANCH  17  18
ATOM     18  C   UNL     1     -24.596 -22.285  40.639  1.00  0.00    -0.003 C 
ATOM     19  C   UNL     1     -24.775 -21.334  39.459  1.00  0.00     0.004 C 
ENDBRANCH  17  18
ENDBRANCH  16  17
ENDBRANCH  15  16
ENDBRANCH  14  15
ENDBRANCH  13  14
ENDBRANCH  12  13
ENDBRANCH   1  12
TORSDOF 14
ENDMDL
MODEL 8
REMARK VINA RESULT:    -5.052      2.530      5.729
REMARK INTER + INTRA:         -10.621
REMARK INTER:                  -9.166
REMARK INTRA:                  -1.455
REMARK UNBOUND:                -1.433
REMARK SMILES CCCCCCCCCCCCCC[C@H](C)C(=O)[O-]
REMARK SMILES IDX 9 1 10 2 11 3 12 4 13 5 14 6 15 7 16 8 17 9 18 10 19 11 8 12
REMARK SMILES IDX 7 13 6 14 5 15 4 16 3 17 2 18 1 19
REMARK H PARENT
REMARK Flexibility Score: inf
ROOT
ATOM      1  C   UNL     1     -22.664 -28.810  40.487  1.00  0.00     0.000 C 
ENDROOT
BRANCH   1   2
ATOM      2  C   UNL     1     -24.109 -29.168  40.855  1.00  0.00     0.000 C 
BRANCH   2   3
ATOM      3  C   UNL     1     -25.024 -27.941  40.755  1.00  0.00     0.000 C 
BRANCH   3   4
ATOM      4  C   UNL     1     -24.462 -26.767  41.565  1.00  0.00     0.000 C 
BRANCH   4   5
ATOM      5  C   UNL     1     -25.506 -26.229  42.551  1.00  0.00     0.001 C 
BRANCH   5   6
ATOM      6  C   UNL     1     -26.838 -25.940  41.841  1.00  0.00     0.009 C 
BRANCH   6   7
ATOM      7  C   UNL     1     -27.922 -25.441  42.817  1.00  0.00     0.032 C 
ATOM      8  C   UNL     1     -29.224 -26.230  42.630  1.00  0.00     0.014 C 
BRANCH   7   9
ATOM      9  C   UNL     1     -28.186 -23.968  42.645  1.00  0.00     0.044 C 
ATOM     10  O   UNL     1     -27.339 -23.229  42.075  1.00  0.00    -0.550 OA
ATOM     11  O   UNL     1     -29.369 -23.416  43.118  1.00  0.00    -0.550 OA
ENDBRANCH   7   9
ENDBRANCH   6   7
ENDBRANCH   5   6
ENDBRANCH   4   5
ENDBRANCH   3   4
ENDBRANCH   2   3
ENDBRANCH   1   2
BRANCH   1  12
ATOM     12  C   UNL     1     -22.550 -28.447  38.998  1.00  0.00     0.000 C 
BRANCH  12  13
ATOM     13  C   UNL     1     -21.575 -27.286  38.743  1.00  0.00    -0.000 C 
BRANCH  13  14
ATOM     14  C   UNL     1     -21.110 -26.608  40.043  1.00  0.00    -0.000 C 
BRANCH  14  15
ATOM     15  C   UNL     1     -21.129 -25.074  39.948  1.00  0.00    -0.000 C 
BRANCH  15  16
ATOM     16  C   UNL     1     -22.212 -24.437  40.833  1.00  0.00    -0.000 C 
BRANCH  16  17
ATOM     17  C   UNL     1     -22.776 -23.168  40.183  1.00  0.00    -0.000 C 
BRANCH  17  18
ATOM     18  C   UNL     1     -24.097 -22.753  40.842  1.00  0.00    -0.003 C 
ATOM     19  C   UNL     1     -24.882 -21.797  39.948  1.00  0.00     0.004 C 
ENDBRANCH  17  18
ENDBRANCH  16  17
ENDBRANCH  15  16
ENDBRANCH  14  15
ENDBRANCH  13  14
ENDBRANCH  12  13
ENDBRANCH   1  12
TORSDOF 14
ENDMDL
MODEL 9
REMARK VINA RESULT:    -4.990      2.625      6.281
REMARK INTER + INTRA:         -10.507
REMARK INTER:                  -9.227
REMARK INTRA:                  -1.281
REMARK UNBOUND:                -1.433
REMARK SMILES CCCCCCCCCCCCCC[C@H](C)C(=O)[O-]
REMARK SMILES IDX 9 1 10 2 11 3 12 4 13 5 14 6 15 7 16 8 17 9 18 10 19 11 8 12
REMARK SMILES IDX 7 13 6 14 5 15 4 16 3 17 2 18 1 19
REMARK H PARENT
REMARK Flexibility Score: inf
ROOT
ATOM      1  C   UNL     1     -23.405 -24.210  41.088  1.00  0.00     0.000 C 
ENDROOT
BRANCH   1   2
ATOM      2  C   UNL     1     -24.008 -25.452  41.754  1.00  0.00     0.000 C 
BRANCH   2   3
ATOM      3  C   UNL     1     -25.513 -25.551  41.477  1.00  0.00     0.000 C 
BRANCH   3   4
ATOM      4  C   UNL     1     -26.274 -26.020  42.723  1.00  0.00     0.000 C 
BRANCH   4   5
ATOM      5  C   UNL     1     -27.655 -25.360  42.805  1.00  0.00     0.001 C 
BRANCH   5   6
ATOM      6  C   UNL     1     -28.749 -26.305  42.283  1.00  0.00     0.009 C 
BRANCH   6   7
ATOM      7  C   UNL     1     -30.135 -25.974  42.875  1.00  0.00     0.032 C 
ATOM      8  C   UNL     1     -31.212 -26.881  42.269  1.00  0.00     0.014 C 
BRANCH   7   9
ATOM      9  C   UNL     1     -30.498 -24.529  42.656  1.00  0.00     0.044 C 
ATOM     10  O   UNL     1     -30.680 -24.084  41.491  1.00  0.00    -0.550 OA
ATOM     11  O   UNL     1     -30.634 -23.677  43.744  1.00  0.00    -0.550 OA
ENDBRANCH   7   9
ENDBRANCH   6   7
ENDBRANCH   5   6
ENDBRANCH   4   5
ENDBRANCH   3   4
ENDBRANCH   2   3
ENDBRANCH   1   2
BRANCH   1  12
ATOM     12  C   UNL     1     -21.880 -24.170  41.277  1.00  0.00     0.000 C 
BRANCH  12  13
ATOM     13  C   UNL     1     -21.113 -24.546  39.999  1.00  0.00    -0.000 C 
BRANCH  13  14
ATOM     14  C   UNL     1     -20.801 -26.050  39.919  1.00  0.00    -0.000 C 
BRANCH  14  15
ATOM     15  C   UNL     1     -21.000 -26.619  38.505  1.00  0.00    -0.000 C 
BRANCH  15  16
ATOM     16  C   UNL     1     -21.849 -27.900  38.493  1.00  0.00    -0.000 C 
BRANCH  16  17
ATOM     17  C   UNL     1     -22.513 -28.130  39.856  1.00  0.00    -0.000 C 
BRANCH  17  18
ATOM     18  C   UNL     1     -23.718 -29.069  39.730  1.00  0.00    -0.003 C 
ATOM     19  C   UNL     1     -24.393 -29.284  41.081  1.00  0.00     0.004 C 
ENDBRANCH  17  18
ENDBRANCH  16  17
ENDBRANCH  15  16
ENDBRANCH  14  15
ENDBRANCH  13  14
ENDBRANCH  12  13
ENDBRANCH   1  12
TORSDOF 14
ENDMDL
