MODEL 1
REMARK VINA RESULT:    -4.131      0.000      0.000
REMARK INTER + INTRA:         -12.372
REMARK INTER:                  -8.961
REMARK INTRA:                  -3.412
REMARK UNBOUND:                -3.412
REMARK SMILES CCCCCCCCCCCCCCCCCCCCCC(=O)[O-]
REMARK SMILES IDX 12 1 11 2 10 3 9 4 8 5 7 6 6 7 5 8 4 9 3 10 2 11 1 12 13 13
REMARK SMILES IDX 14 14 15 15 16 16 17 17 18 18 19 19 20 20 21 21 22 22 23 23
REMARK SMILES IDX 24 24
REMARK H PARENT
REMARK Flexibility Score: inf
ROOT
ATOM      1  C   UNL     1      31.042   7.196  32.063  1.00  0.00     0.000 C 
ENDROOT
BRANCH   1   2
ATOM      2  C   UNL     1      30.588   6.124  31.060  1.00  0.00     0.000 C 
BRANCH   2   3
ATOM      3  C   UNL     1      30.012   6.726  29.767  1.00  0.00     0.000 C 
BRANCH   3   4
ATOM      4  C   UNL     1      30.404   8.201  29.584  1.00  0.00    -0.000 C 
BRANCH   4   5
ATOM      5  C   UNL     1      30.915   8.500  28.164  1.00  0.00    -0.000 C 
BRANCH   5   6
ATOM      6  C   UNL     1      32.451   8.557  28.083  1.00  0.00    -0.000 C 
BRANCH   6   7
ATOM      7  C   UNL     1      33.190   8.355  29.423  1.00  0.00    -0.000 C 
BRANCH   7   8
ATOM      8  C   UNL     1      33.485   9.642  30.213  1.00  0.00    -0.000 C 
BRANCH   8   9
ATOM      9  C   UNL     1      34.134   9.370  31.581  1.00  0.00    -0.000 C 
BRANCH   9  10
ATOM     10  C   UNL     1      34.476   7.885  31.797  1.00  0.00    -0.000 C 
BRANCH  10  11
ATOM     11  C   UNL     1      35.980   7.565  31.867  1.00  0.00    -0.003 C 
ATOM     12  C   UNL     1      36.769   8.137  30.690  1.00  0.00     0.004 C 
ENDBRANCH  10  11
ENDBRANCH   9  10
ENDBRANCH   8   9
ENDBRANCH   7   8
ENDBRANCH   6   7
ENDBRANCH   5   6
ENDBRANCH   4   5
ENDBRANCH   3   4
ENDBRANCH   2   3
ENDBRANCH   1   2
BRANCH   1  13
ATOM     13  C   UNL     1      31.401   6.612  33.438  1.00  0.00     0.000 C 
BRANCH  13  14
ATOM     14  C   UNL     1      31.711   7.726  34.446  1.00  0.00     0.000 C 
BRANCH  14  15
ATOM     15  C   UNL     1      30.709   8.881  34.312  1.00  0.00     0.000 C 
BRANCH  15  16
ATOM     16  C   UNL     1      31.390  10.225  34.005  1.00  0.00     0.000 C 
BRANCH  16  17
ATOM     17  C   UNL     1      30.847  10.886  32.726  1.00  0.00     0.000 C 
BRANCH  17  18
ATOM     18  C   UNL     1      31.550  12.225  32.419  1.00  0.00     0.000 C 
BRANCH  18  19
ATOM     19  C   UNL     1      31.447  12.652  30.945  1.00  0.00     0.000 C 
BRANCH  19  20
ATOM     20  C   UNL     1      30.059  12.381  30.340  1.00  0.00     0.006 C 
BRANCH  20  21
ATOM     21  C   UNL     1      30.147  11.862  28.898  1.00  0.00     0.053 C 
BRANCH  21  22
ATOM     22  C   UNL     1      28.816  11.399  28.391  1.00  0.00     0.041 C 
ATOM     23  O   UNL     1      27.847  11.261  29.184  1.00  0.00    -0.550 OA
ATOM     24  O   UNL     1      28.638  11.144  27.036  1.00  0.00    -0.550 OA
ENDBRANCH  21  22
ENDBRANCH  20  21
ENDBRANCH  19  20
ENDBRANCH  18  19
ENDBRANCH  17  18
ENDBRANCH  16  17
ENDBRANCH  15  16
ENDBRANCH  14  15
ENDBRANCH  13  14
ENDBRANCH   1  13
TORSDOF 20
ENDMDL
MODEL 2
REMARK VINA RESULT:    -4.120      1.439      3.513
REMARK INTER + INTRA:         -12.349
REMARK INTER:                  -8.632
REMARK INTRA:                  -3.717
REMARK UNBOUND:                -3.412
REMARK SMILES CCCCCCCCCCCCCCCCCCCCCC(=O)[O-]
REMARK SMILES IDX 12 1 11 2 10 3 9 4 8 5 7 6 6 7 5 8 4 9 3 10 2 11 1 12 13 13
REMARK SMILES IDX 14 14 15 15 16 16 17 17 18 18 19 19 20 20 21 21 22 22 23 23
REMARK SMILES IDX 24 24
REMARK H PARENT
REMARK Flexibility Score: inf
ROOT
ATOM      1  C   UNL     1      31.364   7.885  28.467  1.00  0.00     0.000 C 
ENDROOT
BRANCH   1   2
ATOM      2  C   UNL     1      32.467   8.946  28.615  1.00  0.00     0.000 C 
BRANCH   2   3
ATOM      3  C   UNL     1      33.622   8.479  29.516  1.00  0.00     0.000 C 
BRANCH   3   4
ATOM      4  C   UNL     1      34.319   9.650  30.228  1.00  0.00    -0.000 C 
BRANCH   4   5
ATOM      5  C   UNL     1      35.745   9.295  30.682  1.00  0.00    -0.000 C 
BRANCH   5   6
ATOM      6  C   UNL     1      36.015   7.779  30.667  1.00  0.00    -0.000 C 
BRANCH   6   7
ATOM      7  C   UNL     1      36.120   7.114  32.055  1.00  0.00    -0.000 C 
BRANCH   7   8
ATOM      8  C   UNL     1      34.811   7.065  32.863  1.00  0.00    -0.000 C 
BRANCH   8   9
ATOM      9  C   UNL     1      35.041   7.125  34.382  1.00  0.00    -0.000 C 
BRANCH   9  10
ATOM     10  C   UNL     1      34.518   8.426  35.016  1.00  0.00    -0.000 C 
BRANCH  10  11
ATOM     11  C   UNL     1      34.816   9.707  34.216  1.00  0.00    -0.003 C 
ATOM     12  C   UNL     1      34.382  10.981  34.941  1.00  0.00     0.004 C 
ENDBRANCH  10  11
ENDBRANCH   9  10
ENDBRANCH   8   9
ENDBRANCH   7   8
ENDBRANCH   6   7
ENDBRANCH   5   6
ENDBRANCH   4   5
ENDBRANCH   3   4
ENDBRANCH   2   3
ENDBRANCH   1   2
BRANCH   1  13
ATOM     13  C   UNL     1      30.258   8.025  29.525  1.00  0.00     0.000 C 
BRANCH  13  14
ATOM     14  C   UNL     1      30.223   6.802  30.450  1.00  0.00     0.000 C 
BRANCH  14  15
ATOM     15  C   UNL     1      31.350   6.868  31.489  1.00  0.00     0.000 C 
BRANCH  15  16
ATOM     16  C   UNL     1      30.959   7.675  32.738  1.00  0.00     0.000 C 
BRANCH  16  17
ATOM     17  C   UNL     1      31.596   9.076  32.762  1.00  0.00     0.000 C 
BRANCH  17  18
ATOM     18  C   UNL     1      30.603  10.175  32.331  1.00  0.00     0.000 C 
BRANCH  18  19
ATOM     19  C   UNL     1      31.162  11.125  31.258  1.00  0.00     0.000 C 
BRANCH  19  20
ATOM     20  C   UNL     1      30.064  11.911  30.523  1.00  0.00     0.006 C 
BRANCH  20  21
ATOM     21  C   UNL     1      30.241  11.867  28.999  1.00  0.00     0.053 C 
BRANCH  21  22
ATOM     22  C   UNL     1      29.046  11.278  28.316  1.00  0.00     0.041 C 
ATOM     23  O   UNL     1      29.125  10.889  27.120  1.00  0.00    -0.550 OA
ATOM     24  O   UNL     1      27.849  11.133  29.008  1.00  0.00    -0.550 OA
ENDBRANCH  21  22
ENDBRANCH  20  21
ENDBRANCH  19  20
ENDBRANCH  18  19
ENDBRANCH  17  18
ENDBRANCH  16  17
ENDBRANCH  15  16
ENDBRANCH  14  15
ENDBRANCH  13  14
ENDBRANCH   1  13
TORSDOF 20
ENDMDL
MODEL 3
REMARK VINA RESULT:    -4.094      1.541      4.282
REMARK INTER + INTRA:         -12.292
REMARK INTER:                  -8.358
REMARK INTRA:                  -3.934
REMARK UNBOUND:                -3.412
REMARK SMILES CCCCCCCCCCCCCCCCCCCCCC(=O)[O-]
REMARK SMILES IDX 12 1 11 2 10 3 9 4 8 5 7 6 6 7 5 8 4 9 3 10 2 11 1 12 13 13
REMARK SMILES IDX 14 14 15 15 16 16 17 17 18 18 19 19 20 20 21 21 22 22 23 23
REMARK SMILES IDX 24 24
REMARK H PARENT
REMARK Flexibility Score: inf
ROOT
ATOM      1  C   UNL     1      33.266   8.037  34.374  1.00  0.00     0.000 C 
ENDROOT
BRANCH   1   2
ATOM      2  C   UNL     1      34.666   8.137  33.749  1.00  0.00     0.000 C 
BRANCH   2   3
ATOM      3  C   UNL     1      35.168   6.791  33.199  1.00  0.00     0.000 C 
BRANCH   3   4
ATOM      4  C   UNL     1      35.848   6.937  31.828  1.00  0.00    -0.000 C 
BRANCH   4   5
ATOM      5  C   UNL     1      35.843   8.390  31.323  1.00  0.00    -0.000 C 
BRANCH   5   6
ATOM      6  C   UNL     1      34.793   8.636  30.224  1.00  0.00    -0.000 C 
BRANCH   6   7
ATOM      7  C   UNL     1      33.992   9.948  30.361  1.00  0.00    -0.000 C 
BRANCH   7   8
ATOM      8  C   UNL     1      34.572  10.974  31.351  1.00  0.00    -0.000 C 
BRANCH   8   9
ATOM      9  C   UNL     1      33.488  11.817  32.043  1.00  0.00    -0.000 C 
BRANCH   9  10
ATOM     10  C   UNL     1      32.114  11.124  32.067  1.00  0.00    -0.000 C 
BRANCH  10  11
ATOM     11  C   UNL     1      31.276  11.380  33.332  1.00  0.00    -0.003 C 
ATOM     12  C   UNL     1      29.863  10.806  33.241  1.00  0.00     0.004 C 
ENDBRANCH  10  11
ENDBRANCH   9  10
ENDBRANCH   8   9
ENDBRANCH   7   8
ENDBRANCH   6   7
ENDBRANCH   5   6
ENDBRANCH   4   5
ENDBRANCH   3   4
ENDBRANCH   2   3
ENDBRANCH   1   2
BRANCH   1  13
ATOM     13  C   UNL     1      32.411   6.925  33.746  1.00  0.00     0.000 C 
BRANCH  13  14
ATOM     14  C   UNL     1      31.316   7.513  32.847  1.00  0.00     0.000 C 
BRANCH  14  15
ATOM     15  C   UNL     1      31.652   7.303  31.364  1.00  0.00     0.000 C 
BRANCH  15  16
ATOM     16  C   UNL     1      30.541   6.560  30.604  1.00  0.00     0.000 C 
BRANCH  16  17
ATOM     17  C   UNL     1      30.253   7.178  29.224  1.00  0.00     0.000 C 
BRANCH  17  18
ATOM     18  C   UNL     1      31.243   8.309  28.875  1.00  0.00     0.000 C 
BRANCH  18  19
ATOM     19  C   UNL     1      30.567   9.673  28.653  1.00  0.00     0.000 C 
BRANCH  19  20
ATOM     20  C   UNL     1      29.449   9.959  29.670  1.00  0.00     0.006 C 
BRANCH  20  21
ATOM     21  C   UNL     1      28.519  11.089  29.206  1.00  0.00     0.053 C 
BRANCH  21  22
ATOM     22  C   UNL     1      28.473  12.213  30.194  1.00  0.00     0.041 C 
ATOM     23  O   UNL     1      29.431  13.028  30.273  1.00  0.00    -0.550 OA
ATOM     24  O   UNL     1      27.361  12.377  31.011  1.00  0.00    -0.550 OA
ENDBRANCH  21  22
ENDBRANCH  20  21
ENDBRANCH  19  20
ENDBRANCH  18  19
ENDBRANCH  17  18
ENDBRANCH  16  17
ENDBRANCH  15  16
ENDBRANCH  14  15
ENDBRANCH  13  14
ENDBRANCH   1  13
TORSDOF 20
ENDMDL
MODEL 4
REMARK VINA RESULT:    -4.057      1.423      3.771
REMARK INTER + INTRA:         -12.213
REMARK INTER:                  -8.525
REMARK INTRA:                  -3.688
REMARK UNBOUND:                -3.412
REMARK SMILES CCCCCCCCCCCCCCCCCCCCCC(=O)[O-]
REMARK SMILES IDX 12 1 11 2 10 3 9 4 8 5 7 6 6 7 5 8 4 9 3 10 2 11 1 12 13 13
REMARK SMILES IDX 14 14 15 15 16 16 17 17 18 18 19 19 20 20 21 21 22 22 23 23
REMARK SMILES IDX 24 24
REMARK H PARENT
REMARK Flexibility Score: inf
ROOT
ATOM      1  C   UNL     1      31.040   7.444  33.789  1.00  0.00     0.000 C 
ENDROOT
BRANCH   1   2
ATOM      2  C   UNL     1      31.043   8.973  33.640  1.00  0.00     0.000 C 
BRANCH   2   3
ATOM      3  C   UNL     1      32.102   9.654  34.523  1.00  0.00     0.000 C 
BRANCH   3   4
ATOM      4  C   UNL     1      32.190  11.168  34.270  1.00  0.00    -0.000 C 
BRANCH   4   5
ATOM      5  C   UNL     1      31.520  11.581  32.948  1.00  0.00    -0.000 C 
BRANCH   5   6
ATOM      6  C   UNL     1      32.538  11.908  31.841  1.00  0.00    -0.000 C 
BRANCH   6   7
ATOM      7  C   UNL     1      32.719  10.815  30.768  1.00  0.00    -0.000 C 
BRANCH   7   8
ATOM      8  C   UNL     1      34.089  10.113  30.766  1.00  0.00    -0.000 C 
BRANCH   8   9
ATOM      9  C   UNL     1      34.027   8.676  31.310  1.00  0.00    -0.000 C 
BRANCH   9  10
ATOM     10  C   UNL     1      35.145   8.371  32.324  1.00  0.00    -0.000 C 
BRANCH  10  11
ATOM     11  C   UNL     1      35.908   7.057  32.077  1.00  0.00    -0.003 C 
ATOM     12  C   UNL     1      37.425   7.241  32.055  1.00  0.00     0.004 C 
ENDBRANCH  10  11
ENDBRANCH   9  10
ENDBRANCH   8   9
ENDBRANCH   7   8
ENDBRANCH   6   7
ENDBRANCH   5   6
ENDBRANCH   4   5
ENDBRANCH   3   4
ENDBRANCH   2   3
ENDBRANCH   1   2
BRANCH   1  13
ATOM     13  C   UNL     1      31.246   6.714  32.452  1.00  0.00     0.000 C 
BRANCH  13  14
ATOM     14  C   UNL     1      30.850   7.608  31.271  1.00  0.00     0.000 C 
BRANCH  14  15
ATOM     15  C   UNL     1      29.975   6.839  30.271  1.00  0.00     0.000 C 
BRANCH  15  16
ATOM     16  C   UNL     1      30.235   7.254  28.814  1.00  0.00     0.000 C 
BRANCH  16  17
ATOM     17  C   UNL     1      31.574   7.992  28.638  1.00  0.00     0.000 C 
BRANCH  17  18
ATOM     18  C   UNL     1      31.431   9.260  27.771  1.00  0.00     0.000 C 
BRANCH  18  19
ATOM     19  C   UNL     1      29.993   9.807  27.712  1.00  0.00     0.000 C 
BRANCH  19  20
ATOM     20  C   UNL     1      29.798  11.069  28.568  1.00  0.00     0.006 C 
BRANCH  20  21
ATOM     21  C   UNL     1      28.945  10.797  29.815  1.00  0.00     0.053 C 
BRANCH  21  22
ATOM     22  C   UNL     1      28.650  12.054  30.573  1.00  0.00     0.041 C 
ATOM     23  O   UNL     1      27.744  12.071  31.448  1.00  0.00    -0.550 OA
ATOM     24  O   UNL     1      29.394  13.203  30.332  1.00  0.00    -0.550 OA
ENDBRANCH  21  22
ENDBRANCH  20  21
ENDBRANCH  19  20
ENDBRANCH  18  19
ENDBRANCH  17  18
ENDBRANCH  16  17
ENDBRANCH  15  16
ENDBRANCH  14  15
ENDBRANCH  13  14
ENDBRANCH   1  13
TORSDOF 20
ENDMDL
MODEL 5
REMARK VINA RESULT:    -4.032      1.524      4.766
REMARK INTER + INTRA:         -12.157
REMARK INTER:                  -8.375
REMARK INTRA:                  -3.782
REMARK UNBOUND:                -3.412
REMARK SMILES CCCCCCCCCCCCCCCCCCCCCC(=O)[O-]
REMARK SMILES IDX 12 1 11 2 10 3 9 4 8 5 7 6 6 7 5 8 4 9 3 10 2 11 1 12 13 13
REMARK SMILES IDX 14 14 15 15 16 16 17 17 18 18 19 19 20 20 21 21 22 22 23 23
REMARK SMILES IDX 24 24
REMARK H PARENT
REMARK Flexibility Score: inf
ROOT
ATOM      1  C   UNL     1      36.480   7.002  31.628  1.00  0.00     0.000 C 
ENDROOT
BRANCH   1   2
ATOM      2  C   UNL     1      37.446   7.249  32.798  1.00  0.00     0.000 C 
BRANCH   2   3
ATOM      3  C   UNL     1      36.727   7.324  34.156  1.00  0.00     0.000 C 
BRANCH   3   4
ATOM      4  C   UNL     1      35.266   6.853  34.071  1.00  0.00    -0.000 C 
BRANCH   4   5
ATOM      5  C   UNL     1      34.269   7.966  34.434  1.00  0.00    -0.000 C 
BRANCH   5   6
ATOM      6  C   UNL     1      32.805   7.560  34.185  1.00  0.00    -0.000 C 
BRANCH   6   7
ATOM      7  C   UNL     1      32.447   7.252  32.716  1.00  0.00    -0.000 C 
BRANCH   7   8
ATOM      8  C   UNL     1      30.964   7.435  32.347  1.00  0.00    -0.000 C 
BRANCH   8   9
ATOM      9  C   UNL     1      30.621   6.882  30.954  1.00  0.00    -0.000 C 
BRANCH   9  10
ATOM     10  C   UNL     1      31.546   7.425  29.850  1.00  0.00    -0.000 C 
BRANCH  10  11
ATOM     11  C   UNL     1      30.824   8.081  28.658  1.00  0.00    -0.003 C 
ATOM     12  C   UNL     1      31.734   8.989  27.833  1.00  0.00     0.004 C 
ENDBRANCH  10  11
ENDBRANCH   9  10
ENDBRANCH   8   9
ENDBRANCH   7   8
ENDBRANCH   6   7
ENDBRANCH   5   6
ENDBRANCH   4   5
ENDBRANCH   3   4
ENDBRANCH   2   3
ENDBRANCH   1   2
BRANCH   1  13
ATOM     13  C   UNL     1      36.327   8.227  30.713  1.00  0.00     0.000 C 
BRANCH  13  14
ATOM     14  C   UNL     1      34.851   8.492  30.391  1.00  0.00     0.000 C 
BRANCH  14  15
ATOM     15  C   UNL     1      34.543   9.995  30.431  1.00  0.00     0.000 C 
BRANCH  15  16
ATOM     16  C   UNL     1      33.654  10.386  31.623  1.00  0.00     0.000 C 
BRANCH  16  17
ATOM     17  C   UNL     1      32.233  10.795  31.194  1.00  0.00     0.000 C 
BRANCH  17  18
ATOM     18  C   UNL     1      31.432  11.420  32.355  1.00  0.00     0.000 C 
BRANCH  18  19
ATOM     19  C   UNL     1      29.908  11.296  32.188  1.00  0.00     0.000 C 
BRANCH  19  20
ATOM     20  C   UNL     1      29.506  10.438  30.977  1.00  0.00     0.006 C 
BRANCH  20  21
ATOM     21  C   UNL     1      28.556  11.183  30.029  1.00  0.00     0.053 C 
BRANCH  21  22
ATOM     22  C   UNL     1      29.228  11.546  28.740  1.00  0.00     0.041 C 
ATOM     23  O   UNL     1      28.705  11.228  27.640  1.00  0.00    -0.550 OA
ATOM     24  O   UNL     1      30.420  12.260  28.754  1.00  0.00    -0.550 OA
ENDBRANCH  21  22
ENDBRANCH  20  21
ENDBRANCH  19  20
ENDBRANCH  18  19
ENDBRANCH  17  18
ENDBRANCH  16  17
ENDBRANCH  15  16
ENDBRANCH  14  15
ENDBRANCH  13  14
ENDBRANCH   1  13
TORSDOF 20
ENDMDL
MODEL 6
REMARK VINA RESULT:    -4.028      2.925      4.936
REMARK INTER + INTRA:         -12.149
REMARK INTER:                  -8.153
REMARK INTRA:                  -3.997
REMARK UNBOUND:                -3.412
REMARK SMILES CCCCCCCCCCCCCCCCCCCCCC(=O)[O-]
REMARK SMILES IDX 12 1 11 2 10 3 9 4 8 5 7 6 6 7 5 8 4 9 3 10 2 11 1 12 13 13
REMARK SMILES IDX 14 14 15 15 16 16 17 17 18 18 19 19 20 20 21 21 22 22 23 23
REMARK SMILES IDX 24 24
REMARK H PARENT
REMARK Flexibility Score: inf
ROOT
ATOM      1  C   UNL     1      31.010   7.515  31.315  1.00  0.00     0.000 C 
ENDROOT
BRANCH   1   2
ATOM      2  C   UNL     1      30.054   6.829  30.326  1.00  0.00     0.000 C 
BRANCH   2   3
ATOM      3  C   UNL     1      30.310   7.243  28.868  1.00  0.00     0.000 C 
BRANCH   3   4
ATOM      4  C   UNL     1      31.562   8.123  28.721  1.00  0.00    -0.000 C 
BRANCH   4   5
ATOM      5  C   UNL     1      31.360   9.266  27.712  1.00  0.00    -0.000 C 
BRANCH   5   6
ATOM      6  C   UNL     1      29.928   9.832  27.730  1.00  0.00    -0.000 C 
BRANCH   6   7
ATOM      7  C   UNL     1      29.681  10.967  28.746  1.00  0.00    -0.000 C 
BRANCH   7   8
ATOM      8  C   UNL     1      29.045  10.531  30.079  1.00  0.00    -0.000 C 
BRANCH   8   9
ATOM      9  C   UNL     1      29.758  11.125  31.305  1.00  0.00    -0.000 C 
BRANCH   9  10
ATOM     10  C   UNL     1      31.277  11.269  31.104  1.00  0.00    -0.000 C 
BRANCH  10  11
ATOM     11  C   UNL     1      32.143  10.689  32.236  1.00  0.00    -0.003 C 
ATOM     12  C   UNL     1      33.187  11.676  32.758  1.00  0.00     0.004 C 
ENDBRANCH  10  11
ENDBRANCH   9  10
ENDBRANCH   8   9
ENDBRANCH   7   8
ENDBRANCH   6   7
ENDBRANCH   5   6
ENDBRANCH   4   5
ENDBRANCH   3   4
ENDBRANCH   2   3
ENDBRANCH   1   2
BRANCH   1  13
ATOM     13  C   UNL     1      31.361   6.627  32.519  1.00  0.00     0.000 C 
BRANCH  13  14
ATOM     14  C   UNL     1      31.253   7.411  33.832  1.00  0.00     0.000 C 
BRANCH  14  15
ATOM     15  C   UNL     1      32.255   6.884  34.869  1.00  0.00     0.000 C 
BRANCH  15  16
ATOM     16  C   UNL     1      33.611   7.605  34.802  1.00  0.00     0.000 C 
BRANCH  16  17
ATOM     17  C   UNL     1      34.775   6.648  34.490  1.00  0.00     0.000 C 
BRANCH  17  18
ATOM     18  C   UNL     1      35.358   6.880  33.081  1.00  0.00     0.000 C 
BRANCH  18  19
ATOM     19  C   UNL     1      34.808   8.138  32.386  1.00  0.00     0.000 C 
BRANCH  19  20
ATOM     20  C   UNL     1      34.615   7.950  30.872  1.00  0.00     0.006 C 
BRANCH  20  21
ATOM     21  C   UNL     1      34.824   9.257  30.095  1.00  0.00     0.053 C 
BRANCH  21  22
ATOM     22  C   UNL     1      36.167   9.859  30.369  1.00  0.00     0.041 C 
ATOM     23  O   UNL     1      37.217   9.248  30.037  1.00  0.00    -0.550 OA
ATOM     24  O   UNL     1      36.260  11.109  30.970  1.00  0.00    -0.550 OA
ENDBRANCH  21  22
ENDBRANCH  20  21
ENDBRANCH  19  20
ENDBRANCH  18  19
ENDBRANCH  17  18
ENDBRANCH  16  17
ENDBRANCH  15  16
ENDBRANCH  14  15
ENDBRANCH  13  14
ENDBRANCH   1  13
TORSDOF 20
ENDMDL
MODEL 7
REMARK VINA RESULT:    -4.024      2.775      5.733
REMARK INTER + INTRA:         -12.141
REMARK INTER:                  -8.132
REMARK INTRA:                  -4.008
REMARK UNBOUND:                -3.412
REMARK SMILES CCCCCCCCCCCCCCCCCCCCCC(=O)[O-]
REMARK SMILES IDX 12 1 11 2 10 3 9 4 8 5 7 6 6 7 5 8 4 9 3 10 2 11 1 12 13 13
REMARK SMILES IDX 14 14 15 15 16 16 17 17 18 18 19 19 20 20 21 21 22 22 23 23
REMARK SMILES IDX 24 24
REMARK H PARENT
REMARK Flexibility Score: inf
ROOT
ATOM      1  C   UNL     1      29.101  10.680  30.081  1.00  0.00     0.000 C 
ENDROOT
BRANCH   1   2
ATOM      2  C   UNL     1      30.054  10.905  31.266  1.00  0.00     0.000 C 
BRANCH   2   3
ATOM      3  C   UNL     1      30.927  12.160  31.095  1.00  0.00     0.000 C 
BRANCH   3   4
ATOM      4  C   UNL     1      31.943  12.326  32.237  1.00  0.00    -0.000 C 
BRANCH   4   5
ATOM      5  C   UNL     1      32.045  11.069  33.117  1.00  0.00    -0.000 C 
BRANCH   5   6
ATOM      6  C   UNL     1      33.455  10.451  33.112  1.00  0.00    -0.000 C 
BRANCH   6   7
ATOM      7  C   UNL     1      34.546  11.304  32.432  1.00  0.00    -0.000 C 
BRANCH   7   8
ATOM      8  C   UNL     1      35.078  10.750  31.098  1.00  0.00    -0.000 C 
BRANCH   8   9
ATOM      9  C   UNL     1      34.087   9.798  30.407  1.00  0.00    -0.000 C 
BRANCH   9  10
ATOM     10  C   UNL     1      34.719   8.446  30.029  1.00  0.00    -0.000 C 
BRANCH  10  11
ATOM     11  C   UNL     1      35.925   8.027  30.890  1.00  0.00    -0.003 C 
ATOM     12  C   UNL     1      35.570   6.982  31.948  1.00  0.00     0.004 C 
ENDBRANCH  10  11
ENDBRANCH   9  10
ENDBRANCH   8   9
ENDBRANCH   7   8
ENDBRANCH   6   7
ENDBRANCH   5   6
ENDBRANCH   4   5
ENDBRANCH   3   4
ENDBRANCH   2   3
ENDBRANCH   1   2
BRANCH   1  13
ATOM     13  C   UNL     1      29.716  11.093  28.735  1.00  0.00     0.000 C 
BRANCH  13  14
ATOM     14  C   UNL     1      29.879   9.881  27.809  1.00  0.00     0.000 C 
BRANCH  14  15
ATOM     15  C   UNL     1      31.342   9.421  27.762  1.00  0.00     0.000 C 
BRANCH  15  16
ATOM     16  C   UNL     1      31.550   8.036  28.396  1.00  0.00     0.000 C 
BRANCH  16  17
ATOM     17  C   UNL     1      30.221   7.328  28.720  1.00  0.00     0.000 C 
BRANCH  17  18
ATOM     18  C   UNL     1      30.057   7.064  30.231  1.00  0.00     0.000 C 
BRANCH  18  19
ATOM     19  C   UNL     1      31.303   7.425  31.059  1.00  0.00     0.000 C 
BRANCH  19  20
ATOM     20  C   UNL     1      31.011   7.529  32.565  1.00  0.00     0.006 C 
BRANCH  20  21
ATOM     21  C   UNL     1      32.140   6.933  33.417  1.00  0.00     0.053 C 
BRANCH  21  22
ATOM     22  C   UNL     1      31.841   7.028  34.882  1.00  0.00     0.041 C 
ATOM     23  O   UNL     1      30.726   7.461  35.276  1.00  0.00    -0.550 OA
ATOM     24  O   UNL     1      32.785   6.612  35.813  1.00  0.00    -0.550 OA
ENDBRANCH  21  22
ENDBRANCH  20  21
ENDBRANCH  19  20
ENDBRANCH  18  19
ENDBRANCH  17  18
ENDBRANCH  16  17
ENDBRANCH  15  16
ENDBRANCH  14  15
ENDBRANCH  13  14
ENDBRANCH   1  13
TORSDOF 20
ENDMDL
MODEL 8
REMARK VINA RESULT:    -4.020      1.459      4.107
REMARK INTER + INTRA:         -12.132
REMARK INTER:                  -7.992
REMARK INTRA:                  -4.140
REMARK UNBOUND:                -3.412
REMARK SMILES CCCCCCCCCCCCCCCCCCCCCC(=O)[O-]
REMARK SMILES IDX 12 1 11 2 10 3 9 4 8 5 7 6 6 7 5 8 4 9 3 10 2 11 1 12 13 13
REMARK SMILES IDX 14 14 15 15 16 16 17 17 18 18 19 19 20 20 21 21 22 22 23 23
REMARK SMILES IDX 24 24
REMARK H PARENT
REMARK Flexibility Score: inf
ROOT
ATOM      1  C   UNL     1      34.875   7.907  33.921  1.00  0.00     0.000 C 
ENDROOT
BRANCH   1   2
ATOM      2  C   UNL     1      35.994   7.370  33.015  1.00  0.00     0.000 C 
BRANCH   2   3
ATOM      3  C   UNL     1      35.486   6.958  31.623  1.00  0.00     0.000 C 
BRANCH   3   4
ATOM      4  C   UNL     1      35.669   8.073  30.580  1.00  0.00    -0.000 C 
BRANCH   4   5
ATOM      5  C   UNL     1      34.328   8.665  30.114  1.00  0.00    -0.000 C 
BRANCH   5   6
ATOM      6  C   UNL     1      34.111  10.108  30.603  1.00  0.00    -0.000 C 
BRANCH   6   7
ATOM      7  C   UNL     1      35.397  10.884  30.957  1.00  0.00    -0.000 C 
BRANCH   7   8
ATOM      8  C   UNL     1      35.218  12.022  31.978  1.00  0.00    -0.000 C 
BRANCH   8   9
ATOM      9  C   UNL     1      34.674  11.533  33.331  1.00  0.00    -0.000 C 
BRANCH   9  10
ATOM     10  C   UNL     1      33.412  12.292  33.778  1.00  0.00    -0.000 C 
BRANCH  10  11
ATOM     11  C   UNL     1      32.610  12.950  32.641  1.00  0.00    -0.003 C 
ATOM     12  C   UNL     1      31.374  12.147  32.237  1.00  0.00     0.004 C 
ENDBRANCH  10  11
ENDBRANCH   9  10
ENDBRANCH   8   9
ENDBRANCH   7   8
ENDBRANCH   6   7
ENDBRANCH   5   6
ENDBRANCH   4   5
ENDBRANCH   3   4
ENDBRANCH   2   3
ENDBRANCH   1   2
BRANCH   1  13
ATOM     13  C   UNL     1      33.478   7.436  33.485  1.00  0.00     0.000 C 
BRANCH  13  14
ATOM     14  C   UNL     1      32.479   8.599  33.489  1.00  0.00     0.000 C 
BRANCH  14  15
ATOM     15  C   UNL     1      31.408   8.405  32.406  1.00  0.00     0.000 C 
BRANCH  15  16
ATOM     16  C   UNL     1      31.120   6.923  32.117  1.00  0.00     0.000 C 
BRANCH  16  17
ATOM     17  C   UNL     1      30.791   6.662  30.636  1.00  0.00     0.000 C 
BRANCH  17  18
ATOM     18  C   UNL     1      30.273   7.929  29.923  1.00  0.00     0.000 C 
BRANCH  18  19
ATOM     19  C   UNL     1      30.933   8.179  28.555  1.00  0.00     0.000 C 
BRANCH  19  20
ATOM     20  C   UNL     1      31.241   9.665  28.303  1.00  0.00     0.006 C 
BRANCH  20  21
ATOM     21  C   UNL     1      30.306  10.592  29.092  1.00  0.00     0.053 C 
BRANCH  21  22
ATOM     22  C   UNL     1      29.108  10.990  28.287  1.00  0.00     0.041 C 
ATOM     23  O   UNL     1      28.044  11.341  28.863  1.00  0.00    -0.550 OA
ATOM     24  O   UNL     1      29.173  10.999  26.899  1.00  0.00    -0.550 OA
ENDBRANCH  21  22
ENDBRANCH  20  21
ENDBRANCH  19  20
ENDBRANCH  18  19
ENDBRANCH  17  18
ENDBRANCH  16  17
ENDBRANCH  15  16
ENDBRANCH  14  15
ENDBRANCH  13  14
ENDBRANCH   1  13
TORSDOF 20
ENDMDL
MODEL 9
REMARK VINA RESULT:    -3.967      1.542      4.265
REMARK INTER + INTRA:         -12.018
REMARK INTER:                  -7.882
REMARK INTRA:                  -4.135
REMARK UNBOUND:                -3.412
REMARK SMILES CCCCCCCCCCCCCCCCCCCCCC(=O)[O-]
REMARK SMILES IDX 12 1 11 2 10 3 9 4 8 5 7 6 6 7 5 8 4 9 3 10 2 11 1 12 13 13
REMARK SMILES IDX 14 14 15 15 16 16 17 17 18 18 19 19 20 20 21 21 22 22 23 23
REMARK SMILES IDX 24 24
REMARK H PARENT
REMARK Flexibility Score: inf
ROOT
ATOM      1  C   UNL     1      33.159   8.030  33.934  1.00  0.00     0.000 C 
ENDROOT
BRANCH   1   2
ATOM      2  C   UNL     1      34.575   8.604  34.106  1.00  0.00     0.000 C 
BRANCH   2   3
ATOM      3  C   UNL     1      35.666   7.523  34.031  1.00  0.00     0.000 C 
BRANCH   3   4
ATOM      4  C   UNL     1      36.553   7.672  32.784  1.00  0.00    -0.000 C 
BRANCH   4   5
ATOM      5  C   UNL     1      35.914   7.048  31.532  1.00  0.00    -0.000 C 
BRANCH   5   6
ATOM      6  C   UNL     1      35.632   8.082  30.427  1.00  0.00    -0.000 C 
BRANCH   6   7
ATOM      7  C   UNL     1      34.164   8.540  30.311  1.00  0.00    -0.000 C 
BRANCH   7   8
ATOM      8  C   UNL     1      33.927  10.048  30.507  1.00  0.00    -0.000 C 
BRANCH   8   9
ATOM      9  C   UNL     1      35.123  10.763  31.158  1.00  0.00    -0.000 C 
BRANCH   9  10
ATOM     10  C   UNL     1      34.709  11.995  31.982  1.00  0.00    -0.000 C 
BRANCH  10  11
ATOM     11  C   UNL     1      33.191  12.184  32.155  1.00  0.00    -0.003 C 
ATOM     12  C   UNL     1      32.733  13.619  31.902  1.00  0.00     0.004 C 
ENDBRANCH  10  11
ENDBRANCH   9  10
ENDBRANCH   8   9
ENDBRANCH   7   8
ENDBRANCH   6   7
ENDBRANCH   5   6
ENDBRANCH   4   5
ENDBRANCH   3   4
ENDBRANCH   2   3
ENDBRANCH   1   2
BRANCH   1  13
ATOM     13  C   UNL     1      32.108   9.114  33.648  1.00  0.00     0.000 C 
BRANCH  13  14
ATOM     14  C   UNL     1      31.137   8.663  32.549  1.00  0.00     0.000 C 
BRANCH  14  15
ATOM     15  C   UNL     1      31.196   7.141  32.357  1.00  0.00     0.000 C 
BRANCH  15  16
ATOM     16  C   UNL     1      30.981   6.719  30.894  1.00  0.00     0.000 C 
BRANCH  16  17
ATOM     17  C   UNL     1      30.264   7.800  30.065  1.00  0.00     0.000 C 
BRANCH  17  18
ATOM     18  C   UNL     1      30.750   7.829  28.601  1.00  0.00     0.000 C 
BRANCH  18  19
ATOM     19  C   UNL     1      31.225   9.217  28.137  1.00  0.00     0.000 C 
BRANCH  19  20
ATOM     20  C   UNL     1      30.191  10.324  28.407  1.00  0.00     0.006 C 
BRANCH  20  21
ATOM     21  C   UNL     1      30.716  11.379  29.391  1.00  0.00     0.053 C 
BRANCH  21  22
ATOM     22  C   UNL     1      29.629  11.899  30.281  1.00  0.00     0.041 C 
ATOM     23  O   UNL     1      29.714  11.766  31.531  1.00  0.00    -0.550 OA
ATOM     24  O   UNL     1      28.534  12.555  29.732  1.00  0.00    -0.550 OA
ENDBRANCH  21  22
ENDBRANCH  20  21
ENDBRANCH  19  20
ENDBRANCH  18  19
ENDBRANCH  17  18
ENDBRANCH  16  17
ENDBRANCH  15  16
ENDBRANCH  14  15
ENDBRANCH  13  14
ENDBRANCH   1  13
TORSDOF 20
ENDMDL
