MODEL 1
REMARK VINA RESULT:    -3.895      0.000      0.000
REMARK INTER + INTRA:          -6.013
REMARK INTER:                  -5.944
REMARK INTRA:                  -0.068
REMARK UNBOUND:                -0.068
REMARK SMILES CC1=CCC[C@H](C)C(=O)C[C@@H](C(C)C)C(=O)C1
REMARK SMILES IDX 8 1 9 2 6 3 7 4 5 5 4 6 3 7 2 8 1 9 10 11 11 12 15 13 16 14
REMARK SMILES IDX 17 15 12 17 13 18 14 19
REMARK H PARENT
REMARK Flexibility Score: 70.00
ROOT
ATOM      1  C   UNL     1      -7.099  -6.535  18.826  1.00  0.00     0.136 C 
ATOM      2  O   UNL     1      -6.740  -6.021  19.875  1.00  0.00    -0.299 OA
ENDROOT
BRANCH   1   3
ATOM      3  C   UNL     1      -6.507  -7.863  18.398  1.00  0.00     0.053 C 
ATOM      4  C   UNL     1      -5.722  -8.453  19.575  1.00  0.00     0.016 C 
BRANCH   3   5
ATOM      5  C   UNL     1      -7.584  -8.869  17.919  1.00  0.00     0.015 C 
BRANCH   5   6
ATOM      6  C   UNL     1      -7.707  -8.981  16.391  1.00  0.00     0.028 C 
BRANCH   6   7
ATOM      7  C   UNL     1      -9.127  -9.224  15.936  1.00  0.00    -0.028 C 
ATOM      8  C   UNL     1     -10.043  -8.270  15.649  1.00  0.00    -0.070 CG0
ATOM      9  C   UNL     1     -11.362  -8.718  15.067  1.00  0.00     0.039 C 
ATOM     10  G   UNL     1      -9.771  -6.782  15.790  1.00  0.00     0.000 G0
ENDBRANCH   6   7
ENDBRANCH   5   6
ENDBRANCH   3   5
ENDBRANCH   1   3
BRANCH   1  11
ATOM     11  C   UNL     1      -8.015  -5.762  17.905  1.00  0.00     0.087 C 
BRANCH  11  12
ATOM     12  C   UNL     1      -9.517  -5.911  18.277  1.00  0.00     0.066 C 
BRANCH  12  13
ATOM     13  C   UNL     1     -10.371  -6.188  17.037  1.00  0.00     0.140 C 
ATOM     14  O   UNL     1     -11.567  -5.932  17.040  1.00  0.00    -0.299 OA
BRANCH  13  15
ATOM     15  C   UNL     1      -9.777  -6.778  15.782  1.00  0.00     0.106 CG0
ATOM     16  G   UNL     1     -10.036  -8.270  15.668  1.00  0.00     0.000 G0
ENDBRANCH  13  15
ENDBRANCH  12  13
BRANCH  12  17
ATOM     17  C   UNL     1     -10.056  -4.699  19.107  1.00  0.00    -0.006 C 
ATOM     18  C   UNL     1      -9.538  -3.338  18.606  1.00  0.00     0.008 C 
ATOM     19  C   UNL     1      -9.768  -4.855  20.611  1.00  0.00     0.008 C 
ENDBRANCH  12  17
ENDBRANCH  11  12
ENDBRANCH   1  11
TORSDOF 1
ENDMDL
MODEL 2
REMARK VINA RESULT:    -3.820      0.967      1.093
REMARK INTER + INTRA:          -5.899
REMARK INTER:                  -5.929
REMARK INTRA:                   0.030
REMARK UNBOUND:                -0.068
REMARK SMILES CC1=CCC[C@H](C)C(=O)C[C@@H](C(C)C)C(=O)C1
REMARK SMILES IDX 8 1 9 2 6 3 7 4 5 5 4 6 3 7 2 8 1 9 10 11 11 12 15 13 16 14
REMARK SMILES IDX 17 15 12 17 13 18 14 19
REMARK H PARENT
REMARK Flexibility Score: 70.00
ROOT
ATOM      1  C   UNL     1      -7.209  -6.612  18.850  1.00  0.00     0.136 C 
ATOM      2  O   UNL     1      -6.576  -6.379  19.869  1.00  0.00    -0.299 OA
ENDROOT
BRANCH   1   3
ATOM      3  C   UNL     1      -6.952  -7.892  18.081  1.00  0.00     0.053 C 
ATOM      4  C   UNL     1      -6.248  -8.889  19.008  1.00  0.00     0.016 C 
BRANCH   3   5
ATOM      5  C   UNL     1      -8.250  -8.518  17.512  1.00  0.00     0.015 C 
BRANCH   5   6
ATOM      6  C   UNL     1      -8.509  -8.197  16.032  1.00  0.00     0.028 C 
BRANCH   6   7
ATOM      7  C   UNL     1      -9.980  -8.166  15.691  1.00  0.00    -0.028 C 
ATOM      8  C   UNL     1     -10.820  -7.123  15.889  1.00  0.00    -0.070 CG0
ATOM      9  C   UNL     1     -12.223  -7.239  15.343  1.00  0.00     0.039 C 
ATOM     10  G   UNL     1     -10.391  -5.819  16.540  1.00  0.00     0.000 G0
ENDBRANCH   6   7
ENDBRANCH   5   6
ENDBRANCH   3   5
ENDBRANCH   1   3
BRANCH   1  11
ATOM     11  C   UNL     1      -8.130  -5.548  18.298  1.00  0.00     0.087 C 
BRANCH  11  12
ATOM     12  C   UNL     1      -9.515  -5.516  19.005  1.00  0.00     0.066 C 
BRANCH  12  13
ATOM     13  C   UNL     1     -10.652  -5.748  18.008  1.00  0.00     0.140 C 
ATOM     14  O   UNL     1     -11.800  -5.902  18.403  1.00  0.00    -0.299 OA
BRANCH  13  15
ATOM     15  C   UNL     1     -10.405  -5.794  16.520  1.00  0.00     0.106 CG0
ATOM     16  G   UNL     1     -10.815  -7.122  15.907  1.00  0.00     0.000 G0
ENDBRANCH  13  15
ENDBRANCH  12  13
BRANCH  12  17
ATOM     17  C   UNL     1      -9.728  -4.218  19.853  1.00  0.00    -0.006 C 
ATOM     18  C   UNL     1      -9.042  -2.977  19.253  1.00  0.00     0.008 C 
ATOM     19  C   UNL     1      -9.295  -4.408  21.317  1.00  0.00     0.008 C 
ENDBRANCH  12  17
ENDBRANCH  11  12
ENDBRANCH   1  11
TORSDOF 1
ENDMDL
MODEL 3
REMARK VINA RESULT:    -3.774      1.471      2.361
REMARK INTER + INTRA:          -5.828
REMARK INTER:                  -5.618
REMARK INTRA:                  -0.210
REMARK UNBOUND:                -0.068
REMARK SMILES CC1=CCC[C@H](C)C(=O)C[C@@H](C(C)C)C(=O)C1
REMARK SMILES IDX 8 1 9 2 6 3 7 4 5 5 4 6 3 7 2 8 1 9 10 11 11 12 15 13 16 14
REMARK SMILES IDX 17 15 12 17 13 18 14 19
REMARK H PARENT
REMARK Flexibility Score: 70.00
ROOT
ATOM      1  C   UNL     1      -7.203  -6.577  18.452  1.00  0.00     0.136 C 
ATOM      2  O   UNL     1      -7.426  -6.040  19.528  1.00  0.00    -0.299 OA
ENDROOT
BRANCH   1   3
ATOM      3  C   UNL     1      -6.115  -7.627  18.347  1.00  0.00     0.053 C 
ATOM      4  C   UNL     1      -4.856  -7.101  19.047  1.00  0.00     0.016 C 
BRANCH   3   5
ATOM      5  C   UNL     1      -6.536  -8.986  18.960  1.00  0.00     0.015 C 
BRANCH   5   6
ATOM      6  C   UNL     1      -7.567  -9.762  18.125  1.00  0.00     0.028 C 
BRANCH   6   7
ATOM      7  C   UNL     1      -7.146  -9.927  16.683  1.00  0.00    -0.028 C 
ATOM      8  C   UNL     1      -7.886  -9.599  15.598  1.00  0.00    -0.070 CG0
ATOM      9  C   UNL     1      -7.226  -9.703  14.244  1.00  0.00     0.039 C 
ATOM     10  G   UNL     1      -9.297  -9.044  15.686  1.00  0.00     0.000 G0
ENDBRANCH   6   7
ENDBRANCH   5   6
ENDBRANCH   3   5
ENDBRANCH   1   3
BRANCH   1  11
ATOM     11  C   UNL     1      -7.917  -6.074  17.218  1.00  0.00     0.087 C 
BRANCH  11  12
ATOM     12  C   UNL     1      -9.310  -6.734  17.011  1.00  0.00     0.066 C 
BRANCH  12  13
ATOM     13  C   UNL     1      -9.359  -7.530  15.705  1.00  0.00     0.140 C 
ATOM     14  O   UNL     1      -9.439  -6.951  14.631  1.00  0.00    -0.299 OA
BRANCH  13  15
ATOM     15  C   UNL     1      -9.310  -9.038  15.695  1.00  0.00     0.106 CG0
ATOM     16  G   UNL     1      -7.891  -9.569  15.591  1.00  0.00     0.000 G0
ENDBRANCH  13  15
ENDBRANCH  12  13
BRANCH  12  17
ATOM     17  C   UNL     1     -10.485  -5.705  17.121  1.00  0.00    -0.006 C 
ATOM     18  C   UNL     1     -10.561  -5.009  18.493  1.00  0.00     0.008 C 
ATOM     19  C   UNL     1     -11.842  -6.340  16.772  1.00  0.00     0.008 C 
ENDBRANCH  12  17
ENDBRANCH  11  12
ENDBRANCH   1  11
TORSDOF 1
ENDMDL
MODEL 4
REMARK VINA RESULT:    -3.512      1.685      4.019
REMARK INTER + INTRA:          -5.428
REMARK INTER:                  -5.147
REMARK INTRA:                  -0.281
REMARK UNBOUND:                -0.068
REMARK SMILES CC1=CCC[C@H](C)C(=O)C[C@@H](C(C)C)C(=O)C1
REMARK SMILES IDX 8 1 9 2 6 3 7 4 5 5 4 6 3 7 2 8 1 9 10 11 11 12 15 13 16 14
REMARK SMILES IDX 17 15 12 17 13 18 14 19
REMARK H PARENT
REMARK Flexibility Score: 70.00
ROOT
ATOM      1  C   UNL     1     -11.035  -5.666  17.469  1.00  0.00     0.136 C 
ATOM      2  O   UNL     1     -11.903  -4.806  17.468  1.00  0.00    -0.299 OA
ENDROOT
BRANCH   1   3
ATOM      3  C   UNL     1     -10.912  -6.610  16.290  1.00  0.00     0.053 C 
ATOM      4  C   UNL     1     -12.293  -7.201  15.986  1.00  0.00     0.016 C 
BRANCH   3   5
ATOM      5  C   UNL     1     -10.340  -5.916  15.028  1.00  0.00     0.015 C 
BRANCH   5   6
ATOM      6  C   UNL     1      -8.808  -5.796  15.013  1.00  0.00     0.028 C 
BRANCH   6   7
ATOM      7  C   UNL     1      -8.120  -7.042  15.520  1.00  0.00    -0.028 C 
ATOM      8  C   UNL     1      -7.278  -7.109  16.578  1.00  0.00    -0.070 CG0
ATOM      9  C   UNL     1      -6.810  -8.477  17.015  1.00  0.00     0.039 C 
ATOM     10  G   UNL     1      -6.869  -5.897  17.398  1.00  0.00     0.000 G0
ENDBRANCH   6   7
ENDBRANCH   5   6
ENDBRANCH   3   5
ENDBRANCH   1   3
BRANCH   1  11
ATOM     11  C   UNL     1     -10.199  -5.866  18.713  1.00  0.00     0.087 C 
BRANCH  11  12
ATOM     12  C   UNL     1      -8.945  -4.948  18.755  1.00  0.00     0.066 C 
BRANCH  12  13
ATOM     13  C   UNL     1      -7.654  -5.769  18.692  1.00  0.00     0.140 C 
ATOM     14  O   UNL     1      -7.238  -6.344  19.688  1.00  0.00    -0.299 OA
BRANCH  13  15
ATOM     15  C   UNL     1      -6.859  -5.898  17.416  1.00  0.00     0.106 CG0
ATOM     16  G   UNL     1      -7.284  -7.099  16.590  1.00  0.00     0.000 G0
ENDBRANCH  13  15
ENDBRANCH  12  13
BRANCH  12  17
ATOM     17  C   UNL     1      -8.960  -3.963  19.971  1.00  0.00    -0.006 C 
ATOM     18  C   UNL     1      -9.689  -4.527  21.205  1.00  0.00     0.008 C 
ATOM     19  C   UNL     1      -9.540  -2.589  19.593  1.00  0.00     0.008 C 
ENDBRANCH  12  17
ENDBRANCH  11  12
ENDBRANCH   1  11
TORSDOF 1
ENDMDL
MODEL 5
REMARK VINA RESULT:    -3.491      1.985      5.188
REMARK INTER + INTRA:          -5.396
REMARK INTER:                  -5.098
REMARK INTRA:                  -0.298
REMARK UNBOUND:                -0.068
REMARK SMILES CC1=CCC[C@H](C)C(=O)C[C@@H](C(C)C)C(=O)C1
REMARK SMILES IDX 8 1 9 2 6 3 7 4 5 5 4 6 3 7 2 8 1 9 10 11 11 12 15 13 16 14
REMARK SMILES IDX 17 15 12 17 13 18 14 19
REMARK H PARENT
REMARK Flexibility Score: 70.00
ROOT
ATOM      1  C   UNL     1      -9.814  -7.498  15.692  1.00  0.00     0.136 C 
ATOM      2  O   UNL     1     -10.111  -8.631  15.344  1.00  0.00    -0.299 OA
ENDROOT
BRANCH   1   3
ATOM      3  C   UNL     1     -10.830  -6.381  15.565  1.00  0.00     0.053 C 
ATOM      4  C   UNL     1     -11.459  -6.447  14.168  1.00  0.00     0.016 C 
BRANCH   3   5
ATOM      5  C   UNL     1     -11.933  -6.452  16.650  1.00  0.00     0.015 C 
BRANCH   5   6
ATOM      6  C   UNL     1     -11.432  -6.188  18.078  1.00  0.00     0.028 C 
BRANCH   6   7
ATOM      7  C   UNL     1     -10.741  -4.852  18.217  1.00  0.00    -0.028 C 
ATOM      8  C   UNL     1      -9.524  -4.642  18.773  1.00  0.00    -0.070 CG0
ATOM      9  C   UNL     1      -8.944  -3.251  18.681  1.00  0.00     0.039 C 
ATOM     10  G   UNL     1      -8.685  -5.749  19.387  1.00  0.00     0.000 G0
ENDBRANCH   6   7
ENDBRANCH   5   6
ENDBRANCH   3   5
ENDBRANCH   1   3
BRANCH   1  11
ATOM     11  C   UNL     1      -8.388  -7.206  16.104  1.00  0.00     0.087 C 
BRANCH  11  12
ATOM     12  C   UNL     1      -8.088  -7.603  17.577  1.00  0.00     0.066 C 
BRANCH  12  13
ATOM     13  C   UNL     1      -7.699  -6.382  18.413  1.00  0.00     0.140 C 
ATOM     14  O   UNL     1      -6.586  -5.886  18.302  1.00  0.00    -0.299 OA
BRANCH  13  15
ATOM     15  C   UNL     1      -8.659  -5.753  19.392  1.00  0.00     0.106 CG0
ATOM     16  G   UNL     1      -9.503  -4.664  18.753  1.00  0.00     0.000 G0
ENDBRANCH  13  15
ENDBRANCH  12  13
BRANCH  12  17
ATOM     17  C   UNL     1      -7.035  -8.756  17.687  1.00  0.00    -0.006 C 
ATOM     18  C   UNL     1      -7.137  -9.787  16.548  1.00  0.00     0.008 C 
ATOM     19  C   UNL     1      -7.094  -9.464  19.052  1.00  0.00     0.008 C 
ENDBRANCH  12  17
ENDBRANCH  11  12
ENDBRANCH   1  11
TORSDOF 1
ENDMDL
MODEL 6
REMARK VINA RESULT:    -3.254      1.759      4.036
REMARK INTER + INTRA:          -5.035
REMARK INTER:                  -5.228
REMARK INTRA:                   0.193
REMARK UNBOUND:                -0.068
REMARK SMILES CC1=CCC[C@H](C)C(=O)C[C@@H](C(C)C)C(=O)C1
REMARK SMILES IDX 8 1 9 2 6 3 7 4 5 5 4 6 3 7 2 8 1 9 10 11 11 12 15 13 16 14
REMARK SMILES IDX 17 15 12 17 13 18 14 19
REMARK H PARENT
REMARK Flexibility Score: 70.00
ROOT
ATOM      1  C   UNL     1      -8.665  -5.420  19.742  1.00  0.00     0.136 C 
ATOM      2  O   UNL     1      -7.935  -5.042  20.647  1.00  0.00    -0.299 OA
ENDROOT
BRANCH   1   3
ATOM      3  C   UNL     1      -9.947  -4.668  19.448  1.00  0.00     0.053 C 
ATOM      4  C   UNL     1      -9.598  -3.375  18.702  1.00  0.00     0.016 C 
BRANCH   3   5
ATOM      5  C   UNL     1     -10.954  -5.505  18.620  1.00  0.00     0.015 C 
BRANCH   5   6
ATOM      6  C   UNL     1     -10.948  -5.193  17.116  1.00  0.00     0.028 C 
BRANCH   6   7
ATOM      7  C   UNL     1     -10.428  -6.341  16.283  1.00  0.00    -0.028 C 
ATOM      8  C   UNL     1      -9.133  -6.560  15.955  1.00  0.00    -0.070 CG0
ATOM      9  C   UNL     1      -8.800  -7.847  15.239  1.00  0.00     0.039 C 
ATOM     10  G   UNL     1      -8.001  -5.631  16.358  1.00  0.00     0.000 G0
ENDBRANCH   6   7
ENDBRANCH   5   6
ENDBRANCH   3   5
ENDBRANCH   1   3
BRANCH   1  11
ATOM     11  C   UNL     1      -8.347  -6.717  19.034  1.00  0.00     0.087 C 
BRANCH  11  12
ATOM     12  C   UNL     1      -6.892  -6.770  18.488  1.00  0.00     0.066 C 
BRANCH  12  13
ATOM     13  C   UNL     1      -6.837  -6.356  17.016  1.00  0.00     0.140 C 
ATOM     14  O   UNL     1      -5.852  -6.614  16.337  1.00  0.00    -0.299 OA
BRANCH  13  15
ATOM     15  C   UNL     1      -7.979  -5.625  16.355  1.00  0.00     0.106 CG0
ATOM     16  G   UNL     1      -9.113  -6.557  15.966  1.00  0.00     0.000 G0
ENDBRANCH  13  15
ENDBRANCH  12  13
BRANCH  12  17
ATOM     17  C   UNL     1      -6.205  -8.154  18.739  1.00  0.00    -0.006 C 
ATOM     18  C   UNL     1      -7.099  -9.355  18.376  1.00  0.00     0.008 C 
ATOM     19  C   UNL     1      -5.694  -8.291  20.184  1.00  0.00     0.008 C 
ENDBRANCH  12  17
ENDBRANCH  11  12
ENDBRANCH   1  11
TORSDOF 1
ENDMDL
MODEL 7
REMARK VINA RESULT:    -3.210      1.776      3.524
REMARK INTER + INTRA:          -4.967
REMARK INTER:                  -4.929
REMARK INTRA:                  -0.038
REMARK UNBOUND:                -0.068
REMARK SMILES CC1=CCC[C@H](C)C(=O)C[C@@H](C(C)C)C(=O)C1
REMARK SMILES IDX 8 1 9 2 6 3 7 4 5 5 4 6 3 7 2 8 1 9 10 11 11 12 15 13 16 14
REMARK SMILES IDX 17 15 12 17 13 18 14 19
REMARK H PARENT
REMARK Flexibility Score: 70.00
ROOT
ATOM      1  C   UNL     1      -9.682  -5.157  18.680  1.00  0.00     0.136 C 
ATOM      2  O   UNL     1     -10.816  -5.055  19.127  1.00  0.00    -0.299 OA
ENDROOT
BRANCH   1   3
ATOM      3  C   UNL     1      -8.492  -4.915  19.587  1.00  0.00     0.053 C 
ATOM      4  C   UNL     1      -9.003  -4.431  20.949  1.00  0.00     0.016 C 
BRANCH   3   5
ATOM      5  C   UNL     1      -7.613  -6.178  19.766  1.00  0.00     0.015 C 
BRANCH   5   6
ATOM      6  C   UNL     1      -6.694  -6.481  18.573  1.00  0.00     0.028 C 
BRANCH   6   7
ATOM      7  C   UNL     1      -6.767  -7.924  18.131  1.00  0.00    -0.028 C 
ATOM      8  C   UNL     1      -7.281  -8.371  16.961  1.00  0.00    -0.070 CG0
ATOM      9  C   UNL     1      -7.126  -9.839  16.644  1.00  0.00     0.039 C 
ATOM     10  G   UNL     1      -7.909  -7.458  15.923  1.00  0.00     0.000 G0
ENDBRANCH   6   7
ENDBRANCH   5   6
ENDBRANCH   3   5
ENDBRANCH   1   3
BRANCH   1  11
ATOM     11  C   UNL     1      -9.494  -5.377  17.196  1.00  0.00     0.087 C 
BRANCH  11  12
ATOM     12  C   UNL     1     -10.307  -6.586  16.653  1.00  0.00     0.066 C 
BRANCH  12  13
ATOM     13  C   UNL     1      -9.414  -7.545  15.862  1.00  0.00     0.140 C 
ATOM     14  O   UNL     1      -9.910  -8.422  15.169  1.00  0.00    -0.299 OA
BRANCH  13  15
ATOM     15  C   UNL     1      -7.909  -7.444  15.907  1.00  0.00     0.106 CG0
ATOM     16  G   UNL     1      -7.301  -8.359  16.956  1.00  0.00     0.000 G0
ENDBRANCH  13  15
ENDBRANCH  12  13
BRANCH  12  17
ATOM     17  C   UNL     1     -11.569  -6.146  15.839  1.00  0.00    -0.006 C 
ATOM     18  C   UNL     1     -11.676  -4.621  15.654  1.00  0.00     0.008 C 
ATOM     19  C   UNL     1     -12.870  -6.699  16.446  1.00  0.00     0.008 C 
ENDBRANCH  12  17
ENDBRANCH  11  12
ENDBRANCH   1  11
TORSDOF 1
ENDMDL
MODEL 8
REMARK VINA RESULT:    -3.208      1.708      4.134
REMARK INTER + INTRA:          -4.964
REMARK INTER:                  -4.689
REMARK INTRA:                  -0.275
REMARK UNBOUND:                -0.068
REMARK SMILES CC1=CCC[C@H](C)C(=O)C[C@@H](C(C)C)C(=O)C1
REMARK SMILES IDX 8 1 9 2 6 3 7 4 5 5 4 6 3 7 2 8 1 9 10 11 11 12 15 13 16 14
REMARK SMILES IDX 17 15 12 17 13 18 14 19
REMARK H PARENT
REMARK Flexibility Score: 70.00
ROOT
ATOM      1  C   UNL     1      -8.557  -5.909  18.502  1.00  0.00     0.136 C 
ATOM      2  O   UNL     1      -7.379  -5.622  18.657  1.00  0.00    -0.299 OA
ENDROOT
BRANCH   1   3
ATOM      3  C   UNL     1      -9.631  -5.045  19.132  1.00  0.00     0.053 C 
ATOM      4  C   UNL     1      -9.282  -4.827  20.609  1.00  0.00     0.016 C 
BRANCH   3   5
ATOM      5  C   UNL     1      -9.795  -3.682  18.415  1.00  0.00     0.015 C 
BRANCH   5   6
ATOM      6  C   UNL     1     -10.661  -3.735  17.147  1.00  0.00     0.028 C 
BRANCH   6   7
ATOM      7  C   UNL     1     -11.803  -4.717  17.260  1.00  0.00    -0.028 C 
ATOM      8  C   UNL     1     -11.997  -5.802  16.475  1.00  0.00    -0.070 CG0
ATOM      9  C   UNL     1     -13.120  -6.742  16.846  1.00  0.00     0.039 C 
ATOM     10  G   UNL     1     -11.088  -6.167  15.314  1.00  0.00     0.000 G0
ENDBRANCH   6   7
ENDBRANCH   5   6
ENDBRANCH   3   5
ENDBRANCH   1   3
BRANCH   1  11
ATOM     11  C   UNL     1      -8.911  -7.206  17.810  1.00  0.00     0.087 C 
BRANCH  11  12
ATOM     12  C   UNL     1      -8.806  -7.116  16.261  1.00  0.00     0.066 C 
BRANCH  12  13
ATOM     13  C   UNL     1     -10.170  -7.320  15.599  1.00  0.00     0.140 C 
ATOM     14  O   UNL     1     -10.551  -8.443  15.299  1.00  0.00    -0.299 OA
BRANCH  13  15
ATOM     15  C   UNL     1     -11.085  -6.159  15.296  1.00  0.00     0.106 CG0
ATOM     16  G   UNL     1     -11.980  -5.807  16.472  1.00  0.00     0.000 G0
ENDBRANCH  13  15
ENDBRANCH  12  13
BRANCH  12  17
ATOM     17  C   UNL     1      -7.716  -8.074  15.675  1.00  0.00    -0.006 C 
ATOM     18  C   UNL     1      -7.242  -9.145  16.676  1.00  0.00     0.008 C 
ATOM     19  C   UNL     1      -6.509  -7.302  15.115  1.00  0.00     0.008 C 
ENDBRANCH  12  17
ENDBRANCH  11  12
ENDBRANCH   1  11
TORSDOF 1
ENDMDL
MODEL 9
REMARK VINA RESULT:    -3.110      1.911      4.132
REMARK INTER + INTRA:          -4.814
REMARK INTER:                  -4.929
REMARK INTRA:                   0.114
REMARK UNBOUND:                -0.068
REMARK SMILES CC1=CCC[C@H](C)C(=O)C[C@@H](C(C)C)C(=O)C1
REMARK SMILES IDX 8 1 9 2 6 3 7 4 5 5 4 6 3 7 2 8 1 9 10 11 11 12 15 13 16 14
REMARK SMILES IDX 17 15 12 17 13 18 14 19
REMARK H PARENT
REMARK Flexibility Score: 70.00
ROOT
ATOM      1  C   UNL     1      -8.647  -5.533  18.108  1.00  0.00     0.136 C 
ATOM      2  O   UNL     1      -8.302  -4.390  18.369  1.00  0.00    -0.299 OA
ENDROOT
BRANCH   1   3
ATOM      3  C   UNL     1      -9.831  -5.770  17.191  1.00  0.00     0.053 C 
ATOM      4  C   UNL     1     -10.860  -4.657  17.421  1.00  0.00     0.016 C 
BRANCH   3   5
ATOM      5  C   UNL     1      -9.426  -5.821  15.697  1.00  0.00     0.015 C 
BRANCH   5   6
ATOM      6  C   UNL     1      -9.574  -7.208  15.050  1.00  0.00     0.028 C 
BRANCH   6   7
ATOM      7  C   UNL     1      -8.247  -7.815  14.661  1.00  0.00    -0.028 C 
ATOM      8  C   UNL     1      -7.628  -8.841  15.292  1.00  0.00    -0.070 CG0
ATOM      9  C   UNL     1      -6.377  -9.400  14.658  1.00  0.00     0.039 C 
ATOM     10  G   UNL     1      -8.182  -9.511  16.537  1.00  0.00     0.000 G0
ENDBRANCH   6   7
ENDBRANCH   5   6
ENDBRANCH   3   5
ENDBRANCH   1   3
BRANCH   1  11
ATOM     11  C   UNL     1      -7.978  -6.685  18.824  1.00  0.00     0.087 C 
BRANCH  11  12
ATOM     12  C   UNL     1      -7.053  -7.522  17.896  1.00  0.00     0.066 C 
BRANCH  12  13
ATOM     13  C   UNL     1      -7.530  -8.973  17.800  1.00  0.00     0.140 C 
ATOM     14  O   UNL     1      -7.402  -9.730  18.752  1.00  0.00    -0.299 OA
BRANCH  13  15
ATOM     15  C   UNL     1      -8.166  -9.516  16.545  1.00  0.00     0.106 CG0
ATOM     16  G   UNL     1      -7.626  -8.853  15.290  1.00  0.00     0.000 G0
ENDBRANCH  13  15
ENDBRANCH  12  13
BRANCH  12  17
ATOM     17  C   UNL     1      -5.544  -7.420  18.299  1.00  0.00    -0.006 C 
ATOM     18  C   UNL     1      -5.328  -6.853  19.715  1.00  0.00     0.008 C 
ATOM     19  C   UNL     1      -4.725  -6.616  17.274  1.00  0.00     0.008 C 
ENDBRANCH  12  17
ENDBRANCH  11  12
ENDBRANCH   1  11
TORSDOF 1
ENDMDL
