MODEL 1
REMARK VINA RESULT:    -5.190      0.000      0.000
REMARK INTER + INTRA:          -6.387
REMARK INTER:                  -6.101
REMARK INTRA:                  -0.287
REMARK UNBOUND:                -0.287
REMARK SMILES O=c1c(O)c(-c2ccc(O)cc2)oc2cc(O)cc(O)c12
REMARK SMILES IDX 5 1 3 2 2 3 1 4 21 5 19 6 18 7 16 8 15 9 14 10 13 11 6 12
REMARK SMILES IDX 7 13 8 14 9 15 12 16 11 17 10 18 4 20 20 22 17 24
REMARK H PARENT 10 19 4 21 20 23 17 25
REMARK Flexibility Score: inf
ROOT
ATOM      1  C   UNL     1      43.531  18.239  -3.413  1.00  0.00     0.180 A 
ATOM      2  C   UNL     1      43.887  18.690  -4.697  1.00  0.00     0.208 A 
ATOM      3  C   UNL     1      44.827  17.957  -5.437  1.00  0.00     0.238 A 
ATOM      4  O   UNL     1      45.101  18.335  -6.608  1.00  0.00    -0.285 OA
ATOM      5  C   UNL     1      45.412  16.794  -4.882  1.00  0.00     0.111 A 
ATOM      6  C   UNL     1      46.405  15.998  -5.529  1.00  0.00     0.134 A 
ATOM      7  C   UNL     1      46.818  14.796  -4.940  1.00  0.00     0.093 A 
ATOM      8  C   UNL     1      46.323  14.394  -3.700  1.00  0.00     0.123 A 
ATOM      9  C   UNL     1      45.397  15.195  -3.031  1.00  0.00     0.094 A 
ATOM     10  C   UNL     1      44.939  16.382  -3.609  1.00  0.00     0.146 A 
ATOM     11  O   UNL     1      44.048  17.109  -2.945  1.00  0.00    -0.452 OA
ENDROOT
BRANCH   1  12
ATOM     12  C   UNL     1      42.566  18.971  -2.560  1.00  0.00     0.021 A 
ATOM     13  C   UNL     1      43.018  20.025  -1.750  1.00  0.00     0.016 A 
ATOM     14  C   UNL     1      42.120  20.744  -0.955  1.00  0.00     0.047 A 
ATOM     15  C   UNL     1      40.759  20.428  -0.969  1.00  0.00     0.115 A 
ATOM     16  C   UNL     1      41.191  18.670  -2.586  1.00  0.00     0.016 A 
ATOM     17  C   UNL     1      40.296  19.392  -1.790  1.00  0.00     0.047 A 
BRANCH  15  18
ATOM     18  O   UNL     1      39.876  21.152  -0.172  1.00  0.00    -0.508 OA
ATOM     19  H   UNL     1      40.102  21.389   0.787  1.00  0.00     0.293 HD
ENDBRANCH  15  18
ENDBRANCH   1  12
BRANCH   2  20
ATOM     20  O   UNL     1      43.280  19.828  -5.235  1.00  0.00    -0.502 OA
ATOM     21  H   UNL     1      43.524  20.765  -4.938  1.00  0.00     0.293 HD
ENDBRANCH   2  20
BRANCH   6  22
ATOM     22  O   UNL     1      47.033  16.354  -6.726  1.00  0.00    -0.507 OA
ATOM     23  H   UNL     1      47.388  15.698  -7.405  1.00  0.00     0.293 HD
ENDBRANCH   6  22
BRANCH   8  24
ATOM     24  O   UNL     1      46.768  13.201  -3.136  1.00  0.00    -0.508 OA
ATOM     25  H   UNL     1      46.503  12.927  -2.196  1.00  0.00     0.293 HD
ENDBRANCH   8  24
TORSDOF 5
ENDMDL
MODEL 2
REMARK VINA RESULT:    -5.167      6.504      8.081
REMARK INTER + INTRA:          -6.360
REMARK INTER:                  -6.065
REMARK INTRA:                  -0.295
REMARK UNBOUND:                -0.287
REMARK SMILES O=c1c(O)c(-c2ccc(O)cc2)oc2cc(O)cc(O)c12
REMARK SMILES IDX 5 1 3 2 2 3 1 4 21 5 19 6 18 7 16 8 15 9 14 10 13 11 6 12
REMARK SMILES IDX 7 13 8 14 9 15 12 16 11 17 10 18 4 20 20 22 17 24
REMARK H PARENT 10 19 4 21 20 23 17 25
REMARK Flexibility Score: inf
ROOT
ATOM      1  C   UNL     1      49.305  13.871  -4.998  1.00  0.00     0.180 A 
ATOM      2  C   UNL     1      49.212  15.218  -5.391  1.00  0.00     0.208 A 
ATOM      3  C   UNL     1      50.315  15.822  -6.012  1.00  0.00     0.238 A 
ATOM      4  O   UNL     1      50.207  17.013  -6.411  1.00  0.00    -0.285 OA
ATOM      5  C   UNL     1      51.502  15.080  -6.219  1.00  0.00     0.111 A 
ATOM      6  C   UNL     1      52.695  15.605  -6.803  1.00  0.00     0.134 A 
ATOM      7  C   UNL     1      53.765  14.744  -7.079  1.00  0.00     0.093 A 
ATOM      8  C   UNL     1      53.712  13.395  -6.733  1.00  0.00     0.123 A 
ATOM      9  C   UNL     1      52.575  12.885  -6.106  1.00  0.00     0.094 A 
ATOM     10  C   UNL     1      51.477  13.710  -5.852  1.00  0.00     0.146 A 
ATOM     11  O   UNL     1      50.408  13.182  -5.264  1.00  0.00    -0.452 OA
ENDROOT
BRANCH   1  12
ATOM     12  C   UNL     1      48.194  13.170  -4.315  1.00  0.00     0.021 A 
ATOM     13  C   UNL     1      47.247  12.466  -5.076  1.00  0.00     0.016 A 
ATOM     14  C   UNL     1      46.203  11.778  -4.449  1.00  0.00     0.047 A 
ATOM     15  C   UNL     1      46.099  11.775  -3.056  1.00  0.00     0.115 A 
ATOM     16  C   UNL     1      48.095  13.146  -2.910  1.00  0.00     0.016 A 
ATOM     17  C   UNL     1      47.050  12.457  -2.287  1.00  0.00     0.047 A 
BRANCH  15  18
ATOM     18  O   UNL     1      45.053  11.087  -2.445  1.00  0.00    -0.508 OA
ATOM     19  H   UNL     1      44.129  11.494  -2.360  1.00  0.00     0.293 HD
ENDBRANCH  15  18
ENDBRANCH   1  12
BRANCH   2  20
ATOM     20  O   UNL     1      48.022  15.925  -5.197  1.00  0.00    -0.502 OA
ATOM     21  H   UNL     1      47.636  16.541  -5.902  1.00  0.00     0.293 HD
ENDBRANCH   2  20
BRANCH   6  22
ATOM     22  O   UNL     1      52.888  16.957  -7.104  1.00  0.00    -0.507 OA
ATOM     23  H   UNL     1      52.146  17.617  -7.277  1.00  0.00     0.293 HD
ENDBRANCH   6  22
BRANCH   8  24
ATOM     24  O   UNL     1      54.802  12.571  -7.007  1.00  0.00    -0.508 OA
ATOM     25  H   UNL     1      54.690  11.689  -7.493  1.00  0.00     0.293 HD
ENDBRANCH   8  24
TORSDOF 5
ENDMDL
MODEL 3
REMARK VINA RESULT:    -5.023      3.252      5.357
REMARK INTER + INTRA:          -6.191
REMARK INTER:                  -6.008
REMARK INTRA:                  -0.183
REMARK UNBOUND:                -0.287
REMARK SMILES O=c1c(O)c(-c2ccc(O)cc2)oc2cc(O)cc(O)c12
REMARK SMILES IDX 5 1 3 2 2 3 1 4 21 5 19 6 18 7 16 8 15 9 14 10 13 11 6 12
REMARK SMILES IDX 7 13 8 14 9 15 12 16 11 17 10 18 4 20 20 22 17 24
REMARK H PARENT 10 19 4 21 20 23 17 25
REMARK Flexibility Score: inf
ROOT
ATOM      1  C   UNL     1      46.300  14.975  -3.869  1.00  0.00     0.180 A 
ATOM      2  C   UNL     1      47.072  13.935  -3.321  1.00  0.00     0.208 A 
ATOM      3  C   UNL     1      48.425  13.834  -3.676  1.00  0.00     0.238 A 
ATOM      4  O   UNL     1      49.125  12.934  -3.140  1.00  0.00    -0.285 OA
ATOM      5  C   UNL     1      48.988  14.762  -4.585  1.00  0.00     0.111 A 
ATOM      6  C   UNL     1      50.339  14.729  -5.045  1.00  0.00     0.134 A 
ATOM      7  C   UNL     1      50.822  15.774  -5.843  1.00  0.00     0.093 A 
ATOM      8  C   UNL     1      49.988  16.814  -6.251  1.00  0.00     0.123 A 
ATOM      9  C   UNL     1      48.650  16.824  -5.856  1.00  0.00     0.094 A 
ATOM     10  C   UNL     1      48.148  15.815  -5.030  1.00  0.00     0.146 A 
ATOM     11  O   UNL     1      46.871  15.868  -4.668  1.00  0.00    -0.452 OA
ENDROOT
BRANCH   1  12
ATOM     12  C   UNL     1      44.860  15.133  -3.564  1.00  0.00     0.021 A 
ATOM     13  C   UNL     1      44.419  16.275  -2.876  1.00  0.00     0.016 A 
ATOM     14  C   UNL     1      43.060  16.455  -2.597  1.00  0.00     0.047 A 
ATOM     15  C   UNL     1      42.124  15.504  -3.013  1.00  0.00     0.115 A 
ATOM     16  C   UNL     1      43.910  14.188  -3.998  1.00  0.00     0.016 A 
ATOM     17  C   UNL     1      42.552  14.372  -3.718  1.00  0.00     0.047 A 
BRANCH  15  18
ATOM     18  O   UNL     1      40.775  15.696  -2.728  1.00  0.00    -0.508 OA
ATOM     19  H   UNL     1      40.054  15.146  -3.181  1.00  0.00     0.293 HD
ENDBRANCH  15  18
ENDBRANCH   1  12
BRANCH   2  20
ATOM     20  O   UNL     1      46.502  13.044  -2.408  1.00  0.00    -0.502 OA
ATOM     21  H   UNL     1      47.037  12.614  -1.663  1.00  0.00     0.293 HD
ENDBRANCH   2  20
BRANCH   6  22
ATOM     22  O   UNL     1      51.232  13.688  -4.772  1.00  0.00    -0.507 OA
ATOM     23  H   UNL     1      52.221  13.807  -4.613  1.00  0.00     0.293 HD
ENDBRANCH   6  22
BRANCH   8  24
ATOM     24  O   UNL     1      50.499  17.828  -7.057  1.00  0.00    -0.508 OA
ATOM     25  H   UNL     1      51.083  17.624  -7.860  1.00  0.00     0.293 HD
ENDBRANCH   8  24
TORSDOF 5
ENDMDL
MODEL 4
REMARK VINA RESULT:    -4.991      2.331      4.458
REMARK INTER + INTRA:          -6.153
REMARK INTER:                  -6.156
REMARK INTRA:                   0.003
REMARK UNBOUND:                -0.287
REMARK SMILES O=c1c(O)c(-c2ccc(O)cc2)oc2cc(O)cc(O)c12
REMARK SMILES IDX 5 1 3 2 2 3 1 4 21 5 19 6 18 7 16 8 15 9 14 10 13 11 6 12
REMARK SMILES IDX 7 13 8 14 9 15 12 16 11 17 10 18 4 20 20 22 17 24
REMARK H PARENT 10 19 4 21 20 23 17 25
REMARK Flexibility Score: inf
ROOT
ATOM      1  C   UNL     1      45.458  15.699  -3.900  1.00  0.00     0.180 A 
ATOM      2  C   UNL     1      44.873  14.503  -3.448  1.00  0.00     0.208 A 
ATOM      3  C   UNL     1      45.670  13.352  -3.347  1.00  0.00     0.238 A 
ATOM      4  O   UNL     1      45.154  12.298  -2.889  1.00  0.00    -0.285 OA
ATOM      5  C   UNL     1      47.036  13.406  -3.712  1.00  0.00     0.111 A 
ATOM      6  C   UNL     1      47.927  12.290  -3.687  1.00  0.00     0.134 A 
ATOM      7  C   UNL     1      49.289  12.489  -3.945  1.00  0.00     0.093 A 
ATOM      8  C   UNL     1      49.781  13.746  -4.292  1.00  0.00     0.123 A 
ATOM      9  C   UNL     1      48.909  14.832  -4.378  1.00  0.00     0.094 A 
ATOM     10  C   UNL     1      47.551  14.673  -4.090  1.00  0.00     0.146 A 
ATOM     11  O   UNL     1      46.756  15.734  -4.173  1.00  0.00    -0.452 OA
ENDROOT
BRANCH   1  12
ATOM     12  C   UNL     1      44.677  16.947  -4.058  1.00  0.00     0.021 A 
ATOM     13  C   UNL     1      43.973  17.468  -2.959  1.00  0.00     0.016 A 
ATOM     14  C   UNL     1      43.249  18.657  -3.080  1.00  0.00     0.047 A 
ATOM     15  C   UNL     1      43.229  19.349  -4.294  1.00  0.00     0.115 A 
ATOM     16  C   UNL     1      44.670  17.659  -5.272  1.00  0.00     0.016 A 
ATOM     17  C   UNL     1      43.945  18.849  -5.389  1.00  0.00     0.047 A 
BRANCH  15  18
ATOM     18  O   UNL     1      42.503  20.532  -4.401  1.00  0.00    -0.508 OA
ATOM     19  H   UNL     1      42.345  21.131  -3.598  1.00  0.00     0.293 HD
ENDBRANCH  15  18
ENDBRANCH   1  12
BRANCH   2  20
ATOM     20  O   UNL     1      43.527  14.478  -3.071  1.00  0.00    -0.502 OA
ATOM     21  H   UNL     1      42.820  15.029  -3.542  1.00  0.00     0.293 HD
ENDBRANCH   2  20
BRANCH   6  22
ATOM     22  O   UNL     1      47.523  10.975  -3.443  1.00  0.00    -0.507 OA
ATOM     23  H   UNL     1      48.129  10.170  -3.488  1.00  0.00     0.293 HD
ENDBRANCH   6  22
BRANCH   8  24
ATOM     24  O   UNL     1      51.139  13.904  -4.558  1.00  0.00    -0.508 OA
ATOM     25  H   UNL     1      51.846  13.651  -3.876  1.00  0.00     0.293 HD
ENDBRANCH   8  24
TORSDOF 5
ENDMDL
MODEL 5
REMARK VINA RESULT:    -4.966      2.129      6.951
REMARK INTER + INTRA:          -6.124
REMARK INTER:                  -6.014
REMARK INTRA:                  -0.110
REMARK UNBOUND:                -0.287
REMARK SMILES O=c1c(O)c(-c2ccc(O)cc2)oc2cc(O)cc(O)c12
REMARK SMILES IDX 5 1 3 2 2 3 1 4 21 5 19 6 18 7 16 8 15 9 14 10 13 11 6 12
REMARK SMILES IDX 7 13 8 14 9 15 12 16 11 17 10 18 4 20 20 22 17 24
REMARK H PARENT 10 19 4 21 20 23 17 25
REMARK Flexibility Score: inf
ROOT
ATOM      1  C   UNL     1      45.641  16.484  -4.325  1.00  0.00     0.180 A 
ATOM      2  C   UNL     1      45.030  15.254  -4.023  1.00  0.00     0.208 A 
ATOM      3  C   UNL     1      43.812  15.254  -3.325  1.00  0.00     0.238 A 
ATOM      4  O   UNL     1      43.242  14.152  -3.105  1.00  0.00    -0.285 OA
ATOM      5  C   UNL     1      43.229  16.480  -2.924  1.00  0.00     0.111 A 
ATOM      6  C   UNL     1      42.017  16.595  -2.177  1.00  0.00     0.134 A 
ATOM      7  C   UNL     1      41.465  17.862  -1.949  1.00  0.00     0.093 A 
ATOM      8  C   UNL     1      42.112  19.019  -2.381  1.00  0.00     0.123 A 
ATOM      9  C   UNL     1      43.327  18.920  -3.060  1.00  0.00     0.094 A 
ATOM     10  C   UNL     1      43.885  17.669  -3.335  1.00  0.00     0.146 A 
ATOM     11  O   UNL     1      45.037  17.618  -3.993  1.00  0.00    -0.452 OA
ENDROOT
BRANCH   1  12
ATOM     12  C   UNL     1      46.938  16.565  -5.036  1.00  0.00     0.021 A 
ATOM     13  C   UNL     1      47.027  17.294  -6.233  1.00  0.00     0.016 A 
ATOM     14  C   UNL     1      48.246  17.403  -6.908  1.00  0.00     0.047 A 
ATOM     15  C   UNL     1      49.394  16.798  -6.390  1.00  0.00     0.115 A 
ATOM     16  C   UNL     1      48.102  15.975  -4.508  1.00  0.00     0.016 A 
ATOM     17  C   UNL     1      49.320  16.086  -5.186  1.00  0.00     0.047 A 
BRANCH  15  18
ATOM     18  O   UNL     1      50.602  16.914  -7.073  1.00  0.00    -0.508 OA
ATOM     19  H   UNL     1      50.754  17.644  -7.759  1.00  0.00     0.293 HD
ENDBRANCH  15  18
ENDBRANCH   1  12
BRANCH   2  20
ATOM     20  O   UNL     1      45.612  14.057  -4.448  1.00  0.00    -0.502 OA
ATOM     21  H   UNL     1      46.279  14.018  -5.209  1.00  0.00     0.293 HD
ENDBRANCH   2  20
BRANCH   6  22
ATOM     22  O   UNL     1      41.338  15.508  -1.619  1.00  0.00    -0.507 OA
ATOM     23  H   UNL     1      41.397  14.559  -1.957  1.00  0.00     0.293 HD
ENDBRANCH   6  22
BRANCH   8  24
ATOM     24  O   UNL     1      41.542  20.263  -2.122  1.00  0.00    -0.508 OA
ATOM     25  H   UNL     1      42.111  21.094  -2.012  1.00  0.00     0.293 HD
ENDBRANCH   8  24
TORSDOF 5
ENDMDL
MODEL 6
REMARK VINA RESULT:    -4.958      2.357      4.780
REMARK INTER + INTRA:          -6.114
REMARK INTER:                  -6.169
REMARK INTRA:                   0.055
REMARK UNBOUND:                -0.287
REMARK SMILES O=c1c(O)c(-c2ccc(O)cc2)oc2cc(O)cc(O)c12
REMARK SMILES IDX 5 1 3 2 2 3 1 4 21 5 19 6 18 7 16 8 15 9 14 10 13 11 6 12
REMARK SMILES IDX 7 13 8 14 9 15 12 16 11 17 10 18 4 20 20 22 17 24
REMARK H PARENT 10 19 4 21 20 23 17 25
REMARK Flexibility Score: inf
ROOT
ATOM      1  C   UNL     1      46.184  15.898  -4.142  1.00  0.00     0.180 A 
ATOM      2  C   UNL     1      46.033  14.623  -3.570  1.00  0.00     0.208 A 
ATOM      3  C   UNL     1      47.138  13.760  -3.532  1.00  0.00     0.238 A 
ATOM      4  O   UNL     1      47.011  12.640  -2.969  1.00  0.00    -0.285 OA
ATOM      5  C   UNL     1      48.376  14.174  -4.079  1.00  0.00     0.111 A 
ATOM      6  C   UNL     1      49.551  13.364  -4.130  1.00  0.00     0.134 A 
ATOM      7  C   UNL     1      50.755  13.924  -4.577  1.00  0.00     0.093 A 
ATOM      8  C   UNL     1      50.813  15.240  -5.034  1.00  0.00     0.123 A 
ATOM      9  C   UNL     1      49.657  16.021  -5.045  1.00  0.00     0.094 A 
ATOM     10  C   UNL     1      48.449  15.503  -4.572  1.00  0.00     0.146 A 
ATOM     11  O   UNL     1      47.374  16.283  -4.588  1.00  0.00    -0.452 OA
ENDROOT
BRANCH   1  12
ATOM     12  C   UNL     1      45.059  16.856  -4.241  1.00  0.00     0.021 A 
ATOM     13  C   UNL     1      44.312  17.169  -3.094  1.00  0.00     0.016 A 
ATOM     14  C   UNL     1      43.260  18.088  -3.161  1.00  0.00     0.047 A 
ATOM     15  C   UNL     1      42.950  18.715  -4.371  1.00  0.00     0.115 A 
ATOM     16  C   UNL     1      44.755  17.507  -5.453  1.00  0.00     0.016 A 
ATOM     17  C   UNL     1      43.702  18.425  -5.516  1.00  0.00     0.047 A 
BRANCH  15  18
ATOM     18  O   UNL     1      41.899  19.628  -4.423  1.00  0.00    -0.508 OA
ATOM     19  H   UNL     1      42.060  20.626  -4.351  1.00  0.00     0.293 HD
ENDBRANCH  15  18
ENDBRANCH   1  12
BRANCH   2  20
ATOM     20  O   UNL     1      44.808  14.243  -3.014  1.00  0.00    -0.502 OA
ATOM     21  H   UNL     1      44.743  13.712  -2.154  1.00  0.00     0.293 HD
ENDBRANCH   2  20
BRANCH   6  22
ATOM     22  O   UNL     1      49.583  12.011  -3.784  1.00  0.00    -0.507 OA
ATOM     23  H   UNL     1      49.548  11.659  -2.839  1.00  0.00     0.293 HD
ENDBRANCH   6  22
BRANCH   8  24
ATOM     24  O   UNL     1      52.025  15.758  -5.486  1.00  0.00    -0.508 OA
ATOM     25  H   UNL     1      52.677  16.208  -4.854  1.00  0.00     0.293 HD
ENDBRANCH   8  24
TORSDOF 5
ENDMDL
MODEL 7
REMARK VINA RESULT:    -4.914      2.153      7.078
REMARK INTER + INTRA:          -6.063
REMARK INTER:                  -6.021
REMARK INTRA:                  -0.042
REMARK UNBOUND:                -0.287
REMARK SMILES O=c1c(O)c(-c2ccc(O)cc2)oc2cc(O)cc(O)c12
REMARK SMILES IDX 5 1 3 2 2 3 1 4 21 5 19 6 18 7 16 8 15 9 14 10 13 11 6 12
REMARK SMILES IDX 7 13 8 14 9 15 12 16 11 17 10 18 4 20 20 22 17 24
REMARK H PARENT 10 19 4 21 20 23 17 25
REMARK Flexibility Score: inf
ROOT
ATOM      1  C   UNL     1      44.783  15.509  -3.300  1.00  0.00     0.180 A 
ATOM      2  C   UNL     1      43.621  14.722  -3.214  1.00  0.00     0.208 A 
ATOM      3  C   UNL     1      42.384  15.356  -3.024  1.00  0.00     0.238 A 
ATOM      4  O   UNL     1      41.340  14.650  -3.003  1.00  0.00    -0.285 OA
ATOM      5  C   UNL     1      42.324  16.765  -2.907  1.00  0.00     0.111 A 
ATOM      6  C   UNL     1      41.127  17.509  -2.673  1.00  0.00     0.134 A 
ATOM      7  C   UNL     1      41.168  18.908  -2.705  1.00  0.00     0.093 A 
ATOM      8  C   UNL     1      42.369  19.591  -2.896  1.00  0.00     0.123 A 
ATOM      9  C   UNL     1      43.553  18.873  -3.066  1.00  0.00     0.094 A 
ATOM     10  C   UNL     1      43.540  17.477  -3.076  1.00  0.00     0.146 A 
ATOM     11  O   UNL     1      44.688  16.832  -3.252  1.00  0.00    -0.452 OA
ENDROOT
BRANCH   1  12
ATOM     12  C   UNL     1      46.128  14.912  -3.474  1.00  0.00     0.021 A 
ATOM     13  C   UNL     1      46.964  15.378  -4.502  1.00  0.00     0.016 A 
ATOM     14  C   UNL     1      48.246  14.845  -4.670  1.00  0.00     0.047 A 
ATOM     15  C   UNL     1      48.713  13.851  -3.806  1.00  0.00     0.115 A 
ATOM     16  C   UNL     1      46.612  13.925  -2.595  1.00  0.00     0.016 A 
ATOM     17  C   UNL     1      47.894  13.395  -2.765  1.00  0.00     0.047 A 
BRANCH  15  18
ATOM     18  O   UNL     1      49.992  13.329  -3.985  1.00  0.00    -0.508 OA
ATOM     19  H   UNL     1      50.773  13.919  -4.247  1.00  0.00     0.293 HD
ENDBRANCH  15  18
ENDBRANCH   1  12
BRANCH   2  20
ATOM     20  O   UNL     1      43.701  13.333  -3.355  1.00  0.00    -0.502 OA
ATOM     21  H   UNL     1      43.677  12.705  -2.561  1.00  0.00     0.293 HD
ENDBRANCH   2  20
BRANCH   6  22
ATOM     22  O   UNL     1      39.891  16.926  -2.380  1.00  0.00    -0.507 OA
ATOM     23  H   UNL     1      39.598  16.013  -2.692  1.00  0.00     0.293 HD
ENDBRANCH   6  22
BRANCH   8  24
ATOM     24  O   UNL     1      42.374  20.984  -2.906  1.00  0.00    -0.508 OA
ATOM     25  H   UNL     1      43.212  21.509  -3.126  1.00  0.00     0.293 HD
ENDBRANCH   8  24
TORSDOF 5
ENDMDL
MODEL 8
REMARK VINA RESULT:    -4.903      2.650      3.967
REMARK INTER + INTRA:          -6.049
REMARK INTER:                  -5.878
REMARK INTRA:                  -0.171
REMARK UNBOUND:                -0.287
REMARK SMILES O=c1c(O)c(-c2ccc(O)cc2)oc2cc(O)cc(O)c12
REMARK SMILES IDX 5 1 3 2 2 3 1 4 21 5 19 6 18 7 16 8 15 9 14 10 13 11 6 12
REMARK SMILES IDX 7 13 8 14 9 15 12 16 11 17 10 18 4 20 20 22 17 24
REMARK H PARENT 10 19 4 21 20 23 17 25
REMARK Flexibility Score: inf
ROOT
ATOM      1  C   UNL     1      45.849  16.387  -4.525  1.00  0.00     0.180 A 
ATOM      2  C   UNL     1      46.024  17.343  -5.541  1.00  0.00     0.208 A 
ATOM      3  C   UNL     1      47.283  17.466  -6.148  1.00  0.00     0.238 A 
ATOM      4  O   UNL     1      47.419  18.286  -7.095  1.00  0.00    -0.285 OA
ATOM      5  C   UNL     1      48.355  16.646  -5.723  1.00  0.00     0.111 A 
ATOM      6  C   UNL     1      49.684  16.715  -6.241  1.00  0.00     0.134 A 
ATOM      7  C   UNL     1      50.631  15.765  -5.838  1.00  0.00     0.093 A 
ATOM      8  C   UNL     1      50.319  14.793  -4.889  1.00  0.00     0.123 A 
ATOM      9  C   UNL     1      49.041  14.755  -4.331  1.00  0.00     0.094 A 
ATOM     10  C   UNL     1      48.063  15.665  -4.740  1.00  0.00     0.146 A 
ATOM     11  O   UNL     1      46.855  15.587  -4.193  1.00  0.00    -0.452 OA
ENDROOT
BRANCH   1  12
ATOM     12  C   UNL     1      44.558  16.213  -3.819  1.00  0.00     0.021 A 
ATOM     13  C   UNL     1      43.873  14.992  -3.919  1.00  0.00     0.016 A 
ATOM     14  C   UNL     1      42.664  14.799  -3.243  1.00  0.00     0.047 A 
ATOM     15  C   UNL     1      42.133  15.818  -2.448  1.00  0.00     0.115 A 
ATOM     16  C   UNL     1      44.028  17.229  -3.000  1.00  0.00     0.016 A 
ATOM     17  C   UNL     1      42.820  17.032  -2.325  1.00  0.00     0.047 A 
BRANCH  15  18
ATOM     18  O   UNL     1      40.928  15.613  -1.780  1.00  0.00    -0.508 OA
ATOM     19  H   UNL     1      40.516  14.690  -1.703  1.00  0.00     0.293 HD
ENDBRANCH  15  18
ENDBRANCH   1  12
BRANCH   2  20
ATOM     20  O   UNL     1      44.946  18.127  -5.961  1.00  0.00    -0.502 OA
ATOM     21  H   UNL     1      44.256  18.492  -5.315  1.00  0.00     0.293 HD
ENDBRANCH   2  20
BRANCH   6  22
ATOM     22  O   UNL     1      50.126  17.703  -7.125  1.00  0.00    -0.507 OA
ATOM     23  H   UNL     1      49.743  18.633  -7.184  1.00  0.00     0.293 HD
ENDBRANCH   6  22
BRANCH   8  24
ATOM     24  O   UNL     1      51.292  13.875  -4.500  1.00  0.00    -0.508 OA
ATOM     25  H   UNL     1      51.110  12.877  -4.500  1.00  0.00     0.293 HD
ENDBRANCH   8  24
TORSDOF 5
ENDMDL
MODEL 9
REMARK VINA RESULT:    -4.395      3.910      9.160
REMARK INTER + INTRA:          -5.453
REMARK INTER:                  -5.468
REMARK INTRA:                   0.015
REMARK UNBOUND:                -0.287
REMARK SMILES O=c1c(O)c(-c2ccc(O)cc2)oc2cc(O)cc(O)c12
REMARK SMILES IDX 5 1 3 2 2 3 1 4 21 5 19 6 18 7 16 8 15 9 14 10 13 11 6 12
REMARK SMILES IDX 7 13 8 14 9 15 12 16 11 17 10 18 4 20 20 22 17 24
REMARK H PARENT 10 19 4 21 20 23 17 25
REMARK Flexibility Score: inf
ROOT
ATOM      1  C   UNL     1      49.682  14.832  -5.329  1.00  0.00     0.180 A 
ATOM      2  C   UNL     1      49.067  14.184  -4.243  1.00  0.00     0.208 A 
ATOM      3  C   UNL     1      47.803  14.620  -3.818  1.00  0.00     0.238 A 
ATOM      4  O   UNL     1      47.234  14.001  -2.880  1.00  0.00    -0.285 OA
ATOM      5  C   UNL     1      47.175  15.707  -4.472  1.00  0.00     0.111 A 
ATOM      6  C   UNL     1      45.912  16.257  -4.099  1.00  0.00     0.134 A 
ATOM      7  C   UNL     1      45.327  17.247  -4.899  1.00  0.00     0.093 A 
ATOM      8  C   UNL     1      45.987  17.753  -6.018  1.00  0.00     0.123 A 
ATOM      9  C   UNL     1      47.249  17.264  -6.357  1.00  0.00     0.094 A 
ATOM     10  C   UNL     1      47.842  16.250  -5.600  1.00  0.00     0.146 A 
ATOM     11  O   UNL     1      49.040  15.805  -5.964  1.00  0.00    -0.452 OA
ENDROOT
BRANCH   1  12
ATOM     12  C   UNL     1      51.025  14.446  -5.820  1.00  0.00     0.021 A 
ATOM     13  C   UNL     1      52.036  15.417  -5.905  1.00  0.00     0.016 A 
ATOM     14  C   UNL     1      53.317  15.070  -6.344  1.00  0.00     0.047 A 
ATOM     15  C   UNL     1      53.609  13.747  -6.689  1.00  0.00     0.115 A 
ATOM     16  C   UNL     1      51.330  13.111  -6.150  1.00  0.00     0.016 A 
ATOM     17  C   UNL     1      52.613  12.768  -6.587  1.00  0.00     0.047 A 
BRANCH  15  18
ATOM     18  O   UNL     1      54.889  13.416  -7.125  1.00  0.00    -0.508 OA
ATOM     19  H   UNL     1      55.713  13.856  -6.733  1.00  0.00     0.293 HD
ENDBRANCH  15  18
ENDBRANCH   1  12
BRANCH   2  20
ATOM     20  O   UNL     1      49.695  13.098  -3.626  1.00  0.00    -0.502 OA
ATOM     21  H   UNL     1      49.643  12.936  -2.628  1.00  0.00     0.293 HD
ENDBRANCH   2  20
BRANCH   6  22
ATOM     22  O   UNL     1      45.209  15.889  -2.948  1.00  0.00    -0.507 OA
ATOM     23  H   UNL     1      44.523  15.151  -2.905  1.00  0.00     0.293 HD
ENDBRANCH   6  22
BRANCH   8  24
ATOM     24  O   UNL     1      45.382  18.749  -6.782  1.00  0.00    -0.508 OA
ATOM     25  H   UNL     1      45.800  19.084  -7.642  1.00  0.00     0.293 HD
ENDBRANCH   8  24
TORSDOF 5
ENDMDL
