MODEL 1
REMARK VINA RESULT:    -3.727      0.000      0.000
REMARK INTER + INTRA:          -4.499
REMARK INTER:                  -4.381
REMARK INTRA:                  -0.118
REMARK UNBOUND:                -0.118
REMARK SMILES O=C([O-])CCC(=O)[O-]
REMARK SMILES IDX 4 1 2 2 1 3 3 4 5 5 6 6 7 7 8 8
REMARK H PARENT
REMARK Flexibility Score: inf
ROOT
ATOM      1  C   UNL     1      28.140  39.162  33.981  1.00  0.00     0.059 C 
ENDROOT
BRANCH   1   2
ATOM      2  C   UNL     1      27.482  37.908  33.493  1.00  0.00     0.042 C 
ATOM      3  O   UNL     1      27.191  36.989  34.303  1.00  0.00    -0.550 OA
ATOM      4  O   UNL     1      27.154  37.769  32.150  1.00  0.00    -0.550 OA
ENDBRANCH   1   2
BRANCH   1   5
ATOM      5  C   UNL     1      27.180  40.356  33.939  1.00  0.00     0.059 C 
BRANCH   5   6
ATOM      6  C   UNL     1      27.667  41.425  33.010  1.00  0.00     0.042 C 
ATOM      7  O   UNL     1      27.896  41.157  31.801  1.00  0.00    -0.550 OA
ATOM      8  O   UNL     1      27.830  42.727  33.468  1.00  0.00    -0.550 OA
ENDBRANCH   5   6
ENDBRANCH   1   5
TORSDOF 3
ENDMDL
MODEL 2
REMARK VINA RESULT:    -3.713      0.046      4.063
REMARK INTER + INTRA:          -4.483
REMARK INTER:                  -4.367
REMARK INTRA:                  -0.116
REMARK UNBOUND:                -0.118
REMARK SMILES O=C([O-])CCC(=O)[O-]
REMARK SMILES IDX 4 1 2 2 1 3 3 4 5 5 6 6 7 7 8 8
REMARK H PARENT
REMARK Flexibility Score: inf
ROOT
ATOM      1  C   UNL     1      27.193  40.370  33.941  1.00  0.00     0.059 C 
ENDROOT
BRANCH   1   2
ATOM      2  C   UNL     1      27.652  41.457  33.018  1.00  0.00     0.042 C 
ATOM      3  O   UNL     1      27.841  41.214  31.797  1.00  0.00    -0.550 OA
ATOM      4  O   UNL     1      27.832  42.749  33.497  1.00  0.00    -0.550 OA
ENDBRANCH   1   2
BRANCH   1   5
ATOM      5  C   UNL     1      28.165  39.185  33.946  1.00  0.00     0.059 C 
BRANCH   5   6
ATOM      6  C   UNL     1      27.507  37.929  33.464  1.00  0.00     0.042 C 
ATOM      7  O   UNL     1      27.209  37.016  34.280  1.00  0.00    -0.550 OA
ATOM      8  O   UNL     1      27.185  37.781  32.120  1.00  0.00    -0.550 OA
ENDBRANCH   5   6
ENDBRANCH   1   5
TORSDOF 3
ENDMDL
MODEL 3
REMARK VINA RESULT:    -3.649      4.402      5.276
REMARK INTER + INTRA:          -4.407
REMARK INTER:                  -4.299
REMARK INTRA:                  -0.108
REMARK UNBOUND:                -0.118
REMARK SMILES O=C([O-])CCC(=O)[O-]
REMARK SMILES IDX 4 1 2 2 1 3 3 4 5 5 6 6 7 7 8 8
REMARK H PARENT
REMARK Flexibility Score: inf
ROOT
ATOM      1  C   UNL     1      27.680  35.868  31.123  1.00  0.00     0.059 C 
ENDROOT
BRANCH   1   2
ATOM      2  C   UNL     1      26.469  35.124  30.650  1.00  0.00     0.042 C 
ATOM      3  O   UNL     1      26.559  33.911  30.324  1.00  0.00    -0.550 OA
ATOM      4  O   UNL     1      25.234  35.757  30.607  1.00  0.00    -0.550 OA
ENDBRANCH   1   2
BRANCH   1   5
ATOM      5  C   UNL     1      27.444  36.519  32.491  1.00  0.00     0.059 C 
BRANCH   5   6
ATOM      6  C   UNL     1      27.552  35.523  33.603  1.00  0.00     0.042 C 
ATOM      7  O   UNL     1      28.271  34.498  33.468  1.00  0.00    -0.550 OA
ATOM      8  O   UNL     1      26.890  35.745  34.805  1.00  0.00    -0.550 OA
ENDBRANCH   5   6
ENDBRANCH   1   5
TORSDOF 3
ENDMDL
MODEL 4
REMARK VINA RESULT:    -3.627      4.354      5.400
REMARK INTER + INTRA:          -4.382
REMARK INTER:                  -4.276
REMARK INTRA:                  -0.106
REMARK UNBOUND:                -0.118
REMARK SMILES O=C([O-])CCC(=O)[O-]
REMARK SMILES IDX 4 1 2 2 1 3 3 4 5 5 6 6 7 7 8 8
REMARK H PARENT
REMARK Flexibility Score: inf
ROOT
ATOM      1  C   UNL     1      27.317  36.531  32.541  1.00  0.00     0.059 C 
ENDROOT
BRANCH   1   2
ATOM      2  C   UNL     1      27.459  35.575  33.685  1.00  0.00     0.042 C 
ATOM      3  O   UNL     1      26.929  35.837  34.798  1.00  0.00    -0.550 OA
ATOM      4  O   UNL     1      28.140  34.378  33.514  1.00  0.00    -0.550 OA
ENDBRANCH   1   2
BRANCH   1   5
ATOM      5  C   UNL     1      27.568  35.842  31.195  1.00  0.00     0.059 C 
BRANCH   5   6
ATOM      6  C   UNL     1      26.328  35.188  30.668  1.00  0.00     0.042 C 
ATOM      7  O   UNL     1      25.241  35.824  30.636  1.00  0.00    -0.550 OA
ATOM      8  O   UNL     1      26.379  33.890  30.175  1.00  0.00    -0.550 OA
ENDBRANCH   5   6
ENDBRANCH   1   5
TORSDOF 3
ENDMDL
MODEL 5
REMARK VINA RESULT:    -3.618      3.721      4.749
REMARK INTER + INTRA:          -4.371
REMARK INTER:                  -4.261
REMARK INTRA:                  -0.110
REMARK UNBOUND:                -0.118
REMARK SMILES O=C([O-])CCC(=O)[O-]
REMARK SMILES IDX 4 1 2 2 1 3 3 4 5 5 6 6 7 7 8 8
REMARK H PARENT
REMARK Flexibility Score: inf
ROOT
ATOM      1  C   UNL     1      25.790  43.458  36.155  1.00  0.00     0.059 C 
ENDROOT
BRANCH   1   2
ATOM      2  C   UNL     1      24.636  42.767  35.496  1.00  0.00     0.042 C 
ATOM      3  O   UNL     1      24.704  41.539  35.225  1.00  0.00    -0.550 OA
ATOM      4  O   UNL     1      23.470  43.468  35.218  1.00  0.00    -0.550 OA
ENDBRANCH   1   2
BRANCH   1   5
ATOM      5  C   UNL     1      26.852  43.884  35.135  1.00  0.00     0.059 C 
BRANCH   5   6
ATOM      6  C   UNL     1      27.919  42.844  34.982  1.00  0.00     0.042 C 
ATOM      7  O   UNL     1      27.931  42.092  33.972  1.00  0.00    -0.550 OA
ATOM      8  O   UNL     1      28.925  42.732  35.935  1.00  0.00    -0.550 OA
ENDBRANCH   5   6
ENDBRANCH   1   5
TORSDOF 3
ENDMDL
MODEL 6
REMARK VINA RESULT:    -3.600      2.737      5.434
REMARK INTER + INTRA:          -4.349
REMARK INTER:                  -4.229
REMARK INTRA:                  -0.120
REMARK UNBOUND:                -0.118
REMARK SMILES O=C([O-])CCC(=O)[O-]
REMARK SMILES IDX 4 1 2 2 1 3 3 4 5 5 6 6 7 7 8 8
REMARK H PARENT
REMARK Flexibility Score: inf
ROOT
ATOM      1  C   UNL     1      27.002  36.647  31.773  1.00  0.00     0.059 C 
ENDROOT
BRANCH   1   2
ATOM      2  C   UNL     1      27.416  37.850  32.564  1.00  0.00     0.042 C 
ATOM      3  O   UNL     1      27.411  37.813  33.823  1.00  0.00    -0.550 OA
ATOM      4  O   UNL     1      27.846  38.999  31.912  1.00  0.00    -0.550 OA
ENDBRANCH   1   2
BRANCH   1   5
ATOM      5  C   UNL     1      28.166  35.667  31.584  1.00  0.00     0.059 C 
BRANCH   5   6
ATOM      6  C   UNL     1      27.974  34.420  32.392  1.00  0.00     0.042 C 
ATOM      7  O   UNL     1      27.901  34.484  33.648  1.00  0.00    -0.550 OA
ATOM      8  O   UNL     1      27.837  33.192  31.756  1.00  0.00    -0.550 OA
ENDBRANCH   5   6
ENDBRANCH   1   5
TORSDOF 3
ENDMDL
MODEL 7
REMARK VINA RESULT:    -3.585      2.055      4.598
REMARK INTER + INTRA:          -4.332
REMARK INTER:                  -4.280
REMARK INTRA:                  -0.052
REMARK UNBOUND:                -0.118
REMARK SMILES O=C([O-])CCC(=O)[O-]
REMARK SMILES IDX 4 1 2 2 1 3 3 4 5 5 6 6 7 7 8 8
REMARK H PARENT
REMARK Flexibility Score: inf
ROOT
ATOM      1  C   UNL     1      27.552  38.011  32.109  1.00  0.00     0.059 C 
ENDROOT
BRANCH   1   2
ATOM      2  C   UNL     1      27.931  39.361  32.635  1.00  0.00     0.042 C 
ATOM      3  O   UNL     1      27.984  39.565  33.877  1.00  0.00    -0.550 OA
ATOM      4  O   UNL     1      28.265  40.384  31.757  1.00  0.00    -0.550 OA
ENDBRANCH   1   2
BRANCH   1   5
ATOM      5  C   UNL     1      27.471  36.969  33.230  1.00  0.00     0.059 C 
BRANCH   5   6
ATOM      6  C   UNL     1      27.970  35.631  32.778  1.00  0.00     0.042 C 
ATOM      7  O   UNL     1      28.479  35.498  31.634  1.00  0.00    -0.550 OA
ATOM      8  O   UNL     1      27.910  34.538  33.635  1.00  0.00    -0.550 OA
ENDBRANCH   5   6
ENDBRANCH   1   5
TORSDOF 3
ENDMDL
MODEL 8
REMARK VINA RESULT:    -3.573      3.673      5.113
REMARK INTER + INTRA:          -4.318
REMARK INTER:                  -4.196
REMARK INTRA:                  -0.122
REMARK UNBOUND:                -0.118
REMARK SMILES O=C([O-])CCC(=O)[O-]
REMARK SMILES IDX 4 1 2 2 1 3 3 4 5 5 6 6 7 7 8 8
REMARK H PARENT
REMARK Flexibility Score: inf
ROOT
ATOM      1  C   UNL     1      26.748  43.875  35.207  1.00  0.00     0.059 C 
ENDROOT
BRANCH   1   2
ATOM      2  C   UNL     1      27.771  42.795  35.034  1.00  0.00     0.042 C 
ATOM      3  O   UNL     1      27.666  41.969  34.089  1.00  0.00    -0.550 OA
ATOM      4  O   UNL     1      28.862  42.724  35.890  1.00  0.00    -0.550 OA
ENDBRANCH   1   2
BRANCH   1   5
ATOM      5  C   UNL     1      25.652  43.463  36.196  1.00  0.00     0.059 C 
BRANCH   5   6
ATOM      6  C   UNL     1      24.416  42.998  35.488  1.00  0.00     0.042 C 
ATOM      7  O   UNL     1      23.497  43.816  35.216  1.00  0.00    -0.550 OA
ATOM      8  O   UNL     1      24.295  41.671  35.094  1.00  0.00    -0.550 OA
ENDBRANCH   5   6
ENDBRANCH   1   5
TORSDOF 3
ENDMDL
MODEL 9
REMARK VINA RESULT:    -3.561      2.050      2.838
REMARK INTER + INTRA:          -4.303
REMARK INTER:                  -4.256
REMARK INTRA:                  -0.048
REMARK UNBOUND:                -0.118
REMARK SMILES O=C([O-])CCC(=O)[O-]
REMARK SMILES IDX 4 1 2 2 1 3 3 4 5 5 6 6 7 7 8 8
REMARK H PARENT
REMARK Flexibility Score: inf
ROOT
ATOM      1  C   UNL     1      27.518  36.958  33.327  1.00  0.00     0.059 C 
ENDROOT
BRANCH   1   2
ATOM      2  C   UNL     1      27.927  35.611  32.816  1.00  0.00     0.042 C 
ATOM      3  O   UNL     1      28.365  35.485  31.642  1.00  0.00    -0.550 OA
ATOM      4  O   UNL     1      27.864  34.500  33.648  1.00  0.00    -0.550 OA
ENDBRANCH   1   2
BRANCH   1   5
ATOM      5  C   UNL     1      27.481  38.001  32.205  1.00  0.00     0.059 C 
BRANCH   5   6
ATOM      6  C   UNL     1      27.870  39.360  32.700  1.00  0.00     0.042 C 
ATOM      7  O   UNL     1      27.855  39.613  33.934  1.00  0.00    -0.550 OA
ATOM      8  O   UNL     1      28.289  40.336  31.804  1.00  0.00    -0.550 OA
ENDBRANCH   5   6
ENDBRANCH   1   5
TORSDOF 3
ENDMDL
