MODEL 1
REMARK VINA RESULT:    -2.806      0.000      0.000
REMARK INTER + INTRA:          -7.557
REMARK INTER:                  -4.938
REMARK INTRA:                  -2.618
REMARK UNBOUND:                -2.618
REMARK SMILES CCCCCCCCCCCCCCC(=O)[O-]
REMARK SMILES IDX 9 1 10 2 11 3 12 4 13 5 14 6 15 7 16 8 17 9 8 10 7 11 6 12
REMARK SMILES IDX 5 13 4 14 3 15 2 16 1 17
REMARK H PARENT
REMARK Flexibility Score: inf
ROOT
ATOM      1  C   UNL     1      40.773  35.415  46.668  1.00  0.00     0.000 C 
ENDROOT
BRANCH   1   2
ATOM      2  C   UNL     1      40.904  35.558  48.189  1.00  0.00     0.000 C 
BRANCH   2   3
ATOM      3  C   UNL     1      41.826  34.479  48.766  1.00  0.00     0.000 C 
BRANCH   3   4
ATOM      4  C   UNL     1      42.671  35.034  49.919  1.00  0.00     0.000 C 
BRANCH   4   5
ATOM      5  C   UNL     1      43.980  34.246  50.071  1.00  0.00     0.006 C 
BRANCH   5   6
ATOM      6  C   UNL     1      43.944  32.906  49.323  1.00  0.00     0.053 C 
BRANCH   6   7
ATOM      7  C   UNL     1      45.307  32.485  48.870  1.00  0.00     0.041 C 
ATOM      8  O   UNL     1      46.319  33.166  49.185  1.00  0.00    -0.550 OA
ATOM      9  O   UNL     1      45.458  31.359  48.070  1.00  0.00    -0.550 OA
ENDBRANCH   6   7
ENDBRANCH   5   6
ENDBRANCH   4   5
ENDBRANCH   3   4
ENDBRANCH   2   3
ENDBRANCH   1   2
BRANCH   1  10
ATOM     10  C   UNL     1      41.207  34.019  46.206  1.00  0.00     0.000 C 
BRANCH  10  11
ATOM     11  C   UNL     1      42.310  34.111  45.140  1.00  0.00    -0.000 C 
BRANCH  11  12
ATOM     12  C   UNL     1      43.682  33.654  45.664  1.00  0.00    -0.000 C 
BRANCH  12  13
ATOM     13  C   UNL     1      44.753  34.752  45.546  1.00  0.00    -0.000 C 
BRANCH  13  14
ATOM     14  C   UNL     1      44.826  35.650  46.793  1.00  0.00    -0.000 C 
BRANCH  14  15
ATOM     15  C   UNL     1      44.111  37.008  46.662  1.00  0.00    -0.000 C 
BRANCH  15  16
ATOM     16  C   UNL     1      44.059  37.816  47.975  1.00  0.00    -0.003 C 
ATOM     17  C   UNL     1      45.273  37.560  48.868  1.00  0.00     0.004 C 
ENDBRANCH  15  16
ENDBRANCH  14  15
ENDBRANCH  13  14
ENDBRANCH  12  13
ENDBRANCH  11  12
ENDBRANCH  10  11
ENDBRANCH   1  10
TORSDOF 13
ENDMDL
MODEL 2
REMARK VINA RESULT:    -2.800      3.391      6.118
REMARK INTER + INTRA:          -7.546
REMARK INTER:                  -5.567
REMARK INTRA:                  -1.978
REMARK UNBOUND:                -2.618
REMARK SMILES CCCCCCCCCCCCCCC(=O)[O-]
REMARK SMILES IDX 9 1 10 2 11 3 12 4 13 5 14 6 15 7 16 8 17 9 8 10 7 11 6 12
REMARK SMILES IDX 5 13 4 14 3 15 2 16 1 17
REMARK H PARENT
REMARK Flexibility Score: inf
ROOT
ATOM      1  C   UNL     1      45.090  31.135  47.115  1.00  0.00     0.000 C 
ENDROOT
BRANCH   1   2
ATOM      2  C   UNL     1      46.350  31.844  47.626  1.00  0.00     0.000 C 
BRANCH   2   3
ATOM      3  C   UNL     1      46.056  32.634  48.906  1.00  0.00     0.000 C 
BRANCH   3   4
ATOM      4  C   UNL     1      44.680  32.268  49.476  1.00  0.00     0.000 C 
BRANCH   4   5
ATOM      5  C   UNL     1      43.861  33.527  49.791  1.00  0.00     0.006 C 
BRANCH   5   6
ATOM      6  C   UNL     1      42.826  33.836  48.701  1.00  0.00     0.053 C 
BRANCH   6   7
ATOM      7  C   UNL     1      42.281  35.225  48.829  1.00  0.00     0.041 C 
ATOM      8  O   UNL     1      43.063  36.209  48.902  1.00  0.00    -0.550 OA
ATOM      9  O   UNL     1      40.908  35.431  48.902  1.00  0.00    -0.550 OA
ENDBRANCH   6   7
ENDBRANCH   5   6
ENDBRANCH   4   5
ENDBRANCH   3   4
ENDBRANCH   2   3
ENDBRANCH   1   2
BRANCH   1  10
ATOM     10  C   UNL     1      45.410  29.709  46.652  1.00  0.00     0.000 C 
BRANCH  10  11
ATOM     11  C   UNL     1      46.057  28.895  47.783  1.00  0.00    -0.000 C 
BRANCH  11  12
ATOM     12  C   UNL     1      45.078  28.585  48.927  1.00  0.00    -0.000 C 
BRANCH  12  13
ATOM     13  C   UNL     1      45.690  28.844  50.314  1.00  0.00    -0.000 C 
BRANCH  13  14
ATOM     14  C   UNL     1      47.208  29.095  50.259  1.00  0.00    -0.000 C 
BRANCH  14  15
ATOM     15  C   UNL     1      47.701  30.293  51.092  1.00  0.00    -0.000 C 
BRANCH  15  16
ATOM     16  C   UNL     1      48.990  30.945  50.547  1.00  0.00    -0.003 C 
ATOM     17  C   UNL     1      49.170  32.381  51.037  1.00  0.00     0.004 C 
ENDBRANCH  15  16
ENDBRANCH  14  15
ENDBRANCH  13  14
ENDBRANCH  12  13
ENDBRANCH  11  12
ENDBRANCH  10  11
ENDBRANCH   1  10
TORSDOF 13
ENDMDL
MODEL 3
REMARK VINA RESULT:    -2.780      3.385      6.088
REMARK INTER + INTRA:          -7.511
REMARK INTER:                  -5.402
REMARK INTRA:                  -2.109
REMARK UNBOUND:                -2.618
REMARK SMILES CCCCCCCCCCCCCCC(=O)[O-]
REMARK SMILES IDX 9 1 10 2 11 3 12 4 13 5 14 6 15 7 16 8 17 9 8 10 7 11 6 12
REMARK SMILES IDX 5 13 4 14 3 15 2 16 1 17
REMARK H PARENT
REMARK Flexibility Score: inf
ROOT
ATOM      1  C   UNL     1      46.217  32.128  47.845  1.00  0.00     0.000 C 
ENDROOT
BRANCH   1   2
ATOM      2  C   UNL     1      45.846  32.662  49.234  1.00  0.00     0.000 C 
BRANCH   2   3
ATOM      3  C   UNL     1      44.362  32.425  49.536  1.00  0.00     0.000 C 
BRANCH   3   4
ATOM      4  C   UNL     1      43.671  33.727  49.957  1.00  0.00     0.000 C 
BRANCH   4   5
ATOM      5  C   UNL     1      43.667  34.746  48.808  1.00  0.00     0.006 C 
BRANCH   5   6
ATOM      6  C   UNL     1      43.044  34.176  47.527  1.00  0.00     0.053 C 
BRANCH   6   7
ATOM      7  C   UNL     1      41.588  34.511  47.420  1.00  0.00     0.041 C 
ATOM      8  O   UNL     1      40.925  34.142  46.415  1.00  0.00    -0.550 OA
ATOM      9  O   UNL     1      40.971  35.259  48.414  1.00  0.00    -0.550 OA
ENDBRANCH   6   7
ENDBRANCH   5   6
ENDBRANCH   4   5
ENDBRANCH   3   4
ENDBRANCH   2   3
ENDBRANCH   1   2
BRANCH   1  10
ATOM     10  C   UNL     1      45.181  31.113  47.349  1.00  0.00     0.000 C 
BRANCH  10  11
ATOM     11  C   UNL     1      45.842  30.031  46.481  1.00  0.00    -0.000 C 
BRANCH  11  12
ATOM     12  C   UNL     1      45.416  28.608  46.878  1.00  0.00    -0.000 C 
BRANCH  12  13
ATOM     13  C   UNL     1      44.736  28.558  48.257  1.00  0.00    -0.000 C 
BRANCH  13  14
ATOM     14  C   UNL     1      45.690  28.101  49.375  1.00  0.00    -0.000 C 
BRANCH  14  15
ATOM     15  C   UNL     1      45.925  29.134  50.494  1.00  0.00    -0.000 C 
BRANCH  15  16
ATOM     16  C   UNL     1      47.405  29.530  50.678  1.00  0.00    -0.003 C 
ATOM     17  C   UNL     1      48.215  29.379  49.391  1.00  0.00     0.004 C 
ENDBRANCH  15  16
ENDBRANCH  14  15
ENDBRANCH  13  14
ENDBRANCH  12  13
ENDBRANCH  11  12
ENDBRANCH  10  11
ENDBRANCH   1  10
TORSDOF 13
ENDMDL
MODEL 4
REMARK VINA RESULT:    -2.755      3.365      6.707
REMARK INTER + INTRA:          -7.467
REMARK INTER:                  -5.398
REMARK INTRA:                  -2.069
REMARK UNBOUND:                -2.618
REMARK SMILES CCCCCCCCCCCCCCC(=O)[O-]
REMARK SMILES IDX 9 1 10 2 11 3 12 4 13 5 14 6 15 7 16 8 17 9 8 10 7 11 6 12
REMARK SMILES IDX 5 13 4 14 3 15 2 16 1 17
REMARK H PARENT
REMARK Flexibility Score: inf
ROOT
ATOM      1  C   UNL     1      47.102  32.822  49.334  1.00  0.00     0.000 C 
ENDROOT
BRANCH   1   2
ATOM      2  C   UNL     1      46.422  32.366  48.037  1.00  0.00     0.000 C 
BRANCH   2   3
ATOM      3  C   UNL     1      44.909  32.218  48.231  1.00  0.00     0.000 C 
BRANCH   3   4
ATOM      4  C   UNL     1      44.512  32.478  49.689  1.00  0.00     0.000 C 
BRANCH   4   5
ATOM      5  C   UNL     1      43.564  33.681  49.796  1.00  0.00     0.006 C 
BRANCH   5   6
ATOM      6  C   UNL     1      43.135  34.208  48.420  1.00  0.00     0.053 C 
BRANCH   6   7
ATOM      7  C   UNL     1      42.302  35.448  48.535  1.00  0.00     0.041 C 
ATOM      8  O   UNL     1      41.095  35.370  48.883  1.00  0.00    -0.550 OA
ATOM      9  O   UNL     1      42.851  36.686  48.225  1.00  0.00    -0.550 OA
ENDBRANCH   6   7
ENDBRANCH   5   6
ENDBRANCH   4   5
ENDBRANCH   3   4
ENDBRANCH   2   3
ENDBRANCH   1   2
BRANCH   1  10
ATOM     10  C   UNL     1      48.234  31.867  49.730  1.00  0.00     0.000 C 
BRANCH  10  11
ATOM     11  C   UNL     1      48.231  30.614  48.841  1.00  0.00    -0.000 C 
BRANCH  11  12
ATOM     12  C   UNL     1      48.163  29.310  49.652  1.00  0.00    -0.000 C 
BRANCH  12  13
ATOM     13  C   UNL     1      47.174  29.397  50.827  1.00  0.00    -0.000 C 
BRANCH  13  14
ATOM     14  C   UNL     1      45.711  29.208  50.389  1.00  0.00    -0.000 C 
BRANCH  14  15
ATOM     15  C   UNL     1      45.476  28.078  49.368  1.00  0.00    -0.000 C 
BRANCH  15  16
ATOM     16  C   UNL     1      44.685  28.520  48.118  1.00  0.00    -0.003 C 
ATOM     17  C   UNL     1      45.593  28.801  46.922  1.00  0.00     0.004 C 
ENDBRANCH  15  16
ENDBRANCH  14  15
ENDBRANCH  13  14
ENDBRANCH  12  13
ENDBRANCH  11  12
ENDBRANCH  10  11
ENDBRANCH   1  10
TORSDOF 13
ENDMDL
MODEL 5
REMARK VINA RESULT:    -2.752      3.487      6.662
REMARK INTER + INTRA:          -7.462
REMARK INTER:                  -6.200
REMARK INTRA:                  -1.262
REMARK UNBOUND:                -2.618
REMARK SMILES CCCCCCCCCCCCCCC(=O)[O-]
REMARK SMILES IDX 9 1 10 2 11 3 12 4 13 5 14 6 15 7 16 8 17 9 8 10 7 11 6 12
REMARK SMILES IDX 5 13 4 14 3 15 2 16 1 17
REMARK H PARENT
REMARK Flexibility Score: inf
ROOT
ATOM      1  C   UNL     1      45.992  32.647  48.744  1.00  0.00     0.000 C 
ENDROOT
BRANCH   1   2
ATOM      2  C   UNL     1      44.723  32.159  49.453  1.00  0.00     0.000 C 
BRANCH   2   3
ATOM      3  C   UNL     1      43.782  33.328  49.764  1.00  0.00     0.000 C 
BRANCH   3   4
ATOM      4  C   UNL     1      43.863  34.406  48.677  1.00  0.00     0.000 C 
BRANCH   4   5
ATOM      5  C   UNL     1      42.747  35.447  48.847  1.00  0.00     0.006 C 
BRANCH   5   6
ATOM      6  C   UNL     1      41.354  34.850  48.606  1.00  0.00     0.053 C 
BRANCH   6   7
ATOM      7  C   UNL     1      40.955  34.932  47.165  1.00  0.00     0.041 C 
ATOM      8  O   UNL     1      40.375  35.960  46.725  1.00  0.00    -0.550 OA
ATOM      9  O   UNL     1      41.195  33.860  46.313  1.00  0.00    -0.550 OA
ENDBRANCH   6   7
ENDBRANCH   5   6
ENDBRANCH   4   5
ENDBRANCH   3   4
ENDBRANCH   2   3
ENDBRANCH   1   2
BRANCH   1  10
ATOM     10  C   UNL     1      47.246  32.295  49.554  1.00  0.00     0.000 C 
BRANCH  10  11
ATOM     11  C   UNL     1      47.545  30.790  49.477  1.00  0.00    -0.000 C 
BRANCH  11  12
ATOM     12  C   UNL     1      47.534  30.111  50.856  1.00  0.00    -0.000 C 
BRANCH  12  13
ATOM     13  C   UNL     1      46.444  29.033  50.975  1.00  0.00    -0.000 C 
BRANCH  13  14
ATOM     14  C   UNL     1      46.467  28.030  49.808  1.00  0.00    -0.000 C 
BRANCH  14  15
ATOM     15  C   UNL     1      45.114  27.821  49.101  1.00  0.00    -0.000 C 
BRANCH  15  16
ATOM     16  C   UNL     1      44.811  28.869  48.010  1.00  0.00    -0.003 C 
ATOM     17  C   UNL     1      45.226  28.399  46.617  1.00  0.00     0.004 C 
ENDBRANCH  15  16
ENDBRANCH  14  15
ENDBRANCH  13  14
ENDBRANCH  12  13
ENDBRANCH  11  12
ENDBRANCH  10  11
ENDBRANCH   1  10
TORSDOF 13
ENDMDL
MODEL 6
REMARK VINA RESULT:    -2.715      3.695      6.779
REMARK INTER + INTRA:          -7.396
REMARK INTER:                  -5.426
REMARK INTRA:                  -1.970
REMARK UNBOUND:                -2.618
REMARK SMILES CCCCCCCCCCCCCCC(=O)[O-]
REMARK SMILES IDX 9 1 10 2 11 3 12 4 13 5 14 6 15 7 16 8 17 9 8 10 7 11 6 12
REMARK SMILES IDX 5 13 4 14 3 15 2 16 1 17
REMARK H PARENT
REMARK Flexibility Score: inf
ROOT
ATOM      1  C   UNL     1      46.591  30.250  50.465  1.00  0.00     0.000 C 
ENDROOT
BRANCH   1   2
ATOM      2  C   UNL     1      47.367  31.362  49.749  1.00  0.00     0.000 C 
BRANCH   2   3
ATOM      3  C   UNL     1      46.413  32.395  49.139  1.00  0.00     0.000 C 
BRANCH   3   4
ATOM      4  C   UNL     1      44.957  31.927  49.240  1.00  0.00     0.000 C 
BRANCH   4   5
ATOM      5  C   UNL     1      44.073  33.009  49.876  1.00  0.00     0.006 C 
BRANCH   5   6
ATOM      6  C   UNL     1      43.184  33.716  48.844  1.00  0.00     0.053 C 
BRANCH   6   7
ATOM      7  C   UNL     1      42.459  34.883  49.440  1.00  0.00     0.041 C 
ATOM      8  O   UNL     1      41.595  35.504  48.767  1.00  0.00    -0.550 OA
ATOM      9  O   UNL     1      42.759  35.304  50.730  1.00  0.00    -0.550 OA
ENDBRANCH   6   7
ENDBRANCH   5   6
ENDBRANCH   4   5
ENDBRANCH   3   4
ENDBRANCH   2   3
ENDBRANCH   1   2
BRANCH   1  10
ATOM     10  C   UNL     1      47.209  28.876  50.183  1.00  0.00     0.000 C 
BRANCH  10  11
ATOM     11  C   UNL     1      46.121  27.800  50.053  1.00  0.00    -0.000 C 
BRANCH  11  12
ATOM     12  C   UNL     1      44.983  28.217  49.106  1.00  0.00    -0.000 C 
BRANCH  12  13
ATOM     13  C   UNL     1      44.863  27.291  47.884  1.00  0.00    -0.000 C 
BRANCH  13  14
ATOM     14  C   UNL     1      45.158  28.014  46.557  1.00  0.00    -0.000 C 
BRANCH  14  15
ATOM     15  C   UNL     1      45.297  29.545  46.666  1.00  0.00    -0.000 C 
BRANCH  15  16
ATOM     16  C   UNL     1      46.668  30.082  46.204  1.00  0.00    -0.003 C 
ATOM     17  C   UNL     1      47.820  29.157  46.597  1.00  0.00     0.004 C 
ENDBRANCH  15  16
ENDBRANCH  14  15
ENDBRANCH  13  14
ENDBRANCH  12  13
ENDBRANCH  11  12
ENDBRANCH  10  11
ENDBRANCH   1  10
TORSDOF 13
ENDMDL
MODEL 7
REMARK VINA RESULT:    -2.693      2.257      5.125
REMARK INTER + INTRA:          -7.358
REMARK INTER:                  -5.916
REMARK INTRA:                  -1.442
REMARK UNBOUND:                -2.618
REMARK SMILES CCCCCCCCCCCCCCC(=O)[O-]
REMARK SMILES IDX 9 1 10 2 11 3 12 4 13 5 14 6 15 7 16 8 17 9 8 10 7 11 6 12
REMARK SMILES IDX 5 13 4 14 3 15 2 16 1 17
REMARK H PARENT
REMARK Flexibility Score: inf
ROOT
ATOM      1  C   UNL     1      46.448  33.303  49.229  1.00  0.00     0.000 C 
ENDROOT
BRANCH   1   2
ATOM      2  C   UNL     1      47.309  32.054  49.006  1.00  0.00     0.000 C 
BRANCH   2   3
ATOM      3  C   UNL     1      47.466  31.255  50.305  1.00  0.00     0.000 C 
BRANCH   3   4
ATOM      4  C   UNL     1      47.151  29.772  50.081  1.00  0.00     0.000 C 
BRANCH   4   5
ATOM      5  C   UNL     1      45.654  29.491  50.279  1.00  0.00     0.006 C 
BRANCH   5   6
ATOM      6  C   UNL     1      45.107  28.494  49.248  1.00  0.00     0.053 C 
BRANCH   6   7
ATOM      7  C   UNL     1      45.512  28.859  47.853  1.00  0.00     0.041 C 
ATOM      8  O   UNL     1      45.015  29.872  47.293  1.00  0.00    -0.550 OA
ATOM      9  O   UNL     1      46.414  28.063  47.158  1.00  0.00    -0.550 OA
ENDBRANCH   6   7
ENDBRANCH   5   6
ENDBRANCH   4   5
ENDBRANCH   3   4
ENDBRANCH   2   3
ENDBRANCH   1   2
BRANCH   1  10
ATOM     10  C   UNL     1      45.076  33.153  48.562  1.00  0.00     0.000 C 
BRANCH  10  11
ATOM     11  C   UNL     1      43.963  33.034  49.614  1.00  0.00    -0.000 C 
BRANCH  11  12
ATOM     12  C   UNL     1      43.595  34.386  50.246  1.00  0.00    -0.000 C 
BRANCH  12  13
ATOM     13  C   UNL     1      42.736  35.259  49.315  1.00  0.00    -0.000 C 
BRANCH  13  14
ATOM     14  C   UNL     1      41.608  34.468  48.629  1.00  0.00    -0.000 C 
BRANCH  14  15
ATOM     15  C   UNL     1      40.998  35.146  47.387  1.00  0.00    -0.000 C 
BRANCH  15  16
ATOM     16  C   UNL     1      41.167  34.334  46.086  1.00  0.00    -0.003 C 
ATOM     17  C   UNL     1      42.609  33.882  45.861  1.00  0.00     0.004 C 
ENDBRANCH  15  16
ENDBRANCH  14  15
ENDBRANCH  13  14
ENDBRANCH  12  13
ENDBRANCH  11  12
ENDBRANCH  10  11
ENDBRANCH   1  10
TORSDOF 13
ENDMDL
MODEL 8
REMARK VINA RESULT:    -2.643      1.928      3.794
REMARK INTER + INTRA:          -7.269
REMARK INTER:                  -5.574
REMARK INTRA:                  -1.695
REMARK UNBOUND:                -2.618
REMARK SMILES CCCCCCCCCCCCCCC(=O)[O-]
REMARK SMILES IDX 9 1 10 2 11 3 12 4 13 5 14 6 15 7 16 8 17 9 8 10 7 11 6 12
REMARK SMILES IDX 5 13 4 14 3 15 2 16 1 17
REMARK H PARENT
REMARK Flexibility Score: inf
ROOT
ATOM      1  C   UNL     1      43.579  34.870  50.117  1.00  0.00     0.000 C 
ENDROOT
BRANCH   1   2
ATOM      2  C   UNL     1      43.620  33.387  49.728  1.00  0.00     0.000 C 
BRANCH   2   3
ATOM      3  C   UNL     1      45.042  32.956  49.351  1.00  0.00     0.000 C 
BRANCH   3   4
ATOM      4  C   UNL     1      45.089  31.466  48.991  1.00  0.00     0.000 C 
BRANCH   4   5
ATOM      5  C   UNL     1      46.193  30.744  49.777  1.00  0.00     0.006 C 
BRANCH   5   6
ATOM      6  C   UNL     1      45.769  29.334  50.212  1.00  0.00     0.053 C 
BRANCH   6   7
ATOM      7  C   UNL     1      45.517  28.442  49.036  1.00  0.00     0.041 C 
ATOM      8  O   UNL     1      46.415  28.262  48.173  1.00  0.00    -0.550 OA
ATOM      9  O   UNL     1      44.278  27.834  48.877  1.00  0.00    -0.550 OA
ENDBRANCH   6   7
ENDBRANCH   5   6
ENDBRANCH   4   5
ENDBRANCH   3   4
ENDBRANCH   2   3
ENDBRANCH   1   2
BRANCH   1  10
ATOM     10  C   UNL     1      42.389  35.579  49.460  1.00  0.00     0.000 C 
BRANCH  10  11
ATOM     11  C   UNL     1      41.552  34.595  48.630  1.00  0.00    -0.000 C 
BRANCH  11  12
ATOM     12  C   UNL     1      41.260  35.112  47.212  1.00  0.00    -0.000 C 
BRANCH  12  13
ATOM     13  C   UNL     1      41.266  33.989  46.160  1.00  0.00    -0.000 C 
BRANCH  13  14
ATOM     14  C   UNL     1      42.521  34.012  45.270  1.00  0.00    -0.000 C 
BRANCH  14  15
ATOM     15  C   UNL     1      43.859  34.069  46.031  1.00  0.00    -0.000 C 
BRANCH  15  16
ATOM     16  C   UNL     1      44.670  35.356  45.773  1.00  0.00    -0.003 C 
ATOM     17  C   UNL     1      45.302  35.914  47.047  1.00  0.00     0.004 C 
ENDBRANCH  15  16
ENDBRANCH  14  15
ENDBRANCH  13  14
ENDBRANCH  12  13
ENDBRANCH  11  12
ENDBRANCH  10  11
ENDBRANCH   1  10
TORSDOF 13
ENDMDL
MODEL 9
REMARK VINA RESULT:    -2.642      2.610      5.070
REMARK INTER + INTRA:          -7.268
REMARK INTER:                  -5.836
REMARK INTRA:                  -1.433
REMARK UNBOUND:                -2.618
REMARK SMILES CCCCCCCCCCCCCCC(=O)[O-]
REMARK SMILES IDX 9 1 10 2 11 3 12 4 13 5 14 6 15 7 16 8 17 9 8 10 7 11 6 12
REMARK SMILES IDX 5 13 4 14 3 15 2 16 1 17
REMARK H PARENT
REMARK Flexibility Score: inf
ROOT
ATOM      1  C   UNL     1      45.732  31.164  47.331  1.00  0.00     0.000 C 
ENDROOT
BRANCH   1   2
ATOM      2  C   UNL     1      45.042  29.864  47.762  1.00  0.00     0.000 C 
BRANCH   2   3
ATOM      3  C   UNL     1      45.879  29.116  48.806  1.00  0.00     0.000 C 
BRANCH   3   4
ATOM      4  C   UNL     1      45.852  29.841  50.156  1.00  0.00     0.000 C 
BRANCH   4   5
ATOM      5  C   UNL     1      47.275  30.124  50.659  1.00  0.00     0.006 C 
BRANCH   5   6
ATOM      6  C   UNL     1      47.699  31.579  50.415  1.00  0.00     0.053 C 
BRANCH   6   7
ATOM      7  C   UNL     1      49.085  31.845  50.917  1.00  0.00     0.041 C 
ATOM      8  O   UNL     1      49.335  31.782  52.150  1.00  0.00    -0.550 OA
ATOM      9  O   UNL     1      50.093  32.196  50.028  1.00  0.00    -0.550 OA
ENDBRANCH   6   7
ENDBRANCH   5   6
ENDBRANCH   4   5
ENDBRANCH   3   4
ENDBRANCH   2   3
ENDBRANCH   1   2
BRANCH   1  10
ATOM     10  C   UNL     1      44.741  32.333  47.307  1.00  0.00     0.000 C 
BRANCH  10  11
ATOM     11  C   UNL     1      44.984  33.283  48.490  1.00  0.00    -0.000 C 
BRANCH  11  12
ATOM     12  C   UNL     1      44.000  33.053  49.648  1.00  0.00    -0.000 C 
BRANCH  12  13
ATOM     13  C   UNL     1      43.427  34.367  50.207  1.00  0.00    -0.000 C 
BRANCH  13  14
ATOM     14  C   UNL     1      42.806  35.257  49.116  1.00  0.00    -0.000 C 
BRANCH  14  15
ATOM     15  C   UNL     1      41.383  34.857  48.680  1.00  0.00    -0.000 C 
BRANCH  15  16
ATOM     16  C   UNL     1      41.238  34.624  47.162  1.00  0.00    -0.003 C 
ATOM     17  C   UNL     1      40.500  35.765  46.463  1.00  0.00     0.004 C 
ENDBRANCH  15  16
ENDBRANCH  14  15
ENDBRANCH  13  14
ENDBRANCH  12  13
ENDBRANCH  11  12
ENDBRANCH  10  11
ENDBRANCH   1  10
TORSDOF 13
ENDMDL
