MODEL 1
REMARK VINA RESULT:    -4.262      0.000      0.000
REMARK INTER + INTRA:          -4.609
REMARK INTER:                  -4.512
REMARK INTRA:                  -0.097
REMARK UNBOUND:                -0.097
REMARK SMILES C=C(C)[C@H]1CC=C(C)C(=O)C1
REMARK SMILES IDX 8 1 7 2 6 3 5 4 4 5 11 6 9 7 10 8 2 9 1 10 3 11
REMARK H PARENT
REMARK Flexibility Score: inf
ROOT
ATOM      1  C   UNL     1      17.273   6.942   2.325  1.00  0.00     0.048 C 
ATOM      2  C   UNL     1      16.086   6.022   2.416  1.00  0.00    -0.012 C 
ATOM      3  C   UNL     1      14.861   6.480   2.109  1.00  0.00    -0.019 C 
ATOM      4  C   UNL     1      13.637   5.608   2.201  1.00  0.00     0.036 C 
ATOM      5  C   UNL     1      13.975   4.140   1.875  1.00  0.00     0.025 C 
ATOM      6  C   UNL     1      15.116   3.642   2.782  1.00  0.00     0.089 C 
ATOM      7  C   UNL     1      16.287   4.585   2.724  1.00  0.00     0.158 C 
ATOM      8  O   UNL     1      17.442   4.145   2.978  1.00  0.00    -0.295 OA
ENDROOT
BRANCH   5   9
ATOM      9  C   UNL     1      12.748   3.245   1.974  1.00  0.00    -0.077 C 
ATOM     10  C   UNL     1      12.847   1.908   1.877  1.00  0.00     0.008 C 
ATOM     11  C   UNL     1      11.385   3.852   2.186  1.00  0.00     0.039 C 
ENDBRANCH   5   9
TORSDOF 1
ENDMDL
MODEL 2
REMARK VINA RESULT:    -4.062      2.106      4.791
REMARK INTER + INTRA:          -4.396
REMARK INTER:                  -4.300
REMARK INTRA:                  -0.097
REMARK UNBOUND:                -0.097
REMARK SMILES C=C(C)[C@H]1CC=C(C)C(=O)C1
REMARK SMILES IDX 8 1 7 2 6 3 5 4 4 5 11 6 9 7 10 8 2 9 1 10 3 11
REMARK H PARENT
REMARK Flexibility Score: inf
ROOT
ATOM      1  C   UNL     1      11.835   2.049   1.875  1.00  0.00     0.048 C 
ATOM      2  C   UNL     1      12.929   3.023   2.218  1.00  0.00    -0.012 C 
ATOM      3  C   UNL     1      14.207   2.609   2.246  1.00  0.00    -0.019 C 
ATOM      4  C   UNL     1      15.339   3.537   2.601  1.00  0.00     0.036 C 
ATOM      5  C   UNL     1      15.043   4.976   2.136  1.00  0.00     0.025 C 
ATOM      6  C   UNL     1      13.695   5.454   2.706  1.00  0.00     0.089 C 
ATOM      7  C   UNL     1      12.608   4.460   2.402  1.00  0.00     0.158 C 
ATOM      8  O   UNL     1      11.413   4.857   2.340  1.00  0.00    -0.295 OA
ENDROOT
BRANCH   5   9
ATOM      9  C   UNL     1      16.175   5.928   2.497  1.00  0.00    -0.077 C 
ATOM     10  C   UNL     1      15.932   7.123   3.060  1.00  0.00     0.008 C 
ATOM     11  C   UNL     1      17.605   5.538   2.225  1.00  0.00     0.039 C 
ENDBRANCH   5   9
TORSDOF 1
ENDMDL
MODEL 3
REMARK VINA RESULT:    -3.537     18.439     18.942
REMARK INTER + INTRA:          -3.841
REMARK INTER:                  -3.746
REMARK INTRA:                  -0.095
REMARK UNBOUND:                -0.097
REMARK SMILES C=C(C)[C@H]1CC=C(C)C(=O)C1
REMARK SMILES IDX 8 1 7 2 6 3 5 4 4 5 11 6 9 7 10 8 2 9 1 10 3 11
REMARK H PARENT
REMARK Flexibility Score: inf
ROOT
ATOM      1  C   UNL     1      25.794 -10.140   2.007  1.00  0.00     0.048 C 
ATOM      2  C   UNL     1      25.226 -10.741   3.263  1.00  0.00    -0.012 C 
ATOM      3  C   UNL     1      25.840 -10.533   4.440  1.00  0.00    -0.019 C 
ATOM      4  C   UNL     1      25.325 -11.127   5.725  1.00  0.00     0.036 C 
ATOM      5  C   UNL     1      23.788 -11.238   5.708  1.00  0.00     0.025 C 
ATOM      6  C   UNL     1      23.325 -12.031   4.472  1.00  0.00     0.089 C 
ATOM      7  C   UNL     1      23.927 -11.457   3.218  1.00  0.00     0.158 C 
ATOM      8  O   UNL     1      23.331 -11.622   2.120  1.00  0.00    -0.295 OA
ENDROOT
BRANCH   5   9
ATOM      9  C   UNL     1      23.254 -11.847   6.998  1.00  0.00    -0.077 C 
ATOM     10  C   UNL     1      24.036 -12.595   7.795  1.00  0.00     0.008 C 
ATOM     11  C   UNL     1      21.822 -11.615   7.406  1.00  0.00     0.039 C 
ENDBRANCH   5   9
TORSDOF 1
ENDMDL
MODEL 4
REMARK VINA RESULT:    -3.532     18.418     19.501
REMARK INTER + INTRA:          -3.835
REMARK INTER:                  -3.739
REMARK INTRA:                  -0.097
REMARK UNBOUND:                -0.097
REMARK SMILES C=C(C)[C@H]1CC=C(C)C(=O)C1
REMARK SMILES IDX 8 1 7 2 6 3 5 4 4 5 11 6 9 7 10 8 2 9 1 10 3 11
REMARK H PARENT
REMARK Flexibility Score: inf
ROOT
ATOM      1  C   UNL     1      26.718  -9.719   9.088  1.00  0.00     0.048 C 
ATOM      2  C   UNL     1      25.911 -10.307   7.962  1.00  0.00    -0.012 C 
ATOM      3  C   UNL     1      25.217  -9.498   7.145  1.00  0.00    -0.019 C 
ATOM      4  C   UNL     1      24.378 -10.034   6.014  1.00  0.00     0.036 C 
ATOM      5  C   UNL     1      24.995 -11.319   5.427  1.00  0.00     0.025 C 
ATOM      6  C   UNL     1      25.213 -12.362   6.538  1.00  0.00     0.089 C 
ATOM      7  C   UNL     1      25.983 -11.763   7.683  1.00  0.00     0.158 C 
ATOM      8  O   UNL     1      26.663 -12.519   8.428  1.00  0.00    -0.295 OA
ENDROOT
BRANCH   5   9
ATOM      9  C   UNL     1      24.152 -11.878   4.289  1.00  0.00    -0.077 C 
ATOM     10  C   UNL     1      23.647 -13.123   4.338  1.00  0.00     0.008 C 
ATOM     11  C   UNL     1      23.866 -11.033   3.075  1.00  0.00     0.039 C 
ENDBRANCH   5   9
TORSDOF 1
ENDMDL
MODEL 5
REMARK VINA RESULT:    -3.492     18.085     18.820
REMARK INTER + INTRA:          -3.793
REMARK INTER:                  -3.697
REMARK INTRA:                  -0.096
REMARK UNBOUND:                -0.097
REMARK SMILES C=C(C)[C@H]1CC=C(C)C(=O)C1
REMARK SMILES IDX 8 1 7 2 6 3 5 4 4 5 11 6 9 7 10 8 2 9 1 10 3 11
REMARK H PARENT
REMARK Flexibility Score: inf
ROOT
ATOM      1  C   UNL     1      25.955  -9.462   8.574  1.00  0.00     0.048 C 
ATOM      2  C   UNL     1      25.509 -10.152   7.313  1.00  0.00    -0.012 C 
ATOM      3  C   UNL     1      24.453 -10.982   7.344  1.00  0.00    -0.019 C 
ATOM      4  C   UNL     1      23.976 -11.712   6.117  1.00  0.00     0.036 C 
ATOM      5  C   UNL     1      24.216 -10.875   4.845  1.00  0.00     0.025 C 
ATOM      6  C   UNL     1      25.698 -10.470   4.744  1.00  0.00     0.089 C 
ATOM      7  C   UNL     1      26.157  -9.819   6.020  1.00  0.00     0.158 C 
ATOM      8  O   UNL     1      27.125  -9.012   5.984  1.00  0.00    -0.295 OA
ENDROOT
BRANCH   5   9
ATOM      9  C   UNL     1      23.747 -11.606   3.594  1.00  0.00    -0.077 C 
ATOM     10  C   UNL     1      23.381 -12.898   3.634  1.00  0.00     0.008 C 
ATOM     11  C   UNL     1      23.684 -10.881   2.275  1.00  0.00     0.039 C 
ENDBRANCH   5   9
TORSDOF 1
ENDMDL
MODEL 6
REMARK VINA RESULT:    -3.455     18.820     19.580
REMARK INTER + INTRA:          -3.755
REMARK INTER:                  -3.661
REMARK INTRA:                  -0.094
REMARK UNBOUND:                -0.097
REMARK SMILES C=C(C)[C@H]1CC=C(C)C(=O)C1
REMARK SMILES IDX 8 1 7 2 6 3 5 4 4 5 11 6 9 7 10 8 2 9 1 10 3 11
REMARK H PARENT
REMARK Flexibility Score: inf
ROOT
ATOM      1  C   UNL     1      23.370 -12.092   3.263  1.00  0.00     0.048 C 
ATOM      2  C   UNL     1      23.984 -11.561   4.530  1.00  0.00    -0.012 C 
ATOM      3  C   UNL     1      23.456 -11.894   5.719  1.00  0.00    -0.019 C 
ATOM      4  C   UNL     1      24.019 -11.377   7.017  1.00  0.00     0.036 C 
ATOM      5  C   UNL     1      25.545 -11.181   6.920  1.00  0.00     0.025 C 
ATOM      6  C   UNL     1      25.891 -10.269   5.727  1.00  0.00     0.089 C 
ATOM      7  C   UNL     1      25.241 -10.775   4.468  1.00  0.00     0.158 C 
ATOM      8  O   UNL     1      25.759 -10.491   3.354  1.00  0.00    -0.295 OA
ENDROOT
BRANCH   5   9
ATOM      9  C   UNL     1      26.128 -10.649   8.222  1.00  0.00    -0.077 C 
ATOM     10  C   UNL     1      26.047  -9.346   8.543  1.00  0.00     0.008 C 
ATOM     11  C   UNL     1      26.812 -11.586   9.182  1.00  0.00     0.039 C 
ENDBRANCH   5   9
TORSDOF 1
ENDMDL
MODEL 7
REMARK VINA RESULT:    -3.442      1.717      4.285
REMARK INTER + INTRA:          -3.740
REMARK INTER:                  -3.642
REMARK INTRA:                  -0.098
REMARK UNBOUND:                -0.097
REMARK SMILES C=C(C)[C@H]1CC=C(C)C(=O)C1
REMARK SMILES IDX 8 1 7 2 6 3 5 4 4 5 11 6 9 7 10 8 2 9 1 10 3 11
REMARK H PARENT
REMARK Flexibility Score: inf
ROOT
ATOM      1  C   UNL     1      11.013   2.987   1.999  1.00  0.00     0.048 C 
ATOM      2  C   UNL     1      12.359   3.658   2.015  1.00  0.00    -0.012 C 
ATOM      3  C   UNL     1      12.439   4.990   2.171  1.00  0.00    -0.019 C 
ATOM      4  C   UNL     1      13.759   5.716   2.176  1.00  0.00     0.036 C 
ATOM      5  C   UNL     1      14.872   4.838   2.780  1.00  0.00     0.025 C 
ATOM      6  C   UNL     1      14.949   3.490   2.039  1.00  0.00     0.089 C 
ATOM      7  C   UNL     1      13.595   2.838   1.984  1.00  0.00     0.158 C 
ATOM      8  O   UNL     1      13.522   1.584   1.875  1.00  0.00    -0.295 OA
ENDROOT
BRANCH   5   9
ATOM      9  C   UNL     1      16.215   5.555   2.783  1.00  0.00    -0.077 C 
ATOM     10  C   UNL     1      17.366   4.886   2.601  1.00  0.00     0.008 C 
ATOM     11  C   UNL     1      16.274   7.047   2.991  1.00  0.00     0.039 C 
ENDBRANCH   5   9
TORSDOF 1
ENDMDL
MODEL 8
REMARK VINA RESULT:    -3.425     18.442     19.235
REMARK INTER + INTRA:          -3.722
REMARK INTER:                  -3.632
REMARK INTRA:                  -0.090
REMARK UNBOUND:                -0.097
REMARK SMILES C=C(C)[C@H]1CC=C(C)C(=O)C1
REMARK SMILES IDX 8 1 7 2 6 3 5 4 4 5 11 6 9 7 10 8 2 9 1 10 3 11
REMARK H PARENT
REMARK Flexibility Score: inf
ROOT
ATOM      1  C   UNL     1      22.284 -11.616   7.256  1.00  0.00     0.048 C 
ATOM      2  C   UNL     1      23.364 -11.551   6.211  1.00  0.00    -0.012 C 
ATOM      3  C   UNL     1      23.312 -12.367   5.145  1.00  0.00    -0.019 C 
ATOM      4  C   UNL     1      24.376 -12.357   4.079  1.00  0.00     0.036 C 
ATOM      5  C   UNL     1      24.963 -10.944   3.895  1.00  0.00     0.025 C 
ATOM      6  C   UNL     1      25.479 -10.401   5.240  1.00  0.00     0.089 C 
ATOM      7  C   UNL     1      24.414 -10.505   6.297  1.00  0.00     0.158 C 
ATOM      8  O   UNL     1      24.443  -9.715   7.279  1.00  0.00    -0.295 OA
ENDROOT
BRANCH   5   9
ATOM      9  C   UNL     1      26.048 -10.921   2.826  1.00  0.00    -0.077 C 
ATOM     10  C   UNL     1      26.074  -9.972   1.876  1.00  0.00     0.008 C 
ATOM     11  C   UNL     1      27.124 -11.977   2.820  1.00  0.00     0.039 C 
ENDBRANCH   5   9
TORSDOF 1
ENDMDL
