MODEL 1
REMARK VINA RESULT:    11.422      0.000      0.000
REMARK INTER + INTRA:          12.423
REMARK INTER:                  12.423
REMARK INTRA:                   0.000
REMARK UNBOUND:                 0.000
REMARK SMILES Cc1cc(O)c2c(c1)C(=O)c1cc(O)cc(O)c1C2=O
REMARK SMILES IDX 1 1 2 2 8 3 7 4 6 5 4 6 3 7 19 8 20 9 18 10 11 11 9 12 10 13
REMARK SMILES IDX 12 14 13 15 15 16 16 17 5 18 17 20 14 22
REMARK H PARENT 5 19 17 21 14 23
REMARK Flexibility Score: inf
ROOT
ATOM      1  C   UNL     1     -42.048  49.214  11.603  1.00  0.00     0.044 C 
ATOM      2  C   UNL     1     -42.358  47.756  11.781  1.00  0.00    -0.047 A 
ATOM      3  C   UNL     1     -41.325  46.838  12.009  1.00  0.00     0.016 A 
ATOM      4  C   UNL     1     -41.601  45.466  12.139  1.00  0.00     0.038 A 
ATOM      5  C   UNL     1     -42.929  45.005  12.035  1.00  0.00     0.076 A 
ATOM      6  C   UNL     1     -43.966  45.931  11.779  1.00  0.00     0.127 A 
ATOM      7  C   UNL     1     -43.671  47.295  11.650  1.00  0.00     0.050 A 
ATOM      8  C   UNL     1     -43.209  43.556  12.218  1.00  0.00     0.201 C 
ATOM      9  O   UNL     1     -44.381  43.181  12.490  1.00  0.00    -0.288 OA
ATOM     10  C   UNL     1     -42.093  42.570  12.194  1.00  0.00     0.076 A 
ATOM     11  C   UNL     1     -40.771  43.047  12.359  1.00  0.00     0.041 A 
ATOM     12  C   UNL     1     -40.503  44.504  12.386  1.00  0.00     0.194 C 
ATOM     13  O   UNL     1     -39.333  44.926  12.603  1.00  0.00    -0.289 OA
ATOM     14  C   UNL     1     -39.710  42.134  12.488  1.00  0.00     0.059 A 
ATOM     15  C   UNL     1     -39.942  40.761  12.439  1.00  0.00     0.120 A 
ATOM     16  C   UNL     1     -41.237  40.285  12.228  1.00  0.00     0.093 A 
ATOM     17  C   UNL     1     -42.308  41.169  12.071  1.00  0.00     0.131 A 
ENDROOT
BRANCH   6  18
ATOM     18  O   UNL     1     -45.286  45.501  11.640  1.00  0.00    -0.507 OA
ATOM     19  H   UNL     1     -45.762  44.993  12.378  1.00  0.00     0.293 HD
ENDBRANCH   6  18
BRANCH  17  20
ATOM     20  O   UNL     1     -43.552  40.615  11.757  1.00  0.00    -0.507 OA
ATOM     21  H   UNL     1     -44.418  41.136  11.770  1.00  0.00     0.293 HD
ENDBRANCH  17  20
BRANCH  15  22
ATOM     22  O   UNL     1     -38.875  39.878  12.586  1.00  0.00    -0.508 OA
ATOM     23  H   UNL     1     -37.945  40.205  12.819  1.00  0.00     0.293 HD
ENDBRANCH  15  22
TORSDOF 3
ENDMDL
MODEL 2
REMARK VINA RESULT:    11.783      3.543      5.799
REMARK INTER + INTRA:          12.817
REMARK INTER:                  12.817
REMARK INTRA:                   0.000
REMARK UNBOUND:                 0.000
REMARK SMILES Cc1cc(O)c2c(c1)C(=O)c1cc(O)cc(O)c1C2=O
REMARK SMILES IDX 1 1 2 2 8 3 7 4 6 5 4 6 3 7 19 8 20 9 18 10 11 11 9 12 10 13
REMARK SMILES IDX 12 14 13 15 15 16 16 17 5 18 17 20 14 22
REMARK H PARENT 5 19 17 21 14 23
REMARK Flexibility Score: inf
ROOT
ATOM      1  C   UNL     1     -48.390  39.875   9.864  1.00  0.00     0.044 C 
ATOM      2  C   UNL     1     -46.908  40.107   9.825  1.00  0.00    -0.047 A 
ATOM      3  C   UNL     1     -46.224  40.484  10.987  1.00  0.00     0.016 A 
ATOM      4  C   UNL     1     -44.841  40.740  10.954  1.00  0.00     0.038 A 
ATOM      5  C   UNL     1     -44.136  40.622   9.739  1.00  0.00     0.076 A 
ATOM      6  C   UNL     1     -44.835  40.266   8.563  1.00  0.00     0.127 A 
ATOM      7  C   UNL     1     -46.213  40.016   8.615  1.00  0.00     0.050 A 
ATOM      8  C   UNL     1     -42.667  40.854   9.729  1.00  0.00     0.201 C 
ATOM      9  O   UNL     1     -41.976  40.410   8.774  1.00  0.00    -0.288 OA
ATOM     10  C   UNL     1     -42.005  41.504  10.894  1.00  0.00     0.076 A 
ATOM     11  C   UNL     1     -42.708  41.562  12.121  1.00  0.00     0.041 A 
ATOM     12  C   UNL     1     -44.125  41.133  12.189  1.00  0.00     0.194 C 
ATOM     13  O   UNL     1     -44.728  41.119  13.297  1.00  0.00    -0.289 OA
ATOM     14  C   UNL     1     -42.061  42.035  13.276  1.00  0.00     0.059 A 
ATOM     15  C   UNL     1     -40.737  42.465  13.224  1.00  0.00     0.120 A 
ATOM     16  C   UNL     1     -40.053  42.457  12.007  1.00  0.00     0.093 A 
ATOM     17  C   UNL     1     -40.679  42.016  10.837  1.00  0.00     0.131 A 
ENDROOT
BRANCH   6  18
ATOM     18  O   UNL     1     -44.169  40.170   7.341  1.00  0.00    -0.507 OA
ATOM     19  H   UNL     1     -43.327  39.615   7.234  1.00  0.00     0.293 HD
ENDBRANCH   6  18
BRANCH  17  20
ATOM     20  O   UNL     1     -39.961  42.140   9.645  1.00  0.00    -0.507 OA
ATOM     21  H   UNL     1     -39.533  41.362   9.164  1.00  0.00     0.293 HD
ENDBRANCH  17  20
BRANCH  15  22
ATOM     22  O   UNL     1     -40.114  42.914  14.387  1.00  0.00    -0.508 OA
ATOM     23  H   UNL     1     -40.648  43.168  15.210  1.00  0.00     0.293 HD
ENDBRANCH  15  22
TORSDOF 3
ENDMDL
MODEL 3
REMARK VINA RESULT:    12.421      1.627      6.059
REMARK INTER + INTRA:          13.510
REMARK INTER:                  13.510
REMARK INTRA:                   0.000
REMARK UNBOUND:                 0.000
REMARK SMILES Cc1cc(O)c2c(c1)C(=O)c1cc(O)cc(O)c1C2=O
REMARK SMILES IDX 1 1 2 2 8 3 7 4 6 5 4 6 3 7 19 8 20 9 18 10 11 11 9 12 10 13
REMARK SMILES IDX 12 14 13 15 15 16 16 17 5 18 17 20 14 22
REMARK H PARENT 5 19 17 21 14 23
REMARK Flexibility Score: inf
ROOT
ATOM      1  C   UNL     1     -44.883  39.875  12.072  1.00  0.00     0.044 C 
ATOM      2  C   UNL     1     -43.831  40.943  12.137  1.00  0.00    -0.047 A 
ATOM      3  C   UNL     1     -44.194  42.294  12.089  1.00  0.00     0.016 A 
ATOM      4  C   UNL     1     -43.214  43.302  12.112  1.00  0.00     0.038 A 
ATOM      5  C   UNL     1     -41.850  42.951  12.178  1.00  0.00     0.076 A 
ATOM      6  C   UNL     1     -41.485  41.586  12.200  1.00  0.00     0.127 A 
ATOM      7  C   UNL     1     -42.477  40.596  12.175  1.00  0.00     0.050 A 
ATOM      8  C   UNL     1     -40.828  44.029  12.245  1.00  0.00     0.201 C 
ATOM      9  O   UNL     1     -39.670  43.760  12.664  1.00  0.00    -0.288 OA
ATOM     10  C   UNL     1     -41.202  45.436  11.929  1.00  0.00     0.076 A 
ATOM     11  C   UNL     1     -42.575  45.781  11.925  1.00  0.00     0.041 A 
ATOM     12  C   UNL     1     -43.608  44.729  12.068  1.00  0.00     0.194 C 
ATOM     13  O   UNL     1     -44.828  45.047  12.134  1.00  0.00    -0.289 OA
ATOM     14  C   UNL     1     -42.957  47.126  11.776  1.00  0.00     0.059 A 
ATOM     15  C   UNL     1     -41.999  48.124  11.616  1.00  0.00     0.120 A 
ATOM     16  C   UNL     1     -40.645  47.784  11.571  1.00  0.00     0.093 A 
ATOM     17  C   UNL     1     -40.237  46.452  11.690  1.00  0.00     0.131 A 
ENDROOT
BRANCH   6  18
ATOM     18  O   UNL     1     -40.144  41.208  12.235  1.00  0.00    -0.507 OA
ATOM     19  H   UNL     1     -39.853  40.301  12.583  1.00  0.00     0.293 HD
ENDBRANCH   6  18
BRANCH  17  20
ATOM     20  O   UNL     1     -38.875  46.186  11.527  1.00  0.00    -0.507 OA
ATOM     21  H   UNL     1     -38.490  45.702  10.727  1.00  0.00     0.293 HD
ENDBRANCH  17  20
BRANCH  15  22
ATOM     22  O   UNL     1     -42.403  49.451  11.487  1.00  0.00    -0.508 OA
ATOM     23  H   UNL     1     -43.380  49.699  11.385  1.00  0.00     0.293 HD
ENDBRANCH  15  22
TORSDOF 3
ENDMDL
