MODEL 1
REMARK VINA RESULT:    -3.761      0.000      0.000
REMARK INTER + INTRA:          -5.127
REMARK INTER:                  -5.081
REMARK INTRA:                  -0.046
REMARK UNBOUND:                -0.046
REMARK SMILES [NH3+]CCCC[C@@H]([NH3+])C(=O)[O-]
REMARK SMILES IDX 4 1 3 2 2 3 1 4 5 8 6 9 7 10 8 14 9 15 10 16
REMARK H PARENT 1 5 1 6 1 7 7 11 7 12 7 13
REMARK Flexibility Score: inf
ROOT
ATOM      1  C   UNL     1      10.503  39.571  35.325  1.00  0.00     0.012 C 
ENDROOT
BRANCH   1   2
ATOM      2  C   UNL     1      10.672  38.218  36.026  1.00  0.00     0.061 C 
BRANCH   2   3
ATOM      3  C   UNL     1      12.002  38.154  36.789  1.00  0.00     0.258 C 
BRANCH   3   4
ATOM      4  N   UNL     1      11.799  38.414  38.214  1.00  0.00    -0.358 N 
ATOM      5  H   UNL     1      11.612  39.431  38.372  1.00  0.00     0.344 HD
ATOM      6  H   UNL     1      10.997  37.846  38.572  1.00  0.00     0.344 HD
ATOM      7  H   UNL     1      12.663  38.144  38.738  1.00  0.00     0.344 HD
ENDBRANCH   3   4
ENDBRANCH   2   3
ENDBRANCH   1   2
BRANCH   1   8
ATOM      8  C   UNL     1       9.505  39.469  34.162  1.00  0.00     0.072 C 
BRANCH   8   9
ATOM      9  C   UNL     1       8.710  40.776  33.957  1.00  0.00     0.227 C 
BRANCH   9  10
ATOM     10  N   UNL     1       7.949  40.722  32.703  1.00  0.00    -0.350 N 
ATOM     11  H   UNL     1       7.300  41.540  32.629  1.00  0.00     0.345 HD
ATOM     12  H   UNL     1       7.391  39.838  32.665  1.00  0.00     0.345 HD
ATOM     13  H   UNL     1       8.605  40.729  31.888  1.00  0.00     0.345 HD
ENDBRANCH   9  10
BRANCH   9  14
ATOM     14  C   UNL     1       7.777  41.031  35.114  1.00  0.00     0.099 C 
ATOM     15  O   UNL     1       8.140  41.768  36.068  1.00  0.00    -0.544 OA
ATOM     16  O   UNL     1       6.515  40.449  35.138  1.00  0.00    -0.544 OA
ENDBRANCH   9  14
ENDBRANCH   8   9
ENDBRANCH   1   8
TORSDOF 7
ENDMDL
MODEL 2
REMARK VINA RESULT:    -3.492      1.283      1.449
REMARK INTER + INTRA:          -4.764
REMARK INTER:                  -4.694
REMARK INTRA:                  -0.070
REMARK UNBOUND:                -0.046
REMARK SMILES [NH3+]CCCC[C@@H]([NH3+])C(=O)[O-]
REMARK SMILES IDX 4 1 3 2 2 3 1 4 5 8 6 9 7 10 8 14 9 15 10 16
REMARK H PARENT 1 5 1 6 1 7 7 11 7 12 7 13
REMARK Flexibility Score: inf
ROOT
ATOM      1  C   UNL     1      10.621  39.517  35.868  1.00  0.00     0.012 C 
ENDROOT
BRANCH   1   2
ATOM      2  C   UNL     1      10.959  38.023  35.949  1.00  0.00     0.061 C 
BRANCH   2   3
ATOM      3  C   UNL     1      12.061  37.763  36.985  1.00  0.00     0.258 C 
BRANCH   3   4
ATOM      4  N   UNL     1      11.753  38.424  38.252  1.00  0.00    -0.358 N 
ATOM      5  H   UNL     1      12.635  38.744  38.715  1.00  0.00     0.344 HD
ATOM      6  H   UNL     1      11.122  39.242  38.087  1.00  0.00     0.344 HD
ATOM      7  H   UNL     1      11.267  37.746  38.883  1.00  0.00     0.344 HD
ENDBRANCH   3   4
ENDBRANCH   2   3
ENDBRANCH   1   2
BRANCH   1   8
ATOM      8  C   UNL     1       9.665  39.803  34.701  1.00  0.00     0.072 C 
BRANCH   8   9
ATOM      9  C   UNL     1       8.648  40.915  35.037  1.00  0.00     0.227 C 
BRANCH   9  10
ATOM     10  N   UNL     1       9.130  42.214  34.552  1.00  0.00    -0.350 N 
ATOM     11  H   UNL     1      10.163  42.185  34.383  1.00  0.00     0.345 HD
ATOM     12  H   UNL     1       8.919  42.957  35.257  1.00  0.00     0.345 HD
ATOM     13  H   UNL     1       8.643  42.463  33.660  1.00  0.00     0.345 HD
ENDBRANCH   9  10
BRANCH   9  14
ATOM     14  C   UNL     1       7.297  40.613  34.441  1.00  0.00     0.099 C 
ATOM     15  O   UNL     1       7.159  40.545  33.191  1.00  0.00    -0.544 OA
ATOM     16  O   UNL     1       6.196  40.412  35.264  1.00  0.00    -0.544 OA
ENDBRANCH   9  14
ENDBRANCH   8   9
ENDBRANCH   1   8
TORSDOF 7
ENDMDL
MODEL 3
REMARK VINA RESULT:    -3.290      1.737      1.824
REMARK INTER + INTRA:          -4.491
REMARK INTER:                  -4.370
REMARK INTRA:                  -0.121
REMARK UNBOUND:                -0.046
REMARK SMILES [NH3+]CCCC[C@@H]([NH3+])C(=O)[O-]
REMARK SMILES IDX 4 1 3 2 2 3 1 4 5 8 6 9 7 10 8 14 9 15 10 16
REMARK H PARENT 1 5 1 6 1 7 7 11 7 12 7 13
REMARK Flexibility Score: inf
ROOT
ATOM      1  C   UNL     1      10.616  39.400  35.224  1.00  0.00     0.012 C 
ENDROOT
BRANCH   1   2
ATOM      2  C   UNL     1      10.756  38.083  35.998  1.00  0.00     0.061 C 
BRANCH   2   3
ATOM      3  C   UNL     1      12.051  38.062  36.822  1.00  0.00     0.258 C 
BRANCH   3   4
ATOM      4  N   UNL     1      11.784  38.394  38.221  1.00  0.00    -0.358 N 
ATOM      5  H   UNL     1      11.138  39.215  38.280  1.00  0.00     0.344 HD
ATOM      6  H   UNL     1      11.359  37.573  38.710  1.00  0.00     0.344 HD
ATOM      7  H   UNL     1      12.685  38.638  38.692  1.00  0.00     0.344 HD
ENDBRANCH   3   4
ENDBRANCH   2   3
ENDBRANCH   1   2
BRANCH   1   8
ATOM      8  C   UNL     1       9.357  40.165  35.659  1.00  0.00     0.072 C 
BRANCH   8   9
ATOM      9  C   UNL     1       8.337  40.314  34.510  1.00  0.00     0.227 C 
BRANCH   9  10
ATOM     10  N   UNL     1       7.009  40.642  35.043  1.00  0.00    -0.350 N 
ATOM     11  H   UNL     1       7.012  40.607  36.089  1.00  0.00     0.345 HD
ATOM     12  H   UNL     1       6.303  39.962  34.680  1.00  0.00     0.345 HD
ATOM     13  H   UNL     1       6.729  41.601  34.733  1.00  0.00     0.345 HD
ENDBRANCH   9  10
BRANCH   9  14
ATOM     14  C   UNL     1       8.774  41.374  33.532  1.00  0.00     0.099 C 
ATOM     15  O   UNL     1       9.388  42.395  33.939  1.00  0.00    -0.544 OA
ATOM     16  O   UNL     1       8.498  41.235  32.177  1.00  0.00    -0.544 OA
ENDBRANCH   9  14
ENDBRANCH   8   9
ENDBRANCH   1   8
TORSDOF 7
ENDMDL
MODEL 4
REMARK VINA RESULT:    -2.910      2.952      4.822
REMARK INTER + INTRA:          -3.977
REMARK INTER:                  -3.881
REMARK INTRA:                  -0.096
REMARK UNBOUND:                -0.046
REMARK SMILES [NH3+]CCCC[C@@H]([NH3+])C(=O)[O-]
REMARK SMILES IDX 4 1 3 2 2 3 1 4 5 8 6 9 7 10 8 14 9 15 10 16
REMARK H PARENT 1 5 1 6 1 7 7 11 7 12 7 13
REMARK Flexibility Score: inf
ROOT
ATOM      1  C   UNL     1       8.918  40.995  35.494  1.00  0.00     0.012 C 
ENDROOT
BRANCH   1   2
ATOM      2  C   UNL     1       7.911  40.655  34.388  1.00  0.00     0.061 C 
BRANCH   2   3
ATOM      3  C   UNL     1       8.620  40.428  33.046  1.00  0.00     0.258 C 
BRANCH   3   4
ATOM      4  N   UNL     1       8.396  41.554  32.141  1.00  0.00    -0.358 N 
ATOM      5  H   UNL     1       9.191  41.637  31.466  1.00  0.00     0.344 HD
ATOM      6  H   UNL     1       7.500  41.423  31.619  1.00  0.00     0.344 HD
ATOM      7  H   UNL     1       8.334  42.435  32.701  1.00  0.00     0.344 HD
ENDBRANCH   3   4
ENDBRANCH   2   3
ENDBRANCH   1   2
BRANCH   1   8
ATOM      8  C   UNL     1      10.305  40.416  35.174  1.00  0.00     0.072 C 
BRANCH   8   9
ATOM      9  C   UNL     1      10.487  38.990  35.738  1.00  0.00     0.227 C 
BRANCH   9  10
ATOM     10  N   UNL     1      10.535  38.010  34.647  1.00  0.00    -0.350 N 
ATOM     11  H   UNL     1      10.027  38.369  33.805  1.00  0.00     0.345 HD
ATOM     12  H   UNL     1      10.095  37.113  34.956  1.00  0.00     0.345 HD
ATOM     13  H   UNL     1      11.530  37.813  34.389  1.00  0.00     0.345 HD
ENDBRANCH   9  10
BRANCH   9  14
ATOM     14  C   UNL     1      11.740  38.894  36.571  1.00  0.00     0.099 C 
ATOM     15  O   UNL     1      11.715  38.309  37.686  1.00  0.00    -0.544 OA
ATOM     16  O   UNL     1      12.928  39.454  36.117  1.00  0.00    -0.544 OA
ENDBRANCH   9  14
ENDBRANCH   8   9
ENDBRANCH   1   8
TORSDOF 7
ENDMDL
MODEL 5
REMARK VINA RESULT:    -2.819      3.112      4.660
REMARK INTER + INTRA:          -3.855
REMARK INTER:                  -3.713
REMARK INTRA:                  -0.141
REMARK UNBOUND:                -0.046
REMARK SMILES [NH3+]CCCC[C@@H]([NH3+])C(=O)[O-]
REMARK SMILES IDX 4 1 3 2 2 3 1 4 5 8 6 9 7 10 8 14 9 15 10 16
REMARK H PARENT 1 5 1 6 1 7 7 11 7 12 7 13
REMARK Flexibility Score: inf
ROOT
ATOM      1  C   UNL     1       9.393  40.723  34.142  1.00  0.00     0.012 C 
ENDROOT
BRANCH   1   2
ATOM      2  C   UNL     1       7.885  40.569  33.908  1.00  0.00     0.061 C 
BRANCH   2   3
ATOM      3  C   UNL     1       7.106  40.712  35.223  1.00  0.00     0.258 C 
BRANCH   3   4
ATOM      4  N   UNL     1       5.747  40.190  35.083  1.00  0.00    -0.358 N 
ATOM      5  H   UNL     1       5.546  39.500  35.842  1.00  0.00     0.344 HD
ATOM      6  H   UNL     1       5.055  40.974  35.123  1.00  0.00     0.344 HD
ATOM      7  H   UNL     1       5.659  39.711  34.157  1.00  0.00     0.344 HD
ENDBRANCH   3   4
ENDBRANCH   2   3
ENDBRANCH   1   2
BRANCH   1   8
ATOM      8  C   UNL     1       9.777  40.298  35.567  1.00  0.00     0.072 C 
BRANCH   8   9
ATOM      9  C   UNL     1      10.391  38.883  35.611  1.00  0.00     0.227 C 
BRANCH   9  10
ATOM     10  N   UNL     1      10.650  38.394  34.251  1.00  0.00    -0.350 N 
ATOM     11  H   UNL     1       9.775  38.009  33.824  1.00  0.00     0.345 HD
ATOM     12  H   UNL     1      11.377  37.644  34.276  1.00  0.00     0.345 HD
ATOM     13  H   UNL     1      11.007  39.176  33.655  1.00  0.00     0.345 HD
ENDBRANCH   9  10
BRANCH   9  14
ATOM     14  C   UNL     1      11.667  38.870  36.413  1.00  0.00     0.099 C 
ATOM     15  O   UNL     1      12.677  39.502  36.004  1.00  0.00    -0.544 OA
ATOM     16  O   UNL     1      11.739  38.159  37.605  1.00  0.00    -0.544 OA
ENDBRANCH   9  14
ENDBRANCH   8   9
ENDBRANCH   1   8
TORSDOF 7
ENDMDL
MODEL 6
REMARK VINA RESULT:    -2.087      2.050      2.202
REMARK INTER + INTRA:          -2.865
REMARK INTER:                  -2.860
REMARK INTRA:                  -0.005
REMARK UNBOUND:                -0.046
REMARK SMILES [NH3+]CCCC[C@@H]([NH3+])C(=O)[O-]
REMARK SMILES IDX 4 1 3 2 2 3 1 4 5 8 6 9 7 10 8 14 9 15 10 16
REMARK H PARENT 1 5 1 6 1 7 7 11 7 12 7 13
REMARK Flexibility Score: inf
ROOT
ATOM      1  C   UNL     1      10.475  39.378  35.469  1.00  0.00     0.012 C 
ENDROOT
BRANCH   1   2
ATOM      2  C   UNL     1      10.709  38.809  36.874  1.00  0.00     0.061 C 
BRANCH   2   3
ATOM      3  C   UNL     1      12.064  38.093  36.962  1.00  0.00     0.258 C 
BRANCH   3   4
ATOM      4  N   UNL     1      13.113  38.881  36.316  1.00  0.00    -0.358 N 
ATOM      5  H   UNL     1      13.849  38.249  35.925  1.00  0.00     0.344 HD
ATOM      6  H   UNL     1      12.704  39.466  35.551  1.00  0.00     0.344 HD
ATOM      7  H   UNL     1      13.551  39.513  37.025  1.00  0.00     0.344 HD
ENDBRANCH   3   4
ENDBRANCH   2   3
ENDBRANCH   1   2
BRANCH   1   8
ATOM      8  C   UNL     1       9.537  40.593  35.515  1.00  0.00     0.072 C 
BRANCH   8   9
ATOM      9  C   UNL     1       8.252  40.371  34.690  1.00  0.00     0.227 C 
BRANCH   9  10
ATOM     10  N   UNL     1       7.222  41.343  35.075  1.00  0.00    -0.350 N 
ATOM     11  H   UNL     1       6.679  41.659  34.237  1.00  0.00     0.345 HD
ATOM     12  H   UNL     1       7.668  42.174  35.526  1.00  0.00     0.345 HD
ATOM     13  H   UNL     1       6.565  40.911  35.765  1.00  0.00     0.345 HD
ENDBRANCH   9  10
BRANCH   9  14
ATOM     14  C   UNL     1       8.532  40.477  33.212  1.00  0.00     0.099 C 
ATOM     15  O   UNL     1       8.251  41.535  32.590  1.00  0.00    -0.544 OA
ATOM     16  O   UNL     1       9.097  39.408  32.527  1.00  0.00    -0.544 OA
ENDBRANCH   9  14
ENDBRANCH   8   9
ENDBRANCH   1   8
TORSDOF 7
ENDMDL
MODEL 7
REMARK VINA RESULT:    -1.694      1.287      1.330
REMARK INTER + INTRA:          -2.334
REMARK INTER:                  -2.252
REMARK INTRA:                  -0.083
REMARK UNBOUND:                -0.046
REMARK SMILES [NH3+]CCCC[C@@H]([NH3+])C(=O)[O-]
REMARK SMILES IDX 4 1 3 2 2 3 1 4 5 8 6 9 7 10 8 14 9 15 10 16
REMARK H PARENT 1 5 1 6 1 7 7 11 7 12 7 13
REMARK Flexibility Score: inf
ROOT
ATOM      1  C   UNL     1      10.772  39.856  36.193  1.00  0.00     0.012 C 
ENDROOT
BRANCH   1   2
ATOM      2  C   UNL     1      11.574  38.751  36.893  1.00  0.00     0.061 C 
BRANCH   2   3
ATOM      3  C   UNL     1      12.840  38.401  36.099  1.00  0.00     0.258 C 
BRANCH   3   4
ATOM      4  N   UNL     1      13.627  39.601  35.816  1.00  0.00    -0.358 N 
ATOM      5  H   UNL     1      13.317  40.030  34.914  1.00  0.00     0.344 HD
ATOM      6  H   UNL     1      13.520  40.293  36.593  1.00  0.00     0.344 HD
ATOM      7  H   UNL     1      14.636  39.337  35.736  1.00  0.00     0.344 HD
ENDBRANCH   3   4
ENDBRANCH   2   3
ENDBRANCH   1   2
BRANCH   1   8
ATOM      8  C   UNL     1       9.815  39.265  35.147  1.00  0.00     0.072 C 
BRANCH   8   9
ATOM      9  C   UNL     1       9.106  40.358  34.319  1.00  0.00     0.227 C 
BRANCH   9  10
ATOM     10  N   UNL     1       8.664  39.817  33.029  1.00  0.00    -0.350 N 
ATOM     11  H   UNL     1       7.666  39.506  33.080  1.00  0.00     0.345 HD
ATOM     12  H   UNL     1       9.264  39.003  32.761  1.00  0.00     0.345 HD
ATOM     13  H   UNL     1       8.758  40.549  32.286  1.00  0.00     0.345 HD
ENDBRANCH   9  10
BRANCH   9  14
ATOM     14  C   UNL     1       7.928  40.926  35.069  1.00  0.00     0.099 C 
ATOM     15  O   UNL     1       8.088  41.893  35.860  1.00  0.00    -0.544 OA
ATOM     16  O   UNL     1       6.660  40.384  34.897  1.00  0.00    -0.544 OA
ENDBRANCH   9  14
ENDBRANCH   8   9
ENDBRANCH   1   8
TORSDOF 7
ENDMDL
