MODEL 1
REMARK VINA RESULT:    -3.671      0.000      0.000
REMARK INTER + INTRA:          -4.174
REMARK INTER:                  -3.885
REMARK INTRA:                  -0.288
REMARK UNBOUND:                -0.288
REMARK SMILES c1ccc(-c2ccccc2)cc1
REMARK SMILES IDX 1 1 2 2 3 3 4 4 11 5 12 6 5 7 6 8 10 9 7 10 9 11 8 12
REMARK H PARENT
REMARK Flexibility Score: inf
ROOT
ATOM      1  C   UNL     1      -0.812   1.961   4.360  1.00  0.00     0.000 A 
ATOM      2  C   UNL     1      -1.107   2.170   3.012  1.00  0.00     0.001 A 
ATOM      3  C   UNL     1      -1.436   3.450   2.555  1.00  0.00     0.009 A 
ATOM      4  C   UNL     1      -1.472   4.538   3.447  1.00  0.00    -0.018 A 
ATOM      5  C   UNL     1      -1.171   4.315   4.805  1.00  0.00     0.009 A 
ATOM      6  C   UNL     1      -0.844   3.032   5.256  1.00  0.00     0.001 A 
ENDROOT
BRANCH   4   7
ATOM      7  C   UNL     1      -1.820   5.899   2.965  1.00  0.00    -0.018 A 
ATOM      8  C   UNL     1      -3.098   6.439   3.208  1.00  0.00     0.009 A 
ATOM      9  C   UNL     1      -0.879   6.672   2.258  1.00  0.00     0.009 A 
ATOM     10  C   UNL     1      -3.423   7.721   2.753  1.00  0.00     0.001 A 
ATOM     11  C   UNL     1      -1.210   7.953   1.806  1.00  0.00     0.001 A 
ATOM     12  C   UNL     1      -2.481   8.477   2.052  1.00  0.00     0.000 A 
ENDBRANCH   4   7
TORSDOF 1
ENDMDL
MODEL 2
REMARK VINA RESULT:    -3.666      0.053      4.901
REMARK INTER + INTRA:          -4.169
REMARK INTER:                  -3.880
REMARK INTRA:                  -0.289
REMARK UNBOUND:                -0.288
REMARK SMILES c1ccc(-c2ccccc2)cc1
REMARK SMILES IDX 1 1 2 2 3 3 4 4 11 5 12 6 5 7 6 8 10 9 7 10 9 11 8 12
REMARK H PARENT
REMARK Flexibility Score: inf
ROOT
ATOM      1  C   UNL     1      -2.535   8.509   2.084  1.00  0.00     0.000 A 
ATOM      2  C   UNL     1      -1.265   7.994   1.816  1.00  0.00     0.001 A 
ATOM      3  C   UNL     1      -0.921   6.711   2.252  1.00  0.00     0.009 A 
ATOM      4  C   UNL     1      -1.850   5.926   2.962  1.00  0.00    -0.018 A 
ATOM      5  C   UNL     1      -3.128   6.456   3.225  1.00  0.00     0.009 A 
ATOM      6  C   UNL     1      -3.466   7.741   2.788  1.00  0.00     0.001 A 
ENDROOT
BRANCH   4   7
ATOM      7  C   UNL     1      -1.488   4.562   3.425  1.00  0.00    -0.018 A 
ATOM      8  C   UNL     1      -1.175   4.325   4.777  1.00  0.00     0.009 A 
ATOM      9  C   UNL     1      -1.452   3.483   2.521  1.00  0.00     0.009 A 
ATOM     10  C   UNL     1      -0.835   3.039   5.211  1.00  0.00     0.001 A 
ATOM     11  C   UNL     1      -1.111   2.201   2.960  1.00  0.00     0.001 A 
ATOM     12  C   UNL     1      -0.802   1.979   4.303  1.00  0.00     0.000 A 
ENDBRANCH   4   7
TORSDOF 1
ENDMDL
MODEL 3
REMARK VINA RESULT:    -3.666      0.086      1.979
REMARK INTER + INTRA:          -4.168
REMARK INTER:                  -3.879
REMARK INTRA:                  -0.289
REMARK UNBOUND:                -0.288
REMARK SMILES c1ccc(-c2ccccc2)cc1
REMARK SMILES IDX 1 1 2 2 3 3 4 4 11 5 12 6 5 7 6 8 10 9 7 10 9 11 8 12
REMARK H PARENT
REMARK Flexibility Score: inf
ROOT
ATOM      1  C   UNL     1      -0.798   1.912   4.226  1.00  0.00     0.000 A 
ATOM      2  C   UNL     1      -0.803   2.960   5.150  1.00  0.00     0.001 A 
ATOM      3  C   UNL     1      -1.134   4.255   4.741  1.00  0.00     0.009 A 
ATOM      4  C   UNL     1      -1.466   4.516   3.398  1.00  0.00    -0.018 A 
ATOM      5  C   UNL     1      -1.457   3.452   2.476  1.00  0.00     0.009 A 
ATOM      6  C   UNL     1      -1.124   2.158   2.890  1.00  0.00     0.001 A 
ENDROOT
BRANCH   4   7
ATOM      7  C   UNL     1      -1.818   5.891   2.960  1.00  0.00    -0.018 A 
ATOM      8  C   UNL     1      -0.887   6.679   2.258  1.00  0.00     0.009 A 
ATOM      9  C   UNL     1      -3.089   6.429   3.241  1.00  0.00     0.009 A 
ATOM     10  C   UNL     1      -1.222   7.974   1.846  1.00  0.00     0.001 A 
ATOM     11  C   UNL     1      -3.418   7.723   2.828  1.00  0.00     0.001 A 
ATOM     12  C   UNL     1      -2.485   8.495   2.131  1.00  0.00     0.000 A 
ENDBRANCH   4   7
TORSDOF 1
ENDMDL
MODEL 4
REMARK VINA RESULT:    -3.651      0.204      4.989
REMARK INTER + INTRA:          -4.153
REMARK INTER:                  -3.864
REMARK INTRA:                  -0.289
REMARK UNBOUND:                -0.288
REMARK SMILES c1ccc(-c2ccccc2)cc1
REMARK SMILES IDX 1 1 2 2 3 3 4 4 11 5 12 6 5 7 6 8 10 9 7 10 9 11 8 12
REMARK H PARENT
REMARK Flexibility Score: inf
ROOT
ATOM      1  C   UNL     1      -2.416   8.443   2.256  1.00  0.00     0.000 A 
ATOM      2  C   UNL     1      -3.368   7.645   2.895  1.00  0.00     0.001 A 
ATOM      3  C   UNL     1      -3.052   6.333   3.262  1.00  0.00     0.009 A 
ATOM      4  C   UNL     1      -1.774   5.806   2.994  1.00  0.00    -0.018 A 
ATOM      5  C   UNL     1      -0.823   6.621   2.350  1.00  0.00     0.009 A 
ATOM      6  C   UNL     1      -1.145   7.932   1.984  1.00  0.00     0.001 A 
ENDROOT
BRANCH   4   7
ATOM      7  C   UNL     1      -1.435   4.413   3.383  1.00  0.00    -0.018 A 
ATOM      8  C   UNL     1      -1.418   3.385   2.421  1.00  0.00     0.009 A 
ATOM      9  C   UNL     1      -1.125   4.097   4.720  1.00  0.00     0.009 A 
ATOM     10  C   UNL     1      -1.097   2.074   2.790  1.00  0.00     0.001 A 
ATOM     11  C   UNL     1      -0.807   2.785   5.083  1.00  0.00     0.001 A 
ATOM     12  C   UNL     1      -0.793   1.775   4.119  1.00  0.00     0.000 A 
ENDBRANCH   4   7
TORSDOF 1
ENDMDL
MODEL 5
REMARK VINA RESULT:    -3.625      1.369      2.230
REMARK INTER + INTRA:          -4.125
REMARK INTER:                  -3.803
REMARK INTRA:                  -0.323
REMARK UNBOUND:                -0.288
REMARK SMILES c1ccc(-c2ccccc2)cc1
REMARK SMILES IDX 1 1 2 2 3 3 4 4 11 5 12 6 5 7 6 8 10 9 7 10 9 11 8 12
REMARK H PARENT
REMARK Flexibility Score: inf
ROOT
ATOM      1  C   UNL     1      -1.003   2.160   3.876  1.00  0.00     0.000 A 
ATOM      2  C   UNL     1      -0.474   2.979   4.875  1.00  0.00     0.001 A 
ATOM      3  C   UNL     1      -0.311   4.349   4.647  1.00  0.00     0.009 A 
ATOM      4  C   UNL     1      -0.678   4.915   3.410  1.00  0.00    -0.018 A 
ATOM      5  C   UNL     1      -1.210   4.078   2.411  1.00  0.00     0.009 A 
ATOM      6  C   UNL     1      -1.371   2.708   2.645  1.00  0.00     0.001 A 
ENDROOT
BRANCH   4   7
ATOM      7  C   UNL     1      -0.506   6.369   3.164  1.00  0.00    -0.018 A 
ATOM      8  C   UNL     1      -0.940   6.947   1.956  1.00  0.00     0.009 A 
ATOM      9  C   UNL     1       0.095   7.194   4.135  1.00  0.00     0.009 A 
ATOM     10  C   UNL     1      -0.778   8.317   1.728  1.00  0.00     0.001 A 
ATOM     11  C   UNL     1       0.255   8.563   3.900  1.00  0.00     0.001 A 
ATOM     12  C   UNL     1      -0.180   9.124   2.698  1.00  0.00     0.000 A 
ENDBRANCH   4   7
TORSDOF 1
ENDMDL
MODEL 6
REMARK VINA RESULT:    -3.515      2.077      6.100
REMARK INTER + INTRA:          -4.009
REMARK INTER:                  -3.709
REMARK INTRA:                  -0.301
REMARK UNBOUND:                -0.288
REMARK SMILES c1ccc(-c2ccccc2)cc1
REMARK SMILES IDX 1 1 2 2 3 3 4 4 11 5 12 6 5 7 6 8 10 9 7 10 9 11 8 12
REMARK H PARENT
REMARK Flexibility Score: inf
ROOT
ATOM      1  C   UNL     1      -0.793   5.384   3.332  1.00  0.00     0.000 A 
ATOM      2  C   UNL     1      -0.139   5.047   4.519  1.00  0.00     0.001 A 
ATOM      3  C   UNL     1      -0.101   3.716   4.946  1.00  0.00     0.009 A 
ATOM      4  C   UNL     1      -0.718   2.705   4.185  1.00  0.00    -0.018 A 
ATOM      5  C   UNL     1      -1.374   3.057   2.990  1.00  0.00     0.009 A 
ATOM      6  C   UNL     1      -1.410   4.391   2.568  1.00  0.00     0.001 A 
ENDROOT
BRANCH   4   7
ATOM      7  C   UNL     1      -0.679   1.290   4.635  1.00  0.00    -0.018 A 
ATOM      8  C   UNL     1      -1.068   0.944   5.943  1.00  0.00     0.009 A 
ATOM      9  C   UNL     1      -0.252   0.271   3.761  1.00  0.00     0.009 A 
ATOM     10  C   UNL     1      -1.030  -0.389   6.364  1.00  0.00     0.001 A 
ATOM     11  C   UNL     1      -0.215  -1.059   4.188  1.00  0.00     0.001 A 
ATOM     12  C   UNL     1      -0.604  -1.390   5.488  1.00  0.00     0.000 A 
ENDBRANCH   4   7
TORSDOF 1
ENDMDL
MODEL 7
REMARK VINA RESULT:    -3.509      1.435      1.971
REMARK INTER + INTRA:          -4.002
REMARK INTER:                  -3.680
REMARK INTRA:                  -0.322
REMARK UNBOUND:                -0.288
REMARK SMILES c1ccc(-c2ccccc2)cc1
REMARK SMILES IDX 1 1 2 2 3 3 4 4 11 5 12 6 5 7 6 8 10 9 7 10 9 11 8 12
REMARK H PARENT
REMARK Flexibility Score: inf
ROOT
ATOM      1  C   UNL     1      -1.136   2.113   3.454  1.00  0.00     0.000 A 
ATOM      2  C   UNL     1      -1.419   2.819   2.282  1.00  0.00     0.001 A 
ATOM      3  C   UNL     1      -1.193   4.197   2.220  1.00  0.00     0.009 A 
ATOM      4  C   UNL     1      -0.677   4.886   3.335  1.00  0.00    -0.018 A 
ATOM      5  C   UNL     1      -0.395   4.164   4.510  1.00  0.00     0.009 A 
ATOM      6  C   UNL     1      -0.624   2.785   4.567  1.00  0.00     0.001 A 
ENDROOT
BRANCH   4   7
ATOM      7  C   UNL     1      -0.436   6.350   3.272  1.00  0.00    -0.018 A 
ATOM      8  C   UNL     1       0.270   7.004   4.300  1.00  0.00     0.009 A 
ATOM      9  C   UNL     1      -0.908   7.109   2.183  1.00  0.00     0.009 A 
ATOM     10  C   UNL     1       0.496   8.383   4.237  1.00  0.00     0.001 A 
ATOM     11  C   UNL     1      -0.680   8.486   2.127  1.00  0.00     0.001 A 
ATOM     12  C   UNL     1       0.022   9.123   3.153  1.00  0.00     0.000 A 
ENDBRANCH   4   7
TORSDOF 1
ENDMDL
MODEL 8
REMARK VINA RESULT:    -3.466      1.885      3.165
REMARK INTER + INTRA:          -3.957
REMARK INTER:                  -3.660
REMARK INTRA:                  -0.297
REMARK UNBOUND:                -0.288
REMARK SMILES c1ccc(-c2ccccc2)cc1
REMARK SMILES IDX 1 1 2 2 3 3 4 4 11 5 12 6 5 7 6 8 10 9 7 10 9 11 8 12
REMARK H PARENT
REMARK Flexibility Score: inf
ROOT
ATOM      1  C   UNL     1      -0.704  -0.693   5.484  1.00  0.00     0.000 A 
ATOM      2  C   UNL     1      -0.331  -0.378   4.176  1.00  0.00     0.001 A 
ATOM      3  C   UNL     1      -0.296   0.955   3.757  1.00  0.00     0.009 A 
ATOM      4  C   UNL     1      -0.634   1.992   4.648  1.00  0.00    -0.018 A 
ATOM      5  C   UNL     1      -1.008   1.661   5.965  1.00  0.00     0.009 A 
ATOM      6  C   UNL     1      -1.043   0.325   6.378  1.00  0.00     0.001 A 
ENDROOT
BRANCH   4   7
ATOM      7  C   UNL     1      -0.597   3.410   4.207  1.00  0.00    -0.018 A 
ATOM      8  C   UNL     1      -1.371   3.838   3.112  1.00  0.00     0.009 A 
ATOM      9  C   UNL     1       0.211   4.348   4.877  1.00  0.00     0.009 A 
ATOM     10  C   UNL     1      -1.335   5.174   2.699  1.00  0.00     0.001 A 
ATOM     11  C   UNL     1       0.244   5.682   4.459  1.00  0.00     0.001 A 
ATOM     12  C   UNL     1      -0.528   6.094   3.371  1.00  0.00     0.000 A 
ENDBRANCH   4   7
TORSDOF 1
ENDMDL
MODEL 9
REMARK VINA RESULT:    -3.403      1.769      3.269
REMARK INTER + INTRA:          -3.890
REMARK INTER:                  -3.594
REMARK INTRA:                  -0.297
REMARK UNBOUND:                -0.288
REMARK SMILES c1ccc(-c2ccccc2)cc1
REMARK SMILES IDX 1 1 2 2 3 3 4 4 11 5 12 6 5 7 6 8 10 9 7 10 9 11 8 12
REMARK H PARENT
REMARK Flexibility Score: inf
ROOT
ATOM      1  C   UNL     1      -0.702  -0.465   5.476  1.00  0.00     0.000 A 
ATOM      2  C   UNL     1      -1.013   0.562   6.370  1.00  0.00     0.001 A 
ATOM      3  C   UNL     1      -0.974   1.895   5.949  1.00  0.00     0.009 A 
ATOM      4  C   UNL     1      -0.624   2.215   4.623  1.00  0.00    -0.018 A 
ATOM      5  C   UNL     1      -0.314   1.171   3.731  1.00  0.00     0.009 A 
ATOM      6  C   UNL     1      -0.353  -0.161   4.158  1.00  0.00     0.001 A 
ENDROOT
BRANCH   4   7
ATOM      7  C   UNL     1      -0.583   3.630   4.173  1.00  0.00    -0.018 A 
ATOM      8  C   UNL     1      -1.382   4.063   3.099  1.00  0.00     0.009 A 
ATOM      9  C   UNL     1       0.257   4.561   4.814  1.00  0.00     0.009 A 
ATOM     10  C   UNL     1      -1.341   5.396   2.678  1.00  0.00     0.001 A 
ATOM     11  C   UNL     1       0.294   5.892   4.389  1.00  0.00     0.001 A 
ATOM     12  C   UNL     1      -0.504   6.309   3.321  1.00  0.00     0.000 A 
ENDBRANCH   4   7
TORSDOF 1
ENDMDL
