MODEL 1
REMARK VINA RESULT:    -4.900      0.000      0.000
REMARK INTER + INTRA:          -5.684
REMARK INTER:                  -5.473
REMARK INTRA:                  -0.210
REMARK UNBOUND:                -0.210
REMARK SMILES CC(C)c1ccc(C(=O)[O-])cc1
REMARK SMILES IDX 7 1 6 2 11 3 5 4 12 5 4 6 8 7 9 8 10 9 2 10 1 11 3 12
REMARK H PARENT
REMARK Flexibility Score: inf
ROOT
ATOM      1  C   UNL     1     -18.193 -17.008  -8.140  1.00  0.00    -0.003 A 
ATOM      2  C   UNL     1     -18.649 -16.124  -7.149  1.00  0.00     0.010 A 
ATOM      3  C   UNL     1     -16.885 -17.515  -8.050  1.00  0.00     0.010 A 
ATOM      4  C   UNL     1     -17.816 -15.754  -6.089  1.00  0.00     0.004 A 
ATOM      5  C   UNL     1     -16.051 -17.145  -6.991  1.00  0.00     0.004 A 
ATOM      6  C   UNL     1     -16.509 -16.260  -5.998  1.00  0.00    -0.045 A 
ENDROOT
BRANCH   1   7
ATOM      7  C   UNL     1     -19.078 -17.397  -9.260  1.00  0.00     0.071 C 
ATOM      8  O   UNL     1     -18.690 -18.227 -10.125  1.00  0.00    -0.545 OA
ATOM      9  O   UNL     1     -20.351 -16.851  -9.373  1.00  0.00    -0.545 OA
ENDBRANCH   1   7
BRANCH   6  10
ATOM     10  C   UNL     1     -15.615 -15.850  -4.842  1.00  0.00     0.013 C 
ATOM     11  C   UNL     1     -15.734 -16.836  -3.674  1.00  0.00     0.012 C 
ATOM     12  C   UNL     1     -14.158 -15.703  -5.295  1.00  0.00     0.012 C 
ENDBRANCH   6  10
TORSDOF 2
ENDMDL
MODEL 2
REMARK VINA RESULT:    -4.843      3.648      5.281
REMARK INTER + INTRA:          -5.619
REMARK INTER:                  -5.416
REMARK INTRA:                  -0.204
REMARK UNBOUND:                -0.210
REMARK SMILES CC(C)c1ccc(C(=O)[O-])cc1
REMARK SMILES IDX 7 1 6 2 11 3 5 4 12 5 4 6 8 7 9 8 10 9 2 10 1 11 3 12
REMARK H PARENT
REMARK Flexibility Score: inf
ROOT
ATOM      1  C   UNL     1     -23.206 -16.268  -9.287  1.00  0.00    -0.003 A 
ATOM      2  C   UNL     1     -22.917 -15.994  -7.941  1.00  0.00     0.010 A 
ATOM      3  C   UNL     1     -22.176 -16.729 -10.125  1.00  0.00     0.010 A 
ATOM      4  C   UNL     1     -21.624 -16.180  -7.440  1.00  0.00     0.004 A 
ATOM      5  C   UNL     1     -20.884 -16.914  -9.625  1.00  0.00     0.004 A 
ATOM      6  C   UNL     1     -20.594 -16.641  -8.276  1.00  0.00    -0.045 A 
ENDROOT
BRANCH   1   7
ATOM      7  C   UNL     1     -24.575 -16.071  -9.813  1.00  0.00     0.071 C 
ATOM      8  O   UNL     1     -24.985 -14.920 -10.117  1.00  0.00    -0.545 OA
ATOM      9  O   UNL     1     -25.428 -17.156  -9.978  1.00  0.00    -0.545 OA
ENDBRANCH   1   7
BRANCH   6  10
ATOM     10  C   UNL     1     -19.196 -16.838  -7.720  1.00  0.00     0.013 C 
ATOM     11  C   UNL     1     -18.392 -17.822  -8.578  1.00  0.00     0.012 C 
ATOM     12  C   UNL     1     -18.462 -15.498  -7.583  1.00  0.00     0.012 C 
ENDBRANCH   6  10
TORSDOF 2
ENDMDL
MODEL 3
REMARK VINA RESULT:    -4.824      2.438      3.898
REMARK INTER + INTRA:          -5.599
REMARK INTER:                  -5.394
REMARK INTRA:                  -0.204
REMARK UNBOUND:                -0.210
REMARK SMILES CC(C)c1ccc(C(=O)[O-])cc1
REMARK SMILES IDX 7 1 6 2 11 3 5 4 12 5 4 6 8 7 9 8 10 9 2 10 1 11 3 12
REMARK H PARENT
REMARK Flexibility Score: inf
ROOT
ATOM      1  C   UNL     1     -15.755 -16.324  -5.613  1.00  0.00    -0.003 A 
ATOM      2  C   UNL     1     -14.473 -15.851  -5.933  1.00  0.00     0.010 A 
ATOM      3  C   UNL     1     -16.015 -16.753  -4.300  1.00  0.00     0.010 A 
ATOM      4  C   UNL     1     -13.469 -15.807  -4.960  1.00  0.00     0.004 A 
ATOM      5  C   UNL     1     -15.011 -16.709  -3.327  1.00  0.00     0.004 A 
ATOM      6  C   UNL     1     -13.727 -16.235  -3.648  1.00  0.00    -0.045 A 
ENDROOT
BRANCH   1   7
ATOM      7  C   UNL     1     -16.815 -16.369  -6.644  1.00  0.00     0.071 C 
ATOM      8  O   UNL     1     -16.619 -16.961  -7.738  1.00  0.00    -0.545 OA
ATOM      9  O   UNL     1     -18.042 -15.756  -6.420  1.00  0.00    -0.545 OA
ENDBRANCH   1   7
BRANCH   6  10
ATOM     10  C   UNL     1     -12.628 -16.182  -2.602  1.00  0.00     0.013 C 
ATOM     11  C   UNL     1     -11.383 -16.946  -3.068  1.00  0.00     0.012 C 
ATOM     12  C   UNL     1     -12.282 -14.733  -2.238  1.00  0.00     0.012 C 
ENDBRANCH   6  10
TORSDOF 2
ENDMDL
MODEL 4
REMARK VINA RESULT:    -4.732      4.584      6.257
REMARK INTER + INTRA:          -5.495
REMARK INTER:                  -5.289
REMARK INTRA:                  -0.207
REMARK UNBOUND:                -0.210
REMARK SMILES CC(C)c1ccc(C(=O)[O-])cc1
REMARK SMILES IDX 7 1 6 2 11 3 5 4 12 5 4 6 8 7 9 8 10 9 2 10 1 11 3 12
REMARK H PARENT
REMARK Flexibility Score: inf
ROOT
ATOM      1  C   UNL     1     -13.700 -16.065  -3.650  1.00  0.00    -0.003 A 
ATOM      2  C   UNL     1     -13.480 -15.669  -4.978  1.00  0.00     0.010 A 
ATOM      3  C   UNL     1     -14.929 -16.658  -3.311  1.00  0.00     0.010 A 
ATOM      4  C   UNL     1     -14.467 -15.860  -5.950  1.00  0.00     0.004 A 
ATOM      5  C   UNL     1     -15.917 -16.849  -4.282  1.00  0.00     0.004 A 
ATOM      6  C   UNL     1     -15.696 -16.452  -5.613  1.00  0.00    -0.045 A 
ENDROOT
BRANCH   1   7
ATOM      7  C   UNL     1     -12.653 -15.861  -2.625  1.00  0.00     0.071 C 
ATOM      8  O   UNL     1     -12.010 -16.840  -2.162  1.00  0.00    -0.545 OA
ATOM      9  O   UNL     1     -12.365 -14.584  -2.158  1.00  0.00    -0.545 OA
ENDBRANCH   1   7
BRANCH   6  10
ATOM     10  C   UNL     1     -16.758 -16.654  -6.678  1.00  0.00     0.013 C 
ATOM     11  C   UNL     1     -17.930 -15.686  -6.481  1.00  0.00     0.012 C 
ATOM     12  C   UNL     1     -16.163 -16.522  -8.084  1.00  0.00     0.012 C 
ENDBRANCH   6  10
TORSDOF 2
ENDMDL
MODEL 5
REMARK VINA RESULT:    -4.728     16.300     17.580
REMARK INTER + INTRA:          -5.491
REMARK INTER:                  -5.281
REMARK INTRA:                  -0.210
REMARK UNBOUND:                -0.210
REMARK SMILES CC(C)c1ccc(C(=O)[O-])cc1
REMARK SMILES IDX 7 1 6 2 11 3 5 4 12 5 4 6 8 7 9 8 10 9 2 10 1 11 3 12
REMARK H PARENT
REMARK Flexibility Score: inf
ROOT
ATOM      1  C   UNL     1     -22.507  -9.009   8.146  1.00  0.00    -0.003 A 
ATOM      2  C   UNL     1     -22.527  -7.613   7.995  1.00  0.00     0.010 A 
ATOM      3  C   UNL     1     -21.978  -9.798   7.111  1.00  0.00     0.010 A 
ATOM      4  C   UNL     1     -22.028  -7.017   6.833  1.00  0.00     0.004 A 
ATOM      5  C   UNL     1     -21.479  -9.203   5.948  1.00  0.00     0.004 A 
ATOM      6  C   UNL     1     -21.499  -7.805   5.797  1.00  0.00    -0.045 A 
ENDROOT
BRANCH   1   7
ATOM      7  C   UNL     1     -23.035  -9.636   9.378  1.00  0.00     0.071 C 
ATOM      8  O   UNL     1     -23.832  -9.009  10.125  1.00  0.00    -0.545 OA
ATOM      9  O   UNL     1     -22.658 -10.928   9.728  1.00  0.00    -0.545 OA
ENDBRANCH   1   7
BRANCH   6  10
ATOM     10  C   UNL     1     -20.961  -7.145   4.541  1.00  0.00     0.013 C 
ATOM     11  C   UNL     1     -22.099  -6.589   3.677  1.00  0.00     0.012 C 
ATOM     12  C   UNL     1     -19.943  -6.051   4.885  1.00  0.00     0.012 C 
ENDBRANCH   6  10
TORSDOF 2
ENDMDL
MODEL 6
REMARK VINA RESULT:    -4.720      4.574      6.174
REMARK INTER + INTRA:          -5.482
REMARK INTER:                  -5.277
REMARK INTRA:                  -0.205
REMARK UNBOUND:                -0.210
REMARK SMILES CC(C)c1ccc(C(=O)[O-])cc1
REMARK SMILES IDX 7 1 6 2 11 3 5 4 12 5 4 6 8 7 9 8 10 9 2 10 1 11 3 12
REMARK H PARENT
REMARK Flexibility Score: inf
ROOT
ATOM      1  C   UNL     1     -13.715 -16.066  -3.664  1.00  0.00    -0.003 A 
ATOM      2  C   UNL     1     -14.948 -16.652  -3.338  1.00  0.00     0.010 A 
ATOM      3  C   UNL     1     -13.480 -15.668  -4.991  1.00  0.00     0.010 A 
ATOM      4  C   UNL     1     -15.929 -16.836  -4.318  1.00  0.00     0.004 A 
ATOM      5  C   UNL     1     -14.460 -15.852  -5.971  1.00  0.00     0.004 A 
ATOM      6  C   UNL     1     -15.696 -16.438  -5.645  1.00  0.00    -0.045 A 
ENDROOT
BRANCH   1   7
ATOM      7  C   UNL     1     -12.680 -15.873  -2.624  1.00  0.00     0.071 C 
ATOM      8  O   UNL     1     -12.036 -16.856  -2.170  1.00  0.00    -0.545 OA
ATOM      9  O   UNL     1     -12.405 -14.602  -2.133  1.00  0.00    -0.545 OA
ENDBRANCH   1   7
BRANCH   6  10
ATOM     10  C   UNL     1     -16.768 -16.643  -6.698  1.00  0.00     0.013 C 
ATOM     11  C   UNL     1     -17.936 -15.671  -6.495  1.00  0.00     0.012 C 
ATOM     12  C   UNL     1     -16.186 -16.520  -8.111  1.00  0.00     0.012 C 
ENDBRANCH   6  10
TORSDOF 2
ENDMDL
MODEL 7
REMARK VINA RESULT:    -4.681     16.074     17.051
REMARK INTER + INTRA:          -5.438
REMARK INTER:                  -5.231
REMARK INTRA:                  -0.207
REMARK UNBOUND:                -0.210
REMARK SMILES CC(C)c1ccc(C(=O)[O-])cc1
REMARK SMILES IDX 7 1 6 2 11 3 5 4 12 5 4 6 8 7 9 8 10 9 2 10 1 11 3 12
REMARK H PARENT
REMARK Flexibility Score: inf
ROOT
ATOM      1  C   UNL     1     -20.580  -5.687   4.607  1.00  0.00    -0.003 A 
ATOM      2  C   UNL     1     -20.019  -5.564   5.888  1.00  0.00     0.010 A 
ATOM      3  C   UNL     1     -21.556  -6.673   4.383  1.00  0.00     0.010 A 
ATOM      4  C   UNL     1     -20.426  -6.409   6.925  1.00  0.00     0.004 A 
ATOM      5  C   UNL     1     -21.963  -7.519   5.419  1.00  0.00     0.004 A 
ATOM      6  C   UNL     1     -21.401  -7.395   6.703  1.00  0.00    -0.045 A 
ENDROOT
BRANCH   1   7
ATOM      7  C   UNL     1     -20.148  -4.791   3.512  1.00  0.00     0.071 C 
ATOM      8  O   UNL     1     -20.961  -4.429   2.621  1.00  0.00    -0.545 OA
ATOM      9  O   UNL     1     -18.835  -4.336   3.451  1.00  0.00    -0.545 OA
ENDBRANCH   1   7
BRANCH   6  10
ATOM     10  C   UNL     1     -21.833  -8.305   7.838  1.00  0.00     0.013 C 
ATOM     11  C   UNL     1     -23.040  -7.725   8.584  1.00  0.00     0.012 C 
ATOM     12  C   UNL     1     -22.127  -9.721   7.329  1.00  0.00     0.012 C 
ENDBRANCH   6  10
TORSDOF 2
ENDMDL
MODEL 8
REMARK VINA RESULT:    -4.579      1.562      2.643
REMARK INTER + INTRA:          -5.325
REMARK INTER:                  -5.112
REMARK INTRA:                  -0.213
REMARK UNBOUND:                -0.210
REMARK SMILES CC(C)c1ccc(C(=O)[O-])cc1
REMARK SMILES IDX 7 1 6 2 11 3 5 4 12 5 4 6 8 7 9 8 10 9 2 10 1 11 3 12
REMARK H PARENT
REMARK Flexibility Score: inf
ROOT
ATOM      1  C   UNL     1     -20.197 -16.601  -8.193  1.00  0.00    -0.003 A 
ATOM      2  C   UNL     1     -19.641 -15.856  -7.140  1.00  0.00     0.010 A 
ATOM      3  C   UNL     1     -19.376 -17.495  -8.901  1.00  0.00     0.010 A 
ATOM      4  C   UNL     1     -18.293 -16.003  -6.801  1.00  0.00     0.004 A 
ATOM      5  C   UNL     1     -18.028 -17.642  -8.563  1.00  0.00     0.004 A 
ATOM      6  C   UNL     1     -17.471 -16.896  -7.508  1.00  0.00    -0.045 A 
ENDROOT
BRANCH   1   7
ATOM      7  C   UNL     1     -21.624 -16.443  -8.548  1.00  0.00     0.071 C 
ATOM      8  O   UNL     1     -22.057 -16.850  -9.659  1.00  0.00    -0.545 OA
ATOM      9  O   UNL     1     -22.509 -15.843  -7.659  1.00  0.00    -0.545 OA
ENDBRANCH   1   7
BRANCH   6  10
ATOM     10  C   UNL     1     -16.010 -17.045  -7.129  1.00  0.00     0.013 C 
ATOM     11  C   UNL     1     -15.105 -16.282  -8.103  1.00  0.00     0.012 C 
ATOM     12  C   UNL     1     -15.765 -16.598  -5.683  1.00  0.00     0.012 C 
ENDBRANCH   6  10
TORSDOF 2
ENDMDL
MODEL 9
REMARK VINA RESULT:    -4.011      0.070      1.398
REMARK INTER + INTRA:          -4.691
REMARK INTER:                  -4.479
REMARK INTRA:                  -0.212
REMARK UNBOUND:                -0.210
REMARK SMILES CC(C)c1ccc(C(=O)[O-])cc1
REMARK SMILES IDX 7 1 6 2 11 3 5 4 12 5 4 6 8 7 9 8 10 9 2 10 1 11 3 12
REMARK H PARENT
REMARK Flexibility Score: inf
ROOT
ATOM      1  C   UNL     1     -18.180 -16.982  -8.148  1.00  0.00    -0.003 A 
ATOM      2  C   UNL     1     -16.891 -17.519  -8.002  1.00  0.00     0.010 A 
ATOM      3  C   UNL     1     -18.640 -16.048  -7.203  1.00  0.00     0.010 A 
ATOM      4  C   UNL     1     -16.076 -17.130  -6.934  1.00  0.00     0.004 A 
ATOM      5  C   UNL     1     -17.826 -15.660  -6.135  1.00  0.00     0.004 A 
ATOM      6  C   UNL     1     -16.534 -16.197  -5.989  1.00  0.00    -0.045 A 
ENDROOT
BRANCH   1   7
ATOM      7  C   UNL     1     -19.039 -17.395  -9.279  1.00  0.00     0.071 C 
ATOM      8  O   UNL     1     -18.626 -18.232 -10.125  1.00  0.00    -0.545 OA
ATOM      9  O   UNL     1     -20.316 -16.864  -9.425  1.00  0.00    -0.545 OA
ENDBRANCH   1   7
BRANCH   6  10
ATOM     10  C   UNL     1     -15.639 -15.784  -4.835  1.00  0.00     0.013 C 
ATOM     11  C   UNL     1     -15.736 -16.782  -3.676  1.00  0.00     0.012 C 
ATOM     12  C   UNL     1     -14.187 -15.612  -5.296  1.00  0.00     0.012 C 
ENDBRANCH   6  10
TORSDOF 2
ENDMDL
