MODEL 1
REMARK VINA RESULT:    -4.896      0.000      0.000
REMARK INTER + INTRA:          -5.554
REMARK INTER:                  -5.468
REMARK INTRA:                  -0.086
REMARK UNBOUND:                -0.086
REMARK SMILES CCc1ccc(O)cc1O
REMARK SMILES IDX 3 1 9 2 8 3 6 4 5 5 4 6 2 7 1 8 10 9 7 11
REMARK H PARENT 10 10 7 12
REMARK Flexibility Score: inf
ROOT
ATOM      1  C   UNL     1       1.956  -4.842  23.161  1.00  0.00    -0.006 A 
ATOM      2  C   UNL     1       0.567  -4.637  23.283  1.00  0.00     0.122 A 
ATOM      3  C   UNL     1      -0.125  -3.926  22.293  1.00  0.00     0.092 A 
ATOM      4  C   UNL     1       0.559  -3.407  21.186  1.00  0.00     0.119 A 
ATOM      5  C   UNL     1       1.939  -3.597  21.071  1.00  0.00     0.047 A 
ATOM      6  C   UNL     1       2.636  -4.304  22.054  1.00  0.00     0.011 A 
ENDROOT
BRANCH   1   7
ATOM      7  C   UNL     1       2.729  -5.576  24.227  1.00  0.00     0.036 C 
ATOM      8  C   UNL     1       3.885  -6.360  23.614  1.00  0.00     0.009 C 
ENDBRANCH   1   7
BRANCH   2   9
ATOM      9  O   UNL     1      -0.121  -5.139  24.389  1.00  0.00    -0.508 OA
ATOM     10  H   UNL     1      -0.050  -6.111  24.663  1.00  0.00     0.293 HD
ENDBRANCH   2   9
BRANCH   4  11
ATOM     11  O   UNL     1      -0.121  -2.698  20.198  1.00  0.00    -0.508 OA
ATOM     12  H   UNL     1       0.299  -2.515  19.294  1.00  0.00     0.293 HD
ENDBRANCH   4  11
TORSDOF 3
ENDMDL
MODEL 2
REMARK VINA RESULT:    -4.557     14.139     16.067
REMARK INTER + INTRA:          -5.175
REMARK INTER:                  -5.090
REMARK INTRA:                  -0.086
REMARK UNBOUND:                -0.086
REMARK SMILES CCc1ccc(O)cc1O
REMARK SMILES IDX 3 1 9 2 8 3 6 4 5 5 4 6 2 7 1 8 10 9 7 11
REMARK H PARENT 10 10 7 12
REMARK Flexibility Score: inf
ROOT
ATOM      1  C   UNL     1      15.846  -7.195  24.944  1.00  0.00    -0.006 A 
ATOM      2  C   UNL     1      17.244  -7.245  25.115  1.00  0.00     0.122 A 
ATOM      3  C   UNL     1      17.790  -7.274  26.407  1.00  0.00     0.092 A 
ATOM      4  C   UNL     1      16.953  -7.241  27.530  1.00  0.00     0.119 A 
ATOM      5  C   UNL     1      15.568  -7.177  27.361  1.00  0.00     0.047 A 
ATOM      6  C   UNL     1      15.016  -7.148  26.078  1.00  0.00     0.011 A 
ENDROOT
BRANCH   1   7
ATOM      7  C   UNL     1      15.234  -7.132  23.568  1.00  0.00     0.036 C 
ATOM      8  C   UNL     1      13.894  -7.859  23.538  1.00  0.00     0.009 C 
ENDBRANCH   1   7
BRANCH   2   9
ATOM      9  O   UNL     1      18.086  -7.264  24.003  1.00  0.00    -0.508 OA
ATOM     10  H   UNL     1      19.031  -7.624  24.059  1.00  0.00     0.293 HD
ENDBRANCH   2   9
BRANCH   4  11
ATOM     11  O   UNL     1      17.488  -7.269  28.816  1.00  0.00    -0.508 OA
ATOM     12  H   UNL     1      16.917  -7.500  29.621  1.00  0.00     0.293 HD
ENDBRANCH   4  11
TORSDOF 3
ENDMDL
MODEL 3
REMARK VINA RESULT:    -4.539      0.937      3.555
REMARK INTER + INTRA:          -5.156
REMARK INTER:                  -5.057
REMARK INTRA:                  -0.098
REMARK UNBOUND:                -0.086
REMARK SMILES CCc1ccc(O)cc1O
REMARK SMILES IDX 3 1 9 2 8 3 6 4 5 5 4 6 2 7 1 8 10 9 7 11
REMARK H PARENT 10 10 7 12
REMARK Flexibility Score: inf
ROOT
ATOM      1  C   UNL     1       1.941  -3.684  20.984  1.00  0.00    -0.006 A 
ATOM      2  C   UNL     1       0.561  -3.432  21.123  1.00  0.00     0.122 A 
ATOM      3  C   UNL     1      -0.125  -3.899  22.253  1.00  0.00     0.092 A 
ATOM      4  C   UNL     1       0.552  -4.624  23.242  1.00  0.00     0.119 A 
ATOM      5  C   UNL     1       1.917  -4.887  23.098  1.00  0.00     0.047 A 
ATOM      6  C   UNL     1       2.608  -4.425  21.975  1.00  0.00     0.011 A 
ENDROOT
BRANCH   1   7
ATOM      7  C   UNL     1       2.696  -3.220  19.764  1.00  0.00     0.036 C 
ATOM      8  C   UNL     1       3.689  -2.121  20.127  1.00  0.00     0.009 C 
ENDBRANCH   1   7
BRANCH   2   9
ATOM      9  O   UNL     1      -0.125  -2.721  20.137  1.00  0.00    -0.508 OA
ATOM     10  H   UNL     1      -0.679  -1.904  20.359  1.00  0.00     0.293 HD
ENDBRANCH   2   9
BRANCH   4  11
ATOM     11  O   UNL     1      -0.122  -5.092  24.367  1.00  0.00    -0.508 OA
ATOM     12  H   UNL     1      -0.530  -4.455  25.042  1.00  0.00     0.293 HD
ENDBRANCH   4  11
TORSDOF 3
ENDMDL
MODEL 4
REMARK VINA RESULT:    -4.520      2.557      4.353
REMARK INTER + INTRA:          -5.134
REMARK INTER:                  -5.048
REMARK INTRA:                  -0.087
REMARK UNBOUND:                -0.086
REMARK SMILES CCc1ccc(O)cc1O
REMARK SMILES IDX 3 1 9 2 8 3 6 4 5 5 4 6 2 7 1 8 10 9 7 11
REMARK H PARENT 10 10 7 12
REMARK Flexibility Score: inf
ROOT
ATOM      1  C   UNL     1       1.430  -5.164  24.171  1.00  0.00    -0.006 A 
ATOM      2  C   UNL     1       1.555  -5.809  25.418  1.00  0.00     0.122 A 
ATOM      3  C   UNL     1       2.737  -6.492  25.737  1.00  0.00     0.092 A 
ATOM      4  C   UNL     1       3.793  -6.547  24.817  1.00  0.00     0.119 A 
ATOM      5  C   UNL     1       3.664  -5.921  23.575  1.00  0.00     0.047 A 
ATOM      6  C   UNL     1       2.489  -5.238  23.250  1.00  0.00     0.011 A 
ENDROOT
BRANCH   1   7
ATOM      7  C   UNL     1       0.158  -4.450  23.791  1.00  0.00     0.036 C 
ATOM      8  C   UNL     1      -0.010  -4.414  22.275  1.00  0.00     0.009 C 
ENDBRANCH   1   7
BRANCH   2   9
ATOM      9  O   UNL     1       0.504  -5.771  26.336  1.00  0.00    -0.508 OA
ATOM     10  H   UNL     1      -0.294  -6.388  26.254  1.00  0.00     0.293 HD
ENDBRANCH   2   9
BRANCH   4  11
ATOM     11  O   UNL     1       4.970  -7.224  25.127  1.00  0.00    -0.508 OA
ATOM     12  H   UNL     1       5.552  -6.943  25.907  1.00  0.00     0.293 HD
ENDBRANCH   4  11
TORSDOF 3
ENDMDL
MODEL 5
REMARK VINA RESULT:    -4.479      2.237      4.435
REMARK INTER + INTRA:          -5.089
REMARK INTER:                  -5.003
REMARK INTRA:                  -0.086
REMARK UNBOUND:                -0.086
REMARK SMILES CCc1ccc(O)cc1O
REMARK SMILES IDX 3 1 9 2 8 3 6 4 5 5 4 6 2 7 1 8 10 9 7 11
REMARK H PARENT 10 10 7 12
REMARK Flexibility Score: inf
ROOT
ATOM      1  C   UNL     1       1.611  -1.597  21.134  1.00  0.00    -0.006 A 
ATOM      2  C   UNL     1       0.999  -2.642  20.412  1.00  0.00     0.122 A 
ATOM      3  C   UNL     1       0.418  -3.718  21.098  1.00  0.00     0.092 A 
ATOM      4  C   UNL     1       0.452  -3.767  22.497  1.00  0.00     0.119 A 
ATOM      5  C   UNL     1       1.071  -2.739  23.213  1.00  0.00     0.047 A 
ATOM      6  C   UNL     1       1.652  -1.663  22.538  1.00  0.00     0.011 A 
ENDROOT
BRANCH   1   7
ATOM      7  C   UNL     1       2.270  -0.444  20.421  1.00  0.00     0.036 C 
ATOM      8  C   UNL     1       2.126   0.843  21.226  1.00  0.00     0.009 C 
ENDBRANCH   1   7
BRANCH   2   9
ATOM      9  O   UNL     1       0.972  -2.609  19.018  1.00  0.00    -0.508 OA
ATOM     10  H   UNL     1       0.509  -3.330  18.478  1.00  0.00     0.293 HD
ENDBRANCH   2   9
BRANCH   4  11
ATOM     11  O   UNL     1      -0.123  -4.833  23.186  1.00  0.00    -0.508 OA
ATOM     12  H   UNL     1      -0.377  -4.756  24.164  1.00  0.00     0.293 HD
ENDBRANCH   4  11
TORSDOF 3
ENDMDL
MODEL 6
REMARK VINA RESULT:    -4.444     16.382     16.646
REMARK INTER + INTRA:          -5.049
REMARK INTER:                  -4.963
REMARK INTRA:                  -0.086
REMARK UNBOUND:                -0.086
REMARK SMILES CCc1ccc(O)cc1O
REMARK SMILES IDX 3 1 9 2 8 3 6 4 5 5 4 6 2 7 1 8 10 9 7 11
REMARK H PARENT 10 10 7 12
REMARK Flexibility Score: inf
ROOT
ATOM      1  C   UNL     1      16.742  -5.105  27.751  1.00  0.00    -0.006 A 
ATOM      2  C   UNL     1      16.749  -6.447  28.180  1.00  0.00     0.122 A 
ATOM      3  C   UNL     1      17.095  -7.467  27.282  1.00  0.00     0.092 A 
ATOM      4  C   UNL     1      17.424  -7.160  25.956  1.00  0.00     0.119 A 
ATOM      5  C   UNL     1      17.404  -5.831  25.525  1.00  0.00     0.047 A 
ATOM      6  C   UNL     1      17.061  -4.809  26.414  1.00  0.00     0.011 A 
ENDROOT
BRANCH   1   7
ATOM      7  C   UNL     1      16.345  -3.992  28.687  1.00  0.00     0.036 C 
ATOM      8  C   UNL     1      17.151  -2.730  28.401  1.00  0.00     0.009 C 
ENDBRANCH   1   7
BRANCH   2   9
ATOM      9  O   UNL     1      16.409  -6.764  29.496  1.00  0.00    -0.508 OA
ATOM     10  H   UNL     1      16.318  -7.724  29.804  1.00  0.00     0.293 HD
ENDBRANCH   2   9
BRANCH   4  11
ATOM     11  O   UNL     1      17.768  -8.168  25.057  1.00  0.00    -0.508 OA
ATOM     12  H   UNL     1      18.405  -7.996  24.288  1.00  0.00     0.293 HD
ENDBRANCH   4  11
TORSDOF 3
ENDMDL
MODEL 7
REMARK VINA RESULT:    -4.438      2.206      3.184
REMARK INTER + INTRA:          -5.042
REMARK INTER:                  -4.957
REMARK INTRA:                  -0.086
REMARK UNBOUND:                -0.086
REMARK SMILES CCc1ccc(O)cc1O
REMARK SMILES IDX 3 1 9 2 8 3 6 4 5 5 4 6 2 7 1 8 10 9 7 11
REMARK H PARENT 10 10 7 12
REMARK Flexibility Score: inf
ROOT
ATOM      1  C   UNL     1       2.761  -6.685  25.498  1.00  0.00    -0.006 A 
ATOM      2  C   UNL     1       1.655  -5.825  25.344  1.00  0.00     0.122 A 
ATOM      3  C   UNL     1       1.500  -5.089  24.161  1.00  0.00     0.092 A 
ATOM      4  C   UNL     1       2.446  -5.195  23.133  1.00  0.00     0.119 A 
ATOM      5  C   UNL     1       3.550  -6.036  23.290  1.00  0.00     0.047 A 
ATOM      6  C   UNL     1       3.712  -6.773  24.466  1.00  0.00     0.011 A 
ENDROOT
BRANCH   1   7
ATOM      7  C   UNL     1       2.968  -7.463  26.772  1.00  0.00     0.036 C 
ATOM      8  C   UNL     1       4.317  -8.174  26.760  1.00  0.00     0.009 C 
ENDBRANCH   1   7
BRANCH   2   9
ATOM      9  O   UNL     1       0.715  -5.702  26.368  1.00  0.00    -0.508 OA
ATOM     10  H   UNL     1       0.099  -4.901  26.430  1.00  0.00     0.293 HD
ENDBRANCH   2   9
BRANCH   4  11
ATOM     11  O   UNL     1       2.300  -4.467  21.954  1.00  0.00    -0.508 OA
ATOM     12  H   UNL     1       1.596  -4.709  21.267  1.00  0.00     0.293 HD
ENDBRANCH   4  11
TORSDOF 3
ENDMDL
MODEL 8
REMARK VINA RESULT:    -4.423     13.665     15.620
REMARK INTER + INTRA:          -5.025
REMARK INTER:                  -4.940
REMARK INTRA:                  -0.085
REMARK UNBOUND:                -0.086
REMARK SMILES CCc1ccc(O)cc1O
REMARK SMILES IDX 3 1 9 2 8 3 6 4 5 5 4 6 2 7 1 8 10 9 7 11
REMARK H PARENT 10 10 7 12
REMARK Flexibility Score: inf
ROOT
ATOM      1  C   UNL     1      15.530  -7.332  24.795  1.00  0.00    -0.006 A 
ATOM      2  C   UNL     1      15.075  -7.339  26.129  1.00  0.00     0.122 A 
ATOM      3  C   UNL     1      15.995  -7.243  27.183  1.00  0.00     0.092 A 
ATOM      4  C   UNL     1      17.367  -7.151  26.918  1.00  0.00     0.119 A 
ATOM      5  C   UNL     1      17.821  -7.158  25.597  1.00  0.00     0.047 A 
ATOM      6  C   UNL     1      16.911  -7.253  24.541  1.00  0.00     0.011 A 
ENDROOT
BRANCH   1   7
ATOM      7  C   UNL     1      14.566  -7.465  23.645  1.00  0.00     0.036 C 
ATOM      8  C   UNL     1      15.197  -6.967  22.349  1.00  0.00     0.009 C 
ENDBRANCH   1   7
BRANCH   2   9
ATOM      9  O   UNL     1      13.711  -7.444  26.404  1.00  0.00    -0.508 OA
ATOM     10  H   UNL     1      13.261  -8.343  26.525  1.00  0.00     0.293 HD
ENDBRANCH   2   9
BRANCH   4  11
ATOM     11  O   UNL     1      18.288  -7.056  27.959  1.00  0.00    -0.508 OA
ATOM     12  H   UNL     1      18.976  -6.313  27.991  1.00  0.00     0.293 HD
ENDBRANCH   4  11
TORSDOF 3
ENDMDL
MODEL 9
REMARK VINA RESULT:    -4.394      1.961      2.674
REMARK INTER + INTRA:          -4.994
REMARK INTER:                  -4.908
REMARK INTRA:                  -0.086
REMARK UNBOUND:                -0.086
REMARK SMILES CCc1ccc(O)cc1O
REMARK SMILES IDX 3 1 9 2 8 3 6 4 5 5 4 6 2 7 1 8 10 9 7 11
REMARK H PARENT 10 10 7 12
REMARK Flexibility Score: inf
ROOT
ATOM      1  C   UNL     1       1.780  -4.320  22.519  1.00  0.00    -0.006 A 
ATOM      2  C   UNL     1       2.812  -4.220  21.564  1.00  0.00     0.122 A 
ATOM      3  C   UNL     1       2.544  -3.679  20.298  1.00  0.00     0.092 A 
ATOM      4  C   UNL     1       1.252  -3.246  19.973  1.00  0.00     0.119 A 
ATOM      5  C   UNL     1       0.225  -3.358  20.914  1.00  0.00     0.047 A 
ATOM      6  C   UNL     1       0.484  -3.896  22.177  1.00  0.00     0.011 A 
ENDROOT
BRANCH   1   7
ATOM      7  C   UNL     1       2.034  -4.926  23.875  1.00  0.00     0.036 C 
ATOM      8  C   UNL     1       0.744  -5.001  24.685  1.00  0.00     0.009 C 
ENDBRANCH   1   7
BRANCH   2   9
ATOM      9  O   UNL     1       4.099  -4.661  21.873  1.00  0.00    -0.508 OA
ATOM     10  H   UNL     1       4.745  -4.961  21.154  1.00  0.00     0.293 HD
ENDBRANCH   2   9
BRANCH   4  11
ATOM     11  O   UNL     1       0.977  -2.708  18.718  1.00  0.00    -0.508 OA
ATOM     12  H   UNL     1       1.713  -2.334  18.130  1.00  0.00     0.293 HD
ENDBRANCH   4  11
TORSDOF 3
ENDMDL
