MODEL 1
REMARK VINA RESULT:    -4.302      0.000      0.000
REMARK INTER + INTRA:          -8.117
REMARK INTER:                  -6.565
REMARK INTRA:                  -1.552
REMARK UNBOUND:                -1.552
REMARK SMILES OC[C@@H]1O[C@H](O[C@]2(CO)O[C@H](CO)[C@@H](O)[C@H]2O)[C@H](O)[C@@H](O)[C@@H]1O
REMARK SMILES IDX 6 1 5 2 3 3 22 4 4 5 20 6 18 7 2 8 1 9 23 11 21 13 19 15
REMARK SMILES IDX 7 17 16 18 10 19 14 20 11 21 8 22 9 23 17 25 15 27 12 29
REMARK SMILES IDX 13 30
REMARK H PARENT 1 10 23 12 21 14 19 16 9 24 17 26 15 28 13 31
REMARK Flexibility Score: inf
ROOT
ATOM      1  O   UNL     1      28.092  33.374  51.587  1.00  0.00    -0.313 OA
ENDROOT
BRANCH   1   2
ATOM      2  C   UNL     1      28.782  32.831  52.703  1.00  0.00     0.285 C 
ATOM      3  C   UNL     1      30.426  31.292  53.313  1.00  0.00     0.178 C 
ATOM      4  C   UNL     1      31.260  32.315  54.121  1.00  0.00     0.177 C 
ATOM      5  O   UNL     1      29.777  31.938  52.232  1.00  0.00    -0.341 OA
ATOM      6  C   UNL     1      30.351  33.464  54.612  1.00  0.00     0.179 C 
ATOM      7  C   UNL     1      29.443  33.996  53.478  1.00  0.00     0.202 C 
BRANCH   3   8
ATOM      8  C   UNL     1      31.300  30.159  52.752  1.00  0.00     0.191 C 
BRANCH   8   9
ATOM      9  O   UNL     1      31.529  30.329  51.379  1.00  0.00    -0.394 OA
ATOM     10  H   UNL     1      32.367  30.856  51.294  1.00  0.00     0.210 HD
ENDBRANCH   8   9
ENDBRANCH   3   8
BRANCH   4  11
ATOM     11  O   UNL     1      32.303  32.823  53.329  1.00  0.00    -0.387 OA
ATOM     12  H   UNL     1      31.946  33.623  52.862  1.00  0.00     0.211 HD
ENDBRANCH   4  11
BRANCH   6  13
ATOM     13  O   UNL     1      29.559  32.997  55.676  1.00  0.00    -0.387 OA
ATOM     14  H   UNL     1      28.650  33.381  55.552  1.00  0.00     0.211 HD
ENDBRANCH   6  13
BRANCH   7  15
ATOM     15  O   UNL     1      30.162  34.853  52.619  1.00  0.00    -0.385 OA
ATOM     16  H   UNL     1      29.573  35.610  52.368  1.00  0.00     0.211 HD
ENDBRANCH   7  15
ENDBRANCH   1   2
BRANCH   1  17
ATOM     17  C   UNL     1      26.787  32.839  51.364  1.00  0.00     0.224 C 
ATOM     18  C   UNL     1      26.348  33.038  49.888  1.00  0.00     0.208 C 
ATOM     19  O   UNL     1      26.889  31.443  51.572  1.00  0.00    -0.337 OA
ATOM     20  C   UNL     1      25.658  31.746  49.525  1.00  0.00     0.180 C 
ATOM     21  C   UNL     1      26.312  30.750  50.483  1.00  0.00     0.179 C 
BRANCH  17  22
ATOM     22  C   UNL     1      25.755  33.363  52.405  1.00  0.00     0.225 C 
BRANCH  22  23
ATOM     23  O   UNL     1      25.803  34.760  52.508  1.00  0.00    -0.391 OA
ATOM     24  H   UNL     1      24.959  35.111  52.126  1.00  0.00     0.210 HD
ENDBRANCH  22  23
ENDBRANCH  17  22
BRANCH  18  25
ATOM     25  O   UNL     1      25.565  34.184  49.631  1.00  0.00    -0.385 OA
ATOM     26  H   UNL     1      26.159  34.970  49.520  1.00  0.00     0.211 HD
ENDBRANCH  18  25
BRANCH  20  27
ATOM     27  O   UNL     1      24.276  31.815  49.768  1.00  0.00    -0.387 OA
ATOM     28  H   UNL     1      24.051  31.029  50.332  1.00  0.00     0.211 HD
ENDBRANCH  20  27
BRANCH  21  29
ATOM     29  C   UNL     1      27.394  29.910  49.788  1.00  0.00     0.191 C 
BRANCH  29  30
ATOM     30  O   UNL     1      28.590  29.966  50.525  1.00  0.00    -0.394 OA
ATOM     31  H   UNL     1      29.297  30.316  49.921  1.00  0.00     0.210 HD
ENDBRANCH  29  30
ENDBRANCH  21  29
ENDBRANCH   1  17
TORSDOF 13
ENDMDL
MODEL 2
REMARK VINA RESULT:    -3.954      2.397      5.862
REMARK INTER + INTRA:          -7.586
REMARK INTER:                  -6.334
REMARK INTRA:                  -1.251
REMARK UNBOUND:                -1.552
REMARK SMILES OC[C@@H]1O[C@H](O[C@]2(CO)O[C@H](CO)[C@@H](O)[C@H]2O)[C@H](O)[C@@H](O)[C@@H]1O
REMARK SMILES IDX 6 1 5 2 3 3 22 4 4 5 20 6 18 7 2 8 1 9 23 11 21 13 19 15
REMARK SMILES IDX 7 17 16 18 10 19 14 20 11 21 8 22 9 23 17 25 15 27 12 29
REMARK SMILES IDX 13 30
REMARK H PARENT 1 10 23 12 21 14 19 16 9 24 17 26 15 28 13 31
REMARK Flexibility Score: inf
ROOT
ATOM      1  O   UNL     1      30.067  33.534  50.737  1.00  0.00    -0.313 OA
ENDROOT
BRANCH   1   2
ATOM      2  C   UNL     1      29.431  32.681  49.796  1.00  0.00     0.285 C 
ATOM      3  C   UNL     1      27.513  32.443  48.491  1.00  0.00     0.178 C 
ATOM      4  C   UNL     1      28.287  32.246  47.166  1.00  0.00     0.177 C 
ATOM      5  O   UNL     1      28.235  33.302  49.356  1.00  0.00    -0.341 OA
ATOM      6  C   UNL     1      29.700  31.694  47.460  1.00  0.00     0.179 C 
ATOM      7  C   UNL     1      30.392  32.478  48.601  1.00  0.00     0.202 C 
BRANCH   3   8
ATOM      8  C   UNL     1      26.120  33.050  48.253  1.00  0.00     0.191 C 
BRANCH   8   9
ATOM      9  O   UNL     1      25.875  34.115  49.130  1.00  0.00    -0.394 OA
ATOM     10  H   UNL     1      25.894  34.944  48.583  1.00  0.00     0.210 HD
ENDBRANCH   8   9
ENDBRANCH   3   8
BRANCH   4  11
ATOM     11  O   UNL     1      28.375  33.465  46.471  1.00  0.00    -0.387 OA
ATOM     12  H   UNL     1      29.136  33.966  46.863  1.00  0.00     0.211 HD
ENDBRANCH   4  11
BRANCH   6  13
ATOM     13  O   UNL     1      29.595  30.337  47.810  1.00  0.00    -0.387 OA
ATOM     14  H   UNL     1      28.921  30.276  48.539  1.00  0.00     0.211 HD
ENDBRANCH   6  13
BRANCH   7  15
ATOM     15  O   UNL     1      30.905  33.704  48.128  1.00  0.00    -0.385 OA
ATOM     16  H   UNL     1      31.481  33.518  47.343  1.00  0.00     0.211 HD
ENDBRANCH   7  15
ENDBRANCH   1   2
BRANCH   1  17
ATOM     17  C   UNL     1      29.991  33.099  52.095  1.00  0.00     0.224 C 
ATOM     18  C   UNL     1      30.277  34.272  53.072  1.00  0.00     0.208 C 
ATOM     19  O   UNL     1      28.649  32.708  52.312  1.00  0.00    -0.337 OA
ATOM     20  C   UNL     1      29.278  34.082  54.188  1.00  0.00     0.180 C 
ATOM     21  C   UNL     1      28.152  33.320  53.488  1.00  0.00     0.179 C 
BRANCH  17  22
ATOM     22  C   UNL     1      30.863  31.836  52.353  1.00  0.00     0.225 C 
BRANCH  22  23
ATOM     23  O   UNL     1      30.215  30.941  53.217  1.00  0.00    -0.391 OA
ATOM     24  H   UNL     1      29.624  31.476  53.805  1.00  0.00     0.210 HD
ENDBRANCH  22  23
ENDBRANCH  17  22
BRANCH  18  25
ATOM     25  O   UNL     1      31.609  34.381  53.525  1.00  0.00    -0.385 OA
ATOM     26  H   UNL     1      31.620  34.391  54.516  1.00  0.00     0.211 HD
ENDBRANCH  18  25
BRANCH  20  27
ATOM     27  O   UNL     1      29.812  33.306  55.230  1.00  0.00    -0.387 OA
ATOM     28  H   UNL     1      29.066  32.747  55.575  1.00  0.00     0.211 HD
ENDBRANCH  20  27
BRANCH  21  29
ATOM     29  C   UNL     1      26.978  34.239  53.121  1.00  0.00     0.191 C 
BRANCH  29  30
ATOM     30  O   UNL     1      26.514  33.931  51.830  1.00  0.00    -0.394 OA
ATOM     31  H   UNL     1      25.870  33.179  51.916  1.00  0.00     0.210 HD
ENDBRANCH  29  30
ENDBRANCH  21  29
ENDBRANCH   1  17
TORSDOF 13
ENDMDL
MODEL 3
REMARK VINA RESULT:    -3.952      1.760      3.440
REMARK INTER + INTRA:          -7.582
REMARK INTER:                  -6.334
REMARK INTRA:                  -1.249
REMARK UNBOUND:                -1.552
REMARK SMILES OC[C@@H]1O[C@H](O[C@]2(CO)O[C@H](CO)[C@@H](O)[C@H]2O)[C@H](O)[C@@H](O)[C@@H]1O
REMARK SMILES IDX 6 1 5 2 3 3 22 4 4 5 20 6 18 7 2 8 1 9 23 11 21 13 19 15
REMARK SMILES IDX 7 17 16 18 10 19 14 20 11 21 8 22 9 23 17 25 15 27 12 29
REMARK SMILES IDX 13 30
REMARK H PARENT 1 10 23 12 21 14 19 16 9 24 17 26 15 28 13 31
REMARK Flexibility Score: inf
ROOT
ATOM      1  O   UNL     1      28.552  31.350  51.538  1.00  0.00    -0.313 OA
ENDROOT
BRANCH   1   2
ATOM      2  C   UNL     1      28.834  32.246  52.604  1.00  0.00     0.285 C 
ATOM      3  C   UNL     1      30.209  32.565  54.461  1.00  0.00     0.178 C 
ATOM      4  C   UNL     1      30.693  33.966  54.018  1.00  0.00     0.177 C 
ATOM      5  O   UNL     1      29.951  31.757  53.325  1.00  0.00    -0.341 OA
ATOM      6  C   UNL     1      29.644  34.616  53.088  1.00  0.00     0.179 C 
ATOM      7  C   UNL     1      29.163  33.631  51.996  1.00  0.00     0.202 C 
BRANCH   3   8
ATOM      8  C   UNL     1      31.250  31.853  55.340  1.00  0.00     0.191 C 
BRANCH   8   9
ATOM      9  O   UNL     1      32.105  32.773  55.961  1.00  0.00    -0.394 OA
ATOM     10  H   UNL     1      31.570  33.226  56.666  1.00  0.00     0.210 HD
ENDBRANCH   8   9
ENDBRANCH   3   8
BRANCH   4  11
ATOM     11  O   UNL     1      31.931  33.866  53.361  1.00  0.00    -0.387 OA
ATOM     12  H   UNL     1      32.630  33.838  54.066  1.00  0.00     0.211 HD
ENDBRANCH   4  11
BRANCH   6  13
ATOM     13  O   UNL     1      28.549  35.039  53.863  1.00  0.00    -0.387 OA
ATOM     14  H   UNL     1      28.331  34.297  54.487  1.00  0.00     0.211 HD
ENDBRANCH   6  13
BRANCH   7  15
ATOM     15  O   UNL     1      30.111  33.534  50.956  1.00  0.00    -0.385 OA
ATOM     16  H   UNL     1      29.749  32.926  50.261  1.00  0.00     0.211 HD
ENDBRANCH   7  15
ENDBRANCH   1   2
BRANCH   1  17
ATOM     17  C   UNL     1      27.205  30.879  51.486  1.00  0.00     0.224 C 
ATOM     18  C   UNL     1      26.576  30.830  52.904  1.00  0.00     0.208 C 
ATOM     19  O   UNL     1      26.475  31.844  50.752  1.00  0.00    -0.337 OA
ATOM     20  C   UNL     1      25.166  31.331  52.707  1.00  0.00     0.180 C 
ATOM     21  C   UNL     1      25.305  32.205  51.461  1.00  0.00     0.179 C 
BRANCH  17  22
ATOM     22  C   UNL     1      27.084  29.544  50.694  1.00  0.00     0.225 C 
BRANCH  22  23
ATOM     23  O   UNL     1      28.061  28.624  51.099  1.00  0.00    -0.391 OA
ATOM     24  H   UNL     1      27.609  27.944  51.660  1.00  0.00     0.210 HD
ENDBRANCH  22  23
ENDBRANCH  17  22
BRANCH  18  25
ATOM     25  O   UNL     1      26.641  29.581  53.559  1.00  0.00    -0.385 OA
ATOM     26  H   UNL     1      27.261  29.645  54.329  1.00  0.00     0.211 HD
ENDBRANCH  18  25
BRANCH  20  27
ATOM     27  O   UNL     1      24.274  30.274  52.459  1.00  0.00    -0.387 OA
ATOM     28  H   UNL     1      24.476  29.572  53.131  1.00  0.00     0.211 HD
ENDBRANCH  20  27
BRANCH  21  29
ATOM     29  C   UNL     1      25.369  33.700  51.811  1.00  0.00     0.191 C 
BRANCH  29  30
ATOM     30  O   UNL     1      24.752  34.456  50.799  1.00  0.00    -0.394 OA
ATOM     31  H   UNL     1      25.313  35.262  50.646  1.00  0.00     0.210 HD
ENDBRANCH  29  30
ENDBRANCH  21  29
ENDBRANCH   1  17
TORSDOF 13
ENDMDL
MODEL 4
REMARK VINA RESULT:    -3.947      1.506      5.909
REMARK INTER + INTRA:          -7.575
REMARK INTER:                  -6.868
REMARK INTRA:                  -0.707
REMARK UNBOUND:                -1.552
REMARK SMILES OC[C@@H]1O[C@H](O[C@]2(CO)O[C@H](CO)[C@@H](O)[C@H]2O)[C@H](O)[C@@H](O)[C@@H]1O
REMARK SMILES IDX 6 1 5 2 3 3 22 4 4 5 20 6 18 7 2 8 1 9 23 11 21 13 19 15
REMARK SMILES IDX 7 17 16 18 10 19 14 20 11 21 8 22 9 23 17 25 15 27 12 29
REMARK SMILES IDX 13 30
REMARK H PARENT 1 10 23 12 21 14 19 16 9 24 17 26 15 28 13 31
REMARK Flexibility Score: inf
ROOT
ATOM      1  O   UNL     1      29.242  31.801  53.029  1.00  0.00    -0.313 OA
ENDROOT
BRANCH   1   2
ATOM      2  C   UNL     1      28.273  32.717  52.539  1.00  0.00     0.285 C 
ATOM      3  C   UNL     1      27.001  33.262  50.661  1.00  0.00     0.178 C 
ATOM      4  C   UNL     1      25.651  33.243  51.417  1.00  0.00     0.177 C 
ATOM      5  O   UNL     1      27.892  32.320  51.233  1.00  0.00    -0.341 OA
ATOM      6  C   UNL     1      25.883  33.524  52.918  1.00  0.00     0.179 C 
ATOM      7  C   UNL     1      27.047  32.674  53.483  1.00  0.00     0.202 C 
BRANCH   3   8
ATOM      8  C   UNL     1      26.826  32.926  49.171  1.00  0.00     0.191 C 
BRANCH   8   9
ATOM      9  O   UNL     1      26.337  34.028  48.457  1.00  0.00    -0.394 OA
ATOM     10  H   UNL     1      27.059  34.712  48.460  1.00  0.00     0.210 HD
ENDBRANCH   8   9
ENDBRANCH   3   8
BRANCH   4  11
ATOM     11  O   UNL     1      25.017  32.000  51.245  1.00  0.00    -0.387 OA
ATOM     12  H   UNL     1      25.094  31.517  52.109  1.00  0.00     0.211 HD
ENDBRANCH   4  11
BRANCH   6  13
ATOM     13  O   UNL     1      26.166  34.891  53.088  1.00  0.00    -0.387 OA
ATOM     14  H   UNL     1      25.562  35.226  53.802  1.00  0.00     0.211 HD
ENDBRANCH   6  13
BRANCH   7  15
ATOM     15  O   UNL     1      26.627  31.352  53.734  1.00  0.00    -0.385 OA
ATOM     16  H   UNL     1      27.395  30.846  54.105  1.00  0.00     0.211 HD
ENDBRANCH   7  15
ENDBRANCH   1   2
BRANCH   1  17
ATOM     17  C   UNL     1      30.320  32.392  53.755  1.00  0.00     0.224 C 
ATOM     18  C   UNL     1      30.390  31.834  55.202  1.00  0.00     0.208 C 
ATOM     19  O   UNL     1      31.508  31.981  53.104  1.00  0.00    -0.337 OA
ATOM     20  C   UNL     1      31.865  31.651  55.463  1.00  0.00     0.180 C 
ATOM     21  C   UNL     1      32.423  31.463  54.053  1.00  0.00     0.179 C 
BRANCH  17  22
ATOM     22  C   UNL     1      30.294  33.946  53.677  1.00  0.00     0.225 C 
BRANCH  22  23
ATOM     23  O   UNL     1      31.587  34.469  53.537  1.00  0.00    -0.391 OA
ATOM     24  H   UNL     1      31.986  34.513  54.443  1.00  0.00     0.210 HD
ENDBRANCH  22  23
ENDBRANCH  17  22
BRANCH  18  25
ATOM     25  O   UNL     1      29.736  32.606  56.187  1.00  0.00    -0.385 OA
ATOM     26  H   UNL     1      30.361  33.292  56.534  1.00  0.00     0.211 HD
ENDBRANCH  18  25
BRANCH  20  27
ATOM     27  O   UNL     1      32.427  32.794  56.057  1.00  0.00    -0.387 OA
ATOM     28  H   UNL     1      32.924  33.268  55.339  1.00  0.00     0.211 HD
ENDBRANCH  20  27
BRANCH  21  29
ATOM     29  C   UNL     1      32.696  29.985  53.735  1.00  0.00     0.191 C 
BRANCH  29  30
ATOM     30  O   UNL     1      32.744  29.795  52.343  1.00  0.00    -0.394 OA
ATOM     31  H   UNL     1      32.255  30.551  51.922  1.00  0.00     0.210 HD
ENDBRANCH  29  30
ENDBRANCH  21  29
ENDBRANCH   1  17
TORSDOF 13
ENDMDL
MODEL 5
REMARK VINA RESULT:    -3.939      2.140      6.081
REMARK INTER + INTRA:          -7.562
REMARK INTER:                  -6.191
REMARK INTRA:                  -1.372
REMARK UNBOUND:                -1.552
REMARK SMILES OC[C@@H]1O[C@H](O[C@]2(CO)O[C@H](CO)[C@@H](O)[C@H]2O)[C@H](O)[C@@H](O)[C@@H]1O
REMARK SMILES IDX 6 1 5 2 3 3 22 4 4 5 20 6 18 7 2 8 1 9 23 11 21 13 19 15
REMARK SMILES IDX 7 17 16 18 10 19 14 20 11 21 8 22 9 23 17 25 15 27 12 29
REMARK SMILES IDX 13 30
REMARK H PARENT 1 10 23 12 21 14 19 16 9 24 17 26 15 28 13 31
REMARK Flexibility Score: inf
ROOT
ATOM      1  O   UNL     1      29.063  33.182  54.304  1.00  0.00    -0.313 OA
ENDROOT
BRANCH   1   2
ATOM      2  C   UNL     1      28.403  32.477  53.263  1.00  0.00     0.285 C 
ATOM      3  C   UNL     1      26.620  31.040  52.819  1.00  0.00     0.178 C 
ATOM      4  C   UNL     1      26.011  31.935  51.714  1.00  0.00     0.177 C 
ATOM      5  O   UNL     1      27.257  31.841  53.800  1.00  0.00    -0.341 OA
ATOM      6  C   UNL     1      27.111  32.824  51.091  1.00  0.00     0.179 C 
ATOM      7  C   UNL     1      27.983  33.497  52.179  1.00  0.00     0.202 C 
BRANCH   3   8
ATOM      8  C   UNL     1      25.550  30.180  53.511  1.00  0.00     0.191 C 
BRANCH   8   9
ATOM      9  O   UNL     1      24.906  30.895  54.530  1.00  0.00    -0.394 OA
ATOM     10  H   UNL     1      25.048  31.859  54.334  1.00  0.00     0.210 HD
ENDBRANCH   8   9
ENDBRANCH   3   8
BRANCH   4  11
ATOM     11  O   UNL     1      24.984  32.732  52.247  1.00  0.00    -0.387 OA
ATOM     12  H   UNL     1      24.184  32.150  52.333  1.00  0.00     0.211 HD
ENDBRANCH   4  11
BRANCH   6  13
ATOM     13  O   UNL     1      27.919  32.032  50.257  1.00  0.00    -0.387 OA
ATOM     14  H   UNL     1      27.764  31.085  50.517  1.00  0.00     0.211 HD
ENDBRANCH   6  13
BRANCH   7  15
ATOM     15  O   UNL     1      27.318  34.609  52.737  1.00  0.00    -0.385 OA
ATOM     16  H   UNL     1      27.365  34.536  53.725  1.00  0.00     0.211 HD
ENDBRANCH   7  15
ENDBRANCH   1   2
BRANCH   1  17
ATOM     17  C   UNL     1      30.433  32.831  54.499  1.00  0.00     0.224 C 
ATOM     18  C   UNL     1      30.912  33.225  55.922  1.00  0.00     0.208 C 
ATOM     19  O   UNL     1      30.495  31.419  54.427  1.00  0.00    -0.337 OA
ATOM     20  C   UNL     1      31.774  32.067  56.363  1.00  0.00     0.180 C 
ATOM     21  C   UNL     1      31.205  30.910  55.541  1.00  0.00     0.179 C 
BRANCH  17  22
ATOM     22  C   UNL     1      31.342  33.368  53.355  1.00  0.00     0.225 C 
BRANCH  22  23
ATOM     23  O   UNL     1      31.370  34.769  53.344  1.00  0.00    -0.391 OA
ATOM     24  H   UNL     1      31.256  35.072  54.281  1.00  0.00     0.210 HD
ENDBRANCH  22  23
ENDBRANCH  17  22
BRANCH  18  25
ATOM     25  O   UNL     1      31.559  34.476  56.026  1.00  0.00    -0.385 OA
ATOM     26  H   UNL     1      32.520  34.334  56.222  1.00  0.00     0.211 HD
ENDBRANCH  18  25
BRANCH  20  27
ATOM     27  O   UNL     1      33.123  32.275  56.034  1.00  0.00    -0.387 OA
ATOM     28  H   UNL     1      33.168  33.153  55.571  1.00  0.00     0.211 HD
ENDBRANCH  20  27
BRANCH  21  29
ATOM     29  C   UNL     1      30.268  30.021  56.372  1.00  0.00     0.191 C 
BRANCH  29  30
ATOM     30  O   UNL     1      28.989  29.996  55.790  1.00  0.00    -0.394 OA
ATOM     31  H   UNL     1      28.918  30.787  55.193  1.00  0.00     0.210 HD
ENDBRANCH  29  30
ENDBRANCH  21  29
ENDBRANCH   1  17
TORSDOF 13
ENDMDL
MODEL 6
REMARK VINA RESULT:    -3.921      3.255      5.690
REMARK INTER + INTRA:          -7.536
REMARK INTER:                  -6.322
REMARK INTRA:                  -1.214
REMARK UNBOUND:                -1.552
REMARK SMILES OC[C@@H]1O[C@H](O[C@]2(CO)O[C@H](CO)[C@@H](O)[C@H]2O)[C@H](O)[C@@H](O)[C@@H]1O
REMARK SMILES IDX 6 1 5 2 3 3 22 4 4 5 20 6 18 7 2 8 1 9 23 11 21 13 19 15
REMARK SMILES IDX 7 17 16 18 10 19 14 20 11 21 8 22 9 23 17 25 15 27 12 29
REMARK SMILES IDX 13 30
REMARK H PARENT 1 10 23 12 21 14 19 16 9 24 17 26 15 28 13 31
REMARK Flexibility Score: inf
ROOT
ATOM      1  O   UNL     1      29.862  31.109  56.258  1.00  0.00    -0.313 OA
ENDROOT
BRANCH   1   2
ATOM      2  C   UNL     1      30.071  31.431  54.890  1.00  0.00     0.285 C 
ATOM      3  C   UNL     1      29.483  32.949  53.219  1.00  0.00     0.178 C 
ATOM      4  C   UNL     1      30.944  33.301  52.851  1.00  0.00     0.177 C 
ATOM      5  O   UNL     1      29.388  32.638  54.599  1.00  0.00    -0.341 OA
ATOM      6  C   UNL     1      31.879  32.132  53.233  1.00  0.00     0.179 C 
ATOM      7  C   UNL     1      31.590  31.615  54.663  1.00  0.00     0.202 C 
BRANCH   3   8
ATOM      8  C   UNL     1      28.521  34.109  52.913  1.00  0.00     0.191 C 
BRANCH   8   9
ATOM      9  O   UNL     1      28.631  35.125  53.872  1.00  0.00    -0.394 OA
ATOM     10  H   UNL     1      28.222  34.773  54.707  1.00  0.00     0.210 HD
ENDBRANCH   8   9
ENDBRANCH   3   8
BRANCH   4  11
ATOM     11  O   UNL     1      31.339  34.477  53.511  1.00  0.00    -0.387 OA
ATOM     12  H   UNL     1      30.961  34.433  54.428  1.00  0.00     0.211 HD
ENDBRANCH   4  11
BRANCH   6  13
ATOM     13  O   UNL     1      31.706  31.088  52.307  1.00  0.00    -0.387 OA
ATOM     14  H   UNL     1      30.730  30.907  52.252  1.00  0.00     0.211 HD
ENDBRANCH   6  13
BRANCH   7  15
ATOM     15  O   UNL     1      32.164  32.467  55.630  1.00  0.00    -0.385 OA
ATOM     16  H   UNL     1      31.773  33.372  55.518  1.00  0.00     0.211 HD
ENDBRANCH   7  15
ENDBRANCH   1   2
BRANCH   1  17
ATOM     17  C   UNL     1      28.938  30.046  56.494  1.00  0.00     0.224 C 
ATOM     18  C   UNL     1      27.738  30.531  57.350  1.00  0.00     0.208 C 
ATOM     19  O   UNL     1      28.415  29.686  55.229  1.00  0.00    -0.337 OA
ATOM     20  C   UNL     1      26.537  29.861  56.727  1.00  0.00     0.180 C 
ATOM     21  C   UNL     1      27.002  29.639  55.287  1.00  0.00     0.179 C 
BRANCH  17  22
ATOM     22  C   UNL     1      29.641  28.775  57.055  1.00  0.00     0.225 C 
BRANCH  22  23
ATOM     23  O   UNL     1      30.611  29.112  58.010  1.00  0.00    -0.391 OA
ATOM     24  H   UNL     1      30.201  29.773  58.624  1.00  0.00     0.210 HD
ENDBRANCH  22  23
ENDBRANCH  17  22
BRANCH  18  25
ATOM     25  O   UNL     1      27.846  30.307  58.740  1.00  0.00    -0.385 OA
ATOM     26  H   UNL     1      28.279  31.090  59.166  1.00  0.00     0.211 HD
ENDBRANCH  18  25
BRANCH  20  27
ATOM     27  O   UNL     1      26.259  28.628  57.340  1.00  0.00    -0.387 OA
ATOM     28  H   UNL     1      25.298  28.441  57.173  1.00  0.00     0.211 HD
ENDBRANCH  20  27
BRANCH  21  29
ATOM     29  C   UNL     1      26.423  30.689  54.328  1.00  0.00     0.191 C 
BRANCH  29  30
ATOM     30  O   UNL     1      25.100  30.993  54.692  1.00  0.00    -0.394 OA
ATOM     31  H   UNL     1      24.984  30.726  55.642  1.00  0.00     0.210 HD
ENDBRANCH  29  30
ENDBRANCH  21  29
ENDBRANCH   1  17
TORSDOF 13
ENDMDL
MODEL 7
REMARK VINA RESULT:    -3.907      1.814      5.432
REMARK INTER + INTRA:          -7.514
REMARK INTER:                  -6.202
REMARK INTRA:                  -1.312
REMARK UNBOUND:                -1.552
REMARK SMILES OC[C@@H]1O[C@H](O[C@]2(CO)O[C@H](CO)[C@@H](O)[C@H]2O)[C@H](O)[C@@H](O)[C@@H]1O
REMARK SMILES IDX 6 1 5 2 3 3 22 4 4 5 20 6 18 7 2 8 1 9 23 11 21 13 19 15
REMARK SMILES IDX 7 17 16 18 10 19 14 20 11 21 8 22 9 23 17 25 15 27 12 29
REMARK SMILES IDX 13 30
REMARK H PARENT 1 10 23 12 21 14 19 16 9 24 17 26 15 28 13 31
REMARK Flexibility Score: inf
ROOT
ATOM      1  O   UNL     1      29.941  33.634  51.899  1.00  0.00    -0.313 OA
ENDROOT
BRANCH   1   2
ATOM      2  C   UNL     1      29.238  32.683  51.112  1.00  0.00     0.285 C 
ATOM      3  C   UNL     1      27.219  32.300  50.009  1.00  0.00     0.178 C 
ATOM      4  C   UNL     1      27.880  31.965  48.651  1.00  0.00     0.177 C 
ATOM      5  O   UNL     1      28.001  33.249  50.713  1.00  0.00    -0.341 OA
ATOM      6  C   UNL     1      29.320  31.453  48.879  1.00  0.00     0.179 C 
ATOM      7  C   UNL     1      30.097  32.357  49.867  1.00  0.00     0.202 C 
BRANCH   3   8
ATOM      8  C   UNL     1      25.803  32.872  49.829  1.00  0.00     0.191 C 
BRANCH   8   9
ATOM      9  O   UNL     1      25.846  34.185  49.342  1.00  0.00    -0.394 OA
ATOM     10  H   UNL     1      24.904  34.502  49.298  1.00  0.00     0.210 HD
ENDBRANCH   8   9
ENDBRANCH   3   8
BRANCH   4  11
ATOM     11  O   UNL     1      27.892  33.103  47.825  1.00  0.00    -0.387 OA
ATOM     12  H   UNL     1      27.910  32.777  46.888  1.00  0.00     0.211 HD
ENDBRANCH   4  11
BRANCH   6  13
ATOM     13  O   UNL     1      29.263  30.141  49.380  1.00  0.00    -0.387 OA
ATOM     14  H   UNL     1      30.200  29.852  49.547  1.00  0.00     0.211 HD
ENDBRANCH   6  13
BRANCH   7  15
ATOM     15  O   UNL     1      30.552  33.527  49.224  1.00  0.00    -0.385 OA
ATOM     16  H   UNL     1      30.533  34.270  49.880  1.00  0.00     0.211 HD
ENDBRANCH   7  15
ENDBRANCH   1   2
BRANCH   1  17
ATOM     17  C   UNL     1      29.697  33.556  53.303  1.00  0.00     0.224 C 
ATOM     18  C   UNL     1      29.020  32.210  53.677  1.00  0.00     0.208 C 
ATOM     19  O   UNL     1      30.967  33.559  53.928  1.00  0.00    -0.337 OA
ATOM     20  C   UNL     1      29.694  31.795  54.962  1.00  0.00     0.180 C 
ATOM     21  C   UNL     1      31.049  32.494  54.857  1.00  0.00     0.179 C 
BRANCH  17  22
ATOM     22  C   UNL     1      28.944  34.810  53.836  1.00  0.00     0.225 C 
BRANCH  22  23
ATOM     23  O   UNL     1      27.691  34.948  53.224  1.00  0.00    -0.391 OA
ATOM     24  H   UNL     1      27.651  35.861  52.840  1.00  0.00     0.210 HD
ENDBRANCH  22  23
ENDBRANCH  17  22
BRANCH  18  25
ATOM     25  O   UNL     1      27.611  32.236  53.766  1.00  0.00    -0.385 OA
ATOM     26  H   UNL     1      27.223  32.104  52.864  1.00  0.00     0.211 HD
ENDBRANCH  18  25
BRANCH  20  27
ATOM     27  O   UNL     1      28.994  32.265  56.085  1.00  0.00    -0.387 OA
ATOM     28  H   UNL     1      28.037  32.046  55.932  1.00  0.00     0.211 HD
ENDBRANCH  20  27
BRANCH  21  29
ATOM     29  C   UNL     1      32.162  31.529  54.421  1.00  0.00     0.191 C 
BRANCH  29  30
ATOM     30  O   UNL     1      33.052  32.185  53.553  1.00  0.00    -0.394 OA
ATOM     31  H   UNL     1      32.618  32.231  52.660  1.00  0.00     0.210 HD
ENDBRANCH  29  30
ENDBRANCH  21  29
ENDBRANCH   1  17
TORSDOF 13
ENDMDL
MODEL 8
REMARK VINA RESULT:    -3.879     15.483     18.331
REMARK INTER + INTRA:          -7.471
REMARK INTER:                  -6.300
REMARK INTRA:                  -1.171
REMARK UNBOUND:                -1.552
REMARK SMILES OC[C@@H]1O[C@H](O[C@]2(CO)O[C@H](CO)[C@@H](O)[C@H]2O)[C@H](O)[C@@H](O)[C@@H]1O
REMARK SMILES IDX 6 1 5 2 3 3 22 4 4 5 20 6 18 7 2 8 1 9 23 11 21 13 19 15
REMARK SMILES IDX 7 17 16 18 10 19 14 20 11 21 8 22 9 23 17 25 15 27 12 29
REMARK SMILES IDX 13 30
REMARK H PARENT 1 10 23 12 21 14 19 16 9 24 17 26 15 28 13 31
REMARK Flexibility Score: inf
ROOT
ATOM      1  O   UNL     1      15.601  18.956  49.009  1.00  0.00    -0.313 OA
ENDROOT
BRANCH   1   2
ATOM      2  C   UNL     1      16.665  18.569  49.867  1.00  0.00     0.285 C 
ATOM      3  C   UNL     1      18.446  19.400  51.123  1.00  0.00     0.178 C 
ATOM      4  C   UNL     1      18.004  18.711  52.436  1.00  0.00     0.177 C 
ATOM      5  O   UNL     1      17.312  19.737  50.342  1.00  0.00    -0.341 OA
ATOM      6  C   UNL     1      17.148  17.466  52.115  1.00  0.00     0.179 C 
ATOM      7  C   UNL     1      16.066  17.776  51.053  1.00  0.00     0.202 C 
BRANCH   3   8
ATOM      8  C   UNL     1      19.251  20.681  51.393  1.00  0.00     0.191 C 
BRANCH   8   9
ATOM      9  O   UNL     1      18.750  21.760  50.651  1.00  0.00    -0.394 OA
ATOM     10  H   UNL     1      19.311  21.828  49.834  1.00  0.00     0.210 HD
ENDBRANCH   8   9
ENDBRANCH   3   8
BRANCH   4  11
ATOM     11  O   UNL     1      17.276  19.611  53.233  1.00  0.00    -0.387 OA
ATOM     12  H   UNL     1      17.678  19.582  54.140  1.00  0.00     0.211 HD
ENDBRANCH   4  11
BRANCH   6  13
ATOM     13  O   UNL     1      17.991  16.441  51.650  1.00  0.00    -0.387 OA
ATOM     14  H   UNL     1      17.570  15.579  51.908  1.00  0.00     0.211 HD
ENDBRANCH   6  13
BRANCH   7  15
ATOM     15  O   UNL     1      14.972  18.451  51.634  1.00  0.00    -0.385 OA
ATOM     16  H   UNL     1      15.313  19.263  52.089  1.00  0.00     0.211 HD
ENDBRANCH   7  15
ENDBRANCH   1   2
BRANCH   1  17
ATOM     17  C   UNL     1      15.982  19.242  47.663  1.00  0.00     0.224 C 
ATOM     18  C   UNL     1      17.234  18.421  47.253  1.00  0.00     0.208 C 
ATOM     19  O   UNL     1      14.917  18.793  46.846  1.00  0.00    -0.337 OA
ATOM     20  C   UNL     1      16.948  17.983  45.837  1.00  0.00     0.180 C 
ATOM     21  C   UNL     1      15.420  17.983  45.800  1.00  0.00     0.179 C 
BRANCH  17  22
ATOM     22  C   UNL     1      16.117  20.771  47.406  1.00  0.00     0.225 C 
BRANCH  22  23
ATOM     23  O   UNL     1      17.167  21.320  48.155  1.00  0.00    -0.391 OA
ATOM     24  H   UNL     1      17.822  21.693  47.511  1.00  0.00     0.210 HD
ENDBRANCH  22  23
ENDBRANCH  17  22
BRANCH  18  25
ATOM     25  O   UNL     1      18.473  19.081  47.397  1.00  0.00    -0.385 OA
ATOM     26  H   UNL     1      18.623  19.293  48.353  1.00  0.00     0.211 HD
ENDBRANCH  18  25
BRANCH  20  27
ATOM     27  O   UNL     1      17.454  18.903  44.903  1.00  0.00    -0.387 OA
ATOM     28  H   UNL     1      18.308  18.523  44.567  1.00  0.00     0.211 HD
ENDBRANCH  20  27
BRANCH  21  29
ATOM     29  C   UNL     1      14.842  16.566  45.937  1.00  0.00     0.191 C 
BRANCH  29  30
ATOM     30  O   UNL     1      15.455  15.707  45.009  1.00  0.00    -0.394 OA
ATOM     31  H   UNL     1      15.215  14.777  45.260  1.00  0.00     0.210 HD
ENDBRANCH  29  30
ENDBRANCH  21  29
ENDBRANCH   1  17
TORSDOF 13
ENDMDL
MODEL 9
REMARK VINA RESULT:    -3.859      1.470      5.692
REMARK INTER + INTRA:          -7.442
REMARK INTER:                  -6.176
REMARK INTRA:                  -1.266
REMARK UNBOUND:                -1.552
REMARK SMILES OC[C@@H]1O[C@H](O[C@]2(CO)O[C@H](CO)[C@@H](O)[C@H]2O)[C@H](O)[C@@H](O)[C@@H]1O
REMARK SMILES IDX 6 1 5 2 3 3 22 4 4 5 20 6 18 7 2 8 1 9 23 11 21 13 19 15
REMARK SMILES IDX 7 17 16 18 10 19 14 20 11 21 8 22 9 23 17 25 15 27 12 29
REMARK SMILES IDX 13 30
REMARK H PARENT 1 10 23 12 21 14 19 16 9 24 17 26 15 28 13 31
REMARK Flexibility Score: inf
ROOT
ATOM      1  O   UNL     1      29.903  33.176  51.789  1.00  0.00    -0.313 OA
ENDROOT
BRANCH   1   2
ATOM      2  C   UNL     1      28.595  32.656  51.594  1.00  0.00     0.285 C 
ATOM      3  C   UNL     1      26.330  33.172  51.807  1.00  0.00     0.178 C 
ATOM      4  C   UNL     1      25.984  32.818  50.342  1.00  0.00     0.177 C 
ATOM      5  O   UNL     1      27.653  33.673  51.889  1.00  0.00    -0.341 OA
ATOM      6  C   UNL     1      27.008  31.802  49.789  1.00  0.00     0.179 C 
ATOM      7  C   UNL     1      28.461  32.224  50.114  1.00  0.00     0.202 C 
BRANCH   3   8
ATOM      8  C   UNL     1      25.372  34.228  52.382  1.00  0.00     0.191 C 
BRANCH   8   9
ATOM      9  O   UNL     1      26.040  35.097  53.255  1.00  0.00    -0.394 OA
ATOM     10  H   UNL     1      25.391  35.810  53.498  1.00  0.00     0.210 HD
ENDBRANCH   8   9
ENDBRANCH   3   8
BRANCH   4  11
ATOM     11  O   UNL     1      25.975  33.981  49.552  1.00  0.00    -0.387 OA
ATOM     12  H   UNL     1      25.042  34.321  49.551  1.00  0.00     0.211 HD
ENDBRANCH   4  11
BRANCH   6  13
ATOM     13  O   UNL     1      26.744  30.539  50.346  1.00  0.00    -0.387 OA
ATOM     14  H   UNL     1      26.331  29.986  49.631  1.00  0.00     0.211 HD
ENDBRANCH   6  13
BRANCH   7  15
ATOM     15  O   UNL     1      28.899  33.235  49.234  1.00  0.00    -0.385 OA
ATOM     16  H   UNL     1      29.070  32.824  48.348  1.00  0.00     0.211 HD
ENDBRANCH   7  15
ENDBRANCH   1   2
BRANCH   1  17
ATOM     17  C   UNL     1      30.349  33.198  53.145  1.00  0.00     0.224 C 
ATOM     18  C   UNL     1      29.593  32.144  53.998  1.00  0.00     0.208 C 
ATOM     19  O   UNL     1      31.708  32.803  53.121  1.00  0.00    -0.337 OA
ATOM     20  C   UNL     1      30.656  31.552  54.891  1.00  0.00     0.180 C 
ATOM     21  C   UNL     1      31.928  31.780  54.075  1.00  0.00     0.179 C 
BRANCH  17  22
ATOM     22  C   UNL     1      30.322  34.634  53.745  1.00  0.00     0.225 C 
BRANCH  22  23
ATOM     23  O   UNL     1      29.011  35.125  53.827  1.00  0.00    -0.391 OA
ATOM     24  H   UNL     1      28.986  35.980  53.328  1.00  0.00     0.210 HD
ENDBRANCH  22  23
ENDBRANCH  17  22
BRANCH  18  25
ATOM     25  O   UNL     1      28.468  32.622  54.704  1.00  0.00    -0.385 OA
ATOM     26  H   UNL     1      27.761  32.881  54.060  1.00  0.00     0.211 HD
ENDBRANCH  18  25
BRANCH  20  27
ATOM     27  O   UNL     1      30.739  32.236  56.115  1.00  0.00    -0.387 OA
ATOM     28  H   UNL     1      30.187  31.722  56.762  1.00  0.00     0.211 HD
ENDBRANCH  20  27
BRANCH  21  29
ATOM     29  C   UNL     1      32.382  30.504  53.350  1.00  0.00     0.191 C 
BRANCH  29  30
ATOM     30  O   UNL     1      32.460  29.438  54.261  1.00  0.00    -0.394 OA
ATOM     31  H   UNL     1      33.412  29.346  54.532  1.00  0.00     0.210 HD
ENDBRANCH  29  30
ENDBRANCH  21  29
ENDBRANCH   1  17
TORSDOF 13
ENDMDL
