MODEL 1
REMARK VINA RESULT:    -3.131      0.000      0.000
REMARK INTER + INTRA:          -4.760
REMARK INTER:                  -4.229
REMARK INTRA:                  -0.531
REMARK UNBOUND:                -0.531
REMARK SMILES CCCCCCCC(=O)[O-]
REMARK SMILES IDX 5 1 6 2 7 3 8 4 9 5 10 6 4 7 3 8 2 9 1 10
REMARK H PARENT
REMARK Flexibility Score: inf
ROOT
ATOM      1  C   UNL     1     127.347 145.590 118.983  1.00  0.00     0.000 C 
ENDROOT
BRANCH   1   2
ATOM      2  C   UNL     1     128.022 146.170 120.231  1.00  0.00     0.006 C 
BRANCH   2   3
ATOM      3  C   UNL     1     127.021 146.312 121.382  1.00  0.00     0.053 C 
BRANCH   3   4
ATOM      4  C   UNL     1     127.705 146.119 122.699  1.00  0.00     0.041 C 
ATOM      5  O   UNL     1     128.528 146.975 123.117  1.00  0.00    -0.550 OA
ATOM      6  O   UNL     1     127.397 145.017 123.486  1.00  0.00    -0.550 OA
ENDBRANCH   3   4
ENDBRANCH   2   3
ENDBRANCH   1   2
BRANCH   1   7
ATOM      7  C   UNL     1     127.609 144.080 118.869  1.00  0.00     0.000 C 
BRANCH   7   8
ATOM      8  C   UNL     1     128.956 143.664 119.479  1.00  0.00    -0.000 C 
BRANCH   8   9
ATOM      9  C   UNL     1     128.825 142.485 120.454  1.00  0.00    -0.003 C 
ATOM     10  C   UNL     1     127.410 142.392 121.016  1.00  0.00     0.004 C 
ENDBRANCH   8   9
ENDBRANCH   7   8
ENDBRANCH   1   7
TORSDOF 6
ENDMDL
MODEL 2
REMARK VINA RESULT:    -3.108      2.282      3.393
REMARK INTER + INTRA:          -4.729
REMARK INTER:                  -4.210
REMARK INTRA:                  -0.519
REMARK UNBOUND:                -0.531
REMARK SMILES CCCCCCCC(=O)[O-]
REMARK SMILES IDX 5 1 6 2 7 3 8 4 9 5 10 6 4 7 3 8 2 9 1 10
REMARK H PARENT
REMARK Flexibility Score: inf
ROOT
ATOM      1  C   UNL     1     127.270 145.860 122.531  1.00  0.00     0.000 C 
ENDROOT
BRANCH   1   2
ATOM      2  C   UNL     1     128.637 146.523 122.734  1.00  0.00     0.006 C 
BRANCH   2   3
ATOM      3  C   UNL     1     129.768 145.610 122.252  1.00  0.00     0.053 C 
BRANCH   3   4
ATOM      4  C   UNL     1     130.748 146.381 121.425  1.00  0.00     0.041 C 
ATOM      5  O   UNL     1     130.609 146.445 120.175  1.00  0.00    -0.550 OA
ATOM      6  O   UNL     1     131.787 147.069 122.038  1.00  0.00    -0.550 OA
ENDBRANCH   3   4
ENDBRANCH   2   3
ENDBRANCH   1   2
BRANCH   1   7
ATOM      7  C   UNL     1     127.231 145.074 121.211  1.00  0.00     0.000 C 
BRANCH   7   8
ATOM      8  C   UNL     1     127.040 145.981 119.986  1.00  0.00    -0.000 C 
BRANCH   8   9
ATOM      9  C   UNL     1     127.430 145.291 118.672  1.00  0.00    -0.003 C 
ATOM     10  C   UNL     1     128.351 144.102 118.929  1.00  0.00     0.004 C 
ENDBRANCH   8   9
ENDBRANCH   7   8
ENDBRANCH   1   7
TORSDOF 6
ENDMDL
MODEL 3
REMARK VINA RESULT:    -3.032      1.766      2.595
REMARK INTER + INTRA:          -4.627
REMARK INTER:                  -4.169
REMARK INTRA:                  -0.457
REMARK UNBOUND:                -0.531
REMARK SMILES CCCCCCCC(=O)[O-]
REMARK SMILES IDX 5 1 6 2 7 3 8 4 9 5 10 6 4 7 3 8 2 9 1 10
REMARK H PARENT
REMARK Flexibility Score: inf
ROOT
ATOM      1  C   UNL     1     127.243 145.164 121.249  1.00  0.00     0.000 C 
ENDROOT
BRANCH   1   2
ATOM      2  C   UNL     1     127.081 146.320 122.243  1.00  0.00     0.006 C 
BRANCH   2   3
ATOM      3  C   UNL     1     128.336 146.485 123.104  1.00  0.00     0.053 C 
BRANCH   3   4
ATOM      4  C   UNL     1     128.112 145.921 124.471  1.00  0.00     0.041 C 
ATOM      5  O   UNL     1     129.028 145.968 125.334  1.00  0.00    -0.550 OA
ATOM      6  O   UNL     1     126.875 145.386 124.808  1.00  0.00    -0.550 OA
ENDBRANCH   3   4
ENDBRANCH   2   3
ENDBRANCH   1   2
BRANCH   1   7
ATOM      7  C   UNL     1     127.157 145.669 119.800  1.00  0.00     0.000 C 
BRANCH   7   8
ATOM      8  C   UNL     1     128.327 145.181 118.932  1.00  0.00    -0.000 C 
BRANCH   8   9
ATOM      9  C   UNL     1     129.632 145.033 119.728  1.00  0.00    -0.003 C 
ATOM     10  C   UNL     1     130.439 146.327 119.704  1.00  0.00     0.004 C 
ENDBRANCH   8   9
ENDBRANCH   7   8
ENDBRANCH   1   7
TORSDOF 6
ENDMDL
MODEL 4
REMARK VINA RESULT:    -3.020      1.132      1.720
REMARK INTER + INTRA:          -4.610
REMARK INTER:                  -4.168
REMARK INTRA:                  -0.442
REMARK UNBOUND:                -0.531
REMARK SMILES CCCCCCCC(=O)[O-]
REMARK SMILES IDX 5 1 6 2 7 3 8 4 9 5 10 6 4 7 3 8 2 9 1 10
REMARK H PARENT
REMARK Flexibility Score: inf
ROOT
ATOM      1  C   UNL     1     126.875 146.371 120.651  1.00  0.00     0.000 C 
ENDROOT
BRANCH   1   2
ATOM      2  C   UNL     1     127.216 146.524 122.137  1.00  0.00     0.006 C 
BRANCH   2   3
ATOM      3  C   UNL     1     128.699 146.243 122.394  1.00  0.00     0.053 C 
BRANCH   3   4
ATOM      4  C   UNL     1     129.007 146.345 123.854  1.00  0.00     0.041 C 
ATOM      5  O   UNL     1     129.909 147.125 124.258  1.00  0.00    -0.550 OA
ATOM      6  O   UNL     1     128.265 145.615 124.774  1.00  0.00    -0.550 OA
ENDBRANCH   3   4
ENDBRANCH   2   3
ENDBRANCH   1   2
BRANCH   1   7
ATOM      7  C   UNL     1     128.097 145.892 119.853  1.00  0.00     0.000 C 
BRANCH   7   8
ATOM      8  C   UNL     1     127.818 144.610 119.053  1.00  0.00    -0.000 C 
BRANCH   8   9
ATOM      9  C   UNL     1     128.364 143.352 119.742  1.00  0.00    -0.003 C 
ATOM     10  C   UNL     1     127.271 142.642 120.535  1.00  0.00     0.004 C 
ENDBRANCH   8   9
ENDBRANCH   7   8
ENDBRANCH   1   7
TORSDOF 6
ENDMDL
MODEL 5
REMARK VINA RESULT:    -2.990      4.383      5.322
REMARK INTER + INTRA:          -4.570
REMARK INTER:                  -4.369
REMARK INTRA:                  -0.201
REMARK UNBOUND:                -0.531
REMARK SMILES CCCCCCCC(=O)[O-]
REMARK SMILES IDX 5 1 6 2 7 3 8 4 9 5 10 6 4 7 3 8 2 9 1 10
REMARK H PARENT
REMARK Flexibility Score: inf
ROOT
ATOM      1  C   UNL     1     130.618 146.690 119.492  1.00  0.00     0.000 C 
ENDROOT
BRANCH   1   2
ATOM      2  C   UNL     1     131.902 146.831 120.318  1.00  0.00     0.006 C 
BRANCH   2   3
ATOM      3  C   UNL     1     132.933 145.772 119.918  1.00  0.00     0.053 C 
BRANCH   3   4
ATOM      4  C   UNL     1     134.305 146.366 119.876  1.00  0.00     0.041 C 
ATOM      5  O   UNL     1     134.839 146.804 120.929  1.00  0.00    -0.550 OA
ATOM      6  O   UNL     1     135.015 146.392 118.682  1.00  0.00    -0.550 OA
ENDBRANCH   3   4
ENDBRANCH   2   3
ENDBRANCH   1   2
BRANCH   1   7
ATOM      7  C   UNL     1     129.597 145.795 120.211  1.00  0.00     0.000 C 
BRANCH   7   8
ATOM      8  C   UNL     1     128.725 144.989 119.236  1.00  0.00    -0.000 C 
BRANCH   8   9
ATOM      9  C   UNL     1     127.227 145.277 119.406  1.00  0.00    -0.003 C 
ATOM     10  C   UNL     1     126.996 146.439 120.367  1.00  0.00     0.004 C 
ENDBRANCH   8   9
ENDBRANCH   7   8
ENDBRANCH   1   7
TORSDOF 6
ENDMDL
MODEL 6
REMARK VINA RESULT:    -2.954     15.272     16.273
REMARK INTER + INTRA:          -4.521
REMARK INTER:                  -4.027
REMARK INTRA:                  -0.494
REMARK UNBOUND:                -0.531
REMARK SMILES CCCCCCCC(=O)[O-]
REMARK SMILES IDX 5 1 6 2 7 3 8 4 9 5 10 6 4 7 3 8 2 9 1 10
REMARK H PARENT
REMARK Flexibility Score: inf
ROOT
ATOM      1  C   UNL     1     141.996 143.350 119.376  1.00  0.00     0.000 C 
ENDROOT
BRANCH   1   2
ATOM      2  C   UNL     1     142.470 144.588 120.145  1.00  0.00     0.006 C 
BRANCH   2   3
ATOM      3  C   UNL     1     143.973 144.811 119.957  1.00  0.00     0.053 C 
BRANCH   3   4
ATOM      4  C   UNL     1     144.631 145.088 121.272  1.00  0.00     0.041 C 
ATOM      5  O   UNL     1     145.671 144.461 121.604  1.00  0.00    -0.550 OA
ATOM      6  O   UNL     1     144.122 146.072 122.109  1.00  0.00    -0.550 OA
ENDBRANCH   3   4
ENDBRANCH   2   3
ENDBRANCH   1   2
BRANCH   1   7
ATOM      7  C   UNL     1     142.855 142.125 119.723  1.00  0.00     0.000 C 
BRANCH   7   8
ATOM      8  C   UNL     1     143.375 141.393 118.476  1.00  0.00    -0.000 C 
BRANCH   8   9
ATOM      9  C   UNL     1     144.874 141.622 118.238  1.00  0.00    -0.003 C 
ATOM     10  C   UNL     1     145.669 141.452 119.529  1.00  0.00     0.004 C 
ENDBRANCH   8   9
ENDBRANCH   7   8
ENDBRANCH   1   7
TORSDOF 6
ENDMDL
MODEL 7
REMARK VINA RESULT:    -2.949      1.726      3.579
REMARK INTER + INTRA:          -4.515
REMARK INTER:                  -4.063
REMARK INTRA:                  -0.452
REMARK UNBOUND:                -0.531
REMARK SMILES CCCCCCCC(=O)[O-]
REMARK SMILES IDX 5 1 6 2 7 3 8 4 9 5 10 6 4 7 3 8 2 9 1 10
REMARK H PARENT
REMARK Flexibility Score: inf
ROOT
ATOM      1  C   UNL     1     128.176 143.722 119.095  1.00  0.00     0.000 C 
ENDROOT
BRANCH   1   2
ATOM      2  C   UNL     1     127.240 143.058 120.110  1.00  0.00     0.006 C 
BRANCH   2   3
ATOM      3  C   UNL     1     127.989 142.024 120.956  1.00  0.00     0.053 C 
BRANCH   3   4
ATOM      4  C   UNL     1     127.977 142.419 122.399  1.00  0.00     0.041 C 
ATOM      5  O   UNL     1     128.334 141.597 123.284  1.00  0.00    -0.550 OA
ATOM      6  O   UNL     1     127.618 143.710 122.763  1.00  0.00    -0.550 OA
ENDBRANCH   3   4
ENDBRANCH   2   3
ENDBRANCH   1   2
BRANCH   1   7
ATOM      7  C   UNL     1     127.826 145.207 118.914  1.00  0.00     0.000 C 
BRANCH   7   8
ATOM      8  C   UNL     1     128.178 146.054 120.147  1.00  0.00    -0.000 C 
BRANCH   8   9
ATOM      9  C   UNL     1     129.624 145.843 120.617  1.00  0.00    -0.003 C 
ATOM     10  C   UNL     1     130.614 146.494 119.656  1.00  0.00     0.004 C 
ENDBRANCH   8   9
ENDBRANCH   7   8
ENDBRANCH   1   7
TORSDOF 6
ENDMDL
MODEL 8
REMARK VINA RESULT:    -2.939      3.229      4.088
REMARK INTER + INTRA:          -4.501
REMARK INTER:                  -4.305
REMARK INTRA:                  -0.196
REMARK UNBOUND:                -0.531
REMARK SMILES CCCCCCCC(=O)[O-]
REMARK SMILES IDX 5 1 6 2 7 3 8 4 9 5 10 6 4 7 3 8 2 9 1 10
REMARK H PARENT
REMARK Flexibility Score: inf
ROOT
ATOM      1  C   UNL     1     129.947 145.990 120.505  1.00  0.00     0.000 C 
ENDROOT
BRANCH   1   2
ATOM      2  C   UNL     1     128.778 145.568 119.609  1.00  0.00     0.006 C 
BRANCH   2   3
ATOM      3  C   UNL     1     127.435 145.897 120.266  1.00  0.00     0.053 C 
BRANCH   3   4
ATOM      4  C   UNL     1     127.268 145.122 121.535  1.00  0.00     0.041 C 
ATOM      5  O   UNL     1     126.984 145.716 122.608  1.00  0.00    -0.550 OA
ATOM      6  O   UNL     1     127.378 143.737 121.523  1.00  0.00    -0.550 OA
ENDBRANCH   3   4
ENDBRANCH   2   3
ENDBRANCH   1   2
BRANCH   1   7
ATOM      7  C   UNL     1     130.999 146.775 119.705  1.00  0.00     0.000 C 
BRANCH   7   8
ATOM      8  C   UNL     1     132.385 146.753 120.367  1.00  0.00    -0.000 C 
BRANCH   8   9
ATOM      9  C   UNL     1     133.328 145.720 119.732  1.00  0.00    -0.003 C 
ATOM     10  C   UNL     1     134.453 146.404 118.962  1.00  0.00     0.004 C 
ENDBRANCH   8   9
ENDBRANCH   7   8
ENDBRANCH   1   7
TORSDOF 6
ENDMDL
