MODEL 1
REMARK VINA RESULT:    -5.277      0.000      0.000
REMARK INTER + INTRA:          -9.099
REMARK INTER:                  -8.054
REMARK INTRA:                  -1.045
REMARK UNBOUND:                -1.045
REMARK SMILES O=C([O-])CCCCCCCCC(=O)[O-]
REMARK SMILES IDX 7 1 6 2 5 3 4 4 2 5 1 6 3 7 8 8 9 9 10 10 11 11 12 12 13 13
REMARK SMILES IDX 14 14
REMARK H PARENT
REMARK Flexibility Score: inf
ROOT
ATOM      1  C   UNL     1      -1.014  31.054  43.907  1.00  0.00     0.000 C 
ENDROOT
BRANCH   1   2
ATOM      2  C   UNL     1      -2.290  30.977  43.054  1.00  0.00     0.000 C 
BRANCH   2   3
ATOM      3  C   UNL     1      -1.993  30.909  41.548  1.00  0.00     0.006 C 
BRANCH   3   4
ATOM      4  C   UNL     1      -0.487  30.809  41.290  1.00  0.00     0.053 C 
BRANCH   4   5
ATOM      5  C   UNL     1      -0.194  29.713  40.315  1.00  0.00     0.041 C 
ATOM      6  O   UNL     1      -1.115  28.949  39.924  1.00  0.00    -0.550 OA
ATOM      7  O   UNL     1       1.107  29.504  39.875  1.00  0.00    -0.550 OA
ENDBRANCH   4   5
ENDBRANCH   3   4
ENDBRANCH   2   3
ENDBRANCH   1   2
BRANCH   1   8
ATOM      8  C   UNL     1      -1.061  30.125  45.130  1.00  0.00     0.000 C 
BRANCH   8   9
ATOM      9  C   UNL     1      -1.946  28.900  44.855  1.00  0.00     0.000 C 
BRANCH   9  10
ATOM     10  C   UNL     1      -1.129  27.620  44.617  1.00  0.00     0.006 C 
BRANCH  10  11
ATOM     11  C   UNL     1      -0.465  27.590  43.235  1.00  0.00     0.053 C 
BRANCH  11  12
ATOM     12  C   UNL     1       1.023  27.529  43.372  1.00  0.00     0.041 C 
ATOM     13  O   UNL     1       1.582  26.469  43.757  1.00  0.00    -0.550 OA
ATOM     14  O   UNL     1       1.799  28.630  43.027  1.00  0.00    -0.550 OA
ENDBRANCH  11  12
ENDBRANCH  10  11
ENDBRANCH   9  10
ENDBRANCH   8   9
ENDBRANCH   1   8
TORSDOF 9
ENDMDL
MODEL 2
REMARK VINA RESULT:    -5.267     17.980     20.259
REMARK INTER + INTRA:          -9.083
REMARK INTER:                  -7.968
REMARK INTRA:                  -1.115
REMARK UNBOUND:                -1.045
REMARK SMILES O=C([O-])CCCCCCCCC(=O)[O-]
REMARK SMILES IDX 7 1 6 2 5 3 4 4 2 5 1 6 3 7 8 8 9 9 10 10 11 11 12 12 13 13
REMARK SMILES IDX 14 14
REMARK H PARENT
REMARK Flexibility Score: inf
ROOT
ATOM      1  C   UNL     1      15.657  14.636  44.334  1.00  0.00     0.000 C 
ENDROOT
BRANCH   1   2
ATOM      2  C   UNL     1      14.436  14.353  43.445  1.00  0.00     0.000 C 
BRANCH   2   3
ATOM      3  C   UNL     1      13.637  15.623  43.113  1.00  0.00     0.006 C 
BRANCH   3   4
ATOM      4  C   UNL     1      13.672  16.613  44.280  1.00  0.00     0.053 C 
BRANCH   4   5
ATOM      5  C   UNL     1      12.333  16.687  44.944  1.00  0.00     0.041 C 
ATOM      6  O   UNL     1      11.519  15.733  44.840  1.00  0.00    -0.550 OA
ATOM      7  O   UNL     1      11.964  17.833  45.639  1.00  0.00    -0.550 OA
ENDBRANCH   4   5
ENDBRANCH   3   4
ENDBRANCH   2   3
ENDBRANCH   1   2
BRANCH   1   8
ATOM      8  C   UNL     1      15.668  13.788  45.614  1.00  0.00     0.000 C 
BRANCH   8   9
ATOM      9  C   UNL     1      14.243  13.377  46.013  1.00  0.00     0.000 C 
BRANCH   9  10
ATOM     10  C   UNL     1      13.784  14.028  47.327  1.00  0.00     0.006 C 
BRANCH  10  11
ATOM     11  C   UNL     1      14.761  15.098  47.831  1.00  0.00     0.053 C 
BRANCH  11  12
ATOM     12  C   UNL     1      14.028  16.359  48.161  1.00  0.00     0.041 C 
ATOM     13  O   UNL     1      12.972  16.318  48.845  1.00  0.00    -0.550 OA
ATOM     14  O   UNL     1      14.539  17.587  47.756  1.00  0.00    -0.550 OA
ENDBRANCH  11  12
ENDBRANCH  10  11
ENDBRANCH   9  10
ENDBRANCH   8   9
ENDBRANCH   1   8
TORSDOF 9
ENDMDL
MODEL 3
REMARK VINA RESULT:    -5.265      2.173      3.655
REMARK INTER + INTRA:          -9.080
REMARK INTER:                  -7.971
REMARK INTRA:                  -1.109
REMARK UNBOUND:                -1.045
REMARK SMILES O=C([O-])CCCCCCCCC(=O)[O-]
REMARK SMILES IDX 7 1 6 2 5 3 4 4 2 5 1 6 3 7 8 8 9 9 10 10 11 11 12 12 13 13
REMARK SMILES IDX 14 14
REMARK H PARENT
REMARK Flexibility Score: inf
ROOT
ATOM      1  C   UNL     1       0.075  30.634  41.350  1.00  0.00     0.000 C 
ENDROOT
BRANCH   1   2
ATOM      2  C   UNL     1      -0.027  29.439  40.390  1.00  0.00     0.000 C 
BRANCH   2   3
ATOM      3  C   UNL     1       0.614  28.164  40.959  1.00  0.00     0.006 C 
BRANCH   3   4
ATOM      4  C   UNL     1       1.347  28.458  42.271  1.00  0.00     0.053 C 
BRANCH   4   5
ATOM      5  C   UNL     1       1.699  27.184  42.971  1.00  0.00     0.041 C 
ATOM      6  O   UNL     1       0.838  26.585  43.668  1.00  0.00    -0.550 OA
ATOM      7  O   UNL     1       2.993  26.683  42.896  1.00  0.00    -0.550 OA
ENDBRANCH   4   5
ENDBRANCH   3   4
ENDBRANCH   2   3
ENDBRANCH   1   2
BRANCH   1   8
ATOM      8  C   UNL     1      -1.285  31.292  41.626  1.00  0.00     0.000 C 
BRANCH   8   9
ATOM      9  C   UNL     1      -2.396  30.236  41.719  1.00  0.00     0.000 C 
BRANCH   9  10
ATOM     10  C   UNL     1      -2.818  29.946  43.169  1.00  0.00     0.006 C 
BRANCH  10  11
ATOM     11  C   UNL     1      -2.090  28.735  43.766  1.00  0.00     0.053 C 
BRANCH  11  12
ATOM     12  C   UNL     1      -1.278  29.147  44.953  1.00  0.00     0.041 C 
ATOM     13  O   UNL     1      -1.031  28.321  45.869  1.00  0.00    -0.550 OA
ATOM     14  O   UNL     1      -0.752  30.431  45.023  1.00  0.00    -0.550 OA
ENDBRANCH  11  12
ENDBRANCH  10  11
ENDBRANCH   9  10
ENDBRANCH   8   9
ENDBRANCH   1   8
TORSDOF 9
ENDMDL
MODEL 4
REMARK VINA RESULT:    -5.254      1.898      3.881
REMARK INTER + INTRA:          -9.064
REMARK INTER:                  -8.123
REMARK INTRA:                  -0.940
REMARK UNBOUND:                -1.045
REMARK SMILES O=C([O-])CCCCCCCCC(=O)[O-]
REMARK SMILES IDX 7 1 6 2 5 3 4 4 2 5 1 6 3 7 8 8 9 9 10 10 11 11 12 12 13 13
REMARK SMILES IDX 14 14
REMARK H PARENT
REMARK Flexibility Score: inf
ROOT
ATOM      1  C   UNL     1      -2.374  29.544  41.107  1.00  0.00     0.000 C 
ENDROOT
BRANCH   1   2
ATOM      2  C   UNL     1      -2.096  30.918  41.734  1.00  0.00     0.000 C 
BRANCH   2   3
ATOM      3  C   UNL     1      -2.354  30.942  43.248  1.00  0.00     0.006 C 
BRANCH   3   4
ATOM      4  C   UNL     1      -2.622  29.532  43.781  1.00  0.00     0.053 C 
BRANCH   4   5
ATOM      5  C   UNL     1      -1.802  29.269  45.005  1.00  0.00     0.041 C 
ATOM      6  O   UNL     1      -1.184  30.210  45.568  1.00  0.00    -0.550 OA
ATOM      7  O   UNL     1      -1.680  27.974  45.495  1.00  0.00    -0.550 OA
ENDBRANCH   4   5
ENDBRANCH   3   4
ENDBRANCH   2   3
ENDBRANCH   1   2
BRANCH   1   8
ATOM      8  C   UNL     1      -1.124  28.917  40.471  1.00  0.00     0.000 C 
BRANCH   8   9
ATOM      9  C   UNL     1       0.031  29.928  40.420  1.00  0.00     0.000 C 
BRANCH   9  10
ATOM     10  C   UNL     1       1.270  29.452  41.193  1.00  0.00     0.006 C 
BRANCH  10  11
ATOM     11  C   UNL     1       0.949  29.049  42.638  1.00  0.00     0.053 C 
BRANCH  11  12
ATOM     12  C   UNL     1       1.258  27.603  42.859  1.00  0.00     0.041 C 
ATOM     13  O   UNL     1       2.444  27.188  42.774  1.00  0.00    -0.550 OA
ATOM     14  O   UNL     1       0.243  26.720  43.206  1.00  0.00    -0.550 OA
ENDBRANCH  11  12
ENDBRANCH  10  11
ENDBRANCH   9  10
ENDBRANCH   8   9
ENDBRANCH   1   8
TORSDOF 9
ENDMDL
MODEL 5
REMARK VINA RESULT:    -5.250     17.950     20.290
REMARK INTER + INTRA:          -9.057
REMARK INTER:                  -7.933
REMARK INTRA:                  -1.124
REMARK UNBOUND:                -1.045
REMARK SMILES O=C([O-])CCCCCCCCC(=O)[O-]
REMARK SMILES IDX 7 1 6 2 5 3 4 4 2 5 1 6 3 7 8 8 9 9 10 10 11 11 12 12 13 13
REMARK SMILES IDX 14 14
REMARK H PARENT
REMARK Flexibility Score: inf
ROOT
ATOM      1  C   UNL     1      14.170  14.007  47.323  1.00  0.00     0.000 C 
ENDROOT
BRANCH   1   2
ATOM      2  C   UNL     1      14.431  15.268  48.162  1.00  0.00     0.000 C 
BRANCH   2   3
ATOM      3  C   UNL     1      13.270  16.273  48.098  1.00  0.00     0.006 C 
BRANCH   3   4
ATOM      4  C   UNL     1      12.342  15.964  46.920  1.00  0.00     0.053 C 
BRANCH   4   5
ATOM      5  C   UNL     1      12.455  17.024  45.871  1.00  0.00     0.041 C 
ATOM      6  O   UNL     1      13.415  17.837  45.891  1.00  0.00    -0.550 OA
ATOM      7  O   UNL     1      11.471  17.146  44.897  1.00  0.00    -0.550 OA
ENDBRANCH   4   5
ENDBRANCH   3   4
ENDBRANCH   2   3
ENDBRANCH   1   2
BRANCH   1   8
ATOM      8  C   UNL     1      15.289  13.728  46.308  1.00  0.00     0.000 C 
BRANCH   8   9
ATOM      9  C   UNL     1      15.895  15.038  45.785  1.00  0.00     0.000 C 
BRANCH   9  10
ATOM     10  C   UNL     1      15.565  15.293  44.306  1.00  0.00     0.006 C 
BRANCH  10  11
ATOM     11  C   UNL     1      14.670  14.203  43.701  1.00  0.00     0.053 C 
BRANCH  11  12
ATOM     12  C   UNL     1      13.415  14.802  43.153  1.00  0.00     0.041 C 
ATOM     13  O   UNL     1      12.307  14.236  43.343  1.00  0.00    -0.550 OA
ATOM     14  O   UNL     1      13.462  16.013  42.472  1.00  0.00    -0.550 OA
ENDBRANCH  11  12
ENDBRANCH  10  11
ENDBRANCH   9  10
ENDBRANCH   8   9
ENDBRANCH   1   8
TORSDOF 9
ENDMDL
MODEL 6
REMARK VINA RESULT:    -5.229      1.151      3.613
REMARK INTER + INTRA:          -9.024
REMARK INTER:                  -7.970
REMARK INTRA:                  -1.055
REMARK UNBOUND:                -1.045
REMARK SMILES O=C([O-])CCCCCCCCC(=O)[O-]
REMARK SMILES IDX 7 1 6 2 5 3 4 4 2 5 1 6 3 7 8 8 9 9 10 10 11 11 12 12 13 13
REMARK SMILES IDX 14 14
REMARK H PARENT
REMARK Flexibility Score: inf
ROOT
ATOM      1  C   UNL     1      -1.127  30.512  44.720  1.00  0.00     0.000 C 
ENDROOT
BRANCH   1   2
ATOM      2  C   UNL     1      -1.573  29.268  45.503  1.00  0.00     0.000 C 
BRANCH   2   3
ATOM      3  C   UNL     1      -0.547  28.127  45.438  1.00  0.00     0.006 C 
BRANCH   3   4
ATOM      4  C   UNL     1       0.618  28.490  44.512  1.00  0.00     0.053 C 
BRANCH   4   5
ATOM      5  C   UNL     1       0.820  27.423  43.482  1.00  0.00     0.041 C 
ATOM      6  O   UNL     1      -0.059  26.541  43.301  1.00  0.00    -0.550 OA
ATOM      7  O   UNL     1       2.004  27.375  42.755  1.00  0.00    -0.550 OA
ENDBRANCH   4   5
ENDBRANCH   3   4
ENDBRANCH   2   3
ENDBRANCH   1   2
BRANCH   1   8
ATOM      8  C   UNL     1      -2.157  30.951  43.667  1.00  0.00     0.000 C 
BRANCH   8   9
ATOM      9  C   UNL     1      -2.770  29.735  42.959  1.00  0.00     0.000 C 
BRANCH   9  10
ATOM     10  C   UNL     1      -1.978  29.314  41.711  1.00  0.00     0.006 C 
BRANCH  10  11
ATOM     11  C   UNL     1      -1.118  30.451  41.144  1.00  0.00     0.053 C 
BRANCH  11  12
ATOM     12  C   UNL     1       0.205  29.926  40.686  1.00  0.00     0.041 C 
ATOM     13  O   UNL     1       1.259  30.242  41.298  1.00  0.00    -0.550 OA
ATOM     14  O   UNL     1       0.270  29.047  39.612  1.00  0.00    -0.550 OA
ENDBRANCH  11  12
ENDBRANCH  10  11
ENDBRANCH   9  10
ENDBRANCH   8   9
ENDBRANCH   1   8
TORSDOF 9
ENDMDL
MODEL 7
REMARK VINA RESULT:    -5.177      9.092     10.628
REMARK INTER + INTRA:          -8.945
REMARK INTER:                  -7.729
REMARK INTRA:                  -1.216
REMARK UNBOUND:                -1.045
REMARK SMILES O=C([O-])CCCCCCCCC(=O)[O-]
REMARK SMILES IDX 7 1 6 2 5 3 4 4 2 5 1 6 3 7 8 8 9 9 10 10 11 11 12 12 13 13
REMARK SMILES IDX 14 14
REMARK H PARENT
REMARK Flexibility Score: inf
ROOT
ATOM      1  C   UNL     1       5.232  20.251  43.638  1.00  0.00     0.000 C 
ENDROOT
BRANCH   1   2
ATOM      2  C   UNL     1       6.272  20.500  42.535  1.00  0.00     0.000 C 
BRANCH   2   3
ATOM      3  C   UNL     1       6.180  21.914  41.942  1.00  0.00     0.006 C 
BRANCH   3   4
ATOM      4  C   UNL     1       7.462  22.706  42.213  1.00  0.00     0.053 C 
BRANCH   4   5
ATOM      5  C   UNL     1       7.155  23.959  42.970  1.00  0.00     0.041 C 
ATOM      6  O   UNL     1       6.031  24.512  42.850  1.00  0.00    -0.550 OA
ATOM      7  O   UNL     1       8.128  24.544  43.771  1.00  0.00    -0.550 OA
ENDBRANCH   4   5
ENDBRANCH   3   4
ENDBRANCH   2   3
ENDBRANCH   1   2
BRANCH   1   8
ATOM      8  C   UNL     1       4.438  21.514  44.002  1.00  0.00     0.000 C 
BRANCH   8   9
ATOM      9  C   UNL     1       4.735  21.954  45.443  1.00  0.00     0.000 C 
BRANCH   9  10
ATOM     10  C   UNL     1       5.896  21.169  46.074  1.00  0.00     0.006 C 
BRANCH  10  11
ATOM     11  C   UNL     1       7.194  21.984  46.142  1.00  0.00     0.053 C 
BRANCH  11  12
ATOM     12  C   UNL     1       8.345  21.177  45.631  1.00  0.00     0.041 C 
ATOM     13  O   UNL     1       9.359  21.750  45.153  1.00  0.00    -0.550 OA
ATOM     14  O   UNL     1       8.318  19.791  45.726  1.00  0.00    -0.550 OA
ENDBRANCH  11  12
ENDBRANCH  10  11
ENDBRANCH   9  10
ENDBRANCH   8   9
ENDBRANCH   1   8
TORSDOF 9
ENDMDL
MODEL 8
REMARK VINA RESULT:    -5.152      9.300     11.017
REMARK INTER + INTRA:          -8.907
REMARK INTER:                  -7.702
REMARK INTRA:                  -1.205
REMARK UNBOUND:                -1.045
REMARK SMILES O=C([O-])CCCCCCCCC(=O)[O-]
REMARK SMILES IDX 7 1 6 2 5 3 4 4 2 5 1 6 3 7 8 8 9 9 10 10 11 11 12 12 13 13
REMARK SMILES IDX 14 14
REMARK H PARENT
REMARK Flexibility Score: inf
ROOT
ATOM      1  C   UNL     1       8.438  23.885  44.860  1.00  0.00     0.000 C 
ENDROOT
BRANCH   1   2
ATOM      2  C   UNL     1       8.027  23.285  46.213  1.00  0.00     0.000 C 
BRANCH   2   3
ATOM      3  C   UNL     1       6.505  23.287  46.425  1.00  0.00     0.006 C 
BRANCH   3   4
ATOM      4  C   UNL     1       5.944  21.863  46.376  1.00  0.00     0.053 C 
BRANCH   4   5
ATOM      5  C   UNL     1       4.813  21.778  45.400  1.00  0.00     0.041 C 
ATOM      6  O   UNL     1       4.147  22.806  45.111  1.00  0.00    -0.550 OA
ATOM      7  O   UNL     1       4.462  20.553  44.847  1.00  0.00    -0.550 OA
ENDBRANCH   4   5
ENDBRANCH   3   4
ENDBRANCH   2   3
ENDBRANCH   1   2
BRANCH   1   8
ATOM      8  C   UNL     1       7.237  24.388  44.044  1.00  0.00     0.000 C 
BRANCH   8   9
ATOM      9  C   UNL     1       7.093  23.597  42.736  1.00  0.00     0.000 C 
BRANCH   9  10
ATOM     10  C   UNL     1       8.064  22.408  42.652  1.00  0.00     0.006 C 
BRANCH  10  11
ATOM     11  C   UNL     1       7.364  21.057  42.845  1.00  0.00     0.053 C 
BRANCH  11  12
ATOM     12  C   UNL     1       8.154  20.187  43.771  1.00  0.00     0.041 C 
ATOM     13  O   UNL     1       7.671  19.102  44.188  1.00  0.00    -0.550 OA
ATOM     14  O   UNL     1       9.445  20.551  44.134  1.00  0.00    -0.550 OA
ENDBRANCH  11  12
ENDBRANCH  10  11
ENDBRANCH   9  10
ENDBRANCH   8   9
ENDBRANCH   1   8
TORSDOF 9
ENDMDL
MODEL 9
REMARK VINA RESULT:    -5.149      9.036     10.758
REMARK INTER + INTRA:          -8.903
REMARK INTER:                  -7.677
REMARK INTRA:                  -1.225
REMARK UNBOUND:                -1.045
REMARK SMILES O=C([O-])CCCCCCCCC(=O)[O-]
REMARK SMILES IDX 7 1 6 2 5 3 4 4 2 5 1 6 3 7 8 8 9 9 10 10 11 11 12 12 13 13
REMARK SMILES IDX 14 14
REMARK H PARENT
REMARK Flexibility Score: inf
ROOT
ATOM      1  C   UNL     1       7.933  23.295  42.456  1.00  0.00     0.000 C 
ENDROOT
BRANCH   1   2
ATOM      2  C   UNL     1       7.373  22.006  41.835  1.00  0.00     0.000 C 
BRANCH   2   3
ATOM      3  C   UNL     1       5.875  21.813  42.119  1.00  0.00     0.006 C 
BRANCH   3   4
ATOM      4  C   UNL     1       5.659  20.819  43.264  1.00  0.00     0.053 C 
BRANCH   4   5
ATOM      5  C   UNL     1       4.719  21.387  44.280  1.00  0.00     0.041 C 
ATOM      6  O   UNL     1       3.979  22.361  43.985  1.00  0.00    -0.550 OA
ATOM      7  O   UNL     1       4.696  20.870  45.570  1.00  0.00    -0.550 OA
ENDBRANCH   4   5
ENDBRANCH   3   4
ENDBRANCH   2   3
ENDBRANCH   1   2
BRANCH   1   8
ATOM      8  C   UNL     1       6.831  24.276  42.882  1.00  0.00     0.000 C 
BRANCH   8   9
ATOM      9  C   UNL     1       6.839  24.485  44.403  1.00  0.00     0.000 C 
BRANCH   9  10
ATOM     10  C   UNL     1       8.083  23.884  45.076  1.00  0.00     0.006 C 
BRANCH  10  11
ATOM     11  C   UNL     1       7.741  22.746  46.046  1.00  0.00     0.053 C 
BRANCH  11  12
ATOM     12  C   UNL     1       8.500  21.508  45.687  1.00  0.00     0.041 C 
ATOM     13  O   UNL     1       9.622  21.594  45.123  1.00  0.00    -0.550 OA
ATOM     14  O   UNL     1       7.990  20.259  46.019  1.00  0.00    -0.550 OA
ENDBRANCH  11  12
ENDBRANCH  10  11
ENDBRANCH   9  10
ENDBRANCH   8   9
ENDBRANCH   1   8
TORSDOF 9
ENDMDL
