MODEL 1
REMARK VINA RESULT:     1.411      0.000      0.000
REMARK INTER + INTRA:           3.181
REMARK INTER:                   2.648
REMARK INTRA:                   0.533
REMARK UNBOUND:                 0.533
REMARK SMILES CCCCCCCCC=CCCCCCCCC(=O)[O-]
REMARK SMILES IDX 10 1 9 2 11 3 12 4 13 5 14 6 15 7 16 8 17 9 18 10 19 11
REMARK SMILES IDX 20 12 8 13 7 14 6 15 5 16 4 17 3 18 2 19 1 20
REMARK H PARENT
REMARK Flexibility Score: inf
ROOT
ATOM      1  C   UNL     1      13.757  13.436  36.836  1.00  0.00    -0.031 C 
ATOM      2  C   UNL     1      14.354  14.123  35.852  1.00  0.00    -0.031 C 
ENDROOT
BRANCH   1   3
ATOM      3  C   UNL     1      13.375  14.091  38.137  1.00  0.00     0.027 C 
BRANCH   3   4
ATOM      4  C   UNL     1      14.536  14.125  39.146  1.00  0.00     0.004 C 
BRANCH   4   5
ATOM      5  C   UNL     1      15.072  12.736  39.551  1.00  0.00     0.000 C 
BRANCH   5   6
ATOM      6  C   UNL     1      16.594  12.661  39.771  1.00  0.00     0.000 C 
BRANCH   6   7
ATOM      7  C   UNL     1      17.205  14.012  40.178  1.00  0.00     0.000 C 
BRANCH   7   8
ATOM      8  C   UNL     1      17.589  14.060  41.666  1.00  0.00     0.006 C 
BRANCH   8   9
ATOM      9  C   UNL     1      19.020  13.573  41.925  1.00  0.00     0.053 C 
BRANCH   9  10
ATOM     10  C   UNL     1      19.170  13.123  43.344  1.00  0.00     0.041 C 
ATOM     11  O   UNL     1      18.202  12.585  43.944  1.00  0.00    -0.550 OA
ATOM     12  O   UNL     1      20.363  13.343  44.021  1.00  0.00    -0.550 OA
ENDBRANCH   9  10
ENDBRANCH   8   9
ENDBRANCH   7   8
ENDBRANCH   6   7
ENDBRANCH   5   6
ENDBRANCH   4   5
ENDBRANCH   3   4
ENDBRANCH   1   3
BRANCH   2  13
ATOM     13  C   UNL     1      14.749  13.466  34.556  1.00  0.00     0.027 C 
BRANCH  13  14
ATOM     14  C   UNL     1      14.861  11.940  34.686  1.00  0.00     0.004 C 
BRANCH  14  15
ATOM     15  C   UNL     1      13.649  11.215  34.083  1.00  0.00     0.000 C 
BRANCH  15  16
ATOM     16  C   UNL     1      13.017  12.042  32.954  1.00  0.00     0.000 C 
BRANCH  16  17
ATOM     17  C   UNL     1      12.478  13.398  33.458  1.00  0.00    -0.000 C 
BRANCH  17  18
ATOM     18  C   UNL     1      11.584  14.123  32.437  1.00  0.00    -0.000 C 
BRANCH  18  19
ATOM     19  C   UNL     1      12.175  14.125  31.020  1.00  0.00    -0.003 C 
ATOM     20  C   UNL     1      11.074  14.066  29.965  1.00  0.00     0.004 C 
ENDBRANCH  18  19
ENDBRANCH  17  18
ENDBRANCH  16  17
ENDBRANCH  15  16
ENDBRANCH  14  15
ENDBRANCH  13  14
ENDBRANCH   2  13
TORSDOF 15
ENDMDL
MODEL 2
REMARK VINA RESULT:     2.044      3.955      9.329
REMARK INTER + INTRA:           4.370
REMARK INTER:                  -1.350
REMARK INTRA:                   5.720
REMARK UNBOUND:                 0.533
REMARK SMILES CCCCCCCCC=CCCCCCCCC(=O)[O-]
REMARK SMILES IDX 10 1 9 2 11 3 12 4 13 5 14 6 15 7 16 8 17 9 18 10 19 11
REMARK SMILES IDX 20 12 8 13 7 14 6 15 5 16 4 17 3 18 2 19 1 20
REMARK H PARENT
REMARK Flexibility Score: inf
ROOT
ATOM      1  C   UNL     1      15.735  12.995  38.337  1.00  0.00    -0.031 C 
ATOM      2  C   UNL     1      14.561  13.537  38.690  1.00  0.00    -0.031 C 
ENDROOT
BRANCH   1   3
ATOM      3  C   UNL     1      15.988  12.502  36.937  1.00  0.00     0.027 C 
BRANCH   3   4
ATOM      4  C   UNL     1      14.852  11.606  36.412  1.00  0.00     0.004 C 
BRANCH   4   5
ATOM      5  C   UNL     1      13.634  12.375  35.859  1.00  0.00     0.000 C 
BRANCH   5   6
ATOM      6  C   UNL     1      13.883  13.864  35.554  1.00  0.00     0.000 C 
BRANCH   6   7
ATOM      7  C   UNL     1      14.198  14.125  34.072  1.00  0.00     0.000 C 
BRANCH   7   8
ATOM      8  C   UNL     1      12.952  14.021  33.178  1.00  0.00     0.006 C 
BRANCH   8   9
ATOM      9  C   UNL     1      12.621  12.575  32.786  1.00  0.00     0.053 C 
BRANCH   9  10
ATOM     10  C   UNL     1      13.757  11.667  33.137  1.00  0.00     0.041 C 
ATOM     11  O   UNL     1      13.535  10.474  33.472  1.00  0.00    -0.550 OA
ATOM     12  O   UNL     1      15.059  12.153  33.143  1.00  0.00    -0.550 OA
ENDBRANCH   9  10
ENDBRANCH   8   9
ENDBRANCH   7   8
ENDBRANCH   6   7
ENDBRANCH   5   6
ENDBRANCH   4   5
ENDBRANCH   3   4
ENDBRANCH   1   3
BRANCH   2  13
ATOM     13  C   UNL     1      14.303  14.019  40.094  1.00  0.00     0.027 C 
BRANCH  13  14
ATOM     14  C   UNL     1      15.593  14.125  40.921  1.00  0.00     0.004 C 
BRANCH  14  15
ATOM     15  C   UNL     1      16.523  12.921  40.703  1.00  0.00     0.000 C 
BRANCH  15  16
ATOM     16  C   UNL     1      17.655  12.905  41.740  1.00  0.00     0.000 C 
BRANCH  16  17
ATOM     17  C   UNL     1      18.590  14.125  41.600  1.00  0.00    -0.000 C 
BRANCH  17  18
ATOM     18  C   UNL     1      19.956  13.934  42.281  1.00  0.00    -0.000 C 
BRANCH  18  19
ATOM     19  C   UNL     1      19.841  13.401  43.715  1.00  0.00    -0.003 C 
ATOM     20  C   UNL     1      18.428  12.907  44.007  1.00  0.00     0.004 C 
ENDBRANCH  18  19
ENDBRANCH  17  18
ENDBRANCH  16  17
ENDBRANCH  15  16
ENDBRANCH  14  15
ENDBRANCH  13  14
ENDBRANCH   2  13
TORSDOF 15
ENDMDL
MODEL 3
REMARK VINA RESULT:     2.212      1.437      2.247
REMARK INTER + INTRA:           4.686
REMARK INTER:                   5.409
REMARK INTRA:                  -0.723
REMARK UNBOUND:                 0.533
REMARK SMILES CCCCCCCCC=CCCCCCCCC(=O)[O-]
REMARK SMILES IDX 10 1 9 2 11 3 12 4 13 5 14 6 15 7 16 8 17 9 18 10 19 11
REMARK SMILES IDX 20 12 8 13 7 14 6 15 5 16 4 17 3 18 2 19 1 20
REMARK H PARENT
REMARK Flexibility Score: inf
ROOT
ATOM      1  C   UNL     1      13.631  12.231  35.883  1.00  0.00    -0.031 C 
ATOM      2  C   UNL     1      14.607  12.595  35.039  1.00  0.00    -0.031 C 
ENDROOT
BRANCH   1   3
ATOM      3  C   UNL     1      13.821  12.272  37.376  1.00  0.00     0.027 C 
BRANCH   3   4
ATOM      4  C   UNL     1      14.359  13.628  37.865  1.00  0.00     0.004 C 
BRANCH   4   5
ATOM      5  C   UNL     1      15.480  13.529  38.921  1.00  0.00     0.000 C 
BRANCH   5   6
ATOM      6  C   UNL     1      15.137  14.123  40.299  1.00  0.00     0.000 C 
BRANCH   6   7
ATOM      7  C   UNL     1      16.328  14.099  41.272  1.00  0.00     0.000 C 
BRANCH   7   8
ATOM      8  C   UNL     1      17.192  12.838  41.114  1.00  0.00     0.006 C 
BRANCH   8   9
ATOM      9  C   UNL     1      18.661  13.075  41.486  1.00  0.00     0.053 C 
BRANCH   9  10
ATOM     10  C   UNL     1      18.832  13.061  42.972  1.00  0.00     0.041 C 
ATOM     11  O   UNL     1      18.273  12.173  43.667  1.00  0.00    -0.550 OA
ATOM     12  O   UNL     1      19.568  14.062  43.596  1.00  0.00    -0.550 OA
ENDBRANCH   9  10
ENDBRANCH   8   9
ENDBRANCH   7   8
ENDBRANCH   6   7
ENDBRANCH   5   6
ENDBRANCH   4   5
ENDBRANCH   3   4
ENDBRANCH   1   3
BRANCH   2  13
ATOM     13  C   UNL     1      14.421  12.542  33.546  1.00  0.00     0.027 C 
BRANCH  13  14
ATOM     14  C   UNL     1      13.701  13.785  33.002  1.00  0.00     0.004 C 
BRANCH  14  15
ATOM     15  C   UNL     1      12.432  13.423  32.216  1.00  0.00     0.000 C 
BRANCH  15  16
ATOM     16  C   UNL     1      12.410  14.125  30.850  1.00  0.00     0.000 C 
BRANCH  16  17
ATOM     17  C   UNL     1      11.018  14.064  30.187  1.00  0.00    -0.000 C 
BRANCH  17  18
ATOM     18  C   UNL     1      10.948  13.099  28.991  1.00  0.00    -0.000 C 
BRANCH  18  19
ATOM     19  C   UNL     1      11.601  11.740  29.279  1.00  0.00    -0.003 C 
ATOM     20  C   UNL     1      12.412  11.253  28.082  1.00  0.00     0.004 C 
ENDBRANCH  18  19
ENDBRANCH  17  18
ENDBRANCH  16  17
ENDBRANCH  15  16
ENDBRANCH  14  15
ENDBRANCH  13  14
ENDBRANCH   2  13
TORSDOF 15
ENDMDL
MODEL 4
REMARK VINA RESULT:     2.497      5.439     10.601
REMARK INTER + INTRA:           5.220
REMARK INTER:                   6.061
REMARK INTRA:                  -0.841
REMARK UNBOUND:                 0.533
REMARK SMILES CCCCCCCCC=CCCCCCCCC(=O)[O-]
REMARK SMILES IDX 10 1 9 2 11 3 12 4 13 5 14 6 15 7 16 8 17 9 18 10 19 11
REMARK SMILES IDX 20 12 8 13 7 14 6 15 5 16 4 17 3 18 2 19 1 20
REMARK H PARENT
REMARK Flexibility Score: inf
ROOT
ATOM      1  C   UNL     1      14.191  11.876  35.234  1.00  0.00    -0.031 C 
ATOM      2  C   UNL     1      15.046  12.488  36.066  1.00  0.00    -0.031 C 
ENDROOT
BRANCH   1   3
ATOM      3  C   UNL     1      14.364  11.937  33.740  1.00  0.00     0.027 C 
BRANCH   3   4
ATOM      4  C   UNL     1      14.000  13.315  33.158  1.00  0.00     0.004 C 
BRANCH   4   5
ATOM      5  C   UNL     1      12.681  13.908  33.694  1.00  0.00     0.000 C 
BRANCH   5   6
ATOM      6  C   UNL     1      11.582  14.122  32.637  1.00  0.00     0.000 C 
BRANCH   6   7
ATOM      7  C   UNL     1      12.101  13.964  31.198  1.00  0.00     0.000 C 
BRANCH   7   8
ATOM      8  C   UNL     1      11.002  13.514  30.222  1.00  0.00     0.006 C 
BRANCH   8   9
ATOM      9  C   UNL     1      11.537  13.244  28.810  1.00  0.00     0.053 C 
BRANCH   9  10
ATOM     10  C   UNL     1      11.735  11.776  28.598  1.00  0.00     0.041 C 
ATOM     11  O   UNL     1      12.417  11.361  27.625  1.00  0.00    -0.550 OA
ATOM     12  O   UNL     1      11.124  10.863  29.450  1.00  0.00    -0.550 OA
ENDBRANCH   9  10
ENDBRANCH   8   9
ENDBRANCH   7   8
ENDBRANCH   6   7
ENDBRANCH   5   6
ENDBRANCH   4   5
ENDBRANCH   3   4
ENDBRANCH   1   3
BRANCH   2  13
ATOM     13  C   UNL     1      14.866  12.438  37.560  1.00  0.00     0.027 C 
BRANCH  13  14
ATOM     14  C   UNL     1      13.958  13.563  38.077  1.00  0.00     0.004 C 
BRANCH  14  15
ATOM     15  C   UNL     1      14.433  14.117  39.429  1.00  0.00     0.000 C 
BRANCH  15  16
ATOM     16  C   UNL     1      15.928  13.842  39.644  1.00  0.00     0.000 C 
BRANCH  16  17
ATOM     17  C   UNL     1      16.173  12.776  40.733  1.00  0.00    -0.000 C 
BRANCH  17  18
ATOM     18  C   UNL     1      17.652  12.633  41.133  1.00  0.00    -0.000 C 
BRANCH  18  19
ATOM     19  C   UNL     1      18.360  13.985  41.298  1.00  0.00    -0.003 C 
ATOM     20  C   UNL     1      19.413  13.923  42.401  1.00  0.00     0.004 C 
ENDBRANCH  18  19
ENDBRANCH  17  18
ENDBRANCH  16  17
ENDBRANCH  15  16
ENDBRANCH  14  15
ENDBRANCH  13  14
ENDBRANCH   2  13
TORSDOF 15
ENDMDL
