MODEL 1
REMARK VINA RESULT:    -3.377      0.000      0.000
REMARK INTER + INTRA:          -5.100
REMARK INTER:                  -4.561
REMARK INTRA:                  -0.539
REMARK UNBOUND:                -0.539
REMARK SMILES [NH3+]CCCC[C@H]([NH3+])C(=O)[O-]
REMARK SMILES IDX 4 1 3 2 2 3 1 4 5 8 6 9 7 10 8 14 9 15 10 16
REMARK H PARENT 1 5 1 6 1 7 7 11 7 12 7 13
REMARK Flexibility Score: inf
ROOT
ATOM      1  C   UNL     1     108.509 101.300 100.100  1.00  0.00     0.012 C 
ENDROOT
BRANCH   1   2
ATOM      2  C   UNL     1     108.757  99.992 100.869  1.00  0.00     0.061 C 
BRANCH   2   3
ATOM      3  C   UNL     1     109.899 100.110 101.893  1.00  0.00     0.258 C 
BRANCH   3   4
ATOM      4  N   UNL     1     109.416 100.694 103.144  1.00  0.00    -0.358 N 
ATOM      5  H   UNL     1     109.404 101.738 103.073  1.00  0.00     0.344 HD
ATOM      6  H   UNL     1     108.454 100.343 103.357  1.00  0.00     0.344 HD
ATOM      7  H   UNL     1     110.058 100.416 103.921  1.00  0.00     0.344 HD
ENDBRANCH   3   4
ENDBRANCH   2   3
ENDBRANCH   1   2
BRANCH   1   8
ATOM      8  C   UNL     1     107.035 101.736 100.135  1.00  0.00     0.072 C 
BRANCH   8   9
ATOM      9  C   UNL     1     106.260 101.119 101.322  1.00  0.00     0.227 C 
BRANCH   9  10
ATOM     10  N   UNL     1     104.948 100.603 100.906  1.00  0.00    -0.350 N 
ATOM     11  H   UNL     1     104.663 101.029  99.997  1.00  0.00     0.345 HD
ATOM     12  H   UNL     1     104.221 100.809 101.630  1.00  0.00     0.345 HD
ATOM     13  H   UNL     1     105.002  99.567 100.763  1.00  0.00     0.345 HD
ENDBRANCH   9  10
BRANCH   9  14
ATOM     14  C   UNL     1     106.086 102.154 102.401  1.00  0.00     0.099 C 
ATOM     15  O   UNL     1     104.939 102.593 102.678  1.00  0.00    -0.544 OA
ATOM     16  O   UNL     1     107.187 102.616 103.112  1.00  0.00    -0.544 OA
ENDBRANCH   9  14
ENDBRANCH   8   9
ENDBRANCH   1   8
TORSDOF 7
ENDMDL
MODEL 2
REMARK VINA RESULT:    -3.364     12.231     13.201
REMARK INTER + INTRA:          -5.083
REMARK INTER:                  -4.542
REMARK INTRA:                  -0.540
REMARK UNBOUND:                -0.539
REMARK SMILES [NH3+]CCCC[C@H]([NH3+])C(=O)[O-]
REMARK SMILES IDX 4 1 3 2 2 3 1 4 5 8 6 9 7 10 8 14 9 15 10 16
REMARK H PARENT 1 5 1 6 1 7 7 11 7 12 7 13
REMARK Flexibility Score: inf
ROOT
ATOM      1  C   UNL     1     114.872 112.010 100.050  1.00  0.00     0.012 C 
ENDROOT
BRANCH   1   2
ATOM      2  C   UNL     1     115.806 112.997 100.770  1.00  0.00     0.061 C 
BRANCH   2   3
ATOM      3  C   UNL     1     115.068 113.876 101.794  1.00  0.00     0.258 C 
BRANCH   3   4
ATOM      4  N   UNL     1     115.082 113.255 103.118  1.00  0.00    -0.358 N 
ATOM      5  H   UNL     1     114.465 113.790 103.773  1.00  0.00     0.344 HD
ATOM      6  H   UNL     1     114.753 112.263 103.054  1.00  0.00     0.344 HD
ATOM      7  H   UNL     1     116.058 113.265 103.491  1.00  0.00     0.344 HD
ENDBRANCH   3   4
ENDBRANCH   2   3
ENDBRANCH   1   2
BRANCH   1   8
ATOM      8  C   UNL     1     115.407 110.568 100.070  1.00  0.00     0.072 C 
BRANCH   8   9
ATOM      9  C   UNL     1     116.271 110.271 101.316  1.00  0.00     0.227 C 
BRANCH   9  10
ATOM     10  N   UNL     1     117.432 109.431 100.988  1.00  0.00    -0.350 N 
ATOM     11  H   UNL     1     117.547 108.677 101.701  1.00  0.00     0.345 HD
ATOM     12  H   UNL     1     118.306 110.006 100.944  1.00  0.00     0.345 HD
ATOM     13  H   UNL     1     117.284 108.965 100.062  1.00  0.00     0.345 HD
ENDBRANCH   9  10
BRANCH   9  14
ATOM     14  C   UNL     1     115.427 109.593 102.362  1.00  0.00     0.099 C 
ATOM     15  O   UNL     1     114.681 110.275 103.114  1.00  0.00    -0.544 OA
ATOM     16  O   UNL     1     115.449 108.209 102.491  1.00  0.00    -0.544 OA
ENDBRANCH   9  14
ENDBRANCH   8   9
ENDBRANCH   1   8
TORSDOF 7
ENDMDL
MODEL 3
REMARK VINA RESULT:    -3.357     12.128     13.173
REMARK INTER + INTRA:          -5.073
REMARK INTER:                  -4.519
REMARK INTRA:                  -0.554
REMARK UNBOUND:                -0.539
REMARK SMILES [NH3+]CCCC[C@H]([NH3+])C(=O)[O-]
REMARK SMILES IDX 4 1 3 2 2 3 1 4 5 8 6 9 7 10 8 14 9 15 10 16
REMARK H PARENT 1 5 1 6 1 7 7 11 7 12 7 13
REMARK Flexibility Score: inf
ROOT
ATOM      1  C   UNL     1     102.478 112.363 100.089  1.00  0.00     0.012 C 
ENDROOT
BRANCH   1   2
ATOM      2  C   UNL     1     101.158 112.768 100.765  1.00  0.00     0.061 C 
BRANCH   2   3
ATOM      3  C   UNL     1     100.718 111.777 101.856  1.00  0.00     0.258 C 
BRANCH   3   4
ATOM      4  N   UNL     1     101.866 111.035 102.377  1.00  0.00    -0.358 N 
ATOM      5  H   UNL     1     102.550 110.844 101.609  1.00  0.00     0.344 HD
ATOM      6  H   UNL     1     102.332 111.581 103.138  1.00  0.00     0.344 HD
ATOM      7  H   UNL     1     101.535 110.124 102.768  1.00  0.00     0.344 HD
ENDBRANCH   3   4
ENDBRANCH   2   3
ENDBRANCH   1   2
BRANCH   1   8
ATOM      8  C   UNL     1     103.525 113.488 100.116  1.00  0.00     0.072 C 
BRANCH   8   9
ATOM      9  C   UNL     1     103.369 114.418 101.342  1.00  0.00     0.227 C 
BRANCH   9  10
ATOM     10  N   UNL     1     103.592 115.827 100.989  1.00  0.00    -0.350 N 
ATOM     11  H   UNL     1     102.679 116.323 100.883  1.00  0.00     0.345 HD
ATOM     12  H   UNL     1     104.137 115.906 100.099  1.00  0.00     0.345 HD
ATOM     13  H   UNL     1     104.121 116.307 101.755  1.00  0.00     0.345 HD
ENDBRANCH   9  10
BRANCH   9  14
ATOM     14  C   UNL     1     104.336 113.998 102.416  1.00  0.00     0.099 C 
ATOM     15  O   UNL     1     104.064 113.025 103.168  1.00  0.00    -0.544 OA
ATOM     16  O   UNL     1     105.543 114.668 102.573  1.00  0.00    -0.544 OA
ENDBRANCH   9  14
ENDBRANCH   8   9
ENDBRANCH   1   8
TORSDOF 7
ENDMDL
MODEL 4
REMARK VINA RESULT:    -3.333     12.057     12.631
REMARK INTER + INTRA:          -5.041
REMARK INTER:                  -4.794
REMARK INTRA:                  -0.246
REMARK UNBOUND:                -0.539
REMARK SMILES [NH3+]CCCC[C@H]([NH3+])C(=O)[O-]
REMARK SMILES IDX 4 1 3 2 2 3 1 4 5 8 6 9 7 10 8 14 9 15 10 16
REMARK H PARENT 1 5 1 6 1 7 7 11 7 12 7 13
REMARK Flexibility Score: inf
ROOT
ATOM      1  C   UNL     1     100.991 112.648 101.094  1.00  0.00     0.012 C 
ENDROOT
BRANCH   1   2
ATOM      2  C   UNL     1     102.111 112.313 100.096  1.00  0.00     0.061 C 
BRANCH   2   3
ATOM      3  C   UNL     1     103.301 113.283 100.188  1.00  0.00     0.258 C 
BRANCH   3   4
ATOM      4  N   UNL     1     102.939 114.479 100.948  1.00  0.00    -0.358 N 
ATOM      5  H   UNL     1     103.802 114.969 101.280  1.00  0.00     0.344 HD
ATOM      6  H   UNL     1     102.373 115.126 100.351  1.00  0.00     0.344 HD
ATOM      7  H   UNL     1     102.370 114.198 101.778  1.00  0.00     0.344 HD
ENDBRANCH   3   4
ENDBRANCH   2   3
ENDBRANCH   1   2
BRANCH   1   8
ATOM      8  C   UNL     1     100.907 111.637 102.249  1.00  0.00     0.072 C 
BRANCH   8   9
ATOM      9  C   UNL     1     101.768 112.048 103.465  1.00  0.00     0.227 C 
BRANCH   9  10
ATOM     10  N   UNL     1     103.107 111.443 103.414  1.00  0.00    -0.350 N 
ATOM     11  H   UNL     1     103.642 111.817 102.600  1.00  0.00     0.345 HD
ATOM     12  H   UNL     1     103.041 110.402 103.340  1.00  0.00     0.345 HD
ATOM     13  H   UNL     1     103.642 111.690 104.280  1.00  0.00     0.345 HD
ENDBRANCH   9  10
BRANCH   9  14
ATOM     14  C   UNL     1     101.069 111.644 104.735  1.00  0.00     0.099 C 
ATOM     15  O   UNL     1      99.812 111.587 104.776  1.00  0.00    -0.544 OA
ATOM     16  O   UNL     1     101.807 111.310 105.865  1.00  0.00    -0.544 OA
ENDBRANCH   9  14
ENDBRANCH   8   9
ENDBRANCH   1   8
TORSDOF 7
ENDMDL
MODEL 5
REMARK VINA RESULT:    -3.283      2.493      4.124
REMARK INTER + INTRA:          -4.973
REMARK INTER:                  -4.760
REMARK INTRA:                  -0.213
REMARK UNBOUND:                -0.539
REMARK SMILES [NH3+]CCCC[C@H]([NH3+])C(=O)[O-]
REMARK SMILES IDX 4 1 3 2 2 3 1 4 5 8 6 9 7 10 8 14 9 15 10 16
REMARK H PARENT 1 5 1 6 1 7 7 11 7 12 7 13
REMARK Flexibility Score: inf
ROOT
ATOM      1  C   UNL     1     108.997  99.966 101.096  1.00  0.00     0.012 C 
ENDROOT
BRANCH   1   2
ATOM      2  C   UNL     1     108.761 101.094 100.079  1.00  0.00     0.061 C 
BRANCH   2   3
ATOM      3  C   UNL     1     107.346 101.690 100.168  1.00  0.00     0.258 C 
BRANCH   3   4
ATOM      4  N   UNL     1     106.432 100.764 100.835  1.00  0.00    -0.358 N 
ATOM      5  H   UNL     1     106.499  99.815 100.398  1.00  0.00     0.344 HD
ATOM      6  H   UNL     1     106.665 100.701 101.853  1.00  0.00     0.344 HD
ATOM      7  H   UNL     1     105.454 101.115 100.732  1.00  0.00     0.344 HD
ENDBRANCH   3   4
ENDBRANCH   2   3
ENDBRANCH   1   2
BRANCH   1   8
ATOM      8  C   UNL     1     110.038 100.341 102.164  1.00  0.00     0.072 C 
BRANCH   8   9
ATOM      9  C   UNL     1     109.460 101.264 103.261  1.00  0.00     0.227 C 
BRANCH   9  10
ATOM     10  N   UNL     1     109.944 102.645 103.123  1.00  0.00    -0.350 N 
ATOM     11  H   UNL     1     110.926 102.721 103.470  1.00  0.00     0.345 HD
ATOM     12  H   UNL     1     109.334 103.308 103.657  1.00  0.00     0.345 HD
ATOM     13  H   UNL     1     109.946 102.922 102.114  1.00  0.00     0.345 HD
ENDBRANCH   9  10
BRANCH   9  14
ATOM     14  C   UNL     1     109.829 100.724 104.617  1.00  0.00     0.099 C 
ATOM     15  O   UNL     1     109.598 101.402 105.653  1.00  0.00    -0.544 OA
ATOM     16  O   UNL     1     110.408  99.466 104.736  1.00  0.00    -0.544 OA
ENDBRANCH   9  14
ENDBRANCH   8   9
ENDBRANCH   1   8
TORSDOF 7
ENDMDL
MODEL 6
REMARK VINA RESULT:    -3.281      1.809      2.081
REMARK INTER + INTRA:          -4.970
REMARK INTER:                  -4.784
REMARK INTRA:                  -0.186
REMARK UNBOUND:                -0.539
REMARK SMILES [NH3+]CCCC[C@H]([NH3+])C(=O)[O-]
REMARK SMILES IDX 4 1 3 2 2 3 1 4 5 8 6 9 7 10 8 14 9 15 10 16
REMARK H PARENT 1 5 1 6 1 7 7 11 7 12 7 13
REMARK Flexibility Score: inf
ROOT
ATOM      1  C   UNL     1     109.030 100.608 100.636  1.00  0.00     0.012 C 
ENDROOT
BRANCH   1   2
ATOM      2  C   UNL     1     109.783 100.013 101.838  1.00  0.00     0.061 C 
BRANCH   2   3
ATOM      3  C   UNL     1     110.004 101.034 102.966  1.00  0.00     0.258 C 
BRANCH   3   4
ATOM      4  N   UNL     1     109.027 100.844 104.038  1.00  0.00    -0.358 N 
ATOM      5  H   UNL     1     108.706  99.848 104.060  1.00  0.00     0.344 HD
ATOM      6  H   UNL     1     109.450 101.100 104.960  1.00  0.00     0.344 HD
ATOM      7  H   UNL     1     108.202 101.461 103.862  1.00  0.00     0.344 HD
ENDBRANCH   3   4
ENDBRANCH   2   3
ENDBRANCH   1   2
BRANCH   1   8
ATOM      8  C   UNL     1     107.511 100.386 100.723  1.00  0.00     0.072 C 
BRANCH   8   9
ATOM      9  C   UNL     1     106.703 101.660 100.385  1.00  0.00     0.227 C 
BRANCH   9  10
ATOM     10  N   UNL     1     107.286 102.857 101.008  1.00  0.00    -0.350 N 
ATOM     11  H   UNL     1     108.308 102.718 101.171  1.00  0.00     0.345 HD
ATOM     12  H   UNL     1     106.814 103.069 101.918  1.00  0.00     0.345 HD
ATOM     13  H   UNL     1     107.179 103.679 100.369  1.00  0.00     0.345 HD
ENDBRANCH   9  10
BRANCH   9  14
ATOM     14  C   UNL     1     105.279 101.486 100.839  1.00  0.00     0.099 C 
ATOM     15  O   UNL     1     104.819 100.333 101.054  1.00  0.00    -0.544 OA
ATOM     16  O   UNL     1     104.468 102.596 101.044  1.00  0.00    -0.544 OA
ENDBRANCH   9  14
ENDBRANCH   8   9
ENDBRANCH   1   8
TORSDOF 7
ENDMDL
MODEL 7
REMARK VINA RESULT:    -3.275     12.630     13.475
REMARK INTER + INTRA:          -4.963
REMARK INTER:                  -4.459
REMARK INTRA:                  -0.504
REMARK UNBOUND:                -0.539
REMARK SMILES [NH3+]CCCC[C@H]([NH3+])C(=O)[O-]
REMARK SMILES IDX 4 1 3 2 2 3 1 4 5 8 6 9 7 10 8 14 9 15 10 16
REMARK H PARENT 1 5 1 6 1 7 7 11 7 12 7 13
REMARK Flexibility Score: inf
ROOT
ATOM      1  C   UNL     1     115.863 113.038 100.653  1.00  0.00     0.012 C 
ENDROOT
BRANCH   1   2
ATOM      2  C   UNL     1     115.524 114.005 101.800  1.00  0.00     0.061 C 
BRANCH   2   3
ATOM      3  C   UNL     1     114.473 113.435 102.768  1.00  0.00     0.258 C 
BRANCH   3   4
ATOM      4  N   UNL     1     115.116 112.790 103.913  1.00  0.00    -0.358 N 
ATOM      5  H   UNL     1     114.527 111.998 104.257  1.00  0.00     0.344 HD
ATOM      6  H   UNL     1     116.062 112.435 103.641  1.00  0.00     0.344 HD
ATOM      7  H   UNL     1     115.225 113.489 104.682  1.00  0.00     0.344 HD
ENDBRANCH   3   4
ENDBRANCH   2   3
ENDBRANCH   1   2
BRANCH   1   8
ATOM      8  C   UNL     1     114.701 112.086 100.320  1.00  0.00     0.072 C 
BRANCH   8   9
ATOM      9  C   UNL     1     115.174 110.638 100.059  1.00  0.00     0.227 C 
BRANCH   9  10
ATOM     10  N   UNL     1     114.042 109.719  99.878  1.00  0.00    -0.350 N 
ATOM     11  H   UNL     1     114.191 108.848 100.435  1.00  0.00     0.345 HD
ATOM     12  H   UNL     1     113.922 109.471  98.868  1.00  0.00     0.345 HD
ATOM     13  H   UNL     1     113.161 110.166 100.225  1.00  0.00     0.345 HD
ENDBRANCH   9  10
BRANCH   9  14
ATOM     14  C   UNL     1     116.033 110.176 101.206  1.00  0.00     0.099 C 
ATOM     15  O   UNL     1     117.238 109.865 101.010  1.00  0.00    -0.544 OA
ATOM     16  O   UNL     1     115.508 110.108 102.491  1.00  0.00    -0.544 OA
ENDBRANCH   9  14
ENDBRANCH   8   9
ENDBRANCH   1   8
TORSDOF 7
ENDMDL
MODEL 8
REMARK VINA RESULT:    -3.271     11.109     12.266
REMARK INTER + INTRA:          -4.957
REMARK INTER:                  -4.390
REMARK INTRA:                  -0.567
REMARK UNBOUND:                -0.539
REMARK SMILES [NH3+]CCCC[C@H]([NH3+])C(=O)[O-]
REMARK SMILES IDX 4 1 3 2 2 3 1 4 5 8 6 9 7 10 8 14 9 15 10 16
REMARK H PARENT 1 5 1 6 1 7 7 11 7 12 7 13
REMARK Flexibility Score: inf
ROOT
ATOM      1  C   UNL     1     101.968 113.502 100.756  1.00  0.00     0.012 C 
ENDROOT
BRANCH   1   2
ATOM      2  C   UNL     1     103.328 114.210 100.645  1.00  0.00     0.061 C 
BRANCH   2   3
ATOM      3  C   UNL     1     103.737 114.921 101.946  1.00  0.00     0.258 C 
BRANCH   3   4
ATOM      4  N   UNL     1     104.745 114.145 102.667  1.00  0.00    -0.358 N 
ATOM      5  H   UNL     1     104.478 113.133 102.684  1.00  0.00     0.344 HD
ATOM      6  H   UNL     1     105.680 114.256 102.209  1.00  0.00     0.344 HD
ATOM      7  H   UNL     1     104.807 114.494 103.650  1.00  0.00     0.344 HD
ENDBRANCH   3   4
ENDBRANCH   2   3
ENDBRANCH   1   2
BRANCH   1   8
ATOM      8  C   UNL     1     102.055 112.001 100.434  1.00  0.00     0.072 C 
BRANCH   8   9
ATOM      9  C   UNL     1     102.894 111.217 101.470  1.00  0.00     0.227 C 
BRANCH   9  10
ATOM     10  N   UNL     1     103.025 109.800 101.105  1.00  0.00    -0.350 N 
ATOM     11  H   UNL     1     104.026 109.504 101.157  1.00  0.00     0.345 HD
ATOM     12  H   UNL     1     102.662 109.629 100.139  1.00  0.00     0.345 HD
ATOM     13  H   UNL     1     102.489 109.207 101.781  1.00  0.00     0.345 HD
ENDBRANCH   9  10
BRANCH   9  14
ATOM     14  C   UNL     1     102.256 111.341 102.828  1.00  0.00     0.099 C 
ATOM     15  O   UNL     1     101.118 110.844 103.041  1.00  0.00    -0.544 OA
ATOM     16  O   UNL     1     102.926 111.985 103.861  1.00  0.00    -0.544 OA
ENDBRANCH   9  14
ENDBRANCH   8   9
ENDBRANCH   1   8
TORSDOF 7
ENDMDL
MODEL 9
REMARK VINA RESULT:    -3.262     12.301     12.851
REMARK INTER + INTRA:          -4.945
REMARK INTER:                  -4.387
REMARK INTRA:                  -0.558
REMARK UNBOUND:                -0.539
REMARK SMILES [NH3+]CCCC[C@H]([NH3+])C(=O)[O-]
REMARK SMILES IDX 4 1 3 2 2 3 1 4 5 8 6 9 7 10 8 14 9 15 10 16
REMARK H PARENT 1 5 1 6 1 7 7 11 7 12 7 13
REMARK Flexibility Score: inf
ROOT
ATOM      1  C   UNL     1     116.173 111.734 100.709  1.00  0.00     0.012 C 
ENDROOT
BRANCH   1   2
ATOM      2  C   UNL     1     116.127 110.201 100.601  1.00  0.00     0.061 C 
BRANCH   2   3
ATOM      3  C   UNL     1     116.543 109.500 101.904  1.00  0.00     0.258 C 
BRANCH   3   4
ATOM      4  N   UNL     1     115.368 109.062 102.657  1.00  0.00    -0.358 N 
ATOM      5  H   UNL     1     114.512 109.550 102.306  1.00  0.00     0.344 HD
ATOM      6  H   UNL     1     115.247 108.027 102.565  1.00  0.00     0.344 HD
ATOM      7  H   UNL     1     115.501 109.298 103.666  1.00  0.00     0.344 HD
ENDBRANCH   3   4
ENDBRANCH   2   3
ENDBRANCH   1   2
BRANCH   1   8
ATOM      8  C   UNL     1     114.828 112.392 100.357  1.00  0.00     0.072 C 
BRANCH   8   9
ATOM      9  C   UNL     1     113.742 112.137 101.427  1.00  0.00     0.227 C 
BRANCH   9  10
ATOM     10  N   UNL     1     112.464 112.767 101.068  1.00  0.00    -0.350 N 
ATOM     11  H   UNL     1     112.088 113.310 101.878  1.00  0.00     0.345 HD
ATOM     12  H   UNL     1     111.763 112.047 100.776  1.00  0.00     0.345 HD
ATOM     13  H   UNL     1     112.608 113.441 100.280  1.00  0.00     0.345 HD
ENDBRANCH   9  10
BRANCH   9  14
ATOM     14  C   UNL     1     114.216 112.660 102.757  1.00  0.00     0.099 C 
ATOM     15  O   UNL     1     114.326 113.900 102.948  1.00  0.00    -0.544 OA
ATOM     16  O   UNL     1     114.517 111.779 103.789  1.00  0.00    -0.544 OA
ENDBRANCH   9  14
ENDBRANCH   8   9
ENDBRANCH   1   8
TORSDOF 7
ENDMDL
