MODEL 1
REMARK VINA RESULT:    -3.315      0.000      0.000
REMARK INTER + INTRA:          -3.723
REMARK INTER:                  -3.703
REMARK INTRA:                  -0.020
REMARK UNBOUND:                -0.020
REMARK SMILES CCCC(=O)[O-]
REMARK SMILES IDX 3 1 4 2 5 3 6 4 2 5 1 6
REMARK H PARENT
REMARK Flexibility Score: inf
ROOT
ATOM      1  C   UNL     1      28.099  37.606  -0.990  1.00  0.00     0.052 C 
ENDROOT
BRANCH   1   2
ATOM      2  C   UNL     1      27.729  36.163  -1.121  1.00  0.00     0.041 C 
ATOM      3  O   UNL     1      27.402  35.498  -0.104  1.00  0.00    -0.550 OA
ATOM      4  O   UNL     1      27.697  35.565  -2.375  1.00  0.00    -0.550 OA
ENDBRANCH   1   2
BRANCH   1   5
ATOM      5  C   UNL     1      27.271  38.274   0.111  1.00  0.00     0.003 C 
ATOM      6  C   UNL     1      28.122  38.560   1.344  1.00  0.00     0.004 C 
ENDBRANCH   1   5
TORSDOF 2
ENDMDL
MODEL 2
REMARK VINA RESULT:    -3.272      2.308      3.424
REMARK INTER + INTRA:          -3.674
REMARK INTER:                  -3.668
REMARK INTRA:                  -0.006
REMARK UNBOUND:                -0.020
REMARK SMILES CCCC(=O)[O-]
REMARK SMILES IDX 3 1 4 2 5 3 6 4 2 5 1 6
REMARK H PARENT
REMARK Flexibility Score: inf
ROOT
ATOM      1  C   UNL     1      28.077  37.587  -0.997  1.00  0.00     0.052 C 
ENDROOT
BRANCH   1   2
ATOM      2  C   UNL     1      27.391  38.385   0.067  1.00  0.00     0.041 C 
ATOM      3  O   UNL     1      26.251  38.874  -0.144  1.00  0.00    -0.550 OA
ATOM      4  O   UNL     1      27.991  38.547   1.309  1.00  0.00    -0.550 OA
ENDBRANCH   1   2
BRANCH   1   5
ATOM      5  C   UNL     1      27.434  36.203  -1.126  1.00  0.00     0.003 C 
ATOM      6  C   UNL     1      28.124  35.375  -2.206  1.00  0.00     0.004 C 
ENDBRANCH   1   5
TORSDOF 2
ENDMDL
MODEL 3
REMARK VINA RESULT:    -2.849     18.476     18.828
REMARK INTER + INTRA:          -3.202
REMARK INTER:                  -3.164
REMARK INTRA:                  -0.038
REMARK UNBOUND:                -0.020
REMARK SMILES CCCC(=O)[O-]
REMARK SMILES IDX 3 1 4 2 5 3 6 4 2 5 1 6
REMARK H PARENT
REMARK Flexibility Score: inf
ROOT
ATOM      1  C   UNL     1      10.643  32.427   3.426  1.00  0.00     0.052 C 
ENDROOT
BRANCH   1   2
ATOM      2  C   UNL     1      10.297  32.039   2.023  1.00  0.00     0.041 C 
ATOM      3  O   UNL     1      11.067  32.343   1.075  1.00  0.00    -0.550 OA
ATOM      4  O   UNL     1       9.150  31.298   1.769  1.00  0.00    -0.550 OA
ENDBRANCH   1   2
BRANCH   1   5
ATOM      5  C   UNL     1       9.988  31.467   4.424  1.00  0.00     0.003 C 
ATOM      6  C   UNL     1       8.938  32.183   5.269  1.00  0.00     0.004 C 
ENDBRANCH   1   5
TORSDOF 2
ENDMDL
MODEL 4
REMARK VINA RESULT:    -2.763     19.922     20.335
REMARK INTER + INTRA:          -3.106
REMARK INTER:                  -3.090
REMARK INTRA:                  -0.016
REMARK UNBOUND:                -0.020
REMARK SMILES CCCC(=O)[O-]
REMARK SMILES IDX 3 1 4 2 5 3 6 4 2 5 1 6
REMARK H PARENT
REMARK Flexibility Score: inf
ROOT
ATOM      1  C   UNL     1       8.608  43.209  -1.886  1.00  0.00     0.052 C 
ENDROOT
BRANCH   1   2
ATOM      2  C   UNL     1       8.552  42.058  -2.840  1.00  0.00     0.041 C 
ATOM      3  O   UNL     1       7.929  41.009  -2.531  1.00  0.00    -0.550 OA
ATOM      4  O   UNL     1       9.145  42.163  -4.092  1.00  0.00    -0.550 OA
ENDBRANCH   1   2
BRANCH   1   5
ATOM      5  C   UNL     1       8.870  44.517  -2.639  1.00  0.00     0.003 C 
ATOM      6  C   UNL     1       7.875  45.597  -2.228  1.00  0.00     0.004 C 
ENDBRANCH   1   5
TORSDOF 2
ENDMDL
MODEL 5
REMARK VINA RESULT:    -2.694     18.941     19.342
REMARK INTER + INTRA:          -3.029
REMARK INTER:                  -2.978
REMARK INTRA:                  -0.051
REMARK UNBOUND:                -0.020
REMARK SMILES CCCC(=O)[O-]
REMARK SMILES IDX 3 1 4 2 5 3 6 4 2 5 1 6
REMARK H PARENT
REMARK Flexibility Score: inf
ROOT
ATOM      1  C   UNL     1       8.928  31.665   3.907  1.00  0.00     0.052 C 
ENDROOT
BRANCH   1   2
ATOM      2  C   UNL     1      10.313  32.039   3.484  1.00  0.00     0.041 C 
ATOM      3  O   UNL     1      10.917  31.354   2.617  1.00  0.00    -0.550 OA
ATOM      4  O   UNL     1      10.919  33.173   4.010  1.00  0.00    -0.550 OA
ENDBRANCH   1   2
BRANCH   1   5
ATOM      5  C   UNL     1       8.698  32.035   5.375  1.00  0.00     0.003 C 
ATOM      6  C   UNL     1       9.210  30.939   6.306  1.00  0.00     0.004 C 
ENDBRANCH   1   5
TORSDOF 2
ENDMDL
MODEL 6
REMARK VINA RESULT:    -2.683     12.311     13.128
REMARK INTER + INTRA:          -3.016
REMARK INTER:                  -3.005
REMARK INTRA:                  -0.011
REMARK UNBOUND:                -0.020
REMARK SMILES CCCC(=O)[O-]
REMARK SMILES IDX 3 1 4 2 5 3 6 4 2 5 1 6
REMARK H PARENT
REMARK Flexibility Score: inf
ROOT
ATOM      1  C   UNL     1      24.698  33.239  10.768  1.00  0.00     0.052 C 
ENDROOT
BRANCH   1   2
ATOM      2  C   UNL     1      23.546  33.927  11.429  1.00  0.00     0.041 C 
ATOM      3  O   UNL     1      22.807  34.702  10.768  1.00  0.00    -0.550 OA
ATOM      4  O   UNL     1      23.257  33.672  12.764  1.00  0.00    -0.550 OA
ENDBRANCH   1   2
BRANCH   1   5
ATOM      5  C   UNL     1      24.460  31.727  10.714  1.00  0.00     0.003 C 
ATOM      6  C   UNL     1      24.712  31.180   9.313  1.00  0.00     0.004 C 
ENDBRANCH   1   5
TORSDOF 2
ENDMDL
MODEL 7
REMARK VINA RESULT:    -2.641     12.265     12.819
REMARK INTER + INTRA:          -2.970
REMARK INTER:                  -2.931
REMARK INTRA:                  -0.038
REMARK UNBOUND:                -0.020
REMARK SMILES CCCC(=O)[O-]
REMARK SMILES IDX 3 1 4 2 5 3 6 4 2 5 1 6
REMARK H PARENT
REMARK Flexibility Score: inf
ROOT
ATOM      1  C   UNL     1      25.835  32.560  11.909  1.00  0.00     0.052 C 
ENDROOT
BRANCH   1   2
ATOM      2  C   UNL     1      24.885  32.704  10.763  1.00  0.00     0.041 C 
ATOM      3  O   UNL     1      24.096  33.684  10.713  1.00  0.00    -0.550 OA
ATOM      4  O   UNL     1      24.904  31.782   9.724  1.00  0.00    -0.550 OA
ENDBRANCH   1   2
BRANCH   1   5
ATOM      5  C   UNL     1      26.672  33.832  12.074  1.00  0.00     0.003 C 
ATOM      6  C   UNL     1      26.372  34.520  13.402  1.00  0.00     0.004 C 
ENDBRANCH   1   5
TORSDOF 2
ENDMDL
MODEL 8
REMARK VINA RESULT:    -2.627     19.077     19.563
REMARK INTER + INTRA:          -2.954
REMARK INTER:                  -2.945
REMARK INTRA:                  -0.010
REMARK UNBOUND:                -0.020
REMARK SMILES CCCC(=O)[O-]
REMARK SMILES IDX 3 1 4 2 5 3 6 4 2 5 1 6
REMARK H PARENT
REMARK Flexibility Score: inf
ROOT
ATOM      1  C   UNL     1      10.140  32.575   4.444  1.00  0.00     0.052 C 
ENDROOT
BRANCH   1   2
ATOM      2  C   UNL     1       9.253  31.810   5.374  1.00  0.00     0.041 C 
ATOM      3  O   UNL     1       9.753  31.048   6.242  1.00  0.00    -0.550 OA
ATOM      4  O   UNL     1       7.875  31.978   5.316  1.00  0.00    -0.550 OA
ENDBRANCH   1   2
BRANCH   1   5
ATOM      5  C   UNL     1      10.641  31.669   3.315  1.00  0.00     0.003 C 
ATOM      6  C   UNL     1      10.500  32.351   1.958  1.00  0.00     0.004 C 
ENDBRANCH   1   5
TORSDOF 2
ENDMDL
MODEL 9
REMARK VINA RESULT:    -2.623     12.602     13.310
REMARK INTER + INTRA:          -2.950
REMARK INTER:                  -2.906
REMARK INTRA:                  -0.044
REMARK UNBOUND:                -0.020
REMARK SMILES CCCC(=O)[O-]
REMARK SMILES IDX 3 1 4 2 5 3 6 4 2 5 1 6
REMARK H PARENT
REMARK Flexibility Score: inf
ROOT
ATOM      1  C   UNL     1      24.754  33.275  10.830  1.00  0.00     0.052 C 
ENDROOT
BRANCH   1   2
ATOM      2  C   UNL     1      23.602  33.878  11.569  1.00  0.00     0.041 C 
ATOM      3  O   UNL     1      22.839  34.696  10.993  1.00  0.00    -0.550 OA
ATOM      4  O   UNL     1      23.342  33.500  12.880  1.00  0.00    -0.550 OA
ENDBRANCH   1   2
BRANCH   1   5
ATOM      5  C   UNL     1      25.823  32.785  11.811  1.00  0.00     0.003 C 
ATOM      6  C   UNL     1      26.808  33.899  12.153  1.00  0.00     0.004 C 
ENDBRANCH   1   5
TORSDOF 2
ENDMDL
