MODEL 1
REMARK VINA RESULT:    -7.039      0.000      0.000
REMARK INTER + INTRA:         -16.525
REMARK INTER:                 -13.416
REMARK INTRA:                  -3.108
REMARK UNBOUND:                -3.108
REMARK SMILES C[C@H]1O[C@H](O[C@@H]2[C@H](O)[C@H](OCCc3ccc(O)c(O)c3)O[C@H](CO)[C@H]2OC(=O)C=Cc2ccc(O)c(O)c2)[C@@H](O)[C@@H](O)[C@@H]1O
REMARK SMILES IDX 6 1 7 2 9 3 21 4 22 5 25 6 5 7 4 8 1 9 2 10 43 11 3 12 41 13
REMARK SMILES IDX 39 14 44 15 42 17 40 19 8 21 26 23 27 24 28 25 29 26 30 27
REMARK SMILES IDX 31 28 38 29 32 30 36 31 33 32 34 33 37 34 35 36 10 38 11 39
REMARK SMILES IDX 12 40 13 41 20 42 14 43 18 44 15 45 16 46 19 47 17 49 23 51
REMARK SMILES IDX 24 52
REMARK H PARENT 44 16 42 18 40 20 8 22 37 35 35 37 19 48 17 50 24 53
REMARK Flexibility Score: inf
ROOT
ATOM      1  C   UNL     1      69.556  44.531   8.225  1.00  0.00     0.199 C 
ATOM      2  C   UNL     1      68.110  44.789   7.764  1.00  0.00     0.203 C 
ATOM      3  C   UNL     1      67.466  45.966   8.562  1.00  0.00     0.282 C 
ATOM      4  O   UNL     1      68.393  46.929   9.052  1.00  0.00    -0.340 OA
ATOM      5  C   UNL     1      69.551  47.131   8.250  1.00  0.00     0.190 C 
ATOM      6  C   UNL     1      70.410  45.844   8.264  1.00  0.00     0.240 C 
ENDROOT
BRANCH   1   7
ATOM      7  O   UNL     1      70.055  43.410   7.496  1.00  0.00    -0.340 OA
BRANCH   7   8
ATOM      8  C   UNL     1      70.999  43.623   6.459  1.00  0.00     0.282 C 
ATOM      9  C   UNL     1      73.622  41.398   7.802  1.00  0.00     0.041 C 
ATOM     10  C   UNL     1      72.247  41.783   7.253  1.00  0.00     0.150 C 
ATOM     11  C   UNL     1      71.856  40.834   6.067  1.00  0.00     0.174 C 
ATOM     12  O   UNL     1      72.282  43.152   6.842  1.00  0.00    -0.344 OA
ATOM     13  C   UNL     1      70.556  41.331   5.388  1.00  0.00     0.179 C 
ATOM     14  C   UNL     1      70.554  42.874   5.179  1.00  0.00     0.202 C 
BRANCH  11  15
ATOM     15  O   UNL     1      71.686  39.514   6.527  1.00  0.00    -0.388 OA
ATOM     16  H   UNL     1      70.731  39.269   6.351  1.00  0.00     0.211 HD
ENDBRANCH  11  15
BRANCH  13  17
ATOM     17  O   UNL     1      70.328  40.627   4.183  1.00  0.00    -0.387 OA
ATOM     18  H   UNL     1      71.070  39.964   4.027  1.00  0.00     0.211 HD
ENDBRANCH  13  17
BRANCH  14  19
ATOM     19  O   UNL     1      71.358  43.311   4.111  1.00  0.00    -0.385 OA
ATOM     20  H   UNL     1      70.836  43.262   3.270  1.00  0.00     0.211 HD
ENDBRANCH  14  19
ENDBRANCH   7   8
ENDBRANCH   1   7
BRANCH   2  21
ATOM     21  O   UNL     1      68.102  45.042   6.383  1.00  0.00    -0.385 OA
ATOM     22  H   UNL     1      68.105  46.026   6.244  1.00  0.00     0.211 HD
ENDBRANCH   2  21
BRANCH   6  23
ATOM     23  O   UNL     1      71.312  45.829   9.378  1.00  0.00    -0.453 OA
BRANCH  23  24
ATOM     24  C   UNL     1      72.703  45.959   9.271  1.00  0.00     0.331 C 
ATOM     25  O   UNL     1      73.438  44.924   9.433  1.00  0.00    -0.247 OA
BRANCH  24  26
ATOM     26  C   UNL     1      73.336  47.293   9.184  1.00  0.00     0.094 C 
ATOM     27  C   UNL     1      73.836  47.818   8.062  1.00  0.00     0.016 C 
BRANCH  27  28
ATOM     28  C   UNL     1      73.675  47.234   6.725  1.00  0.00    -0.021 A 
ATOM     29  C   UNL     1      72.818  47.837   5.796  1.00  0.00     0.058 A 
ATOM     30  C   UNL     1      74.362  46.060   6.371  1.00  0.00     0.012 A 
ATOM     31  C   UNL     1      72.639  47.270   4.526  1.00  0.00     0.157 A 
ATOM     32  C   UNL     1      74.223  45.504   5.102  1.00  0.00     0.051 A 
ATOM     33  C   UNL     1      73.353  46.089   4.178  1.00  0.00     0.157 A 
BRANCH  31  34
ATOM     34  O   UNL     1      71.709  47.862   3.668  1.00  0.00    -0.504 OA
ATOM     35  H   UNL     1      70.701  47.680   3.699  1.00  0.00     0.293 HD
ENDBRANCH  31  34
BRANCH  33  36
ATOM     36  O   UNL     1      73.191  45.461   2.944  1.00  0.00    -0.504 OA
ATOM     37  H   UNL     1      72.507  44.724   2.760  1.00  0.00     0.293 HD
ENDBRANCH  33  36
ENDBRANCH  27  28
ENDBRANCH  24  26
ENDBRANCH  23  24
ENDBRANCH   6  23
BRANCH   3  38
ATOM     38  O   UNL     1      66.455  46.601   7.799  1.00  0.00    -0.350 OA
BRANCH  38  39
ATOM     39  C   UNL     1      65.426  47.165   8.600  1.00  0.00     0.168 C 
BRANCH  39  40
ATOM     40  C   UNL     1      65.229  46.295   9.876  1.00  0.00     0.064 C 
BRANCH  40  41
ATOM     41  C   UNL     1      64.192  45.200   9.745  1.00  0.00    -0.042 A 
ATOM     42  C   UNL     1      64.500  43.862  10.062  1.00  0.00     0.054 A 
ATOM     43  C   UNL     1      62.942  45.484   9.159  1.00  0.00     0.008 A 
ATOM     44  C   UNL     1      63.568  42.843   9.814  1.00  0.00     0.157 A 
ATOM     45  C   UNL     1      62.015  44.478   8.912  1.00  0.00     0.050 A 
ATOM     46  C   UNL     1      62.320  43.149   9.231  1.00  0.00     0.157 A 
BRANCH  44  47
ATOM     47  O   UNL     1      63.873  41.525  10.125  1.00  0.00    -0.504 OA
ATOM     48  H   UNL     1      64.701  41.312  10.663  1.00  0.00     0.293 HD
ENDBRANCH  44  47
BRANCH  46  49
ATOM     49  O   UNL     1      61.402  42.132   8.969  1.00  0.00    -0.504 OA
ATOM     50  H   UNL     1      61.706  41.176   8.783  1.00  0.00     0.293 HD
ENDBRANCH  46  49
ENDBRANCH  40  41
ENDBRANCH  39  40
ENDBRANCH  38  39
ENDBRANCH   3  38
BRANCH   5  51
ATOM     51  C   UNL     1      69.245  47.665   6.804  1.00  0.00     0.192 C 
BRANCH  51  52
ATOM     52  O   UNL     1      68.365  48.757   6.809  1.00  0.00    -0.394 OA
ATOM     53  H   UNL     1      68.513  49.241   7.663  1.00  0.00     0.210 HD
ENDBRANCH  51  52
ENDBRANCH   5  51
TORSDOF 20
ENDMDL
MODEL 2
REMARK VINA RESULT:    -6.679      2.027      7.424
REMARK INTER + INTRA:         -15.839
REMARK INTER:                 -13.402
REMARK INTRA:                  -2.437
REMARK UNBOUND:                -3.108
REMARK SMILES C[C@H]1O[C@H](O[C@@H]2[C@H](O)[C@H](OCCc3ccc(O)c(O)c3)O[C@H](CO)[C@H]2OC(=O)C=Cc2ccc(O)c(O)c2)[C@@H](O)[C@@H](O)[C@@H]1O
REMARK SMILES IDX 6 1 7 2 9 3 21 4 22 5 25 6 5 7 4 8 1 9 2 10 43 11 3 12 41 13
REMARK SMILES IDX 39 14 44 15 42 17 40 19 8 21 26 23 27 24 28 25 29 26 30 27
REMARK SMILES IDX 31 28 38 29 32 30 36 31 33 32 34 33 37 34 35 36 10 38 11 39
REMARK SMILES IDX 12 40 13 41 20 42 14 43 18 44 15 45 16 46 19 47 17 49 23 51
REMARK SMILES IDX 24 52
REMARK H PARENT 44 16 42 18 40 20 8 22 37 35 35 37 19 48 17 50 24 53
REMARK Flexibility Score: inf
ROOT
ATOM      1  C   UNL     1      69.495  44.971   9.811  1.00  0.00     0.199 C 
ATOM      2  C   UNL     1      70.363  46.234   9.653  1.00  0.00     0.203 C 
ATOM      3  C   UNL     1      71.829  45.971  10.124  1.00  0.00     0.282 C 
ATOM      4  O   UNL     1      72.256  44.618  10.011  1.00  0.00    -0.340 OA
ATOM      5  C   UNL     1      71.687  43.882   8.934  1.00  0.00     0.190 C 
ATOM      6  C   UNL     1      70.171  43.704   9.185  1.00  0.00     0.240 C 
ENDROOT
BRANCH   1   7
ATOM      7  O   UNL     1      68.164  45.304   9.418  1.00  0.00    -0.340 OA
BRANCH   7   8
ATOM      8  C   UNL     1      67.711  44.935   8.125  1.00  0.00     0.282 C 
ATOM      9  C   UNL     1      64.355  43.792   9.157  1.00  0.00     0.041 C 
ATOM     10  C   UNL     1      65.513  44.774   8.971  1.00  0.00     0.150 C 
ATOM     11  C   UNL     1      65.003  46.080   8.267  1.00  0.00     0.174 C 
ATOM     12  O   UNL     1      66.542  44.135   8.212  1.00  0.00    -0.344 OA
ATOM     13  C   UNL     1      66.197  46.998   7.908  1.00  0.00     0.179 C 
ATOM     14  C   UNL     1      67.389  46.203   7.298  1.00  0.00     0.202 C 
BRANCH  11  15
ATOM     15  O   UNL     1      64.098  46.767   9.099  1.00  0.00    -0.388 OA
ATOM     16  H   UNL     1      64.647  47.353   9.698  1.00  0.00     0.211 HD
ENDBRANCH  11  15
BRANCH  13  17
ATOM     17  O   UNL     1      65.774  48.056   7.071  1.00  0.00    -0.387 OA
ATOM     18  H   UNL     1      64.813  48.284   7.267  1.00  0.00     0.211 HD
ENDBRANCH  13  17
BRANCH  14  19
ATOM     19  O   UNL     1      67.197  45.818   5.959  1.00  0.00    -0.385 OA
ATOM     20  H   UNL     1      67.909  46.221   5.400  1.00  0.00     0.211 HD
ENDBRANCH  14  19
ENDBRANCH   7   8
ENDBRANCH   1   7
BRANCH   2  21
ATOM     21  O   UNL     1      70.324  46.659   8.316  1.00  0.00    -0.385 OA
ATOM     22  H   UNL     1      70.325  45.854   7.731  1.00  0.00     0.211 HD
ENDBRANCH   2  21
BRANCH   6  23
ATOM     23  O   UNL     1      69.905  42.543   9.982  1.00  0.00    -0.453 OA
BRANCH  23  24
ATOM     24  C   UNL     1      69.585  41.282   9.461  1.00  0.00     0.331 C 
ATOM     25  O   UNL     1      70.451  40.342   9.536  1.00  0.00    -0.247 OA
BRANCH  24  26
ATOM     26  C   UNL     1      68.363  41.081   8.654  1.00  0.00     0.094 C 
ATOM     27  C   UNL     1      68.338  41.052   7.318  1.00  0.00     0.016 C 
BRANCH  27  28
ATOM     28  C   UNL     1      69.531  41.033   6.463  1.00  0.00    -0.021 A 
ATOM     29  C   UNL     1      69.893  42.178   5.742  1.00  0.00     0.058 A 
ATOM     30  C   UNL     1      70.308  39.868   6.347  1.00  0.00     0.012 A 
ATOM     31  C   UNL     1      71.017  42.159   4.902  1.00  0.00     0.157 A 
ATOM     32  C   UNL     1      71.447  39.843   5.546  1.00  0.00     0.051 A 
ATOM     33  C   UNL     1      71.802  40.976   4.807  1.00  0.00     0.157 A 
BRANCH  31  34
ATOM     34  O   UNL     1      71.285  43.298   4.140  1.00  0.00    -0.504 OA
ATOM     35  H   UNL     1      71.823  43.293   3.268  1.00  0.00     0.293 HD
ENDBRANCH  31  34
BRANCH  33  36
ATOM     36  O   UNL     1      72.909  40.887   3.965  1.00  0.00    -0.504 OA
ATOM     37  H   UNL     1      72.952  41.293   3.028  1.00  0.00     0.293 HD
ENDBRANCH  33  36
ENDBRANCH  27  28
ENDBRANCH  24  26
ENDBRANCH  23  24
ENDBRANCH   6  23
BRANCH   3  38
ATOM     38  O   UNL     1      72.736  46.831   9.457  1.00  0.00    -0.350 OA
BRANCH  38  39
ATOM     39  C   UNL     1      72.775  48.137  10.014  1.00  0.00     0.168 C 
BRANCH  39  40
ATOM     40  C   UNL     1      73.266  49.146   8.936  1.00  0.00     0.064 C 
BRANCH  40  41
ATOM     41  C   UNL     1      72.922  48.771   7.509  1.00  0.00    -0.042 A 
ATOM     42  C   UNL     1      71.624  48.967   6.997  1.00  0.00     0.054 A 
ATOM     43  C   UNL     1      73.863  48.079   6.720  1.00  0.00     0.008 A 
ATOM     44  C   UNL     1      71.291  48.498   5.718  1.00  0.00     0.157 A 
ATOM     45  C   UNL     1      73.537  47.613   5.451  1.00  0.00     0.050 A 
ATOM     46  C   UNL     1      72.248  47.813   4.941  1.00  0.00     0.157 A 
BRANCH  44  47
ATOM     47  O   UNL     1      70.012  48.691   5.213  1.00  0.00    -0.504 OA
ATOM     48  H   UNL     1      69.887  49.078   4.288  1.00  0.00     0.293 HD
ENDBRANCH  44  47
BRANCH  46  49
ATOM     49  O   UNL     1      71.909  47.331   3.677  1.00  0.00    -0.504 OA
ATOM     50  H   UNL     1      71.788  46.333   3.502  1.00  0.00     0.293 HD
ENDBRANCH  46  49
ENDBRANCH  40  41
ENDBRANCH  39  40
ENDBRANCH  38  39
ENDBRANCH   3  38
BRANCH   5  51
ATOM     51  C   UNL     1      72.024  44.461   7.513  1.00  0.00     0.192 C 
BRANCH  51  52
ATOM     52  O   UNL     1      73.401  44.638   7.316  1.00  0.00    -0.394 OA
ATOM     53  H   UNL     1      73.544  44.711   6.337  1.00  0.00     0.210 HD
ENDBRANCH  51  52
ENDBRANCH   5  51
TORSDOF 20
ENDMDL
MODEL 3
REMARK VINA RESULT:    -6.668      2.778      6.925
REMARK INTER + INTRA:         -15.818
REMARK INTER:                 -11.962
REMARK INTRA:                  -3.857
REMARK UNBOUND:                -3.108
REMARK SMILES C[C@H]1O[C@H](O[C@@H]2[C@H](O)[C@H](OCCc3ccc(O)c(O)c3)O[C@H](CO)[C@H]2OC(=O)C=Cc2ccc(O)c(O)c2)[C@@H](O)[C@@H](O)[C@@H]1O
REMARK SMILES IDX 6 1 7 2 9 3 21 4 22 5 25 6 5 7 4 8 1 9 2 10 43 11 3 12 41 13
REMARK SMILES IDX 39 14 44 15 42 17 40 19 8 21 26 23 27 24 28 25 29 26 30 27
REMARK SMILES IDX 31 28 38 29 32 30 36 31 33 32 34 33 37 34 35 36 10 38 11 39
REMARK SMILES IDX 12 40 13 41 20 42 14 43 18 44 15 45 16 46 19 47 17 49 23 51
REMARK SMILES IDX 24 52
REMARK H PARENT 44 16 42 18 40 20 8 22 37 35 35 37 19 48 17 50 24 53
REMARK Flexibility Score: inf
ROOT
ATOM      1  C   UNL     1      72.158  42.677   5.500  1.00  0.00     0.199 C 
ATOM      2  C   UNL     1      73.233  43.563   4.843  1.00  0.00     0.203 C 
ATOM      3  C   UNL     1      72.792  45.061   4.823  1.00  0.00     0.282 C 
ATOM      4  O   UNL     1      71.898  45.431   5.867  1.00  0.00    -0.340 OA
ATOM      5  C   UNL     1      72.061  44.729   7.093  1.00  0.00     0.190 C 
ATOM      6  C   UNL     1      71.685  43.243   6.883  1.00  0.00     0.240 C 
ENDROOT
BRANCH   1   7
ATOM      7  O   UNL     1      72.602  41.323   5.429  1.00  0.00    -0.340 OA
BRANCH   7   8
ATOM      8  C   UNL     1      72.017  40.450   4.475  1.00  0.00     0.282 C 
ATOM      9  C   UNL     1      73.433  37.321   5.830  1.00  0.00     0.041 C 
ATOM     10  C   UNL     1      72.612  38.612   5.831  1.00  0.00     0.150 C 
ATOM     11  C   UNL     1      71.147  38.318   6.307  1.00  0.00     0.174 C 
ATOM     12  O   UNL     1      72.635  39.174   4.516  1.00  0.00    -0.344 OA
ATOM     13  C   UNL     1      70.263  39.577   6.134  1.00  0.00     0.179 C 
ATOM     14  C   UNL     1      70.507  40.285   4.769  1.00  0.00     0.202 C 
BRANCH  11  15
ATOM     15  O   UNL     1      71.140  37.904   7.654  1.00  0.00    -0.388 OA
ATOM     16  H   UNL     1      70.287  38.243   8.054  1.00  0.00     0.211 HD
ENDBRANCH  11  15
BRANCH  13  17
ATOM     17  O   UNL     1      68.901  39.257   6.336  1.00  0.00    -0.387 OA
ATOM     18  H   UNL     1      68.346  40.097   6.328  1.00  0.00     0.211 HD
ENDBRANCH  13  17
BRANCH  14  19
ATOM     19  O   UNL     1      69.913  39.636   3.671  1.00  0.00    -0.385 OA
ATOM     20  H   UNL     1      69.287  40.261   3.224  1.00  0.00     0.211 HD
ENDBRANCH  14  19
ENDBRANCH   7   8
ENDBRANCH   1   7
BRANCH   2  21
ATOM     21  O   UNL     1      74.449  43.396   5.523  1.00  0.00    -0.385 OA
ATOM     22  H   UNL     1      74.252  43.248   6.487  1.00  0.00     0.211 HD
ENDBRANCH   2  21
BRANCH   6  23
ATOM     23  O   UNL     1      70.281  43.026   7.065  1.00  0.00    -0.453 OA
BRANCH  23  24
ATOM     24  C   UNL     1      69.646  42.955   8.313  1.00  0.00     0.331 C 
ATOM     25  O   UNL     1      70.328  43.191   9.370  1.00  0.00    -0.247 OA
BRANCH  24  26
ATOM     26  C   UNL     1      68.275  42.416   8.437  1.00  0.00     0.094 C 
ATOM     27  C   UNL     1      67.189  43.161   8.661  1.00  0.00     0.016 C 
BRANCH  27  28
ATOM     28  C   UNL     1      67.167  44.629   8.640  1.00  0.00    -0.021 A 
ATOM     29  C   UNL     1      66.976  45.309   7.431  1.00  0.00     0.058 A 
ATOM     30  C   UNL     1      67.354  45.363   9.824  1.00  0.00     0.012 A 
ATOM     31  C   UNL     1      66.982  46.712   7.399  1.00  0.00     0.157 A 
ATOM     32  C   UNL     1      67.326  46.755   9.816  1.00  0.00     0.051 A 
ATOM     33  C   UNL     1      67.157  47.440   8.609  1.00  0.00     0.157 A 
BRANCH  31  34
ATOM     34  O   UNL     1      66.873  47.340   6.156  1.00  0.00    -0.504 OA
ATOM     35  H   UNL     1      67.605  47.328   5.440  1.00  0.00     0.293 HD
ENDBRANCH  31  34
BRANCH  33  36
ATOM     36  O   UNL     1      67.204  48.833   8.635  1.00  0.00    -0.504 OA
ATOM     37  H   UNL     1      67.113  49.395   9.484  1.00  0.00     0.293 HD
ENDBRANCH  33  36
ENDBRANCH  27  28
ENDBRANCH  24  26
ENDBRANCH  23  24
ENDBRANCH   6  23
BRANCH   3  38
ATOM     38  O   UNL     1      73.920  45.919   4.813  1.00  0.00    -0.350 OA
BRANCH  38  39
ATOM     39  C   UNL     1      73.575  47.287   4.649  1.00  0.00     0.168 C 
BRANCH  39  40
ATOM     40  C   UNL     1      74.010  48.086   5.911  1.00  0.00     0.064 C 
BRANCH  40  41
ATOM     41  C   UNL     1      72.884  48.441   6.860  1.00  0.00    -0.042 A 
ATOM     42  C   UNL     1      71.574  48.659   6.389  1.00  0.00     0.054 A 
ATOM     43  C   UNL     1      73.167  48.704   8.216  1.00  0.00     0.008 A 
ATOM     44  C   UNL     1      70.574  49.110   7.263  1.00  0.00     0.157 A 
ATOM     45  C   UNL     1      72.178  49.151   9.086  1.00  0.00     0.050 A 
ATOM     46  C   UNL     1      70.876  49.363   8.617  1.00  0.00     0.157 A 
BRANCH  44  47
ATOM     47  O   UNL     1      69.284  49.327   6.798  1.00  0.00    -0.504 OA
ATOM     48  H   UNL     1      68.788  50.168   7.058  1.00  0.00     0.293 HD
ENDBRANCH  44  47
BRANCH  46  49
ATOM     49  O   UNL     1      69.884  49.828   9.481  1.00  0.00    -0.504 OA
ATOM     50  H   UNL     1      69.620  50.814   9.506  1.00  0.00     0.293 HD
ENDBRANCH  46  49
ENDBRANCH  40  41
ENDBRANCH  39  40
ENDBRANCH  38  39
ENDBRANCH   3  38
BRANCH   5  51
ATOM     51  C   UNL     1      73.465  44.932   7.767  1.00  0.00     0.192 C 
BRANCH  51  52
ATOM     52  O   UNL     1      73.931  43.772   8.402  1.00  0.00    -0.394 OA
ATOM     53  H   UNL     1      74.876  43.942   8.652  1.00  0.00     0.210 HD
ENDBRANCH  51  52
ENDBRANCH   5  51
TORSDOF 20
ENDMDL
MODEL 4
REMARK VINA RESULT:    -6.567      1.757      2.518
REMARK INTER + INTRA:         -15.626
REMARK INTER:                 -12.603
REMARK INTRA:                  -3.023
REMARK UNBOUND:                -3.108
REMARK SMILES C[C@H]1O[C@H](O[C@@H]2[C@H](O)[C@H](OCCc3ccc(O)c(O)c3)O[C@H](CO)[C@H]2OC(=O)C=Cc2ccc(O)c(O)c2)[C@@H](O)[C@@H](O)[C@@H]1O
REMARK SMILES IDX 6 1 7 2 9 3 21 4 22 5 25 6 5 7 4 8 1 9 2 10 43 11 3 12 41 13
REMARK SMILES IDX 39 14 44 15 42 17 40 19 8 21 26 23 27 24 28 25 29 26 30 27
REMARK SMILES IDX 31 28 38 29 32 30 36 31 33 32 34 33 37 34 35 36 10 38 11 39
REMARK SMILES IDX 12 40 13 41 20 42 14 43 18 44 15 45 16 46 19 47 17 49 23 51
REMARK SMILES IDX 24 52
REMARK H PARENT 44 16 42 18 40 20 8 22 37 35 35 37 19 48 17 50 24 53
REMARK Flexibility Score: inf
ROOT
ATOM      1  C   UNL     1      69.908  46.017   8.188  1.00  0.00     0.199 C 
ATOM      2  C   UNL     1      68.436  46.440   8.029  1.00  0.00     0.203 C 
ATOM      3  C   UNL     1      68.124  47.720   8.869  1.00  0.00     0.282 C 
ATOM      4  O   UNL     1      69.241  48.574   9.088  1.00  0.00    -0.340 OA
ATOM      5  C   UNL     1      70.211  48.596   8.048  1.00  0.00     0.190 C 
ATOM      6  C   UNL     1      70.897  47.212   7.961  1.00  0.00     0.240 C 
ENDROOT
BRANCH   1   7
ATOM      7  O   UNL     1      70.102  44.816   7.444  1.00  0.00    -0.340 OA
BRANCH   7   8
ATOM      8  C   UNL     1      70.621  43.670   8.100  1.00  0.00     0.282 C 
ATOM      9  C   UNL     1      67.434  42.546   9.587  1.00  0.00     0.041 C 
ATOM     10  C   UNL     1      68.415  42.918   8.474  1.00  0.00     0.150 C 
ATOM     11  C   UNL     1      68.485  41.765   7.411  1.00  0.00     0.174 C 
ATOM     12  O   UNL     1      69.696  43.175   9.055  1.00  0.00    -0.344 OA
ATOM     13  C   UNL     1      69.608  42.049   6.384  1.00  0.00     0.179 C 
ATOM     14  C   UNL     1      70.914  42.557   7.064  1.00  0.00     0.202 C 
BRANCH  11  15
ATOM     15  O   UNL     1      67.249  41.629   6.750  1.00  0.00    -0.388 OA
ATOM     16  H   UNL     1      66.681  42.401   7.041  1.00  0.00     0.211 HD
ENDBRANCH  11  15
BRANCH  13  17
ATOM     17  O   UNL     1      69.834  40.915   5.571  1.00  0.00    -0.387 OA
ATOM     18  H   UNL     1      70.783  40.915   5.237  1.00  0.00     0.211 HD
ENDBRANCH  13  17
BRANCH  14  19
ATOM     19  O   UNL     1      71.660  41.549   7.701  1.00  0.00    -0.385 OA
ATOM     20  H   UNL     1      71.372  40.665   7.356  1.00  0.00     0.211 HD
ENDBRANCH  14  19
ENDBRANCH   7   8
ENDBRANCH   1   7
BRANCH   2  21
ATOM     21  O   UNL     1      68.157  46.641   6.668  1.00  0.00    -0.385 OA
ATOM     22  H   UNL     1      67.196  46.436   6.511  1.00  0.00     0.211 HD
ENDBRANCH   2  21
BRANCH   6  23
ATOM     23  O   UNL     1      72.012  47.123   8.857  1.00  0.00    -0.453 OA
BRANCH  23  24
ATOM     24  C   UNL     1      73.321  47.504   8.532  1.00  0.00     0.331 C 
ATOM     25  O   UNL     1      73.544  48.711   8.169  1.00  0.00    -0.247 OA
BRANCH  24  26
ATOM     26  C   UNL     1      74.395  46.495   8.404  1.00  0.00     0.094 C 
ATOM     27  C   UNL     1      74.580  45.723   7.330  1.00  0.00     0.016 C 
BRANCH  27  28
ATOM     28  C   UNL     1      73.865  45.881   6.058  1.00  0.00    -0.021 A 
ATOM     29  C   UNL     1      73.109  44.821   5.543  1.00  0.00     0.058 A 
ATOM     30  C   UNL     1      73.946  47.086   5.339  1.00  0.00     0.012 A 
ATOM     31  C   UNL     1      72.445  44.956   4.314  1.00  0.00     0.157 A 
ATOM     32  C   UNL     1      73.263  47.250   4.135  1.00  0.00     0.051 A 
ATOM     33  C   UNL     1      72.525  46.188   3.606  1.00  0.00     0.157 A 
BRANCH  31  34
ATOM     34  O   UNL     1      71.776  43.841   3.804  1.00  0.00    -0.504 OA
ATOM     35  H   UNL     1      71.637  43.661   2.805  1.00  0.00     0.293 HD
ENDBRANCH  31  34
BRANCH  33  36
ATOM     36  O   UNL     1      71.914  46.370   2.366  1.00  0.00    -0.504 OA
ATOM     37  H   UNL     1      71.169  45.774   2.000  1.00  0.00     0.293 HD
ENDBRANCH  33  36
ENDBRANCH  27  28
ENDBRANCH  24  26
ENDBRANCH  23  24
ENDBRANCH   6  23
BRANCH   3  38
ATOM     38  O   UNL     1      67.051  48.450   8.298  1.00  0.00    -0.350 OA
BRANCH  38  39
ATOM     39  C   UNL     1      65.872  48.413   9.089  1.00  0.00     0.168 C 
BRANCH  39  40
ATOM     40  C   UNL     1      65.893  47.144   9.990  1.00  0.00     0.064 C 
BRANCH  40  41
ATOM     41  C   UNL     1      64.933  46.050   9.573  1.00  0.00    -0.042 A 
ATOM     42  C   UNL     1      65.269  45.132   8.558  1.00  0.00     0.054 A 
ATOM     43  C   UNL     1      63.623  46.031  10.093  1.00  0.00     0.008 A 
ATOM     44  C   UNL     1      64.320  44.208   8.097  1.00  0.00     0.157 A 
ATOM     45  C   UNL     1      62.679  45.117   9.639  1.00  0.00     0.050 A 
ATOM     46  C   UNL     1      63.016  44.201   8.635  1.00  0.00     0.157 A 
BRANCH  44  47
ATOM     47  O   UNL     1      64.651  43.304   7.097  1.00  0.00    -0.504 OA
ATOM     48  H   UNL     1      65.246  43.592   6.333  1.00  0.00     0.293 HD
ENDBRANCH  44  47
BRANCH  46  49
ATOM     49  O   UNL     1      62.068  43.294   8.162  1.00  0.00    -0.504 OA
ATOM     50  H   UNL     1      61.433  42.809   8.797  1.00  0.00     0.293 HD
ENDBRANCH  46  49
ENDBRANCH  40  41
ENDBRANCH  39  40
ENDBRANCH  38  39
ENDBRANCH   3  38
BRANCH   5  51
ATOM     51  C   UNL     1      69.662  49.111   6.669  1.00  0.00     0.192 C 
BRANCH  51  52
ATOM     52  O   UNL     1      70.242  48.450   5.577  1.00  0.00    -0.394 OA
ATOM     53  H   UNL     1      70.058  47.482   5.697  1.00  0.00     0.210 HD
ENDBRANCH  51  52
ENDBRANCH   5  51
TORSDOF 20
ENDMDL
MODEL 5
REMARK VINA RESULT:    -6.550      2.770      7.762
REMARK INTER + INTRA:         -15.594
REMARK INTER:                 -12.293
REMARK INTRA:                  -3.301
REMARK UNBOUND:                -3.108
REMARK SMILES C[C@H]1O[C@H](O[C@@H]2[C@H](O)[C@H](OCCc3ccc(O)c(O)c3)O[C@H](CO)[C@H]2OC(=O)C=Cc2ccc(O)c(O)c2)[C@@H](O)[C@@H](O)[C@@H]1O
REMARK SMILES IDX 6 1 7 2 9 3 21 4 22 5 25 6 5 7 4 8 1 9 2 10 43 11 3 12 41 13
REMARK SMILES IDX 39 14 44 15 42 17 40 19 8 21 26 23 27 24 28 25 29 26 30 27
REMARK SMILES IDX 31 28 38 29 32 30 36 31 33 32 34 33 37 34 35 36 10 38 11 39
REMARK SMILES IDX 12 40 13 41 20 42 14 43 18 44 15 45 16 46 19 47 17 49 23 51
REMARK SMILES IDX 24 52
REMARK H PARENT 44 16 42 18 40 20 8 22 37 35 35 37 19 48 17 50 24 53
REMARK Flexibility Score: inf
ROOT
ATOM      1  C   UNL     1      72.325  45.176   5.955  1.00  0.00     0.199 C 
ATOM      2  C   UNL     1      72.832  44.322   4.778  1.00  0.00     0.203 C 
ATOM      3  C   UNL     1      73.404  42.958   5.278  1.00  0.00     0.282 C 
ATOM      4  O   UNL     1      72.840  42.486   6.497  1.00  0.00    -0.340 OA
ATOM      5  C   UNL     1      71.480  42.839   6.720  1.00  0.00     0.190 C 
ATOM      6  C   UNL     1      71.375  44.371   6.907  1.00  0.00     0.240 C 
ENDROOT
BRANCH   1   7
ATOM      7  O   UNL     1      71.874  46.423   5.429  1.00  0.00    -0.340 OA
BRANCH   7   8
ATOM      8  C   UNL     1      72.607  47.603   5.718  1.00  0.00     0.282 C 
ATOM      9  C   UNL     1      70.127  49.988   4.379  1.00  0.00     0.041 C 
ATOM     10  C   UNL     1      70.670  48.880   5.284  1.00  0.00     0.150 C 
ATOM     11  C   UNL     1      70.404  49.236   6.789  1.00  0.00     0.174 C 
ATOM     12  O   UNL     1      72.065  48.714   5.021  1.00  0.00    -0.344 OA
ATOM     13  C   UNL     1      71.113  48.217   7.714  1.00  0.00     0.179 C 
ATOM     14  C   UNL     1      72.559  47.894   7.237  1.00  0.00     0.202 C 
BRANCH  11  15
ATOM     15  O   UNL     1      69.021  49.252   7.055  1.00  0.00    -0.388 OA
ATOM     16  H   UNL     1      68.717  48.297   7.048  1.00  0.00     0.211 HD
ENDBRANCH  11  15
BRANCH  13  17
ATOM     17  O   UNL     1      71.076  48.660   9.057  1.00  0.00    -0.387 OA
ATOM     18  H   UNL     1      70.145  48.961   9.293  1.00  0.00     0.211 HD
ENDBRANCH  13  17
BRANCH  14  19
ATOM     19  O   UNL     1      73.497  48.904   7.522  1.00  0.00    -0.385 OA
ATOM     20  H   UNL     1      73.922  49.199   6.677  1.00  0.00     0.211 HD
ENDBRANCH  14  19
ENDBRANCH   7   8
ENDBRANCH   1   7
BRANCH   2  21
ATOM     21  O   UNL     1      71.786  44.133   3.860  1.00  0.00    -0.385 OA
ATOM     22  H   UNL     1      72.124  43.573   3.111  1.00  0.00     0.211 HD
ENDBRANCH   2  21
BRANCH   6  23
ATOM     23  O   UNL     1      71.589  44.748   8.273  1.00  0.00    -0.453 OA
BRANCH  23  24
ATOM     24  C   UNL     1      70.579  44.819   9.242  1.00  0.00     0.331 C 
ATOM     25  O   UNL     1      70.621  45.754  10.115  1.00  0.00    -0.247 OA
BRANCH  24  26
ATOM     26  C   UNL     1      69.597  43.723   9.396  1.00  0.00     0.094 C 
ATOM     27  C   UNL     1      68.273  43.895   9.409  1.00  0.00     0.016 C 
BRANCH  27  28
ATOM     28  C   UNL     1      67.593  45.158   9.096  1.00  0.00    -0.021 A 
ATOM     29  C   UNL     1      67.468  45.574   7.765  1.00  0.00     0.058 A 
ATOM     30  C   UNL     1      67.078  45.965  10.125  1.00  0.00     0.012 A 
ATOM     31  C   UNL     1      66.843  46.793   7.461  1.00  0.00     0.157 A 
ATOM     32  C   UNL     1      66.424  47.161   9.838  1.00  0.00     0.051 A 
ATOM     33  C   UNL     1      66.315  47.592   8.513  1.00  0.00     0.157 A 
BRANCH  31  34
ATOM     34  O   UNL     1      66.821  47.203   6.126  1.00  0.00    -0.504 OA
ATOM     35  H   UNL     1      66.625  48.162   5.822  1.00  0.00     0.293 HD
ENDBRANCH  31  34
BRANCH  33  36
ATOM     36  O   UNL     1      65.713  48.828   8.275  1.00  0.00    -0.504 OA
ATOM     37  H   UNL     1      65.976  49.695   8.748  1.00  0.00     0.293 HD
ENDBRANCH  33  36
ENDBRANCH  27  28
ENDBRANCH  24  26
ENDBRANCH  23  24
ENDBRANCH   6  23
BRANCH   3  38
ATOM     38  O   UNL     1      73.299  41.966   4.271  1.00  0.00    -0.350 OA
BRANCH  38  39
ATOM     39  C   UNL     1      74.306  40.969   4.367  1.00  0.00     0.168 C 
BRANCH  39  40
ATOM     40  C   UNL     1      73.720  39.596   3.924  1.00  0.00     0.064 C 
BRANCH  40  41
ATOM     41  C   UNL     1      72.461  39.177   4.654  1.00  0.00    -0.042 A 
ATOM     42  C   UNL     1      71.220  39.111   3.989  1.00  0.00     0.054 A 
ATOM     43  C   UNL     1      72.490  38.990   6.050  1.00  0.00     0.008 A 
ATOM     44  C   UNL     1      70.045  38.845   4.709  1.00  0.00     0.157 A 
ATOM     45  C   UNL     1      71.328  38.725   6.768  1.00  0.00     0.050 A 
ATOM     46  C   UNL     1      70.096  38.656   6.106  1.00  0.00     0.157 A 
BRANCH  44  47
ATOM     47  O   UNL     1      68.823  38.782   4.054  1.00  0.00    -0.504 OA
ATOM     48  H   UNL     1      68.624  39.417   3.294  1.00  0.00     0.293 HD
ENDBRANCH  44  47
BRANCH  46  49
ATOM     49  O   UNL     1      68.925  38.408   6.822  1.00  0.00    -0.504 OA
ATOM     50  H   UNL     1      68.736  37.494   7.235  1.00  0.00     0.293 HD
ENDBRANCH  46  49
ENDBRANCH  40  41
ENDBRANCH  39  40
ENDBRANCH  38  39
ENDBRANCH   3  38
BRANCH   5  51
ATOM     51  C   UNL     1      70.484  42.268   5.647  1.00  0.00     0.192 C 
BRANCH  51  52
ATOM     52  O   UNL     1      69.144  42.370   6.048  1.00  0.00    -0.394 OA
ATOM     53  H   UNL     1      68.698  41.528   5.772  1.00  0.00     0.210 HD
ENDBRANCH  51  52
ENDBRANCH   5  51
TORSDOF 20
ENDMDL
MODEL 6
REMARK VINA RESULT:    -6.448      2.697      6.526
REMARK INTER + INTRA:         -15.400
REMARK INTER:                 -11.728
REMARK INTRA:                  -3.671
REMARK UNBOUND:                -3.108
REMARK SMILES C[C@H]1O[C@H](O[C@@H]2[C@H](O)[C@H](OCCc3ccc(O)c(O)c3)O[C@H](CO)[C@H]2OC(=O)C=Cc2ccc(O)c(O)c2)[C@@H](O)[C@@H](O)[C@@H]1O
REMARK SMILES IDX 6 1 7 2 9 3 21 4 22 5 25 6 5 7 4 8 1 9 2 10 43 11 3 12 41 13
REMARK SMILES IDX 39 14 44 15 42 17 40 19 8 21 26 23 27 24 28 25 29 26 30 27
REMARK SMILES IDX 31 28 38 29 32 30 36 31 33 32 34 33 37 34 35 36 10 38 11 39
REMARK SMILES IDX 12 40 13 41 20 42 14 43 18 44 15 45 16 46 19 47 17 49 23 51
REMARK SMILES IDX 24 52
REMARK H PARENT 44 16 42 18 40 20 8 22 37 35 35 37 19 48 17 50 24 53
REMARK Flexibility Score: inf
ROOT
ATOM      1  C   UNL     1      72.365  44.524   8.621  1.00  0.00     0.199 C 
ATOM      2  C   UNL     1      72.316  46.063   8.618  1.00  0.00     0.203 C 
ATOM      3  C   UNL     1      73.750  46.671   8.501  1.00  0.00     0.282 C 
ATOM      4  O   UNL     1      74.695  45.843   7.831  1.00  0.00    -0.340 OA
ATOM      5  C   UNL     1      74.163  45.011   6.807  1.00  0.00     0.190 C 
ATOM      6  C   UNL     1      73.229  43.955   7.443  1.00  0.00     0.240 C 
ENDROOT
BRANCH   1   7
ATOM      7  O   UNL     1      71.032  44.044   8.789  1.00  0.00    -0.340 OA
BRANCH   7   8
ATOM      8  C   UNL     1      70.485  43.164   7.819  1.00  0.00     0.282 C 
ATOM      9  C   UNL     1      67.833  41.753   9.964  1.00  0.00     0.041 C 
ATOM     10  C   UNL     1      68.609  42.836   9.213  1.00  0.00     0.150 C 
ATOM     11  C   UNL     1      67.631  43.678   8.321  1.00  0.00     0.174 C 
ATOM     12  O   UNL     1      69.629  42.212   8.429  1.00  0.00    -0.344 OA
ATOM     13  C   UNL     1      68.430  44.650   7.418  1.00  0.00     0.179 C 
ATOM     14  C   UNL     1      69.674  43.970   6.775  1.00  0.00     0.202 C 
BRANCH  11  15
ATOM     15  O   UNL     1      66.726  44.398   9.125  1.00  0.00    -0.388 OA
ATOM     16  H   UNL     1      67.105  44.398  10.052  1.00  0.00     0.211 HD
ENDBRANCH  11  15
BRANCH  13  17
ATOM     17  O   UNL     1      67.581  45.239   6.453  1.00  0.00    -0.387 OA
ATOM     18  H   UNL     1      67.353  46.181   6.725  1.00  0.00     0.211 HD
ENDBRANCH  13  17
BRANCH  14  19
ATOM     19  O   UNL     1      69.370  43.116   5.699  1.00  0.00    -0.385 OA
ATOM     20  H   UNL     1      69.143  42.218   6.052  1.00  0.00     0.211 HD
ENDBRANCH  14  19
ENDBRANCH   7   8
ENDBRANCH   1   7
BRANCH   2  21
ATOM     21  O   UNL     1      71.489  46.498   7.571  1.00  0.00    -0.385 OA
ATOM     22  H   UNL     1      70.552  46.529   7.903  1.00  0.00     0.211 HD
ENDBRANCH   2  21
BRANCH   6  23
ATOM     23  O   UNL     1      73.957  42.795   7.865  1.00  0.00    -0.453 OA
BRANCH  23  24
ATOM     24  C   UNL     1      74.515  41.851   6.992  1.00  0.00     0.331 C 
ATOM     25  O   UNL     1      74.637  42.146   5.753  1.00  0.00    -0.247 OA
BRANCH  24  26
ATOM     26  C   UNL     1      74.768  40.463   7.438  1.00  0.00     0.094 C 
ATOM     27  C   UNL     1      73.966  39.428   7.172  1.00  0.00     0.016 C 
BRANCH  27  28
ATOM     28  C   UNL     1      72.819  39.477   6.258  1.00  0.00    -0.021 A 
ATOM     29  C   UNL     1      71.555  39.842   6.738  1.00  0.00     0.058 A 
ATOM     30  C   UNL     1      72.973  39.142   4.901  1.00  0.00     0.012 A 
ATOM     31  C   UNL     1      70.449  39.865   5.875  1.00  0.00     0.157 A 
ATOM     32  C   UNL     1      71.893  39.194   4.023  1.00  0.00     0.051 A 
ATOM     33  C   UNL     1      70.624  39.537   4.502  1.00  0.00     0.157 A 
BRANCH  31  34
ATOM     34  O   UNL     1      69.196  40.152   6.422  1.00  0.00    -0.504 OA
ATOM     35  H   UNL     1      68.580  40.899   6.086  1.00  0.00     0.293 HD
ENDBRANCH  31  34
BRANCH  33  36
ATOM     36  O   UNL     1      69.558  39.510   3.604  1.00  0.00    -0.504 OA
ATOM     37  H   UNL     1      69.618  39.817   2.631  1.00  0.00     0.293 HD
ENDBRANCH  33  36
ENDBRANCH  27  28
ENDBRANCH  24  26
ENDBRANCH  23  24
ENDBRANCH   6  23
BRANCH   3  38
ATOM     38  O   UNL     1      73.708  47.955   7.901  1.00  0.00    -0.350 OA
BRANCH  38  39
ATOM     39  C   UNL     1      73.510  49.001   8.841  1.00  0.00     0.168 C 
BRANCH  39  40
ATOM     40  C   UNL     1      72.610  50.102   8.208  1.00  0.00     0.064 C 
BRANCH  40  41
ATOM     41  C   UNL     1      71.182  49.679   7.934  1.00  0.00    -0.042 A 
ATOM     42  C   UNL     1      70.309  49.336   8.985  1.00  0.00     0.054 A 
ATOM     43  C   UNL     1      70.753  49.477   6.607  1.00  0.00     0.008 A 
ATOM     44  C   UNL     1      69.033  48.825   8.706  1.00  0.00     0.157 A 
ATOM     45  C   UNL     1      69.489  48.971   6.325  1.00  0.00     0.050 A 
ATOM     46  C   UNL     1      68.620  48.636   7.371  1.00  0.00     0.157 A 
BRANCH  44  47
ATOM     47  O   UNL     1      68.172  48.487   9.743  1.00  0.00    -0.504 OA
ATOM     48  H   UNL     1      67.208  48.787   9.716  1.00  0.00     0.293 HD
ENDBRANCH  44  47
BRANCH  46  49
ATOM     49  O   UNL     1      67.357  48.111   7.096  1.00  0.00    -0.504 OA
ATOM     50  H   UNL     1      66.982  48.095   6.147  1.00  0.00     0.293 HD
ENDBRANCH  46  49
ENDBRANCH  40  41
ENDBRANCH  39  40
ENDBRANCH  38  39
ENDBRANCH   3  38
BRANCH   5  51
ATOM     51  C   UNL     1      73.504  45.797   5.618  1.00  0.00     0.192 C 
BRANCH  51  52
ATOM     52  O   UNL     1      72.383  45.139   5.093  1.00  0.00    -0.394 OA
ATOM     53  H   UNL     1      72.613  44.878   4.164  1.00  0.00     0.210 HD
ENDBRANCH  51  52
ENDBRANCH   5  51
TORSDOF 20
ENDMDL
MODEL 7
REMARK VINA RESULT:    -6.383      1.844      7.745
REMARK INTER + INTRA:         -15.275
REMARK INTER:                 -12.432
REMARK INTRA:                  -2.843
REMARK UNBOUND:                -3.108
REMARK SMILES C[C@H]1O[C@H](O[C@@H]2[C@H](O)[C@H](OCCc3ccc(O)c(O)c3)O[C@H](CO)[C@H]2OC(=O)C=Cc2ccc(O)c(O)c2)[C@@H](O)[C@@H](O)[C@@H]1O
REMARK SMILES IDX 6 1 7 2 9 3 21 4 22 5 25 6 5 7 4 8 1 9 2 10 43 11 3 12 41 13
REMARK SMILES IDX 39 14 44 15 42 17 40 19 8 21 26 23 27 24 28 25 29 26 30 27
REMARK SMILES IDX 31 28 38 29 32 30 36 31 33 32 34 33 37 34 35 36 10 38 11 39
REMARK SMILES IDX 12 40 13 41 20 42 14 43 18 44 15 45 16 46 19 47 17 49 23 51
REMARK SMILES IDX 24 52
REMARK H PARENT 44 16 42 18 40 20 8 22 37 35 35 37 19 48 17 50 24 53
REMARK Flexibility Score: inf
ROOT
ATOM      1  C   UNL     1      68.736  45.646  10.093  1.00  0.00     0.199 C 
ATOM      2  C   UNL     1      69.359  47.042   9.906  1.00  0.00     0.203 C 
ATOM      3  C   UNL     1      70.912  46.989  10.056  1.00  0.00     0.282 C 
ATOM      4  O   UNL     1      71.500  45.737   9.719  1.00  0.00    -0.340 OA
ATOM      5  C   UNL     1      70.834  45.000   8.701  1.00  0.00     0.190 C 
ATOM      6  C   UNL     1      69.446  44.556   9.218  1.00  0.00     0.240 C 
ENDROOT
BRANCH   1   7
ATOM      7  O   UNL     1      67.318  45.783  10.001  1.00  0.00    -0.340 OA
BRANCH   7   8
ATOM      8  C   UNL     1      66.750  46.331   8.822  1.00  0.00     0.282 C 
ATOM      9  C   UNL     1      64.685  43.401   7.939  1.00  0.00     0.041 C 
ATOM     10  C   UNL     1      65.179  44.569   8.793  1.00  0.00     0.150 C 
ATOM     11  C   UNL     1      63.967  45.464   9.233  1.00  0.00     0.174 C 
ATOM     12  O   UNL     1      66.138  45.316   8.041  1.00  0.00    -0.344 OA
ATOM     13  C   UNL     1      64.475  46.746   9.938  1.00  0.00     0.179 C 
ATOM     14  C   UNL     1      65.683  47.388   9.194  1.00  0.00     0.202 C 
BRANCH  11  15
ATOM     15  O   UNL     1      63.111  44.747  10.092  1.00  0.00    -0.388 OA
ATOM     16  H   UNL     1      62.895  45.357  10.856  1.00  0.00     0.211 HD
ENDBRANCH  11  15
BRANCH  13  17
ATOM     17  O   UNL     1      63.413  47.661  10.125  1.00  0.00    -0.387 OA
ATOM     18  H   UNL     1      63.597  48.509   9.614  1.00  0.00     0.211 HD
ENDBRANCH  13  17
BRANCH  14  19
ATOM     19  O   UNL     1      65.332  48.089   8.026  1.00  0.00    -0.385 OA
ATOM     20  H   UNL     1      66.139  48.530   7.657  1.00  0.00     0.211 HD
ENDBRANCH  14  19
ENDBRANCH   7   8
ENDBRANCH   1   7
BRANCH   2  21
ATOM     21  O   UNL     1      68.982  47.552   8.654  1.00  0.00    -0.385 OA
ATOM     22  H   UNL     1      69.804  47.699   8.114  1.00  0.00     0.211 HD
ENDBRANCH   2  21
BRANCH   6  23
ATOM     23  O   UNL     1      69.523  43.312   9.924  1.00  0.00    -0.453 OA
BRANCH  23  24
ATOM     24  C   UNL     1      69.264  42.059   9.351  1.00  0.00     0.331 C 
ATOM     25  O   UNL     1      70.149  41.139   9.443  1.00  0.00    -0.247 OA
BRANCH  24  26
ATOM     26  C   UNL     1      68.090  41.854   8.475  1.00  0.00     0.094 C 
ATOM     27  C   UNL     1      68.153  41.740   7.145  1.00  0.00     0.016 C 
BRANCH  27  28
ATOM     28  C   UNL     1      69.398  41.622   6.377  1.00  0.00    -0.021 A 
ATOM     29  C   UNL     1      69.862  42.709   5.625  1.00  0.00     0.058 A 
ATOM     30  C   UNL     1      70.125  40.420   6.375  1.00  0.00     0.012 A 
ATOM     31  C   UNL     1      71.037  42.595   4.867  1.00  0.00     0.157 A 
ATOM     32  C   UNL     1      71.313  40.301   5.657  1.00  0.00     0.051 A 
ATOM     33  C   UNL     1      71.769  41.375   4.887  1.00  0.00     0.157 A 
BRANCH  31  34
ATOM     34  O   UNL     1      71.409  43.678   4.068  1.00  0.00    -0.504 OA
ATOM     35  H   UNL     1      71.938  44.488   4.406  1.00  0.00     0.293 HD
ENDBRANCH  31  34
BRANCH  33  36
ATOM     36  O   UNL     1      72.925  41.192   4.129  1.00  0.00    -0.504 OA
ATOM     37  H   UNL     1      73.499  40.346   4.152  1.00  0.00     0.293 HD
ENDBRANCH  33  36
ENDBRANCH  27  28
ENDBRANCH  24  26
ENDBRANCH  23  24
ENDBRANCH   6  23
BRANCH   3  38
ATOM     38  O   UNL     1      71.526  48.034   9.321  1.00  0.00    -0.350 OA
BRANCH  38  39
ATOM     39  C   UNL     1      72.931  48.102   9.521  1.00  0.00     0.168 C 
BRANCH  39  40
ATOM     40  C   UNL     1      73.627  48.474   8.179  1.00  0.00     0.064 C 
BRANCH  40  41
ATOM     41  C   UNL     1      73.903  47.303   7.259  1.00  0.00    -0.042 A 
ATOM     42  C   UNL     1      73.567  47.356   5.891  1.00  0.00     0.054 A 
ATOM     43  C   UNL     1      74.364  46.084   7.794  1.00  0.00     0.008 A 
ATOM     44  C   UNL     1      73.712  46.219   5.083  1.00  0.00     0.157 A 
ATOM     45  C   UNL     1      74.509  44.954   6.997  1.00  0.00     0.050 A 
ATOM     46  C   UNL     1      74.181  45.009   5.637  1.00  0.00     0.157 A 
BRANCH  44  47
ATOM     47  O   UNL     1      73.381  46.271   3.736  1.00  0.00    -0.504 OA
ATOM     48  H   UNL     1      74.033  45.933   3.042  1.00  0.00     0.293 HD
ENDBRANCH  44  47
BRANCH  46  49
ATOM     49  O   UNL     1      74.307  43.875   4.835  1.00  0.00    -0.504 OA
ATOM     50  H   UNL     1      74.989  43.146   5.048  1.00  0.00     0.293 HD
ENDBRANCH  46  49
ENDBRANCH  40  41
ENDBRANCH  39  40
ENDBRANCH  38  39
ENDBRANCH   3  38
BRANCH   5  51
ATOM     51  C   UNL     1      70.782  45.730   7.311  1.00  0.00     0.192 C 
BRANCH  51  52
ATOM     52  O   UNL     1      69.504  45.700   6.734  1.00  0.00    -0.394 OA
ATOM     53  H   UNL     1      69.226  44.748   6.704  1.00  0.00     0.210 HD
ENDBRANCH  51  52
ENDBRANCH   5  51
TORSDOF 20
ENDMDL
MODEL 8
REMARK VINA RESULT:    -6.243      2.366      7.739
REMARK INTER + INTRA:         -15.009
REMARK INTER:                 -11.813
REMARK INTRA:                  -3.196
REMARK UNBOUND:                -3.108
REMARK SMILES C[C@H]1O[C@H](O[C@@H]2[C@H](O)[C@H](OCCc3ccc(O)c(O)c3)O[C@H](CO)[C@H]2OC(=O)C=Cc2ccc(O)c(O)c2)[C@@H](O)[C@@H](O)[C@@H]1O
REMARK SMILES IDX 6 1 7 2 9 3 21 4 22 5 25 6 5 7 4 8 1 9 2 10 43 11 3 12 41 13
REMARK SMILES IDX 39 14 44 15 42 17 40 19 8 21 26 23 27 24 28 25 29 26 30 27
REMARK SMILES IDX 31 28 38 29 32 30 36 31 33 32 34 33 37 34 35 36 10 38 11 39
REMARK SMILES IDX 12 40 13 41 20 42 14 43 18 44 15 45 16 46 19 47 17 49 23 51
REMARK SMILES IDX 24 52
REMARK H PARENT 44 16 42 18 40 20 8 22 37 35 35 37 19 48 17 50 24 53
REMARK Flexibility Score: inf
ROOT
ATOM      1  C   UNL     1      70.959  43.900   9.060  1.00  0.00     0.199 C 
ATOM      2  C   UNL     1      71.788  45.073   8.505  1.00  0.00     0.203 C 
ATOM      3  C   UNL     1      73.267  45.001   9.000  1.00  0.00     0.282 C 
ATOM      4  O   UNL     1      73.732  43.688   9.294  1.00  0.00    -0.340 OA
ATOM      5  C   UNL     1      73.168  42.646   8.506  1.00  0.00     0.190 C 
ATOM      6  C   UNL     1      71.662  42.518   8.835  1.00  0.00     0.240 C 
ENDROOT
BRANCH   1   7
ATOM      7  O   UNL     1      69.613  44.066   8.616  1.00  0.00    -0.340 OA
BRANCH   7   8
ATOM      8  C   UNL     1      68.626  44.493   9.541  1.00  0.00     0.282 C 
ATOM      9  C   UNL     1      68.635  48.054   8.567  1.00  0.00     0.041 C 
ATOM     10  C   UNL     1      68.467  46.545   8.385  1.00  0.00     0.150 C 
ATOM     11  C   UNL     1      67.068  46.232   7.748  1.00  0.00     0.174 C 
ATOM     12  O   UNL     1      68.622  45.907   9.655  1.00  0.00    -0.344 OA
ATOM     13  C   UNL     1      66.815  44.704   7.733  1.00  0.00     0.179 C 
ATOM     14  C   UNL     1      67.227  44.025   9.072  1.00  0.00     0.202 C 
BRANCH  11  15
ATOM     15  O   UNL     1      66.995  46.747   6.440  1.00  0.00    -0.388 OA
ATOM     16  H   UNL     1      67.287  46.013   5.825  1.00  0.00     0.211 HD
ENDBRANCH  11  15
BRANCH  13  17
ATOM     17  O   UNL     1      65.473  44.429   7.383  1.00  0.00    -0.387 OA
ATOM     18  H   UNL     1      64.914  45.260   7.488  1.00  0.00     0.211 HD
ENDBRANCH  13  17
BRANCH  14  19
ATOM     19  O   UNL     1      66.317  44.232  10.125  1.00  0.00    -0.385 OA
ATOM     20  H   UNL     1      65.413  44.384   9.748  1.00  0.00     0.211 HD
ENDBRANCH  14  19
ENDBRANCH   7   8
ENDBRANCH   1   7
BRANCH   2  21
ATOM     21  O   UNL     1      71.716  45.069   7.103  1.00  0.00    -0.385 OA
ATOM     22  H   UNL     1      72.624  45.254   6.741  1.00  0.00     0.211 HD
ENDBRANCH   2  21
BRANCH   6  23
ATOM     23  O   UNL     1      71.441  41.650   9.953  1.00  0.00    -0.453 OA
BRANCH  23  24
ATOM     24  C   UNL     1      70.664  40.484   9.910  1.00  0.00     0.331 C 
ATOM     25  O   UNL     1      71.244  39.359   9.718  1.00  0.00    -0.247 OA
BRANCH  24  26
ATOM     26  C   UNL     1      69.188  40.557   9.874  1.00  0.00     0.094 C 
ATOM     27  C   UNL     1      68.460  40.559   8.754  1.00  0.00     0.016 C 
BRANCH  27  28
ATOM     28  C   UNL     1      68.998  40.311   7.411  1.00  0.00    -0.021 A 
ATOM     29  C   UNL     1      69.512  41.372   6.655  1.00  0.00     0.058 A 
ATOM     30  C   UNL     1      68.987  39.016   6.866  1.00  0.00     0.012 A 
ATOM     31  C   UNL     1      70.003  41.147   5.361  1.00  0.00     0.157 A 
ATOM     32  C   UNL     1      69.504  38.768   5.596  1.00  0.00     0.051 A 
ATOM     33  C   UNL     1      69.999  39.827   4.829  1.00  0.00     0.157 A 
BRANCH  31  34
ATOM     34  O   UNL     1      70.425  42.252   4.618  1.00  0.00    -0.504 OA
ATOM     35  H   UNL     1      70.956  42.188   3.744  1.00  0.00     0.293 HD
ENDBRANCH  31  34
BRANCH  33  36
ATOM     36  O   UNL     1      70.443  39.547   3.537  1.00  0.00    -0.504 OA
ATOM     37  H   UNL     1      69.838  39.224   2.779  1.00  0.00     0.293 HD
ENDBRANCH  33  36
ENDBRANCH  27  28
ENDBRANCH  24  26
ENDBRANCH  23  24
ENDBRANCH   6  23
BRANCH   3  38
ATOM     38  O   UNL     1      74.139  45.637   8.081  1.00  0.00    -0.350 OA
BRANCH  38  39
ATOM     39  C   UNL     1      74.767  46.791   8.620  1.00  0.00     0.168 C 
BRANCH  39  40
ATOM     40  C   UNL     1      73.862  48.034   8.374  1.00  0.00     0.064 C 
BRANCH  40  41
ATOM     41  C   UNL     1      73.250  48.113   6.991  1.00  0.00    -0.042 A 
ATOM     42  C   UNL     1      71.883  48.405   6.814  1.00  0.00     0.054 A 
ATOM     43  C   UNL     1      74.014  47.747   5.865  1.00  0.00     0.008 A 
ATOM     44  C   UNL     1      71.308  48.349   5.535  1.00  0.00     0.157 A 
ATOM     45  C   UNL     1      73.449  47.690   4.596  1.00  0.00     0.050 A 
ATOM     46  C   UNL     1      72.091  47.985   4.420  1.00  0.00     0.157 A 
BRANCH  44  47
ATOM     47  O   UNL     1      69.961  48.635   5.361  1.00  0.00    -0.504 OA
ATOM     48  H   UNL     1      69.637  49.026   4.487  1.00  0.00     0.293 HD
ENDBRANCH  44  47
BRANCH  46  49
ATOM     49  O   UNL     1      71.513  47.912   3.153  1.00  0.00    -0.504 OA
ATOM     50  H   UNL     1      71.821  48.518   2.392  1.00  0.00     0.293 HD
ENDBRANCH  46  49
ENDBRANCH  40  41
ENDBRANCH  39  40
ENDBRANCH  38  39
ENDBRANCH   3  38
BRANCH   5  51
ATOM     51  C   UNL     1      73.466  42.770   6.969  1.00  0.00     0.192 C 
BRANCH  51  52
ATOM     52  O   UNL     1      73.063  41.637   6.248  1.00  0.00    -0.394 OA
ATOM     53  H   UNL     1      73.211  40.854   6.840  1.00  0.00     0.210 HD
ENDBRANCH  51  52
ENDBRANCH   5  51
TORSDOF 20
ENDMDL
MODEL 9
REMARK VINA RESULT:    -6.204      1.628      2.401
REMARK INTER + INTRA:         -14.935
REMARK INTER:                 -12.189
REMARK INTRA:                  -2.746
REMARK UNBOUND:                -3.108
REMARK SMILES C[C@H]1O[C@H](O[C@@H]2[C@H](O)[C@H](OCCc3ccc(O)c(O)c3)O[C@H](CO)[C@H]2OC(=O)C=Cc2ccc(O)c(O)c2)[C@@H](O)[C@@H](O)[C@@H]1O
REMARK SMILES IDX 6 1 7 2 9 3 21 4 22 5 25 6 5 7 4 8 1 9 2 10 43 11 3 12 41 13
REMARK SMILES IDX 39 14 44 15 42 17 40 19 8 21 26 23 27 24 28 25 29 26 30 27
REMARK SMILES IDX 31 28 38 29 32 30 36 31 33 32 34 33 37 34 35 36 10 38 11 39
REMARK SMILES IDX 12 40 13 41 20 42 14 43 18 44 15 45 16 46 19 47 17 49 23 51
REMARK SMILES IDX 24 52
REMARK H PARENT 44 16 42 18 40 20 8 22 37 35 35 37 19 48 17 50 24 53
REMARK Flexibility Score: inf
ROOT
ATOM      1  C   UNL     1      69.564  45.174   7.738  1.00  0.00     0.199 C 
ATOM      2  C   UNL     1      68.125  45.633   8.040  1.00  0.00     0.203 C 
ATOM      3  C   UNL     1      68.110  46.771   9.109  1.00  0.00     0.282 C 
ATOM      4  O   UNL     1      69.288  47.569   9.145  1.00  0.00    -0.340 OA
ATOM      5  C   UNL     1      69.952  47.740   7.898  1.00  0.00     0.190 C 
ATOM      6  C   UNL     1      70.520  46.378   7.432  1.00  0.00     0.240 C 
ENDROOT
BRANCH   1   7
ATOM      7  O   UNL     1      69.494  44.099   6.802  1.00  0.00    -0.340 OA
BRANCH   7   8
ATOM      8  C   UNL     1      68.889  42.877   7.195  1.00  0.00     0.282 C 
ATOM      9  C   UNL     1      70.509  40.757   4.643  1.00  0.00     0.041 C 
ATOM     10  C   UNL     1      70.427  41.711   5.836  1.00  0.00     0.150 C 
ATOM     11  C   UNL     1      71.263  41.144   7.037  1.00  0.00     0.174 C 
ATOM     12  O   UNL     1      69.053  41.890   6.190  1.00  0.00    -0.344 OA
ATOM     13  C   UNL     1      71.035  42.004   8.304  1.00  0.00     0.179 C 
ATOM     14  C   UNL     1      69.534  42.368   8.507  1.00  0.00     0.202 C 
BRANCH  11  15
ATOM     15  O   UNL     1      72.633  41.113   6.713  1.00  0.00    -0.388 OA
ATOM     16  H   UNL     1      72.972  42.051   6.812  1.00  0.00     0.211 HD
ENDBRANCH  11  15
BRANCH  13  17
ATOM     17  O   UNL     1      71.591  41.370   9.438  1.00  0.00    -0.387 OA
ATOM     18  H   UNL     1      71.040  41.582  10.254  1.00  0.00     0.211 HD
ENDBRANCH  13  17
BRANCH  14  19
ATOM     19  O   UNL     1      68.749  41.311   9.002  1.00  0.00    -0.385 OA
ATOM     20  H   UNL     1      69.144  40.450   8.713  1.00  0.00     0.211 HD
ENDBRANCH  14  19
ENDBRANCH   7   8
ENDBRANCH   1   7
BRANCH   2  21
ATOM     21  O   UNL     1      67.510  46.044   6.846  1.00  0.00    -0.385 OA
ATOM     22  H   UNL     1      67.434  45.255   6.245  1.00  0.00     0.211 HD
ENDBRANCH   2  21
BRANCH   6  23
ATOM     23  O   UNL     1      71.824  46.140   7.976  1.00  0.00    -0.453 OA
BRANCH  23  24
ATOM     24  C   UNL     1      72.778  47.139   8.211  1.00  0.00     0.331 C 
ATOM     25  O   UNL     1      73.160  47.363   9.412  1.00  0.00    -0.247 OA
BRANCH  24  26
ATOM     26  C   UNL     1      73.189  48.064   7.132  1.00  0.00     0.094 C 
ATOM     27  C   UNL     1      73.639  47.675   5.936  1.00  0.00     0.016 C 
BRANCH  27  28
ATOM     28  C   UNL     1      73.625  46.290   5.451  1.00  0.00    -0.021 A 
ATOM     29  C   UNL     1      72.704  45.901   4.471  1.00  0.00     0.058 A 
ATOM     30  C   UNL     1      74.519  45.341   5.975  1.00  0.00     0.012 A 
ATOM     31  C   UNL     1      72.666  44.572   4.022  1.00  0.00     0.157 A 
ATOM     32  C   UNL     1      74.520  44.026   5.514  1.00  0.00     0.051 A 
ATOM     33  C   UNL     1      73.589  43.627   4.551  1.00  0.00     0.157 A 
BRANCH  31  34
ATOM     34  O   UNL     1      71.673  44.217   3.106  1.00  0.00    -0.504 OA
ATOM     35  H   UNL     1      70.676  44.417   3.233  1.00  0.00     0.293 HD
ENDBRANCH  31  34
BRANCH  33  36
ATOM     36  O   UNL     1      73.578  42.286   4.168  1.00  0.00    -0.504 OA
ATOM     37  H   UNL     1      73.089  41.548   4.678  1.00  0.00     0.293 HD
ENDBRANCH  33  36
ENDBRANCH  27  28
ENDBRANCH  24  26
ENDBRANCH  23  24
ENDBRANCH   6  23
BRANCH   3  38
ATOM     38  O   UNL     1      66.965  47.592   8.957  1.00  0.00    -0.350 OA
BRANCH  38  39
ATOM     39  C   UNL     1      66.024  47.432  10.009  1.00  0.00     0.168 C 
BRANCH  39  40
ATOM     40  C   UNL     1      64.590  47.334   9.411  1.00  0.00     0.064 C 
BRANCH  40  41
ATOM     41  C   UNL     1      64.073  45.923   9.225  1.00  0.00    -0.042 A 
ATOM     42  C   UNL     1      64.417  45.163   8.090  1.00  0.00     0.054 A 
ATOM     43  C   UNL     1      63.113  45.406  10.118  1.00  0.00     0.008 A 
ATOM     44  C   UNL     1      63.828  43.909   7.872  1.00  0.00     0.157 A 
ATOM     45  C   UNL     1      62.526  44.163   9.907  1.00  0.00     0.050 A 
ATOM     46  C   UNL     1      62.874  43.406   8.781  1.00  0.00     0.157 A 
BRANCH  44  47
ATOM     47  O   UNL     1      64.167  43.161   6.753  1.00  0.00    -0.504 OA
ATOM     48  H   UNL     1      63.680  42.298   6.556  1.00  0.00     0.293 HD
ENDBRANCH  44  47
BRANCH  46  49
ATOM     49  O   UNL     1      62.276  42.167   8.554  1.00  0.00    -0.504 OA
ATOM     50  H   UNL     1      62.627  41.317   8.996  1.00  0.00     0.293 HD
ENDBRANCH  46  49
ENDBRANCH  40  41
ENDBRANCH  39  40
ENDBRANCH  38  39
ENDBRANCH   3  38
BRANCH   5  51
ATOM     51  C   UNL     1      69.089  48.467   6.806  1.00  0.00     0.192 C 
BRANCH  51  52
ATOM     52  O   UNL     1      69.763  48.595   5.583  1.00  0.00    -0.394 OA
ATOM     53  H   UNL     1      69.079  48.817   4.900  1.00  0.00     0.210 HD
ENDBRANCH  51  52
ENDBRANCH   5  51
TORSDOF 20
ENDMDL
