MODEL 1
REMARK VINA RESULT:    -4.398      0.000      0.000
REMARK INTER + INTRA:          -5.657
REMARK INTER:                  -5.426
REMARK INTRA:                  -0.231
REMARK UNBOUND:                -0.231
REMARK SMILES [NH3+][C@@H](Cc1ccc(O)cc1)C(=O)[O-]
REMARK SMILES IDX 3 1 2 2 1 3 11 7 12 8 13 9 4 10 5 11 10 12 6 13 9 14 7 15
REMARK SMILES IDX 8 16
REMARK H PARENT 1 4 1 5 1 6 8 17
REMARK Flexibility Score: inf
ROOT
ATOM      1  C   UNL     1       1.043  13.642  -6.935  1.00  0.00     0.107 C 
ENDROOT
BRANCH   1   2
ATOM      2  C   UNL     1      -0.446  13.580  -7.338  1.00  0.00     0.232 C 
BRANCH   2   3
ATOM      3  N   UNL     1      -1.306  14.201  -6.321  1.00  0.00    -0.350 N 
ATOM      4  H   UNL     1      -1.483  15.202  -6.565  1.00  0.00     0.345 HD
ATOM      5  H   UNL     1      -0.860  14.151  -5.376  1.00  0.00     0.345 HD
ATOM      6  H   UNL     1      -2.229  13.712  -6.292  1.00  0.00     0.345 HD
ENDBRANCH   2   3
BRANCH   2   7
ATOM      7  C   UNL     1      -0.854  12.149  -7.564  1.00  0.00     0.099 C 
ATOM      8  O   UNL     1      -1.728  11.611  -6.833  1.00  0.00    -0.544 OA
ATOM      9  O   UNL     1      -0.251  11.406  -8.570  1.00  0.00    -0.544 OA
ENDBRANCH   2   7
ENDBRANCH   1   2
BRANCH   1  10
ATOM     10  C   UNL     1       1.907  14.171  -8.052  1.00  0.00    -0.041 A 
ATOM     11  C   UNL     1       1.545  15.343  -8.737  1.00  0.00     0.008 A 
ATOM     12  C   UNL     1       3.063  13.476  -8.440  1.00  0.00     0.008 A 
ATOM     13  C   UNL     1       2.337  15.816  -9.788  1.00  0.00     0.046 A 
ATOM     14  C   UNL     1       3.853  13.952  -9.491  1.00  0.00     0.046 A 
ATOM     15  C   UNL     1       3.492  15.125 -10.168  1.00  0.00     0.115 A 
BRANCH  15  16
ATOM     16  O   UNL     1       4.271  15.608 -11.217  1.00  0.00    -0.508 OA
ATOM     17  H   UNL     1       3.889  15.732 -12.147  1.00  0.00     0.293 HD
ENDBRANCH  15  16
ENDBRANCH   1  10
TORSDOF 5
ENDMDL
MODEL 2
REMARK VINA RESULT:    -3.979      2.567      5.145
REMARK INTER + INTRA:          -5.141
REMARK INTER:                  -4.931
REMARK INTRA:                  -0.210
REMARK UNBOUND:                -0.231
REMARK SMILES [NH3+][C@@H](Cc1ccc(O)cc1)C(=O)[O-]
REMARK SMILES IDX 3 1 2 2 1 3 11 7 12 8 13 9 4 10 5 11 10 12 6 13 9 14 7 15
REMARK SMILES IDX 8 16
REMARK H PARENT 1 4 1 5 1 6 8 17
REMARK Flexibility Score: inf
ROOT
ATOM      1  C   UNL     1       1.876  14.369  -8.297  1.00  0.00     0.107 C 
ENDROOT
BRANCH   1   2
ATOM      2  C   UNL     1       3.027  14.007  -9.259  1.00  0.00     0.232 C 
BRANCH   2   3
ATOM      3  N   UNL     1       4.104  13.288  -8.565  1.00  0.00    -0.350 N 
ATOM      4  H   UNL     1       4.918  13.925  -8.410  1.00  0.00     0.345 HD
ATOM      5  H   UNL     1       4.417  12.459  -9.122  1.00  0.00     0.345 HD
ATOM      6  H   UNL     1       3.769  12.965  -7.629  1.00  0.00     0.345 HD
ENDBRANCH   2   3
BRANCH   2   7
ATOM      7  C   UNL     1       3.565  15.257  -9.903  1.00  0.00     0.099 C 
ATOM      8  O   UNL     1       3.458  16.371  -9.323  1.00  0.00    -0.544 OA
ATOM      9  O   UNL     1       4.164  15.191 -11.154  1.00  0.00    -0.544 OA
ENDBRANCH   2   7
ENDBRANCH   1   2
BRANCH   1  10
ATOM     10  C   UNL     1       0.529  14.006  -8.870  1.00  0.00    -0.041 A 
ATOM     11  C   UNL     1      -0.202  14.945  -9.617  1.00  0.00     0.008 A 
ATOM     12  C   UNL     1      -0.021  12.737  -8.632  1.00  0.00     0.008 A 
ATOM     13  C   UNL     1      -1.462  14.612 -10.126  1.00  0.00     0.046 A 
ATOM     14  C   UNL     1      -1.281  12.407  -9.143  1.00  0.00     0.046 A 
ATOM     15  C   UNL     1      -2.004  13.344  -9.892  1.00  0.00     0.115 A 
BRANCH  15  16
ATOM     16  O   UNL     1      -3.259  13.026 -10.406  1.00  0.00    -0.508 OA
ATOM     17  H   UNL     1      -3.864  12.354  -9.948  1.00  0.00     0.293 HD
ENDBRANCH  15  16
ENDBRANCH   1  10
TORSDOF 5
ENDMDL
MODEL 3
REMARK VINA RESULT:    -3.965      2.024      5.502
REMARK INTER + INTRA:          -5.123
REMARK INTER:                  -4.937
REMARK INTRA:                  -0.185
REMARK UNBOUND:                -0.231
REMARK SMILES [NH3+][C@@H](Cc1ccc(O)cc1)C(=O)[O-]
REMARK SMILES IDX 3 1 2 2 1 3 11 7 12 8 13 9 4 10 5 11 10 12 6 13 9 14 7 15
REMARK SMILES IDX 8 16
REMARK H PARENT 1 4 1 5 1 6 8 17
REMARK Flexibility Score: inf
ROOT
ATOM      1  C   UNL     1       2.291  14.803  -8.122  1.00  0.00     0.107 C 
ENDROOT
BRANCH   1   2
ATOM      2  C   UNL     1       3.114  14.238  -9.299  1.00  0.00     0.232 C 
BRANCH   2   3
ATOM      3  N   UNL     1       4.178  13.338  -8.831  1.00  0.00    -0.350 N 
ATOM      4  H   UNL     1       4.725  12.977  -9.645  1.00  0.00     0.345 HD
ATOM      5  H   UNL     1       3.775  12.531  -8.301  1.00  0.00     0.345 HD
ATOM      6  H   UNL     1       4.837  13.862  -8.210  1.00  0.00     0.345 HD
ENDBRANCH   2   3
BRANCH   2   7
ATOM      7  C   UNL     1       3.702  15.370 -10.099  1.00  0.00     0.099 C 
ATOM      8  O   UNL     1       4.218  15.154 -11.228  1.00  0.00    -0.544 OA
ATOM      9  O   UNL     1       3.698  16.659  -9.584  1.00  0.00    -0.544 OA
ENDBRANCH   2   7
ENDBRANCH   1   2
BRANCH   1  10
ATOM     10  C   UNL     1       1.163  13.882  -7.731  1.00  0.00    -0.041 A 
ATOM     11  C   UNL     1       0.464  13.158  -8.711  1.00  0.00     0.008 A 
ATOM     12  C   UNL     1       0.779  13.768  -6.386  1.00  0.00     0.008 A 
ATOM     13  C   UNL     1      -0.598  12.324  -8.346  1.00  0.00     0.046 A 
ATOM     14  C   UNL     1      -0.283  12.932  -6.024  1.00  0.00     0.046 A 
ATOM     15  C   UNL     1      -0.973  12.207  -7.004  1.00  0.00     0.115 A 
BRANCH  15  16
ATOM     16  O   UNL     1      -2.032  11.372  -6.655  1.00  0.00    -0.508 OA
ATOM     17  H   UNL     1      -2.547  11.502  -5.792  1.00  0.00     0.293 HD
ENDBRANCH  15  16
ENDBRANCH   1  10
TORSDOF 5
ENDMDL
MODEL 4
REMARK VINA RESULT:    -3.955      2.014      5.492
REMARK INTER + INTRA:          -5.111
REMARK INTER:                  -4.924
REMARK INTRA:                  -0.187
REMARK UNBOUND:                -0.231
REMARK SMILES [NH3+][C@@H](Cc1ccc(O)cc1)C(=O)[O-]
REMARK SMILES IDX 3 1 2 2 1 3 11 7 12 8 13 9 4 10 5 11 10 12 6 13 9 14 7 15
REMARK SMILES IDX 8 16
REMARK H PARENT 1 4 1 5 1 6 8 17
REMARK Flexibility Score: inf
ROOT
ATOM      1  C   UNL     1       2.284  14.813  -8.121  1.00  0.00     0.107 C 
ENDROOT
BRANCH   1   2
ATOM      2  C   UNL     1       3.104  14.238  -9.296  1.00  0.00     0.232 C 
BRANCH   2   3
ATOM      3  N   UNL     1       4.161  13.333  -8.825  1.00  0.00    -0.350 N 
ATOM      4  H   UNL     1       4.706  12.965  -9.638  1.00  0.00     0.345 HD
ATOM      5  H   UNL     1       3.753  12.530  -8.292  1.00  0.00     0.345 HD
ATOM      6  H   UNL     1       4.823  13.854  -8.206  1.00  0.00     0.345 HD
ENDBRANCH   2   3
BRANCH   2   7
ATOM      7  C   UNL     1       3.699  15.362 -10.100  1.00  0.00     0.099 C 
ATOM      8  O   UNL     1       4.205  15.140 -11.233  1.00  0.00    -0.544 OA
ATOM      9  O   UNL     1       3.712  16.652  -9.586  1.00  0.00    -0.544 OA
ENDBRANCH   2   7
ENDBRANCH   1   2
BRANCH   1  10
ATOM     10  C   UNL     1       1.131  13.916  -7.748  1.00  0.00    -0.041 A 
ATOM     11  C   UNL     1       0.714  13.812  -6.411  1.00  0.00     0.008 A 
ATOM     12  C   UNL     1       0.486  13.149  -8.732  1.00  0.00     0.008 A 
ATOM     13  C   UNL     1      -0.341  12.960  -6.067  1.00  0.00     0.046 A 
ATOM     14  C   UNL     1      -0.569  12.299  -8.385  1.00  0.00     0.046 A 
ATOM     15  C   UNL     1      -0.985  12.203  -7.050  1.00  0.00     0.115 A 
BRANCH  15  16
ATOM     16  O   UNL     1      -2.035  11.360  -6.693  1.00  0.00    -0.508 OA
ATOM     17  H   UNL     1      -2.300  10.570  -7.270  1.00  0.00     0.293 HD
ENDBRANCH  15  16
ENDBRANCH   1  10
TORSDOF 5
ENDMDL
MODEL 5
REMARK VINA RESULT:    -3.943      2.279      5.171
REMARK INTER + INTRA:          -5.097
REMARK INTER:                  -4.839
REMARK INTRA:                  -0.257
REMARK UNBOUND:                -0.231
REMARK SMILES [NH3+][C@@H](Cc1ccc(O)cc1)C(=O)[O-]
REMARK SMILES IDX 3 1 2 2 1 3 11 7 12 8 13 9 4 10 5 11 10 12 6 13 9 14 7 15
REMARK SMILES IDX 8 16
REMARK H PARENT 1 4 1 5 1 6 8 17
REMARK Flexibility Score: inf
ROOT
ATOM      1  C   UNL     1       1.482  14.918  -9.346  1.00  0.00     0.107 C 
ENDROOT
BRANCH   1   2
ATOM      2  C   UNL     1       2.952  15.093  -8.910  1.00  0.00     0.232 C 
BRANCH   2   3
ATOM      3  N   UNL     1       3.534  16.325  -9.460  1.00  0.00    -0.350 N 
ATOM      4  H   UNL     1       4.577  16.286  -9.402  1.00  0.00     0.345 HD
ATOM      5  H   UNL     1       3.192  17.164  -8.937  1.00  0.00     0.345 HD
ATOM      6  H   UNL     1       3.275  16.420 -10.469  1.00  0.00     0.345 HD
ENDBRANCH   2   3
BRANCH   2   7
ATOM      7  C   UNL     1       3.758  13.897  -9.342  1.00  0.00     0.099 C 
ATOM      8  O   UNL     1       4.115  13.768 -10.544  1.00  0.00    -0.544 OA
ATOM      9  O   UNL     1       4.094  12.916  -8.419  1.00  0.00    -0.544 OA
ENDBRANCH   2   7
ENDBRANCH   1   2
BRANCH   1  10
ATOM     10  C   UNL     1       0.730  13.988  -8.427  1.00  0.00    -0.041 A 
ATOM     11  C   UNL     1      -0.130  13.010  -8.952  1.00  0.00     0.008 A 
ATOM     12  C   UNL     1       0.857  14.117  -7.035  1.00  0.00     0.008 A 
ATOM     13  C   UNL     1      -0.844  12.166  -8.095  1.00  0.00     0.046 A 
ATOM     14  C   UNL     1       0.143  13.271  -6.180  1.00  0.00     0.046 A 
ATOM     15  C   UNL     1      -0.709  12.293  -6.708  1.00  0.00     0.115 A 
BRANCH  15  16
ATOM     16  O   UNL     1      -1.425  11.445  -5.866  1.00  0.00    -0.508 OA
ATOM     17  H   UNL     1      -2.367  11.147  -6.092  1.00  0.00     0.293 HD
ENDBRANCH  15  16
ENDBRANCH   1  10
TORSDOF 5
ENDMDL
MODEL 6
REMARK VINA RESULT:    -3.911      2.306      3.010
REMARK INTER + INTRA:          -5.057
REMARK INTER:                  -4.797
REMARK INTRA:                  -0.260
REMARK UNBOUND:                -0.231
REMARK SMILES [NH3+][C@@H](Cc1ccc(O)cc1)C(=O)[O-]
REMARK SMILES IDX 3 1 2 2 1 3 11 7 12 8 13 9 4 10 5 11 10 12 6 13 9 14 7 15
REMARK SMILES IDX 8 16
REMARK H PARENT 1 4 1 5 1 6 8 17
REMARK Flexibility Score: inf
ROOT
ATOM      1  C   UNL     1      -0.141  14.671  -8.563  1.00  0.00     0.107 C 
ENDROOT
BRANCH   1   2
ATOM      2  C   UNL     1      -0.613  13.481  -9.426  1.00  0.00     0.232 C 
BRANCH   2   3
ATOM      3  N   UNL     1      -1.740  13.856 -10.291  1.00  0.00    -0.350 N 
ATOM      4  H   UNL     1      -2.639  13.531  -9.869  1.00  0.00     0.345 HD
ATOM      5  H   UNL     1      -1.634  13.435 -11.243  1.00  0.00     0.345 HD
ATOM      6  H   UNL     1      -1.787  14.897 -10.380  1.00  0.00     0.345 HD
ENDBRANCH   2   3
BRANCH   2   7
ATOM      7  C   UNL     1      -0.999  12.329  -8.537  1.00  0.00     0.099 C 
ATOM      8  O   UNL     1      -0.302  11.279  -8.512  1.00  0.00    -0.544 OA
ATOM      9  O   UNL     1      -2.141  12.410  -7.751  1.00  0.00    -0.544 OA
ENDBRANCH   2   7
ENDBRANCH   1   2
BRANCH   1  10
ATOM     10  C   UNL     1       1.179  14.389  -7.891  1.00  0.00    -0.041 A 
ATOM     11  C   UNL     1       2.288  13.976  -8.647  1.00  0.00     0.008 A 
ATOM     12  C   UNL     1       1.300  14.504  -6.497  1.00  0.00     0.008 A 
ATOM     13  C   UNL     1       3.504  13.692  -8.016  1.00  0.00     0.046 A 
ATOM     14  C   UNL     1       2.517  14.221  -5.869  1.00  0.00     0.046 A 
ATOM     15  C   UNL     1       3.623  13.814  -6.628  1.00  0.00     0.115 A 
BRANCH  15  16
ATOM     16  O   UNL     1       4.840  13.529  -6.012  1.00  0.00    -0.508 OA
ATOM     17  H   UNL     1       5.139  12.575  -5.846  1.00  0.00     0.293 HD
ENDBRANCH  15  16
ENDBRANCH   1  10
TORSDOF 5
ENDMDL
MODEL 7
REMARK VINA RESULT:    -3.859      9.639     11.430
REMARK INTER + INTRA:          -4.992
REMARK INTER:                  -4.813
REMARK INTRA:                  -0.178
REMARK UNBOUND:                -0.231
REMARK SMILES [NH3+][C@@H](Cc1ccc(O)cc1)C(=O)[O-]
REMARK SMILES IDX 3 1 2 2 1 3 11 7 12 8 13 9 4 10 5 11 10 12 6 13 9 14 7 15
REMARK SMILES IDX 8 16
REMARK H PARENT 1 4 1 5 1 6 8 17
REMARK Flexibility Score: inf
ROOT
ATOM      1  C   UNL     1       9.773   6.985 -10.469  1.00  0.00     0.107 C 
ENDROOT
BRANCH   1   2
ATOM      2  C   UNL     1       9.262   6.015 -11.556  1.00  0.00     0.232 C 
BRANCH   2   3
ATOM      3  N   UNL     1      10.288   5.031 -11.927  1.00  0.00    -0.350 N 
ATOM      4  H   UNL     1      10.902   4.827 -11.105  1.00  0.00     0.345 HD
ATOM      5  H   UNL     1      10.876   5.385 -12.716  1.00  0.00     0.345 HD
ATOM      6  H   UNL     1       9.832   4.135 -12.214  1.00  0.00     0.345 HD
ENDBRANCH   2   3
BRANCH   2   7
ATOM      7  C   UNL     1       8.824   6.794 -12.768  1.00  0.00     0.099 C 
ATOM      8  O   UNL     1       9.364   6.590 -13.888  1.00  0.00    -0.544 OA
ATOM      9  O   UNL     1       7.833   7.760 -12.652  1.00  0.00    -0.544 OA
ENDBRANCH   2   7
ENDBRANCH   1   2
BRANCH   1  10
ATOM     10  C   UNL     1       8.921   6.937  -9.227  1.00  0.00    -0.041 A 
ATOM     11  C   UNL     1       9.492   6.621  -7.983  1.00  0.00     0.008 A 
ATOM     12  C   UNL     1       7.539   7.173  -9.309  1.00  0.00     0.008 A 
ATOM     13  C   UNL     1       8.693   6.554  -6.838  1.00  0.00     0.046 A 
ATOM     14  C   UNL     1       6.742   7.106  -8.162  1.00  0.00     0.046 A 
ATOM     15  C   UNL     1       7.318   6.796  -6.922  1.00  0.00     0.115 A 
BRANCH  15  16
ATOM     16  O   UNL     1       6.534   6.727  -5.773  1.00  0.00    -0.508 OA
ATOM     17  H   UNL     1       5.932   7.493  -5.495  1.00  0.00     0.293 HD
ENDBRANCH  15  16
ENDBRANCH   1  10
TORSDOF 5
ENDMDL
MODEL 8
REMARK VINA RESULT:    -3.857      2.216      5.206
REMARK INTER + INTRA:          -4.990
REMARK INTER:                  -4.746
REMARK INTRA:                  -0.244
REMARK UNBOUND:                -0.231
REMARK SMILES [NH3+][C@@H](Cc1ccc(O)cc1)C(=O)[O-]
REMARK SMILES IDX 3 1 2 2 1 3 11 7 12 8 13 9 4 10 5 11 10 12 6 13 9 14 7 15
REMARK SMILES IDX 8 16
REMARK H PARENT 1 4 1 5 1 6 8 17
REMARK Flexibility Score: inf
ROOT
ATOM      1  C   UNL     1       1.426  14.835  -9.205  1.00  0.00     0.107 C 
ENDROOT
BRANCH   1   2
ATOM      2  C   UNL     1       2.828  15.004  -8.581  1.00  0.00     0.232 C 
BRANCH   2   3
ATOM      3  N   UNL     1       3.386  16.334  -8.860  1.00  0.00    -0.350 N 
ATOM      4  H   UNL     1       3.462  16.481  -9.893  1.00  0.00     0.345 HD
ATOM      5  H   UNL     1       4.332  16.439  -8.427  1.00  0.00     0.345 HD
ATOM      6  H   UNL     1       2.751  17.072  -8.479  1.00  0.00     0.345 HD
ENDBRANCH   2   3
BRANCH   2   7
ATOM      7  C   UNL     1       3.749  13.932  -9.100  1.00  0.00     0.099 C 
ATOM      8  O   UNL     1       4.002  13.848 -10.332  1.00  0.00    -0.544 OA
ATOM      9  O   UNL     1       4.311  13.015  -8.221  1.00  0.00    -0.544 OA
ENDBRANCH   2   7
ENDBRANCH   1   2
BRANCH   1  10
ATOM     10  C   UNL     1       0.550  13.927  -8.381  1.00  0.00    -0.041 A 
ATOM     11  C   UNL     1       0.624  13.946  -6.978  1.00  0.00     0.008 A 
ATOM     12  C   UNL     1      -0.325  13.027  -9.011  1.00  0.00     0.008 A 
ATOM     13  C   UNL     1      -0.174  13.085  -6.219  1.00  0.00     0.046 A 
ATOM     14  C   UNL     1      -1.123  12.167  -8.248  1.00  0.00     0.046 A 
ATOM     15  C   UNL     1      -1.049  12.195  -6.850  1.00  0.00     0.115 A 
BRANCH  15  16
ATOM     16  O   UNL     1      -1.838  11.343  -6.080  1.00  0.00    -0.508 OA
ATOM     17  H   UNL     1      -1.844  11.396  -5.068  1.00  0.00     0.293 HD
ENDBRANCH  15  16
ENDBRANCH   1  10
TORSDOF 5
ENDMDL
MODEL 9
REMARK VINA RESULT:    -3.742      2.705      4.812
REMARK INTER + INTRA:          -4.848
REMARK INTER:                  -4.629
REMARK INTRA:                  -0.219
REMARK UNBOUND:                -0.231
REMARK SMILES [NH3+][C@@H](Cc1ccc(O)cc1)C(=O)[O-]
REMARK SMILES IDX 3 1 2 2 1 3 11 7 12 8 13 9 4 10 5 11 10 12 6 13 9 14 7 15
REMARK SMILES IDX 8 16
REMARK H PARENT 1 4 1 5 1 6 8 17
REMARK Flexibility Score: inf
ROOT
ATOM      1  C   UNL     1       1.429  14.861  -8.783  1.00  0.00     0.107 C 
ENDROOT
BRANCH   1   2
ATOM      2  C   UNL     1       2.229  13.746  -8.076  1.00  0.00     0.232 C 
BRANCH   2   3
ATOM      3  N   UNL     1       2.426  14.045  -6.650  1.00  0.00    -0.350 N 
ATOM      4  H   UNL     1       2.522  15.076  -6.511  1.00  0.00     0.345 HD
ATOM      5  H   UNL     1       3.282  13.567  -6.285  1.00  0.00     0.345 HD
ATOM      6  H   UNL     1       1.595  13.725  -6.103  1.00  0.00     0.345 HD
ENDBRANCH   2   3
BRANCH   2   7
ATOM      7  C   UNL     1       3.557  13.560  -8.759  1.00  0.00     0.099 C 
ATOM      8  O   UNL     1       4.518  13.016  -8.151  1.00  0.00    -0.544 OA
ATOM      9  O   UNL     1       3.737  14.009 -10.061  1.00  0.00    -0.544 OA
ENDBRANCH   2   7
ENDBRANCH   1   2
BRANCH   1  10
ATOM     10  C   UNL     1       0.089  14.369  -9.269  1.00  0.00    -0.041 A 
ATOM     11  C   UNL     1      -0.757  15.218 -10.001  1.00  0.00     0.008 A 
ATOM     12  C   UNL     1      -0.339  13.068  -8.963  1.00  0.00     0.008 A 
ATOM     13  C   UNL     1      -2.010  14.766 -10.429  1.00  0.00     0.046 A 
ATOM     14  C   UNL     1      -1.591  12.617  -9.393  1.00  0.00     0.046 A 
ATOM     15  C   UNL     1      -2.430  13.466 -10.128  1.00  0.00     0.115 A 
BRANCH  15  16
ATOM     16  O   UNL     1      -3.680  13.028 -10.561  1.00  0.00    -0.508 OA
ATOM     17  H   UNL     1      -3.797  12.560 -11.452  1.00  0.00     0.293 HD
ENDBRANCH  15  16
ENDBRANCH   1  10
TORSDOF 5
ENDMDL
