MODEL 1
REMARK VINA RESULT:    -5.269      0.000      0.000
REMARK INTER + INTRA:         -18.900
REMARK INTER:                 -13.893
REMARK INTRA:                  -5.007
REMARK UNBOUND:                -5.007
REMARK SMILES CCCCCCCCCCCCCCCCCCCCCCCCCCCCCC(=O)[O-]
REMARK SMILES IDX 16 1 17 2 18 3 19 4 20 5 21 6 22 7 23 8 24 9 25 10 26 11
REMARK SMILES IDX 27 12 28 13 29 14 30 15 31 16 32 17 15 18 14 19 13 20 12 21
REMARK SMILES IDX 11 22 10 23 9 24 8 25 7 26 6 27 5 28 4 29 3 30 2 31 1 32
REMARK H PARENT
REMARK Flexibility Score: inf
ROOT
ATOM      1  C   UNL     1      62.240  14.387  95.913  1.00  0.00     0.000 C 
ENDROOT
BRANCH   1   2
ATOM      2  C   UNL     1      61.186  13.940  96.934  1.00  0.00     0.000 C 
BRANCH   2   3
ATOM      3  C   UNL     1      60.322  15.124  97.397  1.00  0.00     0.000 C 
BRANCH   3   4
ATOM      4  C   UNL     1      59.062  15.304  96.536  1.00  0.00     0.000 C 
BRANCH   4   5
ATOM      5  C   UNL     1      58.213  14.023  96.455  1.00  0.00     0.000 C 
BRANCH   5   6
ATOM      6  C   UNL     1      57.590  13.813  95.066  1.00  0.00     0.000 C 
BRANCH   6   7
ATOM      7  C   UNL     1      56.363  14.709  94.830  1.00  0.00     0.000 C 
BRANCH   7   8
ATOM      8  C   UNL     1      56.107  15.001  93.342  1.00  0.00     0.000 C 
BRANCH   8   9
ATOM      9  C   UNL     1      54.640  14.795  92.909  1.00  0.00     0.000 C 
BRANCH   9  10
ATOM     10  C   UNL     1      54.078  13.441  93.369  1.00  0.00     0.000 C 
BRANCH  10  11
ATOM     11  C   UNL     1      54.647  12.287  92.528  1.00  0.00     0.000 C 
BRANCH  11  12
ATOM     12  C   UNL     1      55.442  11.283  93.386  1.00  0.00     0.000 C 
BRANCH  12  13
ATOM     13  C   UNL     1      55.001  11.235  94.862  1.00  0.00     0.006 C 
BRANCH  13  14
ATOM     14  C   UNL     1      55.599  10.061  95.660  1.00  0.00     0.053 C 
BRANCH  14  15
ATOM     15  C   UNL     1      54.555   9.078  96.103  1.00  0.00     0.041 C 
ATOM     16  O   UNL     1      54.036   9.174  97.245  1.00  0.00    -0.550 OA
ATOM     17  O   UNL     1      54.190   8.029  95.269  1.00  0.00    -0.550 OA
ENDBRANCH  14  15
ENDBRANCH  13  14
ENDBRANCH  12  13
ENDBRANCH  11  12
ENDBRANCH  10  11
ENDBRANCH   9  10
ENDBRANCH   8   9
ENDBRANCH   7   8
ENDBRANCH   6   7
ENDBRANCH   5   6
ENDBRANCH   4   5
ENDBRANCH   3   4
ENDBRANCH   2   3
ENDBRANCH   1   2
BRANCH   1  18
ATOM     18  C   UNL     1      62.181  13.515  94.649  1.00  0.00     0.000 C 
BRANCH  18  19
ATOM     19  C   UNL     1      61.039  13.933  93.699  1.00  0.00     0.000 C 
BRANCH  19  20
ATOM     20  C   UNL     1      61.084  15.418  93.302  1.00  0.00     0.000 C 
BRANCH  20  21
ATOM     21  C   UNL     1      59.684  16.040  93.155  1.00  0.00     0.000 C 
BRANCH  21  22
ATOM     22  C   UNL     1      59.709  17.349  92.349  1.00  0.00     0.000 C 
BRANCH  22  23
ATOM     23  C   UNL     1      58.845  17.274  91.079  1.00  0.00     0.000 C 
BRANCH  23  24
ATOM     24  C   UNL     1      59.611  16.681  89.885  1.00  0.00    -0.000 C 
BRANCH  24  25
ATOM     25  C   UNL     1      59.114  15.274  89.511  1.00  0.00    -0.000 C 
BRANCH  25  26
ATOM     26  C   UNL     1      57.637  15.046  89.871  1.00  0.00    -0.000 C 
BRANCH  26  27
ATOM     27  C   UNL     1      57.316  13.594  90.286  1.00  0.00    -0.000 C 
BRANCH  27  28
ATOM     28  C   UNL     1      58.505  12.647  90.051  1.00  0.00    -0.000 C 
BRANCH  28  29
ATOM     29  C   UNL     1      58.074  11.182  89.855  1.00  0.00    -0.000 C 
BRANCH  29  30
ATOM     30  C   UNL     1      59.094  10.134  90.339  1.00  0.00    -0.000 C 
BRANCH  30  31
ATOM     31  C   UNL     1      60.547  10.625  90.247  1.00  0.00    -0.003 C 
ATOM     32  C   UNL     1      61.234  10.573  91.609  1.00  0.00     0.004 C 
ENDBRANCH  30  31
ENDBRANCH  29  30
ENDBRANCH  28  29
ENDBRANCH  27  28
ENDBRANCH  26  27
ENDBRANCH  25  26
ENDBRANCH  24  25
ENDBRANCH  23  24
ENDBRANCH  22  23
ENDBRANCH  21  22
ENDBRANCH  20  21
ENDBRANCH  19  20
ENDBRANCH  18  19
ENDBRANCH   1  18
TORSDOF 28
ENDMDL
MODEL 2
REMARK VINA RESULT:    -5.161      2.687      6.916
REMARK INTER + INTRA:         -18.616
REMARK INTER:                 -13.350
REMARK INTRA:                  -5.266
REMARK UNBOUND:                -5.007
REMARK SMILES CCCCCCCCCCCCCCCCCCCCCCCCCCCCCC(=O)[O-]
REMARK SMILES IDX 16 1 17 2 18 3 19 4 20 5 21 6 22 7 23 8 24 9 25 10 26 11
REMARK SMILES IDX 27 12 28 13 29 14 30 15 31 16 32 17 15 18 14 19 13 20 12 21
REMARK SMILES IDX 11 22 10 23 9 24 8 25 7 26 6 27 5 28 4 29 3 30 2 31 1 32
REMARK H PARENT
REMARK Flexibility Score: inf
ROOT
ATOM      1  C   UNL     1      56.378  11.802  88.509  1.00  0.00     0.000 C 
ENDROOT
BRANCH   1   2
ATOM      2  C   UNL     1      56.014  12.960  89.445  1.00  0.00     0.000 C 
BRANCH   2   3
ATOM      3  C   UNL     1      56.418  14.314  88.841  1.00  0.00     0.000 C 
BRANCH   3   4
ATOM      4  C   UNL     1      57.224  15.180  89.823  1.00  0.00     0.000 C 
BRANCH   4   5
ATOM      5  C   UNL     1      58.692  15.349  89.394  1.00  0.00     0.000 C 
BRANCH   5   6
ATOM      6  C   UNL     1      59.395  16.497  90.134  1.00  0.00     0.000 C 
BRANCH   6   7
ATOM      7  C   UNL     1      58.938  16.621  91.597  1.00  0.00     0.000 C 
BRANCH   7   8
ATOM      8  C   UNL     1      59.763  17.640  92.402  1.00  0.00     0.000 C 
BRANCH   8   9
ATOM      9  C   UNL     1      60.922  17.011  93.204  1.00  0.00     0.000 C 
BRANCH   9  10
ATOM     10  C   UNL     1      60.942  15.478  93.099  1.00  0.00     0.000 C 
BRANCH  10  11
ATOM     11  C   UNL     1      62.157  14.886  93.832  1.00  0.00     0.000 C 
BRANCH  11  12
ATOM     12  C   UNL     1      61.772  13.667  94.695  1.00  0.00     0.000 C 
BRANCH  12  13
ATOM     13  C   UNL     1      62.198  13.785  96.170  1.00  0.00     0.006 C 
BRANCH  13  14
ATOM     14  C   UNL     1      61.057  14.183  97.126  1.00  0.00     0.053 C 
BRANCH  14  15
ATOM     15  C   UNL     1      60.506  15.545  96.826  1.00  0.00     0.041 C 
ATOM     16  O   UNL     1      59.322  15.677  96.419  1.00  0.00    -0.550 OA
ATOM     17  O   UNL     1      61.315  16.667  96.952  1.00  0.00    -0.550 OA
ENDBRANCH  14  15
ENDBRANCH  13  14
ENDBRANCH  12  13
ENDBRANCH  11  12
ENDBRANCH  10  11
ENDBRANCH   9  10
ENDBRANCH   8   9
ENDBRANCH   7   8
ENDBRANCH   6   7
ENDBRANCH   5   6
ENDBRANCH   4   5
ENDBRANCH   3   4
ENDBRANCH   2   3
ENDBRANCH   1   2
BRANCH   1  18
ATOM     18  C   UNL     1      57.429  10.886  89.155  1.00  0.00     0.000 C 
BRANCH  18  19
ATOM     19  C   UNL     1      58.872  11.300  88.798  1.00  0.00     0.000 C 
BRANCH  19  20
ATOM     20  C   UNL     1      59.902  10.927  89.877  1.00  0.00     0.000 C 
BRANCH  20  21
ATOM     21  C   UNL     1      59.313  10.947  91.298  1.00  0.00     0.000 C 
BRANCH  21  22
ATOM     22  C   UNL     1      59.504  12.306  91.991  1.00  0.00     0.000 C 
BRANCH  22  23
ATOM     23  C   UNL     1      58.169  12.946  92.408  1.00  0.00     0.000 C 
BRANCH  23  24
ATOM     24  C   UNL     1      58.147  13.338  93.894  1.00  0.00    -0.000 C 
BRANCH  24  25
ATOM     25  C   UNL     1      56.961  14.254  94.241  1.00  0.00    -0.000 C 
BRANCH  25  26
ATOM     26  C   UNL     1      56.051  13.667  95.333  1.00  0.00    -0.000 C 
BRANCH  26  27
ATOM     27  C   UNL     1      55.088  12.577  94.818  1.00  0.00    -0.000 C 
BRANCH  27  28
ATOM     28  C   UNL     1      54.401  12.983  93.503  1.00  0.00    -0.000 C 
BRANCH  28  29
ATOM     29  C   UNL     1      54.493  11.893  92.418  1.00  0.00    -0.000 C 
BRANCH  29  30
ATOM     30  C   UNL     1      55.363  10.678  92.789  1.00  0.00    -0.000 C 
BRANCH  30  31
ATOM     31  C   UNL     1      54.657   9.337  92.538  1.00  0.00    -0.003 C 
ATOM     32  C   UNL     1      54.269   8.663  93.852  1.00  0.00     0.004 C 
ENDBRANCH  30  31
ENDBRANCH  29  30
ENDBRANCH  28  29
ENDBRANCH  27  28
ENDBRANCH  26  27
ENDBRANCH  25  26
ENDBRANCH  24  25
ENDBRANCH  23  24
ENDBRANCH  22  23
ENDBRANCH  21  22
ENDBRANCH  20  21
ENDBRANCH  19  20
ENDBRANCH  18  19
ENDBRANCH   1  18
TORSDOF 28
ENDMDL
MODEL 3
REMARK VINA RESULT:    -5.145      2.737      6.883
REMARK INTER + INTRA:         -18.574
REMARK INTER:                 -13.039
REMARK INTRA:                  -5.535
REMARK UNBOUND:                -5.007
REMARK SMILES CCCCCCCCCCCCCCCCCCCCCCCCCCCCCC(=O)[O-]
REMARK SMILES IDX 16 1 17 2 18 3 19 4 20 5 21 6 22 7 23 8 24 9 25 10 26 11
REMARK SMILES IDX 27 12 28 13 29 14 30 15 31 16 32 17 15 18 14 19 13 20 12 21
REMARK SMILES IDX 11 22 10 23 9 24 8 25 7 26 6 27 5 28 4 29 3 30 2 31 1 32
REMARK H PARENT
REMARK Flexibility Score: inf
ROOT
ATOM      1  C   UNL     1      55.328  10.327  92.444  1.00  0.00     0.000 C 
ENDROOT
BRANCH   1   2
ATOM      2  C   UNL     1      54.605  11.525  91.817  1.00  0.00     0.000 C 
BRANCH   2   3
ATOM      3  C   UNL     1      54.413  12.657  92.838  1.00  0.00     0.000 C 
BRANCH   3   4
ATOM      4  C   UNL     1      54.857  14.023  92.292  1.00  0.00     0.000 C 
BRANCH   4   5
ATOM      5  C   UNL     1      55.578  13.912  90.937  1.00  0.00     0.000 C 
BRANCH   5   6
ATOM      6  C   UNL     1      56.370  15.180  90.583  1.00  0.00     0.000 C 
BRANCH   6   7
ATOM      7  C   UNL     1      57.428  14.929  89.496  1.00  0.00     0.000 C 
BRANCH   7   8
ATOM      8  C   UNL     1      58.741  15.689  89.747  1.00  0.00     0.000 C 
BRANCH   8   9
ATOM      9  C   UNL     1      58.608  16.850  90.756  1.00  0.00     0.000 C 
BRANCH   9  10
ATOM     10  C   UNL     1      59.973  17.381  91.219  1.00  0.00     0.000 C 
BRANCH  10  11
ATOM     11  C   UNL     1      60.579  16.484  92.311  1.00  0.00     0.000 C 
BRANCH  11  12
ATOM     12  C   UNL     1      60.576  17.172  93.691  1.00  0.00     0.000 C 
BRANCH  12  13
ATOM     13  C   UNL     1      61.058  16.268  94.841  1.00  0.00     0.006 C 
BRANCH  13  14
ATOM     14  C   UNL     1      60.508  16.662  96.226  1.00  0.00     0.053 C 
BRANCH  14  15
ATOM     15  C   UNL     1      60.633  15.553  97.229  1.00  0.00     0.041 C 
ATOM     16  O   UNL     1      61.319  14.531  96.965  1.00  0.00    -0.550 OA
ATOM     17  O   UNL     1      59.955  15.630  98.438  1.00  0.00    -0.550 OA
ENDBRANCH  14  15
ENDBRANCH  13  14
ENDBRANCH  12  13
ENDBRANCH  11  12
ENDBRANCH  10  11
ENDBRANCH   9  10
ENDBRANCH   8   9
ENDBRANCH   7   8
ENDBRANCH   6   7
ENDBRANCH   5   6
ENDBRANCH   4   5
ENDBRANCH   3   4
ENDBRANCH   2   3
ENDBRANCH   1   2
BRANCH   1  18
ATOM     18  C   UNL     1      54.320   9.280  92.941  1.00  0.00     0.000 C 
BRANCH  18  19
ATOM     19  C   UNL     1      54.650   8.771  94.360  1.00  0.00     0.000 C 
BRANCH  19  20
ATOM     20  C   UNL     1      54.378   9.809  95.462  1.00  0.00     0.000 C 
BRANCH  20  21
ATOM     21  C   UNL     1      55.663  10.311  96.142  1.00  0.00     0.000 C 
BRANCH  21  22
ATOM     22  C   UNL     1      56.137  11.658  95.573  1.00  0.00     0.000 C 
BRANCH  22  23
ATOM     23  C   UNL     1      56.861  12.517  96.623  1.00  0.00     0.000 C 
BRANCH  23  24
ATOM     24  C   UNL     1      58.035  13.309  96.024  1.00  0.00    -0.000 C 
BRANCH  24  25
ATOM     25  C   UNL     1      57.566  14.405  95.051  1.00  0.00    -0.000 C 
BRANCH  25  26
ATOM     26  C   UNL     1      58.230  14.303  93.669  1.00  0.00    -0.000 C 
BRANCH  26  27
ATOM     27  C   UNL     1      58.287  12.865  93.113  1.00  0.00    -0.000 C 
BRANCH  27  28
ATOM     28  C   UNL     1      59.191  12.755  91.873  1.00  0.00    -0.000 C 
BRANCH  28  29
ATOM     29  C   UNL     1      59.003  11.432  91.109  1.00  0.00    -0.000 C 
BRANCH  29  30
ATOM     30  C   UNL     1      58.614  11.587  89.627  1.00  0.00    -0.000 C 
BRANCH  30  31
ATOM     31  C   UNL     1      57.235  10.993  89.304  1.00  0.00    -0.003 C 
ATOM     32  C   UNL     1      56.784  11.376  87.896  1.00  0.00     0.004 C 
ENDBRANCH  30  31
ENDBRANCH  29  30
ENDBRANCH  28  29
ENDBRANCH  27  28
ENDBRANCH  26  27
ENDBRANCH  25  26
ENDBRANCH  24  25
ENDBRANCH  23  24
ENDBRANCH  22  23
ENDBRANCH  21  22
ENDBRANCH  20  21
ENDBRANCH  19  20
ENDBRANCH  18  19
ENDBRANCH   1  18
TORSDOF 28
ENDMDL
MODEL 4
REMARK VINA RESULT:    -5.128      3.131      5.865
REMARK INTER + INTRA:         -18.530
REMARK INTER:                 -13.462
REMARK INTRA:                  -5.067
REMARK UNBOUND:                -5.007
REMARK SMILES CCCCCCCCCCCCCCCCCCCCCCCCCCCCCC(=O)[O-]
REMARK SMILES IDX 16 1 17 2 18 3 19 4 20 5 21 6 22 7 23 8 24 9 25 10 26 11
REMARK SMILES IDX 27 12 28 13 29 14 30 15 31 16 32 17 15 18 14 19 13 20 12 21
REMARK SMILES IDX 11 22 10 23 9 24 8 25 7 26 6 27 5 28 4 29 3 30 2 31 1 32
REMARK H PARENT
REMARK Flexibility Score: inf
ROOT
ATOM      1  C   UNL     1      54.570  14.011  92.427  1.00  0.00     0.000 C 
ENDROOT
BRANCH   1   2
ATOM      2  C   UNL     1      53.957  12.666  92.832  1.00  0.00     0.000 C 
BRANCH   2   3
ATOM      3  C   UNL     1      54.769  11.490  92.265  1.00  0.00     0.000 C 
BRANCH   3   4
ATOM      4  C   UNL     1      55.244  10.521  93.360  1.00  0.00     0.000 C 
BRANCH   4   5
ATOM      5  C   UNL     1      55.148  11.130  94.770  1.00  0.00     0.000 C 
BRANCH   5   6
ATOM      6  C   UNL     1      55.907  10.306  95.822  1.00  0.00     0.000 C 
BRANCH   6   7
ATOM      7  C   UNL     1      56.727  11.187  96.780  1.00  0.00     0.000 C 
BRANCH   7   8
ATOM      8  C   UNL     1      57.449  12.342  96.065  1.00  0.00     0.000 C 
BRANCH   8   9
ATOM      9  C   UNL     1      57.098  13.738  96.624  1.00  0.00     0.000 C 
BRANCH   9  10
ATOM     10  C   UNL     1      58.299  14.696  96.601  1.00  0.00     0.000 C 
BRANCH  10  11
ATOM     11  C   UNL     1      59.600  13.949  96.266  1.00  0.00     0.000 C 
BRANCH  11  12
ATOM     12  C   UNL     1      60.827  14.592  96.945  1.00  0.00     0.000 C 
BRANCH  12  13
ATOM     13  C   UNL     1      62.024  14.805  96.000  1.00  0.00     0.006 C 
BRANCH  13  14
ATOM     14  C   UNL     1      61.636  14.980  94.519  1.00  0.00     0.053 C 
BRANCH  14  15
ATOM     15  C   UNL     1      61.637  16.418  94.092  1.00  0.00     0.041 C 
ATOM     16  O   UNL     1      60.626  17.140  94.288  1.00  0.00    -0.550 OA
ATOM     17  O   UNL     1      62.741  16.947  93.435  1.00  0.00    -0.550 OA
ENDBRANCH  14  15
ENDBRANCH  13  14
ENDBRANCH  12  13
ENDBRANCH  11  12
ENDBRANCH  10  11
ENDBRANCH   9  10
ENDBRANCH   8   9
ENDBRANCH   7   8
ENDBRANCH   6   7
ENDBRANCH   5   6
ENDBRANCH   4   5
ENDBRANCH   3   4
ENDBRANCH   2   3
ENDBRANCH   1   2
BRANCH   1  18
ATOM     18  C   UNL     1      55.292  14.663  93.617  1.00  0.00     0.000 C 
BRANCH  18  19
ATOM     19  C   UNL     1      56.719  15.126  93.258  1.00  0.00     0.000 C 
BRANCH  19  20
ATOM     20  C   UNL     1      57.663  13.970  92.886  1.00  0.00     0.000 C 
BRANCH  20  21
ATOM     21  C   UNL     1      58.956  14.450  92.203  1.00  0.00     0.000 C 
BRANCH  21  22
ATOM     22  C   UNL     1      58.829  15.878  91.649  1.00  0.00     0.000 C 
BRANCH  22  23
ATOM     23  C   UNL     1      59.339  15.995  90.203  1.00  0.00     0.000 C 
BRANCH  23  24
ATOM     24  C   UNL     1      58.556  15.096  89.232  1.00  0.00    -0.000 C 
BRANCH  24  25
ATOM     25  C   UNL     1      57.052  15.056  89.554  1.00  0.00    -0.000 C 
BRANCH  25  26
ATOM     26  C   UNL     1      56.272  14.087  88.650  1.00  0.00    -0.000 C 
BRANCH  26  27
ATOM     27  C   UNL     1      56.122  12.671  89.243  1.00  0.00    -0.000 C 
BRANCH  27  28
ATOM     28  C   UNL     1      56.715  11.590  88.323  1.00  0.00    -0.000 C 
BRANCH  28  29
ATOM     29  C   UNL     1      58.177  11.248  88.665  1.00  0.00    -0.000 C 
BRANCH  29  30
ATOM     30  C   UNL     1      58.384  10.573  90.033  1.00  0.00    -0.000 C 
BRANCH  30  31
ATOM     31  C   UNL     1      59.484  11.241  90.871  1.00  0.00    -0.003 C 
ATOM     32  C   UNL     1      60.698  10.326  91.019  1.00  0.00     0.004 C 
ENDBRANCH  30  31
ENDBRANCH  29  30
ENDBRANCH  28  29
ENDBRANCH  27  28
ENDBRANCH  26  27
ENDBRANCH  25  26
ENDBRANCH  24  25
ENDBRANCH  23  24
ENDBRANCH  22  23
ENDBRANCH  21  22
ENDBRANCH  20  21
ENDBRANCH  19  20
ENDBRANCH  18  19
ENDBRANCH   1  18
TORSDOF 28
ENDMDL
MODEL 5
REMARK VINA RESULT:    -5.121      2.740      6.406
REMARK INTER + INTRA:         -18.510
REMARK INTER:                 -12.953
REMARK INTRA:                  -5.557
REMARK UNBOUND:                -5.007
REMARK SMILES CCCCCCCCCCCCCCCCCCCCCCCCCCCCCC(=O)[O-]
REMARK SMILES IDX 16 1 17 2 18 3 19 4 20 5 21 6 22 7 23 8 24 9 25 10 26 11
REMARK SMILES IDX 27 12 28 13 29 14 30 15 31 16 32 17 15 18 14 19 13 20 12 21
REMARK SMILES IDX 11 22 10 23 9 24 8 25 7 26 6 27 5 28 4 29 3 30 2 31 1 32
REMARK H PARENT
REMARK Flexibility Score: inf
ROOT
ATOM      1  C   UNL     1      56.437  14.776  94.329  1.00  0.00     0.000 C 
ENDROOT
BRANCH   1   2
ATOM      2  C   UNL     1      56.985  14.705  92.900  1.00  0.00     0.000 C 
BRANCH   2   3
ATOM      3  C   UNL     1      58.236  13.814  92.826  1.00  0.00     0.000 C 
BRANCH   3   4
ATOM      4  C   UNL     1      59.030  14.022  91.526  1.00  0.00     0.000 C 
BRANCH   4   5
ATOM      5  C   UNL     1      58.280  14.901  90.510  1.00  0.00     0.000 C 
BRANCH   5   6
ATOM      6  C   UNL     1      59.025  16.209  90.198  1.00  0.00     0.000 C 
BRANCH   6   7
ATOM      7  C   UNL     1      58.514  17.392  91.037  1.00  0.00     0.000 C 
BRANCH   7   8
ATOM      8  C   UNL     1      59.633  18.110  91.809  1.00  0.00     0.000 C 
BRANCH   8   9
ATOM      9  C   UNL     1      60.211  17.288  92.981  1.00  0.00     0.000 C 
BRANCH   9  10
ATOM     10  C   UNL     1      61.737  17.139  92.895  1.00  0.00     0.000 C 
BRANCH  10  11
ATOM     11  C   UNL     1      62.257  16.122  93.923  1.00  0.00     0.000 C 
BRANCH  11  12
ATOM     12  C   UNL     1      61.180  15.085  94.305  1.00  0.00     0.000 C 
BRANCH  12  13
ATOM     13  C   UNL     1      61.420  14.406  95.667  1.00  0.00     0.006 C 
BRANCH  13  14
ATOM     14  C   UNL     1      61.913  15.363  96.770  1.00  0.00     0.053 C 
BRANCH  14  15
ATOM     15  C   UNL     1      60.815  16.232  97.307  1.00  0.00     0.041 C 
ATOM     16  O   UNL     1      60.580  17.354  96.786  1.00  0.00    -0.550 OA
ATOM     17  O   UNL     1      60.080  15.823  98.412  1.00  0.00    -0.550 OA
ENDBRANCH  14  15
ENDBRANCH  13  14
ENDBRANCH  12  13
ENDBRANCH  11  12
ENDBRANCH  10  11
ENDBRANCH   9  10
ENDBRANCH   8   9
ENDBRANCH   7   8
ENDBRANCH   6   7
ENDBRANCH   5   6
ENDBRANCH   4   5
ENDBRANCH   3   4
ENDBRANCH   2   3
ENDBRANCH   1   2
BRANCH   1  18
ATOM     18  C   UNL     1      57.531  15.217  95.313  1.00  0.00     0.000 C 
BRANCH  18  19
ATOM     19  C   UNL     1      57.851  14.132  96.363  1.00  0.00     0.000 C 
BRANCH  19  20
ATOM     20  C   UNL     1      56.716  13.113  96.557  1.00  0.00     0.000 C 
BRANCH  20  21
ATOM     21  C   UNL     1      57.101  11.695  96.100  1.00  0.00     0.000 C 
BRANCH  21  22
ATOM     22  C   UNL     1      55.992  10.668  96.384  1.00  0.00     0.000 C 
BRANCH  22  23
ATOM     23  C   UNL     1      55.281  10.201  95.103  1.00  0.00     0.000 C 
BRANCH  23  24
ATOM     24  C   UNL     1      54.969  11.366  94.150  1.00  0.00    -0.000 C 
BRANCH  24  25
ATOM     25  C   UNL     1      55.492  11.113  92.725  1.00  0.00    -0.000 C 
BRANCH  25  26
ATOM     26  C   UNL     1      54.809  11.999  91.671  1.00  0.00    -0.000 C 
BRANCH  26  27
ATOM     27  C   UNL     1      55.711  12.335  90.465  1.00  0.00    -0.000 C 
BRANCH  27  28
ATOM     28  C   UNL     1      56.795  11.269  90.234  1.00  0.00    -0.000 C 
BRANCH  28  29
ATOM     29  C   UNL     1      57.624  11.523  88.961  1.00  0.00    -0.000 C 
BRANCH  29  30
ATOM     30  C   UNL     1      59.117  11.162  89.076  1.00  0.00    -0.000 C 
BRANCH  30  31
ATOM     31  C   UNL     1      59.413  10.195  90.232  1.00  0.00    -0.003 C 
ATOM     32  C   UNL     1      60.721  10.556  90.932  1.00  0.00     0.004 C 
ENDBRANCH  30  31
ENDBRANCH  29  30
ENDBRANCH  28  29
ENDBRANCH  27  28
ENDBRANCH  26  27
ENDBRANCH  25  26
ENDBRANCH  24  25
ENDBRANCH  23  24
ENDBRANCH  22  23
ENDBRANCH  21  22
ENDBRANCH  20  21
ENDBRANCH  19  20
ENDBRANCH  18  19
ENDBRANCH   1  18
TORSDOF 28
ENDMDL
MODEL 6
REMARK VINA RESULT:    -5.109      1.347      5.224
REMARK INTER + INTRA:         -18.478
REMARK INTER:                 -13.439
REMARK INTRA:                  -5.039
REMARK UNBOUND:                -5.007
REMARK SMILES CCCCCCCCCCCCCCCCCCCCCCCCCCCCCC(=O)[O-]
REMARK SMILES IDX 16 1 17 2 18 3 19 4 20 5 21 6 22 7 23 8 24 9 25 10 26 11
REMARK SMILES IDX 27 12 28 13 29 14 30 15 31 16 32 17 15 18 14 19 13 20 12 21
REMARK SMILES IDX 11 22 10 23 9 24 8 25 7 26 6 27 5 28 4 29 3 30 2 31 1 32
REMARK H PARENT
REMARK Flexibility Score: inf
ROOT
ATOM      1  C   UNL     1      59.660  13.233  92.505  1.00  0.00     0.000 C 
ENDROOT
BRANCH   1   2
ATOM      2  C   UNL     1      58.934  11.996  91.965  1.00  0.00     0.000 C 
BRANCH   2   3
ATOM      3  C   UNL     1      59.913  11.031  91.279  1.00  0.00     0.000 C 
BRANCH   3   4
ATOM      4  C   UNL     1      59.348  10.451  89.972  1.00  0.00     0.000 C 
BRANCH   4   5
ATOM      5  C   UNL     1      58.662  11.518  89.100  1.00  0.00     0.000 C 
BRANCH   5   6
ATOM      6  C   UNL     1      57.166  11.238  88.892  1.00  0.00     0.000 C 
BRANCH   6   7
ATOM      7  C   UNL     1      56.309  12.510  89.000  1.00  0.00     0.000 C 
BRANCH   7   8
ATOM      8  C   UNL     1      55.711  12.715  90.402  1.00  0.00     0.000 C 
BRANCH   8   9
ATOM      9  C   UNL     1      55.597  14.197  90.821  1.00  0.00     0.000 C 
BRANCH   9  10
ATOM     10  C   UNL     1      54.949  14.365  92.204  1.00  0.00     0.000 C 
BRANCH  10  11
ATOM     11  C   UNL     1      54.233  13.078  92.644  1.00  0.00     0.000 C 
BRANCH  11  12
ATOM     12  C   UNL     1      54.226  12.916  94.177  1.00  0.00     0.000 C 
BRANCH  12  13
ATOM     13  C   UNL     1      54.866  11.604  94.670  1.00  0.00     0.006 C 
BRANCH  13  14
ATOM     14  C   UNL     1      55.120  10.570  93.557  1.00  0.00     0.053 C 
BRANCH  14  15
ATOM     15  C   UNL     1      54.541   9.224  93.881  1.00  0.00     0.041 C 
ATOM     16  O   UNL     1      54.016   8.523  92.977  1.00  0.00    -0.550 OA
ATOM     17  O   UNL     1      54.541   8.764  95.191  1.00  0.00    -0.550 OA
ENDBRANCH  14  15
ENDBRANCH  13  14
ENDBRANCH  12  13
ENDBRANCH  11  12
ENDBRANCH  10  11
ENDBRANCH   9  10
ENDBRANCH   8   9
ENDBRANCH   7   8
ENDBRANCH   6   7
ENDBRANCH   5   6
ENDBRANCH   4   5
ENDBRANCH   3   4
ENDBRANCH   2   3
ENDBRANCH   1   2
BRANCH   1  18
ATOM     18  C   UNL     1      58.914  14.519  92.114  1.00  0.00     0.000 C 
BRANCH  18  19
ATOM     19  C   UNL     1      59.018  14.824  90.605  1.00  0.00     0.000 C 
BRANCH  19  20
ATOM     20  C   UNL     1      58.649  16.273  90.246  1.00  0.00     0.000 C 
BRANCH  20  21
ATOM     21  C   UNL     1      58.540  17.186  91.480  1.00  0.00     0.000 C 
BRANCH  21  22
ATOM     22  C   UNL     1      59.538  18.354  91.432  1.00  0.00     0.000 C 
BRANCH  22  23
ATOM     23  C   UNL     1      60.885  18.005  92.089  1.00  0.00     0.000 C 
BRANCH  23  24
ATOM     24  C   UNL     1      60.714  17.136  93.345  1.00  0.00    -0.000 C 
BRANCH  24  25
ATOM     25  C   UNL     1      62.016  16.418  93.743  1.00  0.00    -0.000 C 
BRANCH  25  26
ATOM     26  C   UNL     1      62.029  15.975  95.215  1.00  0.00    -0.000 C 
BRANCH  26  27
ATOM     27  C   UNL     1      61.962  14.445  95.403  1.00  0.00    -0.000 C 
BRANCH  27  28
ATOM     28  C   UNL     1      61.024  14.041  96.553  1.00  0.00    -0.000 C 
BRANCH  28  29
ATOM     29  C   UNL     1      60.312  15.245  97.197  1.00  0.00    -0.000 C 
BRANCH  29  30
ATOM     30  C   UNL     1      58.791  15.302  96.964  1.00  0.00    -0.000 C 
BRANCH  30  31
ATOM     31  C   UNL     1      58.349  14.543  95.703  1.00  0.00    -0.003 C 
ATOM     32  C   UNL     1      56.998  15.047  95.201  1.00  0.00     0.004 C 
ENDBRANCH  30  31
ENDBRANCH  29  30
ENDBRANCH  28  29
ENDBRANCH  27  28
ENDBRANCH  26  27
ENDBRANCH  25  26
ENDBRANCH  24  25
ENDBRANCH  23  24
ENDBRANCH  22  23
ENDBRANCH  21  22
ENDBRANCH  20  21
ENDBRANCH  19  20
ENDBRANCH  18  19
ENDBRANCH   1  18
TORSDOF 28
ENDMDL
MODEL 7
REMARK VINA RESULT:    -5.083      2.749      6.801
REMARK INTER + INTRA:         -18.411
REMARK INTER:                 -12.828
REMARK INTRA:                  -5.583
REMARK UNBOUND:                -5.007
REMARK SMILES CCCCCCCCCCCCCCCCCCCCCCCCCCCCCC(=O)[O-]
REMARK SMILES IDX 16 1 17 2 18 3 19 4 20 5 21 6 22 7 23 8 24 9 25 10 26 11
REMARK SMILES IDX 27 12 28 13 29 14 30 15 31 16 32 17 15 18 14 19 13 20 12 21
REMARK SMILES IDX 11 22 10 23 9 24 8 25 7 26 6 27 5 28 4 29 3 30 2 31 1 32
REMARK H PARENT
REMARK Flexibility Score: inf
ROOT
ATOM      1  C   UNL     1      56.519  11.645  89.788  1.00  0.00     0.000 C 
ENDROOT
BRANCH   1   2
ATOM      2  C   UNL     1      55.839  13.019  89.813  1.00  0.00     0.000 C 
BRANCH   2   3
ATOM      3  C   UNL     1      56.662  14.063  89.043  1.00  0.00     0.000 C 
BRANCH   3   4
ATOM      4  C   UNL     1      57.447  14.999  89.977  1.00  0.00     0.000 C 
BRANCH   4   5
ATOM      5  C   UNL     1      58.943  15.063  89.628  1.00  0.00     0.000 C 
BRANCH   5   6
ATOM      6  C   UNL     1      59.556  16.444  89.908  1.00  0.00     0.000 C 
BRANCH   6   7
ATOM      7  C   UNL     1      58.795  17.215  91.000  1.00  0.00     0.000 C 
BRANCH   7   8
ATOM      8  C   UNL     1      59.684  17.604  92.193  1.00  0.00     0.000 C 
BRANCH   8   9
ATOM      9  C   UNL     1      60.492  16.427  92.780  1.00  0.00     0.000 C 
BRANCH   9  10
ATOM     10  C   UNL     1      60.958  16.697  94.218  1.00  0.00     0.000 C 
BRANCH  10  11
ATOM     11  C   UNL     1      60.755  15.463  95.111  1.00  0.00     0.000 C 
BRANCH  11  12
ATOM     12  C   UNL     1      62.055  14.649  95.276  1.00  0.00     0.000 C 
BRANCH  12  13
ATOM     13  C   UNL     1      61.904  13.402  96.167  1.00  0.00     0.006 C 
BRANCH  13  14
ATOM     14  C   UNL     1      63.237  12.836  96.692  1.00  0.00     0.053 C 
BRANCH  14  15
ATOM     15  C   UNL     1      63.366  11.360  96.457  1.00  0.00     0.041 C 
ATOM     16  O   UNL     1      63.211  10.549  97.406  1.00  0.00    -0.550 OA
ATOM     17  O   UNL     1      63.703  10.883  95.196  1.00  0.00    -0.550 OA
ENDBRANCH  14  15
ENDBRANCH  13  14
ENDBRANCH  12  13
ENDBRANCH  11  12
ENDBRANCH  10  11
ENDBRANCH   9  10
ENDBRANCH   8   9
ENDBRANCH   7   8
ENDBRANCH   6   7
ENDBRANCH   5   6
ENDBRANCH   4   5
ENDBRANCH   3   4
ENDBRANCH   2   3
ENDBRANCH   1   2
BRANCH   1  18
ATOM     18  C   UNL     1      57.653  11.615  88.751  1.00  0.00     0.000 C 
BRANCH  18  19
ATOM     19  C   UNL     1      59.000  11.177  89.364  1.00  0.00     0.000 C 
BRANCH  19  20
ATOM     20  C   UNL     1      58.947  10.989  90.889  1.00  0.00     0.000 C 
BRANCH  20  21
ATOM     21  C   UNL     1      60.164  11.595  91.609  1.00  0.00     0.000 C 
BRANCH  21  22
ATOM     22  C   UNL     1      59.778  12.776  92.515  1.00  0.00     0.000 C 
BRANCH  22  23
ATOM     23  C   UNL     1      58.272  12.811  92.825  1.00  0.00     0.000 C 
BRANCH  23  24
ATOM     24  C   UNL     1      57.946  13.687  94.046  1.00  0.00    -0.000 C 
BRANCH  24  25
ATOM     25  C   UNL     1      57.258  15.006  93.653  1.00  0.00    -0.000 C 
BRANCH  25  26
ATOM     26  C   UNL     1      55.759  15.023  93.995  1.00  0.00    -0.000 C 
BRANCH  26  27
ATOM     27  C   UNL     1      54.876  14.312  92.949  1.00  0.00    -0.000 C 
BRANCH  27  28
ATOM     28  C   UNL     1      53.899  13.314  93.594  1.00  0.00    -0.000 C 
BRANCH  28  29
ATOM     29  C   UNL     1      54.514  12.561  94.789  1.00  0.00    -0.000 C 
BRANCH  29  30
ATOM     30  C   UNL     1      54.854  11.084  94.521  1.00  0.00    -0.000 C 
BRANCH  30  31
ATOM     31  C   UNL     1      55.195  10.805  93.049  1.00  0.00    -0.003 C 
ATOM     32  C   UNL     1      54.641   9.454  92.601  1.00  0.00     0.004 C 
ENDBRANCH  30  31
ENDBRANCH  29  30
ENDBRANCH  28  29
ENDBRANCH  27  28
ENDBRANCH  26  27
ENDBRANCH  25  26
ENDBRANCH  24  25
ENDBRANCH  23  24
ENDBRANCH  22  23
ENDBRANCH  21  22
ENDBRANCH  20  21
ENDBRANCH  19  20
ENDBRANCH  18  19
ENDBRANCH   1  18
TORSDOF 28
ENDMDL
MODEL 8
REMARK VINA RESULT:    -5.072      1.533      4.585
REMARK INTER + INTRA:         -18.382
REMARK INTER:                 -12.620
REMARK INTRA:                  -5.763
REMARK UNBOUND:                -5.007
REMARK SMILES CCCCCCCCCCCCCCCCCCCCCCCCCCCCCC(=O)[O-]
REMARK SMILES IDX 16 1 17 2 18 3 19 4 20 5 21 6 22 7 23 8 24 9 25 10 26 11
REMARK SMILES IDX 27 12 28 13 29 14 30 15 31 16 32 17 15 18 14 19 13 20 12 21
REMARK SMILES IDX 11 22 10 23 9 24 8 25 7 26 6 27 5 28 4 29 3 30 2 31 1 32
REMARK H PARENT
REMARK Flexibility Score: inf
ROOT
ATOM      1  C   UNL     1      63.082  11.360  93.880  1.00  0.00     0.000 C 
ENDROOT
BRANCH   1   2
ATOM      2  C   UNL     1      63.043  12.875  93.652  1.00  0.00     0.000 C 
BRANCH   2   3
ATOM      3  C   UNL     1      61.753  13.491  94.216  1.00  0.00     0.000 C 
BRANCH   3   4
ATOM      4  C   UNL     1      61.440  14.865  93.603  1.00  0.00     0.000 C 
BRANCH   4   5
ATOM      5  C   UNL     1      61.860  16.029  94.518  1.00  0.00     0.000 C 
BRANCH   5   6
ATOM      6  C   UNL     1      61.561  15.753  96.000  1.00  0.00     0.000 C 
BRANCH   6   7
ATOM      7  C   UNL     1      60.123  16.134  96.391  1.00  0.00     0.000 C 
BRANCH   7   8
ATOM      8  C   UNL     1      59.342  14.969  97.022  1.00  0.00     0.000 C 
BRANCH   8   9
ATOM      9  C   UNL     1      58.331  14.304  96.065  1.00  0.00     0.000 C 
BRANCH   9  10
ATOM     10  C   UNL     1      57.846  15.263  94.967  1.00  0.00     0.000 C 
BRANCH  10  11
ATOM     11  C   UNL     1      57.347  14.492  93.735  1.00  0.00     0.000 C 
BRANCH  11  12
ATOM     12  C   UNL     1      58.118  13.172  93.528  1.00  0.00     0.000 C 
BRANCH  12  13
ATOM     13  C   UNL     1      57.223  11.979  93.142  1.00  0.00     0.006 C 
BRANCH  13  14
ATOM     14  C   UNL     1      55.758  12.115  93.599  1.00  0.00     0.053 C 
BRANCH  14  15
ATOM     15  C   UNL     1      55.488  11.386  94.882  1.00  0.00     0.041 C 
ATOM     16  O   UNL     1      56.442  10.945  95.576  1.00  0.00    -0.550 OA
ATOM     17  O   UNL     1      54.181  11.154  95.289  1.00  0.00    -0.550 OA
ENDBRANCH  14  15
ENDBRANCH  13  14
ENDBRANCH  12  13
ENDBRANCH  11  12
ENDBRANCH  10  11
ENDBRANCH   9  10
ENDBRANCH   8   9
ENDBRANCH   7   8
ENDBRANCH   6   7
ENDBRANCH   5   6
ENDBRANCH   4   5
ENDBRANCH   3   4
ENDBRANCH   2   3
ENDBRANCH   1   2
BRANCH   1  18
ATOM     18  C   UNL     1      63.171  10.609  92.542  1.00  0.00     0.000 C 
BRANCH  18  19
ATOM     19  C   UNL     1      61.847   9.907  92.172  1.00  0.00     0.000 C 
BRANCH  19  20
ATOM     20  C   UNL     1      60.808  10.850  91.543  1.00  0.00     0.000 C 
BRANCH  20  21
ATOM     21  C   UNL     1      60.844  10.838  90.005  1.00  0.00     0.000 C 
BRANCH  21  22
ATOM     22  C   UNL     1      59.441  10.952  89.387  1.00  0.00     0.000 C 
BRANCH  22  23
ATOM     23  C   UNL     1      58.360  10.286  90.256  1.00  0.00     0.000 C 
BRANCH  23  24
ATOM     24  C   UNL     1      56.957  10.410  89.642  1.00  0.00    -0.000 C 
BRANCH  24  25
ATOM     25  C   UNL     1      56.960  11.214  88.329  1.00  0.00    -0.000 C 
BRANCH  25  26
ATOM     26  C   UNL     1      56.186  12.537  88.436  1.00  0.00    -0.000 C 
BRANCH  26  27
ATOM     27  C   UNL     1      56.074  13.075  89.878  1.00  0.00    -0.000 C 
BRANCH  27  28
ATOM     28  C   UNL     1      56.818  14.409  90.061  1.00  0.00    -0.000 C 
BRANCH  28  29
ATOM     29  C   UNL     1      58.343  14.271  89.904  1.00  0.00    -0.000 C 
BRANCH  29  30
ATOM     30  C   UNL     1      59.155  15.510  90.328  1.00  0.00    -0.000 C 
BRANCH  30  31
ATOM     31  C   UNL     1      58.284  16.615  90.944  1.00  0.00    -0.003 C 
ATOM     32  C   UNL     1      59.120  17.564  91.801  1.00  0.00     0.004 C 
ENDBRANCH  30  31
ENDBRANCH  29  30
ENDBRANCH  28  29
ENDBRANCH  27  28
ENDBRANCH  26  27
ENDBRANCH  25  26
ENDBRANCH  24  25
ENDBRANCH  23  24
ENDBRANCH  22  23
ENDBRANCH  21  22
ENDBRANCH  20  21
ENDBRANCH  19  20
ENDBRANCH  18  19
ENDBRANCH   1  18
TORSDOF 28
ENDMDL
MODEL 9
REMARK VINA RESULT:    -5.010      1.454      4.982
REMARK INTER + INTRA:         -18.219
REMARK INTER:                 -12.983
REMARK INTRA:                  -5.235
REMARK UNBOUND:                -5.007
REMARK SMILES CCCCCCCCCCCCCCCCCCCCCCCCCCCCCC(=O)[O-]
REMARK SMILES IDX 16 1 17 2 18 3 19 4 20 5 21 6 22 7 23 8 24 9 25 10 26 11
REMARK SMILES IDX 27 12 28 13 29 14 30 15 31 16 32 17 15 18 14 19 13 20 12 21
REMARK SMILES IDX 11 22 10 23 9 24 8 25 7 26 6 27 5 28 4 29 3 30 2 31 1 32
REMARK H PARENT
REMARK Flexibility Score: inf
ROOT
ATOM      1  C   UNL     1      63.494  10.781  93.880  1.00  0.00     0.000 C 
ENDROOT
BRANCH   1   2
ATOM      2  C   UNL     1      62.721  10.079  92.758  1.00  0.00     0.000 C 
BRANCH   2   3
ATOM      3  C   UNL     1      61.715  11.032  92.094  1.00  0.00     0.000 C 
BRANCH   3   4
ATOM      4  C   UNL     1      60.714  10.293  91.190  1.00  0.00     0.000 C 
BRANCH   4   5
ATOM      5  C   UNL     1      59.588  11.210  90.684  1.00  0.00     0.000 C 
BRANCH   5   6
ATOM      6  C   UNL     1      59.065  10.795  89.299  1.00  0.00     0.000 C 
BRANCH   6   7
ATOM      7  C   UNL     1      57.836  11.612  88.865  1.00  0.00     0.000 C 
BRANCH   7   8
ATOM      8  C   UNL     1      57.796  13.016  89.490  1.00  0.00     0.000 C 
BRANCH   8   9
ATOM      9  C   UNL     1      56.390  13.655  89.499  1.00  0.00     0.000 C 
BRANCH   9  10
ATOM     10  C   UNL     1      56.139  14.496  90.760  1.00  0.00     0.000 C 
BRANCH  10  11
ATOM     11  C   UNL     1      55.246  13.746  91.761  1.00  0.00     0.000 C 
BRANCH  11  12
ATOM     12  C   UNL     1      55.177  12.236  91.454  1.00  0.00     0.000 C 
BRANCH  12  13
ATOM     13  C   UNL     1      56.021  11.365  92.404  1.00  0.00     0.006 C 
BRANCH  13  14
ATOM     14  C   UNL     1      55.209  10.315  93.185  1.00  0.00     0.053 C 
BRANCH  14  15
ATOM     15  C   UNL     1      55.107  10.640  94.646  1.00  0.00     0.041 C 
ATOM     16  O   UNL     1      55.626   9.880  95.505  1.00  0.00    -0.550 OA
ATOM     17  O   UNL     1      54.399  11.760  95.062  1.00  0.00    -0.550 OA
ENDBRANCH  14  15
ENDBRANCH  13  14
ENDBRANCH  12  13
ENDBRANCH  11  12
ENDBRANCH  10  11
ENDBRANCH   9  10
ENDBRANCH   8   9
ENDBRANCH   7   8
ENDBRANCH   6   7
ENDBRANCH   5   6
ENDBRANCH   4   5
ENDBRANCH   3   4
ENDBRANCH   2   3
ENDBRANCH   1   2
BRANCH   1  18
ATOM     18  C   UNL     1      63.114  12.267  93.959  1.00  0.00     0.000 C 
BRANCH  18  19
ATOM     19  C   UNL     1      62.991  12.767  95.414  1.00  0.00     0.000 C 
BRANCH  19  20
ATOM     20  C   UNL     1      61.829  13.752  95.628  1.00  0.00     0.000 C 
BRANCH  20  21
ATOM     21  C   UNL     1      62.290  15.108  96.189  1.00  0.00     0.000 C 
BRANCH  21  22
ATOM     22  C   UNL     1      61.109  16.040  96.507  1.00  0.00     0.000 C 
BRANCH  22  23
ATOM     23  C   UNL     1      60.041  15.358  97.379  1.00  0.00     0.000 C 
BRANCH  23  24
ATOM     24  C   UNL     1      58.649  15.387  96.727  1.00  0.00    -0.000 C 
BRANCH  24  25
ATOM     25  C   UNL     1      58.037  13.982  96.589  1.00  0.00    -0.000 C 
BRANCH  25  26
ATOM     26  C   UNL     1      57.239  13.803  95.287  1.00  0.00    -0.000 C 
BRANCH  26  27
ATOM     27  C   UNL     1      57.857  14.530  94.075  1.00  0.00    -0.000 C 
BRANCH  27  28
ATOM     28  C   UNL     1      58.906  13.668  93.353  1.00  0.00    -0.000 C 
BRANCH  28  29
ATOM     29  C   UNL     1      59.789  14.481  92.388  1.00  0.00    -0.000 C 
BRANCH  29  30
ATOM     30  C   UNL     1      60.229  15.860  92.915  1.00  0.00    -0.000 C 
BRANCH  30  31
ATOM     31  C   UNL     1      60.236  16.943  91.825  1.00  0.00    -0.003 C 
ATOM     32  C   UNL     1      59.383  16.528  90.629  1.00  0.00     0.004 C 
ENDBRANCH  30  31
ENDBRANCH  29  30
ENDBRANCH  28  29
ENDBRANCH  27  28
ENDBRANCH  26  27
ENDBRANCH  25  26
ENDBRANCH  24  25
ENDBRANCH  23  24
ENDBRANCH  22  23
ENDBRANCH  21  22
ENDBRANCH  20  21
ENDBRANCH  19  20
ENDBRANCH  18  19
ENDBRANCH   1  18
TORSDOF 28
ENDMDL
