MODEL 1
REMARK VINA RESULT:    13.432      0.000      0.000
REMARK INTER + INTRA:          15.059
REMARK INTER:                  15.002
REMARK INTRA:                   0.057
REMARK UNBOUND:                 0.057
REMARK SMILES O=C([O-])c1ccccc1C(=O)[O-]
REMARK SMILES IDX 4 1 9 2 5 3 8 4 6 5 7 6 2 7 1 8 3 9 10 10 11 11 12 12
REMARK H PARENT
REMARK Flexibility Score: inf
ROOT
ATOM      1  C   UNL     1       5.231   6.461  -2.928  1.00  0.00     0.006 A 
ATOM      2  C   UNL     1       4.283   7.516  -2.824  1.00  0.00     0.006 A 
ATOM      3  C   UNL     1       6.427   6.538  -2.189  1.00  0.00     0.010 A 
ATOM      4  C   UNL     1       4.595   8.640  -2.036  1.00  0.00     0.010 A 
ATOM      5  C   UNL     1       6.705   7.652  -1.396  1.00  0.00     0.001 A 
ATOM      6  C   UNL     1       5.797   8.706  -1.329  1.00  0.00     0.001 A 
ENDROOT
BRANCH   1   7
ATOM      7  C   UNL     1       5.047   5.308  -3.841  1.00  0.00     0.072 C 
ATOM      8  O   UNL     1       4.104   4.494  -3.653  1.00  0.00    -0.545 OA
ATOM      9  O   UNL     1       5.946   5.072  -4.875  1.00  0.00    -0.545 OA
ENDBRANCH   1   7
BRANCH   2  10
ATOM     10  C   UNL     1       2.944   7.463  -3.452  1.00  0.00     0.072 C 
ATOM     11  O   UNL     1       2.035   6.734  -2.972  1.00  0.00    -0.545 OA
ATOM     12  O   UNL     1       2.652   8.272  -4.545  1.00  0.00    -0.545 OA
ENDBRANCH   2  10
TORSDOF 2
ENDMDL
MODEL 2
REMARK VINA RESULT:    13.522      0.080      3.045
REMARK INTER + INTRA:          15.160
REMARK INTER:                  15.094
REMARK INTRA:                   0.065
REMARK UNBOUND:                 0.057
REMARK SMILES O=C([O-])c1ccccc1C(=O)[O-]
REMARK SMILES IDX 4 1 9 2 5 3 8 4 6 5 7 6 2 7 1 8 3 9 10 10 11 11 12 12
REMARK H PARENT
REMARK Flexibility Score: inf
ROOT
ATOM      1  C   UNL     1       4.343   7.546  -2.876  1.00  0.00     0.006 A 
ATOM      2  C   UNL     1       5.258   6.459  -2.938  1.00  0.00     0.006 A 
ATOM      3  C   UNL     1       4.671   8.675  -2.103  1.00  0.00     0.010 A 
ATOM      4  C   UNL     1       6.438   6.514  -2.173  1.00  0.00     0.010 A 
ATOM      5  C   UNL     1       5.858   8.717  -1.370  1.00  0.00     0.001 A 
ATOM      6  C   UNL     1       6.733   7.634  -1.395  1.00  0.00     0.001 A 
ENDROOT
BRANCH   1   7
ATOM      7  C   UNL     1       3.016   7.513  -3.536  1.00  0.00     0.072 C 
ATOM      8  O   UNL     1       2.797   8.223  -4.554  1.00  0.00    -0.545 OA
ATOM      9  O   UNL     1       1.979   6.754  -3.008  1.00  0.00    -0.545 OA
ENDBRANCH   1   7
BRANCH   2  10
ATOM     10  C   UNL     1       5.064   5.291  -3.828  1.00  0.00     0.072 C 
ATOM     11  O   UNL     1       4.062   4.540  -3.697  1.00  0.00    -0.545 OA
ATOM     12  O   UNL     1       5.957   5.049  -4.866  1.00  0.00    -0.545 OA
ENDBRANCH   2  10
TORSDOF 2
ENDMDL
