MODEL 1
REMARK VINA RESULT:    -3.727      0.000      0.000
REMARK INTER + INTRA:          -4.277
REMARK INTER:                  -4.054
REMARK INTRA:                  -0.223
REMARK UNBOUND:                -0.223
REMARK SMILES O=C([O-])c1ccccc1O
REMARK SMILES IDX 4 1 9 2 5 3 8 4 6 5 7 6 2 7 1 8 3 9 10 10
REMARK H PARENT 10 11
REMARK Flexibility Score: inf
ROOT
ATOM      1  C   UNL     1      11.687  13.712  21.585  1.00  0.00     0.039 A 
ATOM      2  C   UNL     1      10.485  12.984  21.791  1.00  0.00     0.124 A 
ATOM      3  C   UNL     1      12.280  14.369  22.679  1.00  0.00     0.014 A 
ATOM      4  C   UNL     1       9.883  12.985  23.056  1.00  0.00     0.047 A 
ATOM      5  C   UNL     1      11.677  14.342  23.938  1.00  0.00     0.001 A 
ATOM      6  C   UNL     1      10.476  13.659  24.125  1.00  0.00     0.004 A 
ENDROOT
BRANCH   1   7
ATOM      7  C   UNL     1      12.330  13.840  20.258  1.00  0.00     0.075 C 
ATOM      8  O   UNL     1      12.715  12.822  19.624  1.00  0.00    -0.545 OA
ATOM      9  O   UNL     1      12.454  15.091  19.663  1.00  0.00    -0.545 OA
ENDBRANCH   1   7
BRANCH   2  10
ATOM     10  O   UNL     1       9.881  12.226  20.787  1.00  0.00    -0.507 OA
ATOM     11  H   UNL     1       9.208  12.601  20.131  1.00  0.00     0.293 HD
ENDBRANCH   2  10
TORSDOF 2
ENDMDL
MODEL 2
REMARK VINA RESULT:    -3.718      2.135      3.066
REMARK INTER + INTRA:          -4.268
REMARK INTER:                  -4.017
REMARK INTRA:                  -0.250
REMARK UNBOUND:                -0.223
REMARK SMILES O=C([O-])c1ccccc1O
REMARK SMILES IDX 4 1 9 2 5 3 8 4 6 5 7 6 2 7 1 8 3 9 10 10
REMARK H PARENT 10 11
REMARK Flexibility Score: inf
ROOT
ATOM      1  C   UNL     1      12.427  14.647  20.544  1.00  0.00     0.039 A 
ATOM      2  C   UNL     1      11.759  14.301  19.339  1.00  0.00     0.124 A 
ATOM      3  C   UNL     1      12.077  13.979  21.731  1.00  0.00     0.014 A 
ATOM      4  C   UNL     1      10.728  13.353  19.368  1.00  0.00     0.047 A 
ATOM      5  C   UNL     1      11.062  13.021  21.738  1.00  0.00     0.001 A 
ATOM      6  C   UNL     1      10.381  12.714  20.560  1.00  0.00     0.004 A 
ENDROOT
BRANCH   1   7
ATOM      7  C   UNL     1      13.457  15.708  20.613  1.00  0.00     0.075 C 
ATOM      8  O   UNL     1      13.565  16.440  21.632  1.00  0.00    -0.545 OA
ATOM      9  O   UNL     1      14.366  15.863  19.573  1.00  0.00    -0.545 OA
ENDBRANCH   1   7
BRANCH   2  10
ATOM     10  O   UNL     1      12.106  14.843  18.101  1.00  0.00    -0.507 OA
ATOM     11  H   UNL     1      12.741  15.623  17.990  1.00  0.00     0.293 HD
ENDBRANCH   2  10
TORSDOF 2
ENDMDL
MODEL 3
REMARK VINA RESULT:    -3.716      1.920      3.474
REMARK INTER + INTRA:          -4.265
REMARK INTER:                  -4.039
REMARK INTRA:                  -0.226
REMARK UNBOUND:                -0.223
REMARK SMILES O=C([O-])c1ccccc1O
REMARK SMILES IDX 4 1 9 2 5 3 8 4 6 5 7 6 2 7 1 8 3 9 10 10
REMARK H PARENT 10 11
REMARK Flexibility Score: inf
ROOT
ATOM      1  C   UNL     1      11.803  14.164  20.453  1.00  0.00     0.039 A 
ATOM      2  C   UNL     1      12.527  14.810  19.416  1.00  0.00     0.124 A 
ATOM      3  C   UNL     1      12.215  14.348  21.786  1.00  0.00     0.014 A 
ATOM      4  C   UNL     1      13.667  15.561  19.733  1.00  0.00     0.047 A 
ATOM      5  C   UNL     1      13.340  15.117  22.085  1.00  0.00     0.001 A 
ATOM      6  C   UNL     1      14.072  15.716  21.059  1.00  0.00     0.004 A 
ENDROOT
BRANCH   1   7
ATOM      7  C   UNL     1      10.650  13.275  20.191  1.00  0.00     0.075 C 
ATOM      8  O   UNL     1      10.254  12.455  21.061  1.00  0.00    -0.545 OA
ATOM      9  O   UNL     1       9.944  13.385  18.998  1.00  0.00    -0.545 OA
ENDBRANCH   1   7
BRANCH   2  10
ATOM     10  O   UNL     1      12.135  14.761  18.078  1.00  0.00    -0.507 OA
ATOM     11  H   UNL     1      11.595  14.003  17.681  1.00  0.00     0.293 HD
ENDBRANCH   2  10
TORSDOF 2
ENDMDL
MODEL 4
REMARK VINA RESULT:    -3.564      1.903      3.586
REMARK INTER + INTRA:          -4.100
REMARK INTER:                  -3.847
REMARK INTRA:                  -0.253
REMARK UNBOUND:                -0.223
REMARK SMILES O=C([O-])c1ccccc1O
REMARK SMILES IDX 4 1 9 2 5 3 8 4 6 5 7 6 2 7 1 8 3 9 10 10
REMARK H PARENT 10 11
REMARK Flexibility Score: inf
ROOT
ATOM      1  C   UNL     1      11.749  13.885  21.330  1.00  0.00     0.039 A 
ATOM      2  C   UNL     1      10.943  13.552  20.209  1.00  0.00     0.124 A 
ATOM      3  C   UNL     1      12.890  14.683  21.134  1.00  0.00     0.014 A 
ATOM      4  C   UNL     1      11.333  13.968  18.929  1.00  0.00     0.047 A 
ATOM      5  C   UNL     1      13.252  15.108  19.854  1.00  0.00     0.001 A 
ATOM      6  C   UNL     1      12.480  14.743  18.751  1.00  0.00     0.004 A 
ENDROOT
BRANCH   1   7
ATOM      7  C   UNL     1      11.458  13.400  22.698  1.00  0.00     0.075 C 
ATOM      8  O   UNL     1      11.566  14.165  23.692  1.00  0.00    -0.545 OA
ATOM      9  O   UNL     1      10.994  12.104  22.892  1.00  0.00    -0.545 OA
ENDBRANCH   1   7
BRANCH   2  10
ATOM     10  O   UNL     1       9.744  12.846  20.323  1.00  0.00    -0.507 OA
ATOM     11  H   UNL     1       9.262  12.702  21.200  1.00  0.00     0.293 HD
ENDBRANCH   2  10
TORSDOF 2
ENDMDL
MODEL 5
REMARK VINA RESULT:    -3.445      1.106      1.226
REMARK INTER + INTRA:          -3.970
REMARK INTER:                  -3.717
REMARK INTRA:                  -0.253
REMARK UNBOUND:                -0.223
REMARK SMILES O=C([O-])c1ccccc1O
REMARK SMILES IDX 4 1 9 2 5 3 8 4 6 5 7 6 2 7 1 8 3 9 10 10
REMARK H PARENT 10 11
REMARK Flexibility Score: inf
ROOT
ATOM      1  C   UNL     1      11.587  13.924  20.998  1.00  0.00     0.039 A 
ATOM      2  C   UNL     1      10.689  13.108  21.736  1.00  0.00     0.124 A 
ATOM      3  C   UNL     1      12.512  14.721  21.695  1.00  0.00     0.014 A 
ATOM      4  C   UNL     1      10.699  13.160  23.136  1.00  0.00     0.047 A 
ATOM      5  C   UNL     1      12.523  14.745  23.091  1.00  0.00     0.001 A 
ATOM      6  C   UNL     1      11.611  13.973  23.812  1.00  0.00     0.004 A 
ENDROOT
BRANCH   1   7
ATOM      7  C   UNL     1      11.571  13.998  19.520  1.00  0.00     0.075 C 
ATOM      8  O   UNL     1      12.644  14.028  18.861  1.00  0.00    -0.545 OA
ATOM      9  O   UNL     1      10.361  13.967  18.835  1.00  0.00    -0.545 OA
ENDBRANCH   1   7
BRANCH   2  10
ATOM     10  O   UNL     1       9.804  12.216  21.128  1.00  0.00    -0.507 OA
ATOM     11  H   UNL     1       9.338  11.466  21.622  1.00  0.00     0.293 HD
ENDBRANCH   2  10
TORSDOF 2
ENDMDL
MODEL 6
REMARK VINA RESULT:    -3.411      2.190      3.934
REMARK INTER + INTRA:          -3.933
REMARK INTER:                  -3.721
REMARK INTRA:                  -0.212
REMARK UNBOUND:                -0.223
REMARK SMILES O=C([O-])c1ccccc1O
REMARK SMILES IDX 4 1 9 2 5 3 8 4 6 5 7 6 2 7 1 8 3 9 10 10
REMARK H PARENT 10 11
REMARK Flexibility Score: inf
ROOT
ATOM      1  C   UNL     1      11.663  13.868  20.436  1.00  0.00     0.039 A 
ATOM      2  C   UNL     1      12.367  14.663  21.379  1.00  0.00     0.124 A 
ATOM      3  C   UNL     1      12.028  13.939  19.079  1.00  0.00     0.014 A 
ATOM      4  C   UNL     1      13.361  15.545  20.935  1.00  0.00     0.047 A 
ATOM      5  C   UNL     1      13.037  14.807  18.657  1.00  0.00     0.001 A 
ATOM      6  C   UNL     1      13.696  15.616  19.582  1.00  0.00     0.004 A 
ENDROOT
BRANCH   1   7
ATOM      7  C   UNL     1      10.535  12.988  20.814  1.00  0.00     0.075 C 
ATOM      8  O   UNL     1      10.150  12.906  22.010  1.00  0.00    -0.545 OA
ATOM      9  O   UNL     1       9.840  12.289  19.833  1.00  0.00    -0.545 OA
ENDBRANCH   1   7
BRANCH   2  10
ATOM     10  O   UNL     1      12.136  14.586  22.754  1.00  0.00    -0.507 OA
ATOM     11  H   UNL     1      12.105  13.716  23.267  1.00  0.00     0.293 HD
ENDBRANCH   2  10
TORSDOF 2
ENDMDL
MODEL 7
REMARK VINA RESULT:    -3.329      1.048      2.278
REMARK INTER + INTRA:          -3.844
REMARK INTER:                  -3.594
REMARK INTRA:                  -0.250
REMARK UNBOUND:                -0.223
REMARK SMILES O=C([O-])c1ccccc1O
REMARK SMILES IDX 4 1 9 2 5 3 8 4 6 5 7 6 2 7 1 8 3 9 10 10
REMARK H PARENT 10 11
REMARK Flexibility Score: inf
ROOT
ATOM      1  C   UNL     1      11.499  13.537  21.477  1.00  0.00     0.039 A 
ATOM      2  C   UNL     1      12.184  14.337  22.430  1.00  0.00     0.124 A 
ATOM      3  C   UNL     1      10.325  12.868  21.868  1.00  0.00     0.014 A 
ATOM      4  C   UNL     1      11.717  14.393  23.749  1.00  0.00     0.047 A 
ATOM      5  C   UNL     1       9.861  12.953  23.183  1.00  0.00     0.001 A 
ATOM      6  C   UNL     1      10.561  13.707  24.125  1.00  0.00     0.004 A 
ENDROOT
BRANCH   1   7
ATOM      7  C   UNL     1      11.985  13.348  20.092  1.00  0.00     0.075 C 
ATOM      8  O   UNL     1      13.214  13.223  19.848  1.00  0.00    -0.545 OA
ATOM      9  O   UNL     1      11.077  13.236  19.045  1.00  0.00    -0.545 OA
ENDBRANCH   1   7
BRANCH   2  10
ATOM     10  O   UNL     1      13.301  15.109  22.104  1.00  0.00    -0.507 OA
ATOM     11  H   UNL     1      13.369  16.100  22.292  1.00  0.00     0.293 HD
ENDBRANCH   2  10
TORSDOF 2
ENDMDL
MODEL 8
REMARK VINA RESULT:    -3.021      2.107      3.162
REMARK INTER + INTRA:          -3.509
REMARK INTER:                  -3.266
REMARK INTRA:                  -0.243
REMARK UNBOUND:                -0.223
REMARK SMILES O=C([O-])c1ccccc1O
REMARK SMILES IDX 4 1 9 2 5 3 8 4 6 5 7 6 2 7 1 8 3 9 10 10
REMARK H PARENT 10 11
REMARK Flexibility Score: inf
ROOT
ATOM      1  C   UNL     1      11.765  14.096  20.235  1.00  0.00     0.039 A 
ATOM      2  C   UNL     1      11.366  13.339  21.369  1.00  0.00     0.124 A 
ATOM      3  C   UNL     1      11.263  13.741  18.970  1.00  0.00     0.014 A 
ATOM      4  C   UNL     1      10.535  12.224  21.199  1.00  0.00     0.047 A 
ATOM      5  C   UNL     1      10.419  12.639  18.822  1.00  0.00     0.001 A 
ATOM      6  C   UNL     1      10.062  11.875  19.933  1.00  0.00     0.004 A 
ENDROOT
BRANCH   1   7
ATOM      7  C   UNL     1      12.717  15.225  20.321  1.00  0.00     0.075 C 
ATOM      8  O   UNL     1      12.748  15.971  21.334  1.00  0.00    -0.545 OA
ATOM      9  O   UNL     1      13.642  15.434  19.303  1.00  0.00    -0.545 OA
ENDBRANCH   1   7
BRANCH   2  10
ATOM     10  O   UNL     1      11.738  13.677  22.671  1.00  0.00    -0.507 OA
ATOM     11  H   UNL     1      11.531  13.104  23.479  1.00  0.00     0.293 HD
ENDBRANCH   2  10
TORSDOF 2
ENDMDL
MODEL 9
REMARK VINA RESULT:    -1.764      1.930      2.767
REMARK INTER + INTRA:          -2.142
REMARK INTER:                  -1.890
REMARK INTRA:                  -0.252
REMARK UNBOUND:                -0.223
REMARK SMILES O=C([O-])c1ccccc1O
REMARK SMILES IDX 4 1 9 2 5 3 8 4 6 5 7 6 2 7 1 8 3 9 10 10
REMARK H PARENT 10 11
REMARK Flexibility Score: inf
ROOT
ATOM      1  C   UNL     1      10.852  13.570  20.029  1.00  0.00     0.039 A 
ATOM      2  C   UNL     1      10.739  12.980  21.316  1.00  0.00     0.124 A 
ATOM      3  C   UNL     1      11.828  14.561  19.819  1.00  0.00     0.014 A 
ATOM      4  C   UNL     1      11.552  13.438  22.361  1.00  0.00     0.047 A 
ATOM      5  C   UNL     1      12.645  14.991  20.867  1.00  0.00     0.001 A 
ATOM      6  C   UNL     1      12.501  14.437  22.138  1.00  0.00     0.004 A 
ENDROOT
BRANCH   1   7
ATOM      7  C   UNL     1       9.963  13.211  18.902  1.00  0.00     0.075 C 
ATOM      8  O   UNL     1       9.503  14.095  18.132  1.00  0.00    -0.545 OA
ATOM      9  O   UNL     1       9.680  11.875  18.638  1.00  0.00    -0.545 OA
ENDBRANCH   1   7
BRANCH   2  10
ATOM     10  O   UNL     1       9.866  11.926  21.589  1.00  0.00    -0.507 OA
ATOM     11  H   UNL     1       9.802  11.091  21.021  1.00  0.00     0.293 HD
ENDBRANCH   2  10
TORSDOF 2
ENDMDL
