MODEL 1
REMARK VINA RESULT:   111.294      0.000      0.000
REMARK INTER + INTRA:         121.451
REMARK INTER:                 121.053
REMARK INTRA:                   0.398
REMARK UNBOUND:                 0.398
REMARK SMILES C[C@@H]1[C@@H](C)CC[C@@]2(C(=O)[O-])CC[C@]3(C)C(=CC[C@H]4[C@@]5(C)CC[C@H](O)C(C)(C)[C@H]5CC[C@]43C)[C@@H]12
REMARK SMILES IDX 7 1 6 2 11 3 33 4 5 5 12 6 15 7 2 8 3 9 13 10 16 11 1 12
REMARK SMILES IDX 4 13 14 14 31 15 17 16 18 17 30 18 32 19 19 20 29 21 28 22
REMARK SMILES IDX 21 23 20 24 25 25 22 26 23 27 26 28 27 29 8 30 9 31 10 32
REMARK SMILES IDX 24 33
REMARK H PARENT 24 34
REMARK Flexibility Score: inf
ROOT
ATOM      1  C   UNL     1      43.806 -25.164  -2.505  1.00  0.00     0.017 C 
ATOM      2  C   UNL     1      44.843 -26.302  -2.169  1.00  0.00     0.014 C 
ATOM      3  C   UNL     1      42.354 -25.718  -2.269  1.00  0.00     0.014 C 
ATOM      4  C   UNL     1      44.057 -23.885  -1.622  1.00  0.00     0.030 C 
ATOM      5  C   UNL     1      46.125 -25.765  -1.536  1.00  0.00     0.004 C 
ATOM      6  C   UNL     1      41.333 -24.748  -1.622  1.00  0.00     0.013 C 
ATOM      7  C   UNL     1      42.898 -22.858  -1.697  1.00  0.00    -0.063 C 
ATOM      8  C   UNL     1      44.459 -24.324  -0.164  1.00  0.00    -0.003 C 
ATOM      9  C   UNL     1      45.826 -25.092  -0.176  1.00  0.00    -0.011 C 
ATOM     10  C   UNL     1      41.440 -23.244  -2.049  1.00  0.00    -0.006 C 
ATOM     11  C   UNL     1      43.201 -21.597  -1.365  1.00  0.00    -0.027 C 
ATOM     12  C   UNL     1      44.542 -23.167   0.852  1.00  0.00     0.008 C 
ATOM     13  C   UNL     1      45.894 -26.129   0.962  1.00  0.00     0.008 C 
ATOM     14  C   UNL     1      41.250 -23.198  -3.599  1.00  0.00     0.017 C 
ATOM     15  C   UNL     1      40.318 -22.257  -1.324  1.00  0.00    -0.020 C 
ATOM     16  C   UNL     1      42.213 -20.685  -0.730  1.00  0.00     0.032 C 
ATOM     17  C   UNL     1      40.964 -21.430  -0.153  1.00  0.00     0.006 C 
ATOM     18  C   UNL     1      39.691 -21.184  -2.303  1.00  0.00     0.008 C 
ATOM     19  C   UNL     1      39.143 -23.158  -0.818  1.00  0.00     0.012 C 
ATOM     20  C   UNL     1      39.956 -20.462   0.678  1.00  0.00    -0.025 C 
ATOM     21  C   UNL     1      39.161 -19.859  -1.691  1.00  0.00     0.005 C 
ATOM     22  C   UNL     1      38.730 -19.941  -0.205  1.00  0.00     0.003 C 
ATOM     23  C   UNL     1      40.743 -19.238   1.263  1.00  0.00     0.010 C 
ATOM     24  C   UNL     1      39.435 -21.293   1.894  1.00  0.00     0.012 C 
ATOM     25  C   UNL     1      37.949 -18.642   0.326  1.00  0.00    -0.006 C 
ATOM     26  C   UNL     1      39.888 -18.158   1.918  1.00  0.00     0.033 C 
ATOM     27  C   UNL     1      38.922 -17.569   0.890  1.00  0.00     0.120 C 
ATOM     28  C   UNL     1      37.120 -17.965  -0.803  1.00  0.00     0.014 C 
ATOM     29  C   UNL     1      36.897 -19.041   1.406  1.00  0.00     0.014 C 
ENDROOT
BRANCH   1  30
ATOM     30  C   UNL     1      44.007 -24.832  -3.985  1.00  0.00     0.048 C 
ATOM     31  O   UNL     1      43.057 -24.889  -4.811  1.00  0.00    -0.550 OA
ATOM     32  O   UNL     1      45.260 -24.432  -4.442  1.00  0.00    -0.550 OA
ENDBRANCH   1  30
BRANCH  27  33
ATOM     33  O   UNL     1      38.204 -16.511   1.478  1.00  0.00    -0.393 OA
ATOM     34  H   UNL     1      37.241 -16.679   1.303  1.00  0.00     0.210 HD
ENDBRANCH  27  33
TORSDOF 2
ENDMDL
MODEL 2
REMARK VINA RESULT:   113.452      1.778      3.700
REMARK INTER + INTRA:         123.798
REMARK INTER:                 122.173
REMARK INTRA:                   1.625
REMARK UNBOUND:                 0.398
REMARK SMILES C[C@@H]1[C@@H](C)CC[C@@]2(C(=O)[O-])CC[C@]3(C)C(=CC[C@H]4[C@@]5(C)CC[C@H](O)C(C)(C)[C@H]5CC[C@]43C)[C@@H]12
REMARK SMILES IDX 7 1 6 2 11 3 33 4 5 5 12 6 15 7 2 8 3 9 13 10 16 11 1 12
REMARK SMILES IDX 4 13 14 14 31 15 17 16 18 17 30 18 32 19 19 20 29 21 28 22
REMARK SMILES IDX 21 23 20 24 25 25 22 26 23 27 26 28 27 29 8 30 9 31 10 32
REMARK SMILES IDX 24 33
REMARK H PARENT 24 34
REMARK Flexibility Score: inf
ROOT
ATOM      1  C   UNL     1      45.261 -24.558  -1.707  1.00  0.00     0.017 C 
ATOM      2  C   UNL     1      46.125 -25.163  -2.879  1.00  0.00     0.014 C 
ATOM      3  C   UNL     1      45.860 -23.161  -1.308  1.00  0.00     0.014 C 
ATOM      4  C   UNL     1      43.752 -24.411  -2.129  1.00  0.00     0.030 C 
ATOM      5  C   UNL     1      45.289 -25.955  -3.881  1.00  0.00     0.004 C 
ATOM      6  C   UNL     1      44.847 -22.036  -0.975  1.00  0.00     0.013 C 
ATOM      7  C   UNL     1      42.925 -23.556  -1.134  1.00  0.00    -0.063 C 
ATOM      8  C   UNL     1      43.670 -23.943  -3.631  1.00  0.00    -0.003 C 
ATOM      9  C   UNL     1      44.258 -25.041  -4.584  1.00  0.00    -0.011 C 
ATOM     10  C   UNL     1      43.549 -22.478  -0.214  1.00  0.00    -0.006 C 
ATOM     11  C   UNL     1      41.599 -23.741  -1.155  1.00  0.00    -0.027 C 
ATOM     12  C   UNL     1      42.251 -23.573  -4.108  1.00  0.00     0.008 C 
ATOM     13  C   UNL     1      44.875 -24.411  -5.848  1.00  0.00     0.008 C 
ATOM     14  C   UNL     1      44.009 -23.139   1.124  1.00  0.00     0.017 C 
ATOM     15  C   UNL     1      42.506 -21.229   0.117  1.00  0.00    -0.020 C 
ATOM     16  C   UNL     1      40.641 -22.647  -0.847  1.00  0.00     0.032 C 
ATOM     17  C   UNL     1      41.292 -21.224  -0.884  1.00  0.00     0.006 C 
ATOM     18  C   UNL     1      41.862 -21.305   1.559  1.00  0.00     0.008 C 
ATOM     19  C   UNL     1      43.318 -19.893   0.047  1.00  0.00     0.012 C 
ATOM     20  C   UNL     1      40.222 -20.014  -0.702  1.00  0.00    -0.025 C 
ATOM     21  C   UNL     1      40.474 -20.644   1.777  1.00  0.00     0.005 C 
ATOM     22  C   UNL     1      40.131 -19.489   0.804  1.00  0.00     0.003 C 
ATOM     23  C   UNL     1      38.802 -20.472  -1.188  1.00  0.00     0.010 C 
ATOM     24  C   UNL     1      40.679 -18.862  -1.653  1.00  0.00     0.012 C 
ATOM     25  C   UNL     1      38.818 -18.655   1.208  1.00  0.00    -0.006 C 
ATOM     26  C   UNL     1      37.665 -19.494  -0.912  1.00  0.00     0.033 C 
ATOM     27  C   UNL     1      37.529 -19.269   0.594  1.00  0.00     0.120 C 
ATOM     28  C   UNL     1      38.617 -18.608   2.750  1.00  0.00     0.014 C 
ATOM     29  C   UNL     1      38.966 -17.163   0.781  1.00  0.00     0.014 C 
ENDROOT
BRANCH   1  30
ATOM     30  C   UNL     1      45.391 -25.538  -0.539  1.00  0.00     0.048 C 
ATOM     31  O   UNL     1      46.052 -26.606  -0.642  1.00  0.00    -0.550 OA
ATOM     32  O   UNL     1      44.789 -25.244   0.681  1.00  0.00    -0.550 OA
ENDBRANCH   1  30
BRANCH  27  33
ATOM     33  O   UNL     1      36.420 -18.440   0.843  1.00  0.00    -0.393 OA
ATOM     34  H   UNL     1      35.961 -18.298  -0.026  1.00  0.00     0.210 HD
ENDBRANCH  27  33
TORSDOF 2
ENDMDL
