MODEL 1
REMARK VINA RESULT:    -5.427      0.000      0.000
REMARK INTER + INTRA:          -7.817
REMARK INTER:                  -6.855
REMARK INTRA:                  -0.962
REMARK UNBOUND:                -0.962
REMARK SMILES O=C(C=Cc1ccc(O)cc1)c1ccc(O)cc1O
REMARK SMILES IDX 4 1 3 2 5 3 6 4 7 5 8 6 11 7 10 8 9 9 2 11 1 12 12 13 18 14
REMARK SMILES IDX 13 15 17 16 14 17 15 18 19 19 16 21
REMARK H PARENT 9 10 19 20 16 22
REMARK Flexibility Score: inf
ROOT
ATOM      1  C   UNL     1      15.237 -14.389   2.488  1.00  0.00     0.012 C 
ATOM      2  C   UNL     1      15.776 -14.417   1.257  1.00  0.00     0.053 C 
ENDROOT
BRANCH   1   3
ATOM      3  C   UNL     1      15.952 -14.026   3.727  1.00  0.00    -0.025 A 
ATOM      4  C   UNL     1      16.186 -15.010   4.700  1.00  0.00     0.012 A 
ATOM      5  C   UNL     1      16.815 -14.676   5.903  1.00  0.00     0.047 A 
ATOM      6  C   UNL     1      17.196 -13.351   6.155  1.00  0.00     0.115 A 
ATOM      7  C   UNL     1      16.308 -12.694   3.996  1.00  0.00     0.012 A 
ATOM      8  C   UNL     1      16.938 -12.361   5.200  1.00  0.00     0.047 A 
BRANCH   6   9
ATOM      9  O   UNL     1      17.825 -13.007   7.349  1.00  0.00    -0.508 OA
ATOM     10  H   UNL     1      18.749 -12.591   7.361  1.00  0.00     0.293 HD
ENDBRANCH   6   9
ENDBRANCH   1   3
BRANCH   2  11
ATOM     11  C   UNL     1      17.217 -14.264   0.939  1.00  0.00     0.189 C 
ATOM     12  O   UNL     1      18.031 -15.197   1.175  1.00  0.00    -0.289 OA
BRANCH  11  13
ATOM     13  C   UNL     1      17.729 -13.017   0.335  1.00  0.00     0.064 A 
ATOM     14  C   UNL     1      18.603 -13.031  -0.773  1.00  0.00     0.130 A 
ATOM     15  C   UNL     1      17.357 -11.786   0.899  1.00  0.00     0.020 A 
ATOM     16  C   UNL     1      19.054 -11.820  -1.322  1.00  0.00     0.093 A 
ATOM     17  C   UNL     1      17.815 -10.586   0.350  1.00  0.00     0.047 A 
ATOM     18  C   UNL     1      18.660 -10.600  -0.765  1.00  0.00     0.119 A 
BRANCH  14  19
ATOM     19  O   UNL     1      19.047 -14.240  -1.309  1.00  0.00    -0.507 OA
ATOM     20  H   UNL     1      19.203 -14.355  -2.303  1.00  0.00     0.293 HD
ENDBRANCH  14  19
BRANCH  18  21
ATOM     21  O   UNL     1      19.120  -9.410  -1.325  1.00  0.00    -0.508 OA
ATOM     22  H   UNL     1      20.079  -9.105  -1.207  1.00  0.00     0.293 HD
ENDBRANCH  18  21
ENDBRANCH  11  13
ENDBRANCH   2  11
TORSDOF 6
ENDMDL
MODEL 2
REMARK VINA RESULT:    -5.395      1.707      2.572
REMARK INTER + INTRA:          -7.776
REMARK INTER:                  -6.738
REMARK INTRA:                  -1.038
REMARK UNBOUND:                -0.962
REMARK SMILES O=C(C=Cc1ccc(O)cc1)c1ccc(O)cc1O
REMARK SMILES IDX 4 1 3 2 5 3 6 4 7 5 8 6 11 7 10 8 9 9 2 11 1 12 12 13 18 14
REMARK SMILES IDX 13 15 17 16 14 17 15 18 19 19 16 21
REMARK H PARENT 9 10 19 20 16 22
REMARK Flexibility Score: inf
ROOT
ATOM      1  C   UNL     1      15.313 -12.484   4.616  1.00  0.00     0.012 C 
ATOM      2  C   UNL     1      14.976 -12.987   3.416  1.00  0.00     0.053 C 
ENDROOT
BRANCH   1   3
ATOM      3  C   UNL     1      16.518 -12.845   5.388  1.00  0.00    -0.025 A 
ATOM      4  C   UNL     1      16.528 -14.035   6.132  1.00  0.00     0.012 A 
ATOM      5  C   UNL     1      17.639 -14.370   6.911  1.00  0.00     0.047 A 
ATOM      6  C   UNL     1      18.743 -13.507   6.971  1.00  0.00     0.115 A 
ATOM      7  C   UNL     1      17.614 -11.969   5.475  1.00  0.00     0.012 A 
ATOM      8  C   UNL     1      18.725 -12.306   6.254  1.00  0.00     0.047 A 
BRANCH   6   9
ATOM      9  O   UNL     1      19.857 -13.831   7.743  1.00  0.00    -0.508 OA
ATOM     10  H   UNL     1      19.950 -14.738   8.184  1.00  0.00     0.293 HD
ENDBRANCH   6   9
ENDBRANCH   1   3
BRANCH   2  11
ATOM     11  C   UNL     1      15.649 -14.119   2.732  1.00  0.00     0.189 C 
ATOM     12  O   UNL     1      15.472 -15.305   3.120  1.00  0.00    -0.289 OA
BRANCH  11  13
ATOM     13  C   UNL     1      16.539 -13.880   1.577  1.00  0.00     0.064 A 
ATOM     14  C   UNL     1      16.402 -14.600   0.370  1.00  0.00     0.130 A 
ATOM     15  C   UNL     1      17.568 -12.931   1.696  1.00  0.00     0.020 A 
ATOM     16  C   UNL     1      17.262 -14.330  -0.705  1.00  0.00     0.093 A 
ATOM     17  C   UNL     1      18.424 -12.674   0.622  1.00  0.00     0.047 A 
ATOM     18  C   UNL     1      18.269 -13.369  -0.582  1.00  0.00     0.119 A 
BRANCH  14  19
ATOM     19  O   UNL     1      15.435 -15.598   0.248  1.00  0.00    -0.507 OA
ATOM     20  H   UNL     1      15.125 -16.138   1.047  1.00  0.00     0.293 HD
ENDBRANCH  14  19
BRANCH  18  21
ATOM     21  O   UNL     1      19.114 -13.117  -1.662  1.00  0.00    -0.508 OA
ATOM     22  H   UNL     1      18.750 -12.818  -2.560  1.00  0.00     0.293 HD
ENDBRANCH  18  21
ENDBRANCH  11  13
ENDBRANCH   2  11
TORSDOF 6
ENDMDL
MODEL 3
REMARK VINA RESULT:    -5.309      1.920      6.327
REMARK INTER + INTRA:          -7.667
REMARK INTER:                  -6.619
REMARK INTRA:                  -1.049
REMARK UNBOUND:                -0.962
REMARK SMILES O=C(C=Cc1ccc(O)cc1)c1ccc(O)cc1O
REMARK SMILES IDX 4 1 3 2 5 3 6 4 7 5 8 6 11 7 10 8 9 9 2 11 1 12 12 13 18 14
REMARK SMILES IDX 13 15 17 16 14 17 15 18 19 19 16 21
REMARK H PARENT 9 10 19 20 16 22
REMARK Flexibility Score: inf
ROOT
ATOM      1  C   UNL     1      15.135 -13.007   2.984  1.00  0.00     0.012 C 
ATOM      2  C   UNL     1      15.089 -13.445   4.254  1.00  0.00     0.053 C 
ENDROOT
BRANCH   1   3
ATOM      3  C   UNL     1      16.149 -13.389   1.982  1.00  0.00    -0.025 A 
ATOM      4  C   UNL     1      17.260 -12.557   1.776  1.00  0.00     0.012 A 
ATOM      5  C   UNL     1      18.205 -12.873   0.795  1.00  0.00     0.047 A 
ATOM      6  C   UNL     1      18.037 -14.013  -0.003  1.00  0.00     0.115 A 
ATOM      7  C   UNL     1      15.969 -14.513   1.159  1.00  0.00     0.012 A 
ATOM      8  C   UNL     1      16.916 -14.829   0.179  1.00  0.00     0.047 A 
BRANCH   6   9
ATOM      9  O   UNL     1      18.974 -14.339  -0.982  1.00  0.00    -0.508 OA
ATOM     10  H   UNL     1      18.983 -15.251  -1.423  1.00  0.00     0.293 HD
ENDBRANCH   6   9
ENDBRANCH   1   3
BRANCH   2  11
ATOM     11  C   UNL     1      16.139 -14.246   4.931  1.00  0.00     0.189 C 
ATOM     12  O   UNL     1      16.268 -15.476   4.691  1.00  0.00    -0.289 OA
BRANCH  11  13
ATOM     13  C   UNL     1      17.061 -13.616   5.900  1.00  0.00     0.064 A 
ATOM     14  C   UNL     1      17.440 -14.264   7.095  1.00  0.00     0.130 A 
ATOM     15  C   UNL     1      17.548 -12.325   5.635  1.00  0.00     0.020 A 
ATOM     16  C   UNL     1      18.328 -13.632   7.979  1.00  0.00     0.093 A 
ATOM     17  C   UNL     1      18.427 -11.702   6.524  1.00  0.00     0.047 A 
ATOM     18  C   UNL     1      18.823 -12.356   7.695  1.00  0.00     0.119 A 
BRANCH  14  19
ATOM     19  O   UNL     1      16.916 -15.515   7.419  1.00  0.00    -0.507 OA
ATOM     20  H   UNL     1      17.248 -16.039   8.220  1.00  0.00     0.293 HD
ENDBRANCH  14  19
BRANCH  18  21
ATOM     21  O   UNL     1      19.703 -11.747   8.587  1.00  0.00    -0.508 OA
ATOM     22  H   UNL     1      19.619 -10.765   8.827  1.00  0.00     0.293 HD
ENDBRANCH  18  21
ENDBRANCH  11  13
ENDBRANCH   2  11
TORSDOF 6
ENDMDL
MODEL 4
REMARK VINA RESULT:    -5.298      2.415      4.177
REMARK INTER + INTRA:          -7.654
REMARK INTER:                  -6.584
REMARK INTRA:                  -1.071
REMARK UNBOUND:                -0.962
REMARK SMILES O=C(C=Cc1ccc(O)cc1)c1ccc(O)cc1O
REMARK SMILES IDX 4 1 3 2 5 3 6 4 7 5 8 6 11 7 10 8 9 9 2 11 1 12 12 13 18 14
REMARK SMILES IDX 13 15 17 16 14 17 15 18 19 19 16 21
REMARK H PARENT 9 10 19 20 16 22
REMARK Flexibility Score: inf
ROOT
ATOM      1  C   UNL     1      17.087  -9.453   3.668  1.00  0.00     0.012 C 
ATOM      2  C   UNL     1      17.665  -9.258   2.471  1.00  0.00     0.053 C 
ENDROOT
BRANCH   1   3
ATOM      3  C   UNL     1      15.890 -10.281   3.916  1.00  0.00    -0.025 A 
ATOM      4  C   UNL     1      14.632  -9.666   4.001  1.00  0.00     0.012 A 
ATOM      5  C   UNL     1      13.494 -10.425   4.286  1.00  0.00     0.047 A 
ATOM      6  C   UNL     1      13.605 -11.804   4.512  1.00  0.00     0.115 A 
ATOM      7  C   UNL     1      16.002 -11.658   4.173  1.00  0.00     0.012 A 
ATOM      8  C   UNL     1      14.862 -12.417   4.458  1.00  0.00     0.047 A 
BRANCH   6   9
ATOM      9  O   UNL     1      12.477 -12.571   4.796  1.00  0.00    -0.508 OA
ATOM     10  H   UNL     1      11.893 -12.376   5.600  1.00  0.00     0.293 HD
ENDBRANCH   6   9
ENDBRANCH   1   3
BRANCH   2  11
ATOM     11  C   UNL     1      17.114  -9.688   1.163  1.00  0.00     0.189 C 
ATOM     12  O   UNL     1      16.218  -9.014   0.587  1.00  0.00    -0.289 OA
BRANCH  11  13
ATOM     13  C   UNL     1      17.606 -10.915   0.502  1.00  0.00     0.064 A 
ATOM     14  C   UNL     1      18.373 -10.867  -0.682  1.00  0.00     0.130 A 
ATOM     15  C   UNL     1      17.275 -12.164   1.055  1.00  0.00     0.020 A 
ATOM     16  C   UNL     1      18.830 -12.058  -1.266  1.00  0.00     0.093 A 
ATOM     17  C   UNL     1      17.730 -13.344   0.462  1.00  0.00     0.047 A 
ATOM     18  C   UNL     1      18.512 -13.294  -0.697  1.00  0.00     0.119 A 
BRANCH  14  19
ATOM     19  O   UNL     1      18.656  -9.645  -1.292  1.00  0.00    -0.507 OA
ATOM     20  H   UNL     1      19.260  -9.583  -2.103  1.00  0.00     0.293 HD
ENDBRANCH  14  19
BRANCH  18  21
ATOM     21  O   UNL     1      18.975 -14.464  -1.294  1.00  0.00    -0.508 OA
ATOM     22  H   UNL     1      19.186 -15.291  -0.746  1.00  0.00     0.293 HD
ENDBRANCH  18  21
ENDBRANCH  11  13
ENDBRANCH   2  11
TORSDOF 6
ENDMDL
MODEL 5
REMARK VINA RESULT:    -5.268      1.859      3.089
REMARK INTER + INTRA:          -7.616
REMARK INTER:                  -7.279
REMARK INTRA:                  -0.337
REMARK UNBOUND:                -0.962
REMARK SMILES O=C(C=Cc1ccc(O)cc1)c1ccc(O)cc1O
REMARK SMILES IDX 4 1 3 2 5 3 6 4 7 5 8 6 11 7 10 8 9 9 2 11 1 12 12 13 18 14
REMARK SMILES IDX 13 15 17 16 14 17 15 18 19 19 16 21
REMARK H PARENT 9 10 19 20 16 22
REMARK Flexibility Score: inf
ROOT
ATOM      1  C   UNL     1      15.484 -15.164   4.982  1.00  0.00     0.012 C 
ATOM      2  C   UNL     1      14.952 -14.593   3.888  1.00  0.00     0.053 C 
ENDROOT
BRANCH   1   3
ATOM      3  C   UNL     1      16.603 -14.617   5.775  1.00  0.00    -0.025 A 
ATOM      4  C   UNL     1      17.548 -15.494   6.328  1.00  0.00     0.012 A 
ATOM      5  C   UNL     1      18.586 -15.002   7.125  1.00  0.00     0.047 A 
ATOM      6  C   UNL     1      18.675 -13.629   7.396  1.00  0.00     0.115 A 
ATOM      7  C   UNL     1      16.678 -13.246   6.074  1.00  0.00     0.012 A 
ATOM      8  C   UNL     1      17.718 -12.754   6.871  1.00  0.00     0.047 A 
BRANCH   6   9
ATOM      9  O   UNL     1      19.706 -13.127   8.187  1.00  0.00    -0.508 OA
ATOM     10  H   UNL     1      20.595 -13.605   8.264  1.00  0.00     0.293 HD
ENDBRANCH   6   9
ENDBRANCH   1   3
BRANCH   2  11
ATOM     11  C   UNL     1      15.499 -13.412   3.176  1.00  0.00     0.189 C 
ATOM     12  O   UNL     1      15.228 -12.243   3.562  1.00  0.00    -0.289 OA
BRANCH  11  13
ATOM     13  C   UNL     1      16.377 -13.580   1.999  1.00  0.00     0.064 A 
ATOM     14  C   UNL     1      17.469 -12.719   1.756  1.00  0.00     0.130 A 
ATOM     15  C   UNL     1      16.097 -14.609   1.084  1.00  0.00     0.020 A 
ATOM     16  C   UNL     1      18.283 -12.926   0.632  1.00  0.00     0.093 A 
ATOM     17  C   UNL     1      16.910 -14.803  -0.036  1.00  0.00     0.047 A 
ATOM     18  C   UNL     1      18.008 -13.965  -0.261  1.00  0.00     0.119 A 
BRANCH  14  19
ATOM     19  O   UNL     1      17.727 -11.646   2.609  1.00  0.00    -0.507 OA
ATOM     20  H   UNL     1      17.005 -11.252   3.200  1.00  0.00     0.293 HD
ENDBRANCH  14  19
BRANCH  18  21
ATOM     21  O   UNL     1      18.829 -14.152  -1.371  1.00  0.00    -0.508 OA
ATOM     22  H   UNL     1      18.480 -14.026  -2.315  1.00  0.00     0.293 HD
ENDBRANCH  18  21
ENDBRANCH  11  13
ENDBRANCH   2  11
TORSDOF 6
ENDMDL
MODEL 6
REMARK VINA RESULT:    -5.261      1.793      6.897
REMARK INTER + INTRA:          -7.607
REMARK INTER:                  -6.588
REMARK INTRA:                  -1.019
REMARK UNBOUND:                -0.962
REMARK SMILES O=C(C=Cc1ccc(O)cc1)c1ccc(O)cc1O
REMARK SMILES IDX 4 1 3 2 5 3 6 4 7 5 8 6 11 7 10 8 9 9 2 11 1 12 12 13 18 14
REMARK SMILES IDX 13 15 17 16 14 17 15 18 19 19 16 21
REMARK H PARENT 9 10 19 20 16 22
REMARK Flexibility Score: inf
ROOT
ATOM      1  C   UNL     1      15.395 -12.357   3.231  1.00  0.00     0.012 C 
ATOM      2  C   UNL     1      15.656 -12.120   4.527  1.00  0.00     0.053 C 
ENDROOT
BRANCH   1   3
ATOM      3  C   UNL     1      16.346 -12.927   2.256  1.00  0.00    -0.025 A 
ATOM      4  C   UNL     1      17.226 -12.074   1.573  1.00  0.00     0.012 A 
ATOM      5  C   UNL     1      18.099 -12.586   0.609  1.00  0.00     0.047 A 
ATOM      6  C   UNL     1      18.084 -13.954   0.302  1.00  0.00     0.115 A 
ATOM      7  C   UNL     1      16.314 -14.292   1.924  1.00  0.00     0.012 A 
ATOM      8  C   UNL     1      17.189 -14.804   0.959  1.00  0.00     0.047 A 
BRANCH   6   9
ATOM      9  O   UNL     1      18.951 -14.477  -0.656  1.00  0.00    -0.508 OA
ATOM     10  H   UNL     1      19.483 -13.875  -1.273  1.00  0.00     0.293 HD
ENDBRANCH   6   9
ENDBRANCH   1   3
BRANCH   2  11
ATOM     11  C   UNL     1      16.987 -12.218   5.174  1.00  0.00     0.189 C 
ATOM     12  O   UNL     1      17.902 -11.396   4.896  1.00  0.00    -0.289 OA
BRANCH  11  13
ATOM     13  C   UNL     1      17.270 -13.279   6.163  1.00  0.00     0.064 A 
ATOM     14  C   UNL     1      17.926 -13.005   7.383  1.00  0.00     0.130 A 
ATOM     15  C   UNL     1      16.901 -14.601   5.866  1.00  0.00     0.020 A 
ATOM     16  C   UNL     1      18.162 -14.042   8.297  1.00  0.00     0.093 A 
ATOM     17  C   UNL     1      17.146 -15.629   6.780  1.00  0.00     0.047 A 
ATOM     18  C   UNL     1      17.772 -15.351   8.000  1.00  0.00     0.119 A 
BRANCH  14  19
ATOM     19  O   UNL     1      18.368 -11.714   7.673  1.00  0.00    -0.507 OA
ATOM     20  H   UNL     1      19.300 -11.403   7.427  1.00  0.00     0.293 HD
ENDBRANCH  14  19
BRANCH  18  21
ATOM     21  O   UNL     1      18.016 -16.367   8.921  1.00  0.00    -0.508 OA
ATOM     22  H   UNL     1      18.051 -16.181   9.918  1.00  0.00     0.293 HD
ENDBRANCH  18  21
ENDBRANCH  11  13
ENDBRANCH   2  11
TORSDOF 6
ENDMDL
MODEL 7
REMARK VINA RESULT:    -5.176      7.692     10.070
REMARK INTER + INTRA:          -7.500
REMARK INTER:                  -6.151
REMARK INTRA:                  -1.349
REMARK UNBOUND:                -0.962
REMARK SMILES O=C(C=Cc1ccc(O)cc1)c1ccc(O)cc1O
REMARK SMILES IDX 4 1 3 2 5 3 6 4 7 5 8 6 11 7 10 8 9 9 2 11 1 12 12 13 18 14
REMARK SMILES IDX 13 15 17 16 14 17 15 18 19 19 16 21
REMARK H PARENT 9 10 19 20 16 22
REMARK Flexibility Score: inf
ROOT
ATOM      1  C   UNL     1      22.847 -13.893   8.202  1.00  0.00     0.012 C 
ATOM      2  C   UNL     1      23.973 -14.346   8.778  1.00  0.00     0.053 C 
ENDROOT
BRANCH   1   3
ATOM      3  C   UNL     1      21.511 -14.507   8.335  1.00  0.00    -0.025 A 
ATOM      4  C   UNL     1      20.757 -14.271   9.495  1.00  0.00     0.012 A 
ATOM      5  C   UNL     1      19.512 -14.884   9.664  1.00  0.00     0.047 A 
ATOM      6  C   UNL     1      19.019 -15.758   8.685  1.00  0.00     0.115 A 
ATOM      7  C   UNL     1      21.026 -15.407   7.371  1.00  0.00     0.012 A 
ATOM      8  C   UNL     1      19.780 -16.019   7.541  1.00  0.00     0.047 A 
BRANCH   6   9
ATOM      9  O   UNL     1      17.779 -16.373   8.841  1.00  0.00    -0.508 OA
ATOM     10  H   UNL     1      17.210 -16.630   8.043  1.00  0.00     0.293 HD
ENDBRANCH   6   9
ENDBRANCH   1   3
BRANCH   2  11
ATOM     11  C   UNL     1      24.119 -15.633   9.502  1.00  0.00     0.189 C 
ATOM     12  O   UNL     1      24.441 -15.655  10.720  1.00  0.00    -0.289 OA
BRANCH  11  13
ATOM     13  C   UNL     1      23.885 -16.918   8.810  1.00  0.00     0.064 A 
ATOM     14  C   UNL     1      22.892 -17.824   9.240  1.00  0.00     0.130 A 
ATOM     15  C   UNL     1      24.696 -17.257   7.714  1.00  0.00     0.020 A 
ATOM     16  C   UNL     1      22.697 -19.027   8.544  1.00  0.00     0.093 A 
ATOM     17  C   UNL     1      24.499 -18.460   7.032  1.00  0.00     0.047 A 
ATOM     18  C   UNL     1      23.495 -19.345   7.442  1.00  0.00     0.119 A 
BRANCH  14  19
ATOM     19  O   UNL     1      22.121 -17.546  10.368  1.00  0.00    -0.507 OA
ATOM     20  H   UNL     1      22.146 -18.139  11.189  1.00  0.00     0.293 HD
ENDBRANCH  14  19
BRANCH  18  21
ATOM     21  O   UNL     1      23.286 -20.545   6.766  1.00  0.00    -0.508 OA
ATOM     22  H   UNL     1      24.058 -21.076   6.377  1.00  0.00     0.293 HD
ENDBRANCH  18  21
ENDBRANCH  11  13
ENDBRANCH   2  11
TORSDOF 6
ENDMDL
MODEL 8
REMARK VINA RESULT:    -5.158      7.342      9.907
REMARK INTER + INTRA:          -7.476
REMARK INTER:                  -6.487
REMARK INTRA:                  -0.989
REMARK UNBOUND:                -0.962
REMARK SMILES O=C(C=Cc1ccc(O)cc1)c1ccc(O)cc1O
REMARK SMILES IDX 4 1 3 2 5 3 6 4 7 5 8 6 11 7 10 8 9 9 2 11 1 12 12 13 18 14
REMARK SMILES IDX 13 15 17 16 14 17 15 18 19 19 16 21
REMARK H PARENT 9 10 19 20 16 22
REMARK Flexibility Score: inf
ROOT
ATOM      1  C   UNL     1      23.964 -19.032   6.636  1.00  0.00     0.012 C 
ATOM      2  C   UNL     1      22.791 -19.395   7.183  1.00  0.00     0.053 C 
ENDROOT
BRANCH   1   3
ATOM      3  C   UNL     1      24.833 -17.940   7.119  1.00  0.00    -0.025 A 
ATOM      4  C   UNL     1      24.769 -16.684   6.498  1.00  0.00     0.012 A 
ATOM      5  C   UNL     1      25.620 -15.652   6.906  1.00  0.00     0.047 A 
ATOM      6  C   UNL     1      26.558 -15.874   7.924  1.00  0.00     0.115 A 
ATOM      7  C   UNL     1      25.795 -18.167   8.119  1.00  0.00     0.012 A 
ATOM      8  C   UNL     1      26.645 -17.133   8.526  1.00  0.00     0.047 A 
BRANCH   6   9
ATOM      9  O   UNL     1      27.410 -14.852   8.340  1.00  0.00    -0.508 OA
ATOM     10  H   UNL     1      28.069 -14.988   9.097  1.00  0.00     0.293 HD
ENDBRANCH   6   9
ENDBRANCH   1   3
BRANCH   2  11
ATOM     11  C   UNL     1      22.071 -18.661   8.253  1.00  0.00     0.189 C 
ATOM     12  O   UNL     1      22.177 -19.011   9.459  1.00  0.00    -0.289 OA
BRANCH  11  13
ATOM     13  C   UNL     1      21.216 -17.500   7.928  1.00  0.00     0.064 A 
ATOM     14  C   UNL     1      19.953 -17.653   7.316  1.00  0.00     0.130 A 
ATOM     15  C   UNL     1      21.690 -16.208   8.209  1.00  0.00     0.020 A 
ATOM     16  C   UNL     1      19.171 -16.522   7.038  1.00  0.00     0.093 A 
ATOM     17  C   UNL     1      20.906 -15.087   7.923  1.00  0.00     0.047 A 
ATOM     18  C   UNL     1      19.643 -15.242   7.342  1.00  0.00     0.119 A 
BRANCH  14  19
ATOM     19  O   UNL     1      19.489 -18.919   6.959  1.00  0.00    -0.507 OA
ATOM     20  H   UNL     1      19.920 -19.763   7.318  1.00  0.00     0.293 HD
ENDBRANCH  14  19
BRANCH  18  21
ATOM     21  O   UNL     1      18.850 -14.132   7.056  1.00  0.00    -0.508 OA
ATOM     22  H   UNL     1      19.151 -13.193   7.290  1.00  0.00     0.293 HD
ENDBRANCH  18  21
ENDBRANCH  11  13
ENDBRANCH   2  11
TORSDOF 6
ENDMDL
MODEL 9
REMARK VINA RESULT:    -5.030      1.698      2.982
REMARK INTER + INTRA:          -7.315
REMARK INTER:                  -6.209
REMARK INTRA:                  -1.106
REMARK UNBOUND:                -0.962
REMARK SMILES O=C(C=Cc1ccc(O)cc1)c1ccc(O)cc1O
REMARK SMILES IDX 4 1 3 2 5 3 6 4 7 5 8 6 11 7 10 8 9 9 2 11 1 12 12 13 18 14
REMARK SMILES IDX 13 15 17 16 14 17 15 18 19 19 16 21
REMARK H PARENT 9 10 19 20 16 22
REMARK Flexibility Score: inf
ROOT
ATOM      1  C   UNL     1      15.664 -11.730   4.446  1.00  0.00     0.012 C 
ATOM      2  C   UNL     1      16.319 -11.096   3.459  1.00  0.00     0.053 C 
ENDROOT
BRANCH   1   3
ATOM      3  C   UNL     1      16.194 -12.856   5.240  1.00  0.00    -0.025 A 
ATOM      4  C   UNL     1      15.859 -14.170   4.878  1.00  0.00     0.012 A 
ATOM      5  C   UNL     1      16.307 -15.249   5.646  1.00  0.00     0.047 A 
ATOM      6  C   UNL     1      17.076 -15.023   6.797  1.00  0.00     0.115 A 
ATOM      7  C   UNL     1      16.939 -12.633   6.410  1.00  0.00     0.012 A 
ATOM      8  C   UNL     1      17.387 -13.713   7.178  1.00  0.00     0.047 A 
BRANCH   6   9
ATOM      9  O   UNL     1      17.530 -16.090   7.569  1.00  0.00    -0.508 OA
ATOM     10  H   UNL     1      17.176 -17.029   7.434  1.00  0.00     0.293 HD
ENDBRANCH   6   9
ENDBRANCH   1   3
BRANCH   2  11
ATOM     11  C   UNL     1      17.611 -11.520   2.866  1.00  0.00     0.189 C 
ATOM     12  O   UNL     1      18.702 -11.259   3.443  1.00  0.00    -0.289 OA
BRANCH  11  13
ATOM     13  C   UNL     1      17.649 -12.261   1.588  1.00  0.00     0.064 A 
ATOM     14  C   UNL     1      18.396 -11.800   0.483  1.00  0.00     0.130 A 
ATOM     15  C   UNL     1      16.896 -13.440   1.464  1.00  0.00     0.020 A 
ATOM     16  C   UNL     1      18.412 -12.544  -0.707  1.00  0.00     0.093 A 
ATOM     17  C   UNL     1      16.914 -14.171   0.273  1.00  0.00     0.047 A 
ATOM     18  C   UNL     1      17.676 -13.727  -0.813  1.00  0.00     0.119 A 
BRANCH  14  19
ATOM     19  O   UNL     1      19.095 -10.595   0.554  1.00  0.00    -0.507 OA
ATOM     20  H   UNL     1      19.341 -10.175   1.442  1.00  0.00     0.293 HD
ENDBRANCH  14  19
BRANCH  18  21
ATOM     21  O   UNL     1      17.705 -14.450  -2.003  1.00  0.00    -0.508 OA
ATOM     22  H   UNL     1      16.925 -14.436  -2.651  1.00  0.00     0.293 HD
ENDBRANCH  18  21
ENDBRANCH  11  13
ENDBRANCH   2  11
TORSDOF 6
ENDMDL
