MODEL 1
REMARK VINA RESULT:    -4.305      0.000      0.000
REMARK INTER + INTRA:          -7.961
REMARK INTER:                  -6.444
REMARK INTRA:                  -1.517
REMARK UNBOUND:                -1.517
REMARK SMILES COC(=O)C1=CO[C@@H](O[C@H]2O[C@H](CO)[C@H](O)[C@@H](O)[C@H]2O)[C@@H]2C(CO)=CC[C@@H]12
REMARK SMILES IDX 9 1 8 2 5 3 6 4 27 5 7 6 21 7 26 8 22 9 25 10 3 11 4 12 2 13
REMARK SMILES IDX 1 14 23 15 24 16 10 18 19 19 11 20 17 21 12 22 15 23 20 24
REMARK SMILES IDX 18 26 13 28 14 29 16 31
REMARK H PARENT 24 17 20 25 18 27 14 30 16 32
REMARK Flexibility Score: inf
ROOT
ATOM      1  O   UNL     1      21.850  14.449  84.749  1.00  0.00    -0.310 OA
ENDROOT
BRANCH   1   2
ATOM      2  C   UNL     1      20.829  13.467  84.739  1.00  0.00     0.316 C 
ATOM      3  C   UNL     1      18.176  12.524  85.497  1.00  0.00     0.076 C 
ATOM      4  C   UNL     1      18.319  13.502  84.570  1.00  0.00     0.202 C 
ATOM      5  C   UNL     1      19.449  11.904  86.035  1.00  0.00     0.047 C 
ATOM      6  O   UNL     1      19.594  14.011  84.222  1.00  0.00    -0.471 OA
ATOM      7  C   UNL     1      20.529  12.978  86.160  1.00  0.00     0.094 C 
ATOM      8  C   UNL     1      19.496  11.212  87.392  1.00  0.00     0.037 C 
ATOM      9  C   UNL     1      21.556  12.276  86.989  1.00  0.00    -0.039 C 
ATOM     10  C   UNL     1      20.957  11.332  87.724  1.00  0.00    -0.024 C 
BRANCH   3  11
ATOM     11  C   UNL     1      16.841  11.934  85.764  1.00  0.00     0.337 C 
ATOM     12  O   UNL     1      16.282  11.210  84.898  1.00  0.00    -0.246 OA
BRANCH  11  13
ATOM     13  O   UNL     1      16.198  12.190  86.978  1.00  0.00    -0.466 OA
ATOM     14  C   UNL     1      14.997  12.957  87.066  1.00  0.00     0.282 C 
ENDBRANCH  11  13
ENDBRANCH   3  11
BRANCH   9  15
ATOM     15  C   UNL     1      22.940  12.778  87.277  1.00  0.00     0.187 C 
BRANCH  15  16
ATOM     16  O   UNL     1      22.887  14.147  87.575  1.00  0.00    -0.392 OA
ATOM     17  H   UNL     1      23.824  14.423  87.752  1.00  0.00     0.211 HD
ENDBRANCH  15  16
ENDBRANCH   9  15
ENDBRANCH   1   2
BRANCH   1  18
ATOM     18  C   UNL     1      21.319  15.756  84.552  1.00  0.00     0.286 C 
ATOM     19  C   UNL     1      22.105  16.541  83.471  1.00  0.00     0.202 C 
ATOM     20  O   UNL     1      21.263  16.425  85.806  1.00  0.00    -0.341 OA
ATOM     21  C   UNL     1      23.575  16.806  83.875  1.00  0.00     0.179 C 
ATOM     22  C   UNL     1      22.429  17.167  86.177  1.00  0.00     0.178 C 
ATOM     23  C   UNL     1      23.732  16.778  85.416  1.00  0.00     0.177 C 
BRANCH  19  24
ATOM     24  O   UNL     1      21.987  15.948  82.201  1.00  0.00    -0.385 OA
ATOM     25  H   UNL     1      21.233  15.304  82.220  1.00  0.00     0.211 HD
ENDBRANCH  19  24
BRANCH  21  26
ATOM     26  O   UNL     1      24.437  15.834  83.331  1.00  0.00    -0.387 OA
ATOM     27  H   UNL     1      23.950  15.373  82.599  1.00  0.00     0.211 HD
ENDBRANCH  21  26
BRANCH  22  28
ATOM     28  C   UNL     1      22.120  18.674  86.143  1.00  0.00     0.191 C 
BRANCH  28  29
ATOM     29  O   UNL     1      23.058  19.375  86.915  1.00  0.00    -0.394 OA
ATOM     30  H   UNL     1      22.763  19.308  87.862  1.00  0.00     0.210 HD
ENDBRANCH  28  29
ENDBRANCH  22  28
BRANCH  23  31
ATOM     31  O   UNL     1      24.838  17.532  85.851  1.00  0.00    -0.387 OA
ATOM     32  H   UNL     1      25.206  17.129  86.682  1.00  0.00     0.211 HD
ENDBRANCH  23  31
ENDBRANCH   1  18
TORSDOF 11
ENDMDL
MODEL 2
REMARK VINA RESULT:    -4.119      0.924      1.170
REMARK INTER + INTRA:          -7.683
REMARK INTER:                  -6.587
REMARK INTRA:                  -1.096
REMARK UNBOUND:                -1.517
REMARK SMILES COC(=O)C1=CO[C@@H](O[C@H]2O[C@H](CO)[C@H](O)[C@@H](O)[C@H]2O)[C@@H]2C(CO)=CC[C@@H]12
REMARK SMILES IDX 9 1 8 2 5 3 6 4 27 5 7 6 21 7 26 8 22 9 25 10 3 11 4 12 2 13
REMARK SMILES IDX 1 14 23 15 24 16 10 18 19 19 11 20 17 21 12 22 15 23 20 24
REMARK SMILES IDX 18 26 13 28 14 29 16 31
REMARK H PARENT 24 17 20 25 18 27 14 30 16 32
REMARK Flexibility Score: inf
ROOT
ATOM      1  O   UNL     1      21.720  15.226  85.133  1.00  0.00    -0.310 OA
ENDROOT
BRANCH   1   2
ATOM      2  C   UNL     1      20.868  14.115  84.915  1.00  0.00     0.316 C 
ATOM      3  C   UNL     1      18.439  12.604  85.477  1.00  0.00     0.076 C 
ATOM      4  C   UNL     1      18.380  13.771  84.791  1.00  0.00     0.202 C 
ATOM      5  C   UNL     1      19.819  12.101  85.847  1.00  0.00     0.047 C 
ATOM      6  O   UNL     1      19.540  14.548  84.549  1.00  0.00    -0.471 OA
ATOM      7  C   UNL     1      20.720  13.284  86.195  1.00  0.00     0.094 C 
ATOM      8  C   UNL     1      20.042  11.146  87.013  1.00  0.00     0.037 C 
ATOM      9  C   UNL     1      21.885  12.597  86.832  1.00  0.00    -0.039 C 
ATOM     10  C   UNL     1      21.480  11.430  87.345  1.00  0.00    -0.024 C 
BRANCH   3  11
ATOM     11  C   UNL     1      17.229  11.758  85.622  1.00  0.00     0.337 C 
ATOM     12  O   UNL     1      16.784  11.113  84.636  1.00  0.00    -0.246 OA
BRANCH  11  13
ATOM     13  O   UNL     1      16.576  11.684  86.855  1.00  0.00    -0.466 OA
ATOM     14  C   UNL     1      15.340  12.349  87.113  1.00  0.00     0.282 C 
ENDBRANCH  11  13
ENDBRANCH   3  11
BRANCH   9  15
ATOM     15  C   UNL     1      23.185  13.246  87.207  1.00  0.00     0.187 C 
BRANCH  15  16
ATOM     16  O   UNL     1      22.934  14.520  87.737  1.00  0.00    -0.392 OA
ATOM     17  H   UNL     1      22.277  14.945  87.125  1.00  0.00     0.211 HD
ENDBRANCH  15  16
ENDBRANCH   9  15
ENDBRANCH   1   2
BRANCH   1  18
ATOM     18  C   UNL     1      21.313  16.355  84.365  1.00  0.00     0.286 C 
ATOM     19  C   UNL     1      22.526  17.116  83.771  1.00  0.00     0.202 C 
ATOM     20  O   UNL     1      20.468  17.175  85.163  1.00  0.00    -0.341 OA
ATOM     21  C   UNL     1      23.437  17.730  84.859  1.00  0.00     0.179 C 
ATOM     22  C   UNL     1      21.122  18.184  85.939  1.00  0.00     0.178 C 
ATOM     23  C   UNL     1      22.646  17.962  86.170  1.00  0.00     0.177 C 
BRANCH  19  24
ATOM     24  O   UNL     1      23.234  16.332  82.843  1.00  0.00    -0.385 OA
ATOM     25  H   UNL     1      23.345  15.420  83.215  1.00  0.00     0.211 HD
ENDBRANCH  19  24
BRANCH  21  26
ATOM     26  O   UNL     1      24.526  16.885  85.150  1.00  0.00    -0.387 OA
ATOM     27  H   UNL     1      25.359  17.378  84.929  1.00  0.00     0.211 HD
ENDBRANCH  21  26
BRANCH  22  28
ATOM     28  C   UNL     1      20.778  19.576  85.378  1.00  0.00     0.191 C 
BRANCH  28  29
ATOM     29  O   UNL     1      21.067  20.563  86.331  1.00  0.00    -0.394 OA
ATOM     30  H   UNL     1      20.663  21.410  86.005  1.00  0.00     0.210 HD
ENDBRANCH  28  29
ENDBRANCH  22  28
BRANCH  23  31
ATOM     31  O   UNL     1      23.211  18.980  86.959  1.00  0.00    -0.387 OA
ATOM     32  H   UNL     1      23.179  19.840  86.461  1.00  0.00     0.211 HD
ENDBRANCH  23  31
ENDBRANCH   1  18
TORSDOF 11
ENDMDL
MODEL 3
REMARK VINA RESULT:    -4.063      1.539      2.627
REMARK INTER + INTRA:          -7.599
REMARK INTER:                  -5.990
REMARK INTRA:                  -1.609
REMARK UNBOUND:                -1.517
REMARK SMILES COC(=O)C1=CO[C@@H](O[C@H]2O[C@H](CO)[C@H](O)[C@@H](O)[C@H]2O)[C@@H]2C(CO)=CC[C@@H]12
REMARK SMILES IDX 9 1 8 2 5 3 6 4 27 5 7 6 21 7 26 8 22 9 25 10 3 11 4 12 2 13
REMARK SMILES IDX 1 14 23 15 24 16 10 18 19 19 11 20 17 21 12 22 15 23 20 24
REMARK SMILES IDX 18 26 13 28 14 29 16 31
REMARK H PARENT 24 17 20 25 18 27 14 30 16 32
REMARK Flexibility Score: inf
ROOT
ATOM      1  O   UNL     1      22.049  15.947  85.555  1.00  0.00    -0.310 OA
ENDROOT
BRANCH   1   2
ATOM      2  C   UNL     1      21.396  14.755  85.156  1.00  0.00     0.316 C 
ATOM      3  C   UNL     1      19.239  12.809  85.412  1.00  0.00     0.076 C 
ATOM      4  C   UNL     1      19.000  14.036  84.889  1.00  0.00     0.202 C 
ATOM      5  C   UNL     1      20.678  12.487  85.764  1.00  0.00     0.047 C 
ATOM      6  O   UNL     1      20.020  15.015  84.801  1.00  0.00    -0.471 OA
ATOM      7  C   UNL     1      21.366  13.740  86.304  1.00  0.00     0.094 C 
ATOM      8  C   UNL     1      21.036  11.427  86.798  1.00  0.00     0.037 C 
ATOM      9  C   UNL     1      22.617  13.167  86.888  1.00  0.00    -0.039 C 
ATOM     10  C   UNL     1      22.402  11.889  87.221  1.00  0.00    -0.024 C 
BRANCH   3  11
ATOM     11  C   UNL     1      18.183  11.768  85.394  1.00  0.00     0.337 C 
ATOM     12  O   UNL     1      17.981  11.088  84.353  1.00  0.00    -0.246 OA
BRANCH  11  13
ATOM     13  O   UNL     1      17.406  11.546  86.533  1.00  0.00    -0.466 OA
ATOM     14  C   UNL     1      16.187  12.246  86.782  1.00  0.00     0.282 C 
ENDBRANCH  11  13
ENDBRANCH   3  11
BRANCH   9  15
ATOM     15  C   UNL     1      23.785  13.957  87.398  1.00  0.00     0.187 C 
BRANCH  15  16
ATOM     16  O   UNL     1      23.320  15.086  88.087  1.00  0.00    -0.392 OA
ATOM     17  H   UNL     1      24.104  15.447  88.579  1.00  0.00     0.211 HD
ENDBRANCH  15  16
ENDBRANCH   9  15
ENDBRANCH   1   2
BRANCH   1  18
ATOM     18  C   UNL     1      23.006  16.367  84.587  1.00  0.00     0.286 C 
ATOM     19  C   UNL     1      23.947  17.465  85.145  1.00  0.00     0.202 C 
ATOM     20  O   UNL     1      22.322  16.759  83.403  1.00  0.00    -0.341 OA
ATOM     21  C   UNL     1      23.198  18.770  85.501  1.00  0.00     0.179 C 
ATOM     22  C   UNL     1      21.932  18.133  83.327  1.00  0.00     0.178 C 
ATOM     23  C   UNL     1      21.884  18.886  84.690  1.00  0.00     0.177 C 
BRANCH  19  24
ATOM     24  O   UNL     1      24.744  16.987  86.201  1.00  0.00    -0.385 OA
ATOM     25  H   UNL     1      25.350  16.285  85.850  1.00  0.00     0.211 HD
ENDBRANCH  19  24
BRANCH  21  26
ATOM     26  O   UNL     1      22.871  18.814  86.871  1.00  0.00    -0.387 OA
ATOM     27  H   UNL     1      23.437  19.510  87.295  1.00  0.00     0.211 HD
ENDBRANCH  21  26
BRANCH  22  28
ATOM     28  C   UNL     1      22.767  18.853  82.253  1.00  0.00     0.191 C 
BRANCH  28  29
ATOM     29  O   UNL     1      22.043  19.932  81.724  1.00  0.00    -0.394 OA
ATOM     30  H   UNL     1      22.677  20.692  81.634  1.00  0.00     0.210 HD
ENDBRANCH  28  29
ENDBRANCH  22  28
BRANCH  23  31
ATOM     31  O   UNL     1      21.470  20.222  84.537  1.00  0.00    -0.387 OA
ATOM     32  H   UNL     1      22.064  20.679  83.884  1.00  0.00     0.211 HD
ENDBRANCH  23  31
ENDBRANCH   1  18
TORSDOF 11
ENDMDL
MODEL 4
REMARK VINA RESULT:    -3.824      3.429      4.732
REMARK INTER + INTRA:          -7.241
REMARK INTER:                  -5.403
REMARK INTRA:                  -1.838
REMARK UNBOUND:                -1.517
REMARK SMILES COC(=O)C1=CO[C@@H](O[C@H]2O[C@H](CO)[C@H](O)[C@@H](O)[C@H]2O)[C@@H]2C(CO)=CC[C@@H]12
REMARK SMILES IDX 9 1 8 2 5 3 6 4 27 5 7 6 21 7 26 8 22 9 25 10 3 11 4 12 2 13
REMARK SMILES IDX 1 14 23 15 24 16 10 18 19 19 11 20 17 21 12 22 15 23 20 24
REMARK SMILES IDX 18 26 13 28 14 29 16 31
REMARK H PARENT 24 17 20 25 18 27 14 30 16 32
REMARK Flexibility Score: inf
ROOT
ATOM      1  O   UNL     1      23.233  13.108  85.991  1.00  0.00    -0.310 OA
ENDROOT
BRANCH   1   2
ATOM      2  C   UNL     1      23.426  11.730  85.726  1.00  0.00     0.316 C 
ATOM      3  C   UNL     1      23.114   9.382  84.024  1.00  0.00     0.076 C 
ATOM      4  C   UNL     1      23.983  10.365  83.687  1.00  0.00     0.202 C 
ATOM      5  C   UNL     1      22.397   9.532  85.351  1.00  0.00     0.047 C 
ATOM      6  O   UNL     1      24.116  11.538  84.471  1.00  0.00    -0.471 OA
ATOM      7  C   UNL     1      22.081  11.006  85.599  1.00  0.00     0.094 C 
ATOM      8  C   UNL     1      21.066   8.844  85.630  1.00  0.00     0.037 C 
ATOM      9  C   UNL     1      21.118  10.919  86.740  1.00  0.00    -0.039 C 
ATOM     10  C   UNL     1      20.508   9.728  86.709  1.00  0.00    -0.024 C 
BRANCH   3  11
ATOM     11  C   UNL     1      23.072   8.120  83.248  1.00  0.00     0.337 C 
ATOM     12  O   UNL     1      22.428   8.060  82.167  1.00  0.00    -0.246 OA
BRANCH  11  13
ATOM     13  O   UNL     1      23.745   6.990  83.721  1.00  0.00    -0.466 OA
ATOM     14  C   UNL     1      23.070   5.899  84.346  1.00  0.00     0.282 C 
ENDBRANCH  11  13
ENDBRANCH   3  11
BRANCH   9  15
ATOM     15  C   UNL     1      20.606  12.077  87.542  1.00  0.00     0.187 C 
BRANCH  15  16
ATOM     16  O   UNL     1      20.291  13.139  86.682  1.00  0.00    -0.392 OA
ATOM     17  H   UNL     1      19.805  13.804  87.237  1.00  0.00     0.211 HD
ENDBRANCH  15  16
ENDBRANCH   9  15
ENDBRANCH   1   2
BRANCH   1  18
ATOM     18  C   UNL     1      23.232  13.876  84.791  1.00  0.00     0.286 C 
ATOM     19  C   UNL     1      24.373  14.926  84.778  1.00  0.00     0.202 C 
ATOM     20  O   UNL     1      21.941  14.443  84.608  1.00  0.00    -0.341 OA
ATOM     21  C   UNL     1      24.216  15.992  85.888  1.00  0.00     0.179 C 
ATOM     22  C   UNL     1      21.728  15.729  85.199  1.00  0.00     0.178 C 
ATOM     23  C   UNL     1      22.735  16.118  86.322  1.00  0.00     0.177 C 
BRANCH  19  24
ATOM     24  O   UNL     1      25.643  14.322  84.776  1.00  0.00    -0.385 OA
ATOM     25  H   UNL     1      26.333  15.034  84.763  1.00  0.00     0.211 HD
ENDBRANCH  19  24
BRANCH  21  26
ATOM     26  O   UNL     1      24.977  15.660  87.026  1.00  0.00    -0.387 OA
ATOM     27  H   UNL     1      25.466  16.475  87.312  1.00  0.00     0.211 HD
ENDBRANCH  21  26
BRANCH  22  28
ATOM     28  C   UNL     1      21.591  16.793  84.095  1.00  0.00     0.191 C 
BRANCH  28  29
ATOM     29  O   UNL     1      20.779  17.846  84.541  1.00  0.00    -0.394 OA
ATOM     30  H   UNL     1      21.385  18.560  84.873  1.00  0.00     0.210 HD
ENDBRANCH  28  29
ENDBRANCH  22  28
BRANCH  23  31
ATOM     31  O   UNL     1      22.447  17.381  86.870  1.00  0.00    -0.387 OA
ATOM     32  H   UNL     1      22.698  17.389  87.832  1.00  0.00     0.211 HD
ENDBRANCH  23  31
ENDBRANCH   1  18
TORSDOF 11
ENDMDL
MODEL 5
REMARK VINA RESULT:    -3.730      2.401      4.260
REMARK INTER + INTRA:          -7.100
REMARK INTER:                  -5.256
REMARK INTRA:                  -1.845
REMARK UNBOUND:                -1.517
REMARK SMILES COC(=O)C1=CO[C@@H](O[C@H]2O[C@H](CO)[C@H](O)[C@@H](O)[C@H]2O)[C@@H]2C(CO)=CC[C@@H]12
REMARK SMILES IDX 9 1 8 2 5 3 6 4 27 5 7 6 21 7 26 8 22 9 25 10 3 11 4 12 2 13
REMARK SMILES IDX 1 14 23 15 24 16 10 18 19 19 11 20 17 21 12 22 15 23 20 24
REMARK SMILES IDX 18 26 13 28 14 29 16 31
REMARK H PARENT 24 17 20 25 18 27 14 30 16 32
REMARK Flexibility Score: inf
ROOT
ATOM      1  O   UNL     1      20.952  14.913  85.616  1.00  0.00    -0.310 OA
ENDROOT
BRANCH   1   2
ATOM      2  C   UNL     1      20.662  13.563  85.931  1.00  0.00     0.316 C 
ATOM      3  C   UNL     1      20.989  10.701  85.479  1.00  0.00     0.076 C 
ATOM      4  C   UNL     1      21.988  11.429  86.035  1.00  0.00     0.202 C 
ATOM      5  C   UNL     1      19.692  11.431  85.197  1.00  0.00     0.047 C 
ATOM      6  O   UNL     1      21.872  12.829  86.219  1.00  0.00    -0.471 OA
ATOM      7  C   UNL     1      19.994  12.859  84.745  1.00  0.00     0.094 C 
ATOM      8  C   UNL     1      18.705  10.941  84.144  1.00  0.00     0.037 C 
ATOM      9  C   UNL     1      18.667  13.292  84.211  1.00  0.00    -0.039 C 
ATOM     10  C   UNL     1      17.979  12.215  83.817  1.00  0.00    -0.024 C 
BRANCH   3  11
ATOM     11  C   UNL     1      21.094   9.224  85.398  1.00  0.00     0.337 C 
ATOM     12  O   UNL     1      20.699   8.506  86.355  1.00  0.00    -0.246 OA
BRANCH  11  13
ATOM     13  O   UNL     1      21.639   8.627  84.258  1.00  0.00    -0.466 OA
ATOM     14  C   UNL     1      20.869   7.821  83.368  1.00  0.00     0.282 C 
ENDBRANCH  11  13
ENDBRANCH   3  11
BRANCH   9  15
ATOM     15  C   UNL     1      18.304  14.688  83.798  1.00  0.00     0.187 C 
BRANCH  15  16
ATOM     16  O   UNL     1      19.366  15.253  83.078  1.00  0.00    -0.392 OA
ATOM     17  H   UNL     1      19.929  15.724  83.748  1.00  0.00     0.211 HD
ENDBRANCH  15  16
ENDBRANCH   9  15
ENDBRANCH   1   2
BRANCH   1  18
ATOM     18  C   UNL     1      22.300  15.070  85.181  1.00  0.00     0.286 C 
ATOM     19  C   UNL     1      23.110  15.988  86.132  1.00  0.00     0.202 C 
ATOM     20  O   UNL     1      22.299  15.516  83.830  1.00  0.00    -0.341 OA
ATOM     21  C   UNL     1      22.571  17.438  86.165  1.00  0.00     0.179 C 
ATOM     22  C   UNL     1      22.278  16.934  83.635  1.00  0.00     0.178 C 
ATOM     23  C   UNL     1      21.799  17.765  84.863  1.00  0.00     0.177 C 
BRANCH  19  24
ATOM     24  O   UNL     1      23.246  15.427  87.414  1.00  0.00    -0.385 OA
ATOM     25  H   UNL     1      24.204  15.222  87.571  1.00  0.00     0.211 HD
ENDBRANCH  19  24
BRANCH  21  26
ATOM     26  O   UNL     1      21.696  17.633  87.251  1.00  0.00    -0.387 OA
ATOM     27  H   UNL     1      21.615  18.611  87.402  1.00  0.00     0.211 HD
ENDBRANCH  21  26
BRANCH  22  28
ATOM     28  C   UNL     1      23.628  17.400  83.062  1.00  0.00     0.191 C 
BRANCH  28  29
ATOM     29  O   UNL     1      23.446  18.551  82.280  1.00  0.00    -0.394 OA
ATOM     30  H   UNL     1      22.722  18.350  81.631  1.00  0.00     0.210 HD
ENDBRANCH  28  29
ENDBRANCH  22  28
BRANCH  23  31
ATOM     31  O   UNL     1      21.782  19.145  84.587  1.00  0.00    -0.387 OA
ATOM     32  H   UNL     1      22.542  19.584  85.055  1.00  0.00     0.211 HD
ENDBRANCH  23  31
ENDBRANCH   1  18
TORSDOF 11
ENDMDL
MODEL 6
REMARK VINA RESULT:    -3.711      3.507      5.275
REMARK INTER + INTRA:          -7.072
REMARK INTER:                  -5.366
REMARK INTRA:                  -1.707
REMARK UNBOUND:                -1.517
REMARK SMILES COC(=O)C1=CO[C@@H](O[C@H]2O[C@H](CO)[C@H](O)[C@@H](O)[C@H]2O)[C@@H]2C(CO)=CC[C@@H]12
REMARK SMILES IDX 9 1 8 2 5 3 6 4 27 5 7 6 21 7 26 8 22 9 25 10 3 11 4 12 2 13
REMARK SMILES IDX 1 14 23 15 24 16 10 18 19 19 11 20 17 21 12 22 15 23 20 24
REMARK SMILES IDX 18 26 13 28 14 29 16 31
REMARK H PARENT 24 17 20 25 18 27 14 30 16 32
REMARK Flexibility Score: inf
ROOT
ATOM      1  O   UNL     1      23.247  13.272  85.431  1.00  0.00    -0.310 OA
ENDROOT
BRANCH   1   2
ATOM      2  C   UNL     1      23.532  11.893  85.578  1.00  0.00     0.316 C 
ATOM      3  C   UNL     1      23.724   9.190  84.502  1.00  0.00     0.076 C 
ATOM      4  C   UNL     1      24.629  10.134  84.153  1.00  0.00     0.202 C 
ATOM      5  C   UNL     1      22.684   9.589  85.529  1.00  0.00     0.047 C 
ATOM      6  O   UNL     1      24.529  11.467  84.623  1.00  0.00    -0.471 OA
ATOM      7  C   UNL     1      22.282  11.047  85.311  1.00  0.00     0.094 C 
ATOM      8  C   UNL     1      21.341   8.876  85.636  1.00  0.00     0.037 C 
ATOM      9  C   UNL     1      21.058  11.152  86.164  1.00  0.00    -0.039 C 
ATOM     10  C   UNL     1      20.503   9.941  86.286  1.00  0.00    -0.024 C 
BRANCH   3  11
ATOM     11  C   UNL     1      23.913   7.779  84.084  1.00  0.00     0.337 C 
ATOM     12  O   UNL     1      23.831   7.462  82.868  1.00  0.00    -0.246 OA
BRANCH  11  13
ATOM     13  O   UNL     1      24.175   6.798  85.044  1.00  0.00    -0.466 OA
ATOM     14  C   UNL     1      25.365   6.791  85.831  1.00  0.00     0.282 C 
ENDBRANCH  11  13
ENDBRANCH   3  11
BRANCH   9  15
ATOM     15  C   UNL     1      20.330  12.420  86.497  1.00  0.00     0.187 C 
BRANCH  15  16
ATOM     16  O   UNL     1      21.062  13.142  87.451  1.00  0.00    -0.392 OA
ATOM     17  H   UNL     1      21.211  12.517  88.209  1.00  0.00     0.211 HD
ENDBRANCH  15  16
ENDBRANCH   9  15
ENDBRANCH   1   2
BRANCH   1  18
ATOM     18  C   UNL     1      24.335  14.081  85.872  1.00  0.00     0.286 C 
ATOM     19  C   UNL     1      23.858  15.248  86.772  1.00  0.00     0.202 C 
ATOM     20  O   UNL     1      25.079  14.509  84.737  1.00  0.00    -0.341 OA
ATOM     21  C   UNL     1      22.948  16.249  86.022  1.00  0.00     0.179 C 
ATOM     22  C   UNL     1      24.661  15.741  84.140  1.00  0.00     0.178 C 
ATOM     23  C   UNL     1      23.215  16.195  84.497  1.00  0.00     0.177 C 
BRANCH  19  24
ATOM     24  O   UNL     1      23.291  14.788  87.973  1.00  0.00    -0.385 OA
ATOM     25  H   UNL     1      23.983  14.814  88.683  1.00  0.00     0.211 HD
ENDBRANCH  19  24
BRANCH  21  26
ATOM     26  O   UNL     1      21.585  15.959  86.236  1.00  0.00    -0.387 OA
ATOM     27  H   UNL     1      21.223  16.649  86.851  1.00  0.00     0.211 HD
ENDBRANCH  21  26
BRANCH  22  28
ATOM     28  C   UNL     1      25.727  16.824  84.382  1.00  0.00     0.191 C 
BRANCH  28  29
ATOM     29  O   UNL     1      25.698  17.768  83.344  1.00  0.00    -0.394 OA
ATOM     30  H   UNL     1      24.744  17.908  83.106  1.00  0.00     0.210 HD
ENDBRANCH  28  29
ENDBRANCH  22  28
BRANCH  23  31
ATOM     31  O   UNL     1      22.869  17.398  83.854  1.00  0.00    -0.387 OA
ATOM     32  H   UNL     1      22.902  17.268  82.869  1.00  0.00     0.211 HD
ENDBRANCH  23  31
ENDBRANCH   1  18
TORSDOF 11
ENDMDL
MODEL 7
REMARK VINA RESULT:    -3.707      3.889      5.440
REMARK INTER + INTRA:          -7.067
REMARK INTER:                  -5.378
REMARK INTRA:                  -1.689
REMARK UNBOUND:                -1.517
REMARK SMILES COC(=O)C1=CO[C@@H](O[C@H]2O[C@H](CO)[C@H](O)[C@@H](O)[C@H]2O)[C@@H]2C(CO)=CC[C@@H]12
REMARK SMILES IDX 9 1 8 2 5 3 6 4 27 5 7 6 21 7 26 8 22 9 25 10 3 11 4 12 2 13
REMARK SMILES IDX 1 14 23 15 24 16 10 18 19 19 11 20 17 21 12 22 15 23 20 24
REMARK SMILES IDX 18 26 13 28 14 29 16 31
REMARK H PARENT 24 17 20 25 18 27 14 30 16 32
REMARK Flexibility Score: inf
ROOT
ATOM      1  O   UNL     1      23.747  12.912  85.865  1.00  0.00    -0.310 OA
ENDROOT
BRANCH   1   2
ATOM      2  C   UNL     1      23.707  11.521  85.600  1.00  0.00     0.316 C 
ATOM      3  C   UNL     1      22.970   9.256  83.919  1.00  0.00     0.076 C 
ATOM      4  C   UNL     1      23.977  10.085  83.552  1.00  0.00     0.202 C 
ATOM      5  C   UNL     1      22.326   9.519  85.265  1.00  0.00     0.047 C 
ATOM      6  O   UNL     1      24.320  11.220  84.327  1.00  0.00    -0.471 OA
ATOM      7  C   UNL     1      22.259  11.025  85.515  1.00  0.00     0.094 C 
ATOM      8  C   UNL     1      20.910   9.055  85.585  1.00  0.00     0.037 C 
ATOM      9  C   UNL     1      21.329  11.094  86.683  1.00  0.00    -0.039 C 
ATOM     10  C   UNL     1      20.534  10.018  86.676  1.00  0.00    -0.024 C 
BRANCH   3  11
ATOM     11  C   UNL     1      22.702   8.016  83.149  1.00  0.00     0.337 C 
ATOM     12  O   UNL     1      22.270   8.084  81.968  1.00  0.00    -0.246 OA
BRANCH  11  13
ATOM     13  O   UNL     1      22.922   6.769  83.740  1.00  0.00    -0.466 OA
ATOM     14  C   UNL     1      24.184   6.390  84.289  1.00  0.00     0.282 C 
ENDBRANCH  11  13
ENDBRANCH   3  11
BRANCH   9  15
ATOM     15  C   UNL     1      21.035  12.320  87.496  1.00  0.00     0.187 C 
BRANCH  15  16
ATOM     16  O   UNL     1      20.982  13.438  86.651  1.00  0.00    -0.392 OA
ATOM     17  H   UNL     1      21.830  13.933  86.801  1.00  0.00     0.211 HD
ENDBRANCH  15  16
ENDBRANCH   9  15
ENDBRANCH   1   2
BRANCH   1  18
ATOM     18  C   UNL     1      24.594  13.209  86.972  1.00  0.00     0.286 C 
ATOM     19  C   UNL     1      24.508  14.702  87.379  1.00  0.00     0.202 C 
ATOM     20  O   UNL     1      25.916  12.782  86.667  1.00  0.00    -0.341 OA
ATOM     21  C   UNL     1      25.016  15.654  86.272  1.00  0.00     0.179 C 
ATOM     22  C   UNL     1      26.755  13.744  86.019  1.00  0.00     0.178 C 
ATOM     23  C   UNL     1      26.004  14.922  85.330  1.00  0.00     0.177 C 
BRANCH  19  24
ATOM     24  O   UNL     1      23.228  15.045  87.850  1.00  0.00    -0.385 OA
ATOM     25  H   UNL     1      22.562  14.830  87.147  1.00  0.00     0.211 HD
ENDBRANCH  19  24
BRANCH  21  26
ATOM     26  O   UNL     1      23.951  16.144  85.491  1.00  0.00    -0.387 OA
ATOM     27  H   UNL     1      23.264  16.507  86.110  1.00  0.00     0.211 HD
ENDBRANCH  21  26
BRANCH  22  28
ATOM     28  C   UNL     1      27.866  14.198  86.983  1.00  0.00     0.191 C 
BRANCH  28  29
ATOM     29  O   UNL     1      29.005  14.578  86.257  1.00  0.00    -0.394 OA
ATOM     30  H   UNL     1      29.064  13.973  85.471  1.00  0.00     0.210 HD
ENDBRANCH  28  29
ENDBRANCH  22  28
BRANCH  23  31
ATOM     31  O   UNL     1      26.892  15.811  84.696  1.00  0.00    -0.387 OA
ATOM     32  H   UNL     1      26.401  16.332  84.007  1.00  0.00     0.211 HD
ENDBRANCH  23  31
ENDBRANCH   1  18
TORSDOF 11
ENDMDL
MODEL 8
REMARK VINA RESULT:    -3.703      3.815      5.992
REMARK INTER + INTRA:          -7.060
REMARK INTER:                  -5.453
REMARK INTRA:                  -1.607
REMARK UNBOUND:                -1.517
REMARK SMILES COC(=O)C1=CO[C@@H](O[C@H]2O[C@H](CO)[C@H](O)[C@@H](O)[C@H]2O)[C@@H]2C(CO)=CC[C@@H]12
REMARK SMILES IDX 9 1 8 2 5 3 6 4 27 5 7 6 21 7 26 8 22 9 25 10 3 11 4 12 2 13
REMARK SMILES IDX 1 14 23 15 24 16 10 18 19 19 11 20 17 21 12 22 15 23 20 24
REMARK SMILES IDX 18 26 13 28 14 29 16 31
REMARK H PARENT 24 17 20 25 18 27 14 30 16 32
REMARK Flexibility Score: inf
ROOT
ATOM      1  O   UNL     1      19.587  12.027  85.242  1.00  0.00    -0.310 OA
ENDROOT
BRANCH   1   2
ATOM      2  C   UNL     1      18.263  12.493  85.436  1.00  0.00     0.316 C 
ATOM      3  C   UNL     1      15.436  12.023  85.973  1.00  0.00     0.076 C 
ATOM      4  C   UNL     1      16.357  11.874  86.956  1.00  0.00     0.202 C 
ATOM      5  C   UNL     1      15.943  12.523  84.636  1.00  0.00     0.047 C 
ATOM      6  O   UNL     1      17.741  12.048  86.707  1.00  0.00    -0.471 OA
ATOM      7  C   UNL     1      17.326  11.936  84.359  1.00  0.00     0.094 C 
ATOM      8  C   UNL     1      15.191  12.253  83.338  1.00  0.00     0.037 C 
ATOM      9  C   UNL     1      17.505  12.258  82.910  1.00  0.00    -0.039 C 
ATOM     10  C   UNL     1      16.303  12.369  82.334  1.00  0.00    -0.024 C 
BRANCH   3  11
ATOM     11  C   UNL     1      13.988  11.941  86.284  1.00  0.00     0.337 C 
ATOM     12  O   UNL     1      13.283  12.984  86.299  1.00  0.00    -0.246 OA
BRANCH  11  13
ATOM     13  O   UNL     1      13.407  10.703  86.570  1.00  0.00    -0.466 OA
ATOM     14  C   UNL     1      12.730  10.435  87.797  1.00  0.00     0.282 C 
ENDBRANCH  11  13
ENDBRANCH   3  11
BRANCH   9  15
ATOM     15  C   UNL     1      18.773  12.089  82.127  1.00  0.00     0.187 C 
BRANCH  15  16
ATOM     16  O   UNL     1      19.365  10.862  82.457  1.00  0.00    -0.392 OA
ATOM     17  H   UNL     1      19.530  10.399  81.594  1.00  0.00     0.211 HD
ENDBRANCH  15  16
ENDBRANCH   9  15
ENDBRANCH   1   2
BRANCH   1  18
ATOM     18  C   UNL     1      19.833  10.833  85.979  1.00  0.00     0.286 C 
ATOM     19  C   UNL     1      20.810  11.075  87.158  1.00  0.00     0.202 C 
ATOM     20  O   UNL     1      20.271   9.819  85.082  1.00  0.00    -0.341 OA
ATOM     21  C   UNL     1      22.220  11.505  86.688  1.00  0.00     0.179 C 
ATOM     22  C   UNL     1      21.682   9.741  84.861  1.00  0.00     0.178 C 
ATOM     23  C   UNL     1      22.486  11.021  85.241  1.00  0.00     0.177 C 
BRANCH  19  24
ATOM     24  O   UNL     1      20.267  11.943  88.121  1.00  0.00    -0.385 OA
ATOM     25  H   UNL     1      19.603  11.443  88.662  1.00  0.00     0.211 HD
ENDBRANCH  19  24
BRANCH  21  26
ATOM     26  O   UNL     1      22.360  12.907  86.711  1.00  0.00    -0.387 OA
ATOM     27  H   UNL     1      22.335  13.229  85.773  1.00  0.00     0.211 HD
ENDBRANCH  21  26
BRANCH  22  28
ATOM     28  C   UNL     1      22.238   8.452  85.493  1.00  0.00     0.191 C 
BRANCH  28  29
ATOM     29  O   UNL     1      21.383   7.375  85.217  1.00  0.00    -0.394 OA
ATOM     30  H   UNL     1      20.454   7.727  85.240  1.00  0.00     0.210 HD
ENDBRANCH  28  29
ENDBRANCH  22  28
BRANCH  23  31
ATOM     31  O   UNL     1      23.859  10.876  84.972  1.00  0.00    -0.387 OA
ATOM     32  H   UNL     1      24.038   9.952  84.653  1.00  0.00     0.211 HD
ENDBRANCH  23  31
ENDBRANCH   1  18
TORSDOF 11
ENDMDL
MODEL 9
REMARK VINA RESULT:    -3.624      2.499      3.851
REMARK INTER + INTRA:          -6.942
REMARK INTER:                  -5.337
REMARK INTRA:                  -1.605
REMARK UNBOUND:                -1.517
REMARK SMILES COC(=O)C1=CO[C@@H](O[C@H]2O[C@H](CO)[C@H](O)[C@@H](O)[C@H]2O)[C@@H]2C(CO)=CC[C@@H]12
REMARK SMILES IDX 9 1 8 2 5 3 6 4 27 5 7 6 21 7 26 8 22 9 25 10 3 11 4 12 2 13
REMARK SMILES IDX 1 14 23 15 24 16 10 18 19 19 11 20 17 21 12 22 15 23 20 24
REMARK SMILES IDX 18 26 13 28 14 29 16 31
REMARK H PARENT 24 17 20 25 18 27 14 30 16 32
REMARK Flexibility Score: inf
ROOT
ATOM      1  O   UNL     1      21.900  15.791  85.606  1.00  0.00    -0.310 OA
ENDROOT
BRANCH   1   2
ATOM      2  C   UNL     1      21.612  14.434  85.318  1.00  0.00     0.316 C 
ATOM      3  C   UNL     1      20.941  11.725  86.161  1.00  0.00     0.076 C 
ATOM      4  C   UNL     1      20.019  12.714  86.231  1.00  0.00     0.202 C 
ATOM      5  C   UNL     1      22.281  12.084  85.550  1.00  0.00     0.047 C 
ATOM      6  O   UNL     1      20.336  14.049  85.874  1.00  0.00    -0.471 OA
ATOM      7  C   UNL     1      22.660  13.510  85.947  1.00  0.00     0.094 C 
ATOM      8  C   UNL     1      23.546  11.294  85.862  1.00  0.00     0.037 C 
ATOM      9  C   UNL     1      24.100  13.559  85.550  1.00  0.00    -0.039 C 
ATOM     10  C   UNL     1      24.604  12.320  85.568  1.00  0.00    -0.024 C 
BRANCH   3  11
ATOM     11  C   UNL     1      20.555  10.319  86.436  1.00  0.00     0.337 C 
ATOM     12  O   UNL     1      20.166   9.982  87.585  1.00  0.00    -0.246 OA
BRANCH  11  13
ATOM     13  O   UNL     1      20.631   9.365  85.418  1.00  0.00    -0.466 OA
ATOM     14  C   UNL     1      21.448   8.199  85.516  1.00  0.00     0.282 C 
ENDBRANCH  11  13
ENDBRANCH   3  11
BRANCH   9  15
ATOM     15  C   UNL     1      24.959  14.789  85.527  1.00  0.00     0.187 C 
BRANCH  15  16
ATOM     16  O   UNL     1      24.608  15.623  86.598  1.00  0.00    -0.392 OA
ATOM     17  H   UNL     1      23.619  15.704  86.566  1.00  0.00     0.211 HD
ENDBRANCH  15  16
ENDBRANCH   9  15
ENDBRANCH   1   2
BRANCH   1  18
ATOM     18  C   UNL     1      21.750  16.614  84.453  1.00  0.00     0.286 C 
ATOM     19  C   UNL     1      22.433  17.993  84.635  1.00  0.00     0.202 C 
ATOM     20  O   UNL     1      20.368  16.707  84.130  1.00  0.00    -0.341 OA
ATOM     21  C   UNL     1      21.791  18.834  85.763  1.00  0.00     0.179 C 
ATOM     22  C   UNL     1      19.648  17.779  84.747  1.00  0.00     0.178 C 
ATOM     23  C   UNL     1      20.326  18.395  86.008  1.00  0.00     0.177 C 
BRANCH  19  24
ATOM     24  O   UNL     1      23.828  17.875  84.769  1.00  0.00    -0.385 OA
ATOM     25  H   UNL     1      24.027  17.402  85.617  1.00  0.00     0.211 HD
ENDBRANCH  19  24
BRANCH  21  26
ATOM     26  O   UNL     1      22.497  18.689  86.974  1.00  0.00    -0.387 OA
ATOM     27  H   UNL     1      23.127  17.930  86.867  1.00  0.00     0.211 HD
ENDBRANCH  21  26
BRANCH  22  28
ATOM     28  C   UNL     1      19.255  18.821  83.685  1.00  0.00     0.191 C 
BRANCH  28  29
ATOM     29  O   UNL     1      18.074  19.475  84.067  1.00  0.00    -0.394 OA
ATOM     30  H   UNL     1      17.318  18.952  83.691  1.00  0.00     0.210 HD
ENDBRANCH  28  29
ENDBRANCH  22  28
BRANCH  23  31
ATOM     31  O   UNL     1      19.549  19.424  86.571  1.00  0.00    -0.387 OA
ATOM     32  H   UNL     1      18.590  19.267  86.360  1.00  0.00     0.211 HD
ENDBRANCH  23  31
ENDBRANCH   1  18
TORSDOF 11
ENDMDL
