MODEL 1
REMARK VINA RESULT:    -6.341      0.000      0.000
REMARK INTER + INTRA:          -7.094
REMARK INTER:                  -6.897
REMARK INTRA:                  -0.198
REMARK UNBOUND:                -0.198
REMARK SMILES CC1=C2C[C@@H](C(C)(C)O)CC[C@@]2(C)CCC1
REMARK SMILES IDX 6 1 7 2 8 3 5 4 1 5 2 6 3 7 16 8 4 9 12 10 15 11 11 12 14 13
REMARK SMILES IDX 13 14 10 15 9 16
REMARK H PARENT 9 17
REMARK Flexibility Score: inf
ROOT
ATOM      1  C   UNL     1     116.349 126.285 128.268  1.00  0.00     0.062 C 
ATOM      2  C   UNL     1     116.632 127.193 129.489  1.00  0.00     0.042 C 
ATOM      3  C   UNL     1     117.476 126.515 127.230  1.00  0.00     0.042 C 
ENDROOT
BRANCH   1   4
ATOM      4  C   UNL     1     116.290 124.779 128.714  1.00  0.00     0.024 C 
ATOM      5  C   UNL     1     114.009 121.979 126.154  1.00  0.00     0.039 C 
ATOM      6  C   UNL     1     114.457 121.608 127.550  1.00  0.00    -0.074 C 
ATOM      7  C   UNL     1     115.081 122.518 128.364  1.00  0.00    -0.065 C 
ATOM      8  C   UNL     1     114.031 120.230 128.032  1.00  0.00     0.031 C 
ATOM      9  C   UNL     1     115.263 123.960 127.893  1.00  0.00     0.038 C 
ATOM     10  C   UNL     1     115.530 122.144 129.781  1.00  0.00    -0.011 C 
ATOM     11  C   UNL     1     114.617 119.809 129.378  1.00  0.00     0.005 C 
ATOM     12  C   UNL     1     115.330 123.368 130.704  1.00  0.00     0.011 C 
ATOM     13  C   UNL     1     114.653 120.992 130.340  1.00  0.00     0.011 C 
ATOM     14  C   UNL     1     117.017 121.699 129.781  1.00  0.00     0.016 C 
ATOM     15  C   UNL     1     116.064 124.644 130.248  1.00  0.00     0.008 C 
ENDBRANCH   1   4
BRANCH   1  16
ATOM     16  O   UNL     1     115.112 126.641 127.694  1.00  0.00    -0.390 OA
ATOM     17  H   UNL     1     114.391 126.364 128.318  1.00  0.00     0.211 HD
ENDBRANCH   1  16
TORSDOF 2
ENDMDL
MODEL 2
REMARK VINA RESULT:    -5.887      3.359      5.268
REMARK INTER + INTRA:          -6.601
REMARK INTER:                  -6.332
REMARK INTRA:                  -0.270
REMARK UNBOUND:                -0.198
REMARK SMILES CC1=C2C[C@@H](C(C)(C)O)CC[C@@]2(C)CCC1
REMARK SMILES IDX 6 1 7 2 8 3 5 4 1 5 2 6 3 7 16 8 4 9 12 10 15 11 11 12 14 13
REMARK SMILES IDX 13 14 10 15 9 16
REMARK H PARENT 9 17
REMARK Flexibility Score: inf
ROOT
ATOM      1  C   UNL     1     120.001 129.682 129.742  1.00  0.00     0.062 C 
ATOM      2  C   UNL     1     121.257 129.558 128.846  1.00  0.00     0.042 C 
ATOM      3  C   UNL     1     119.148 130.859 129.210  1.00  0.00     0.042 C 
ENDROOT
BRANCH   1   4
ATOM      4  C   UNL     1     119.186 128.338 129.721  1.00  0.00     0.024 C 
ATOM      5  C   UNL     1     120.014 125.497 126.429  1.00  0.00     0.039 C 
ATOM      6  C   UNL     1     118.803 125.358 127.325  1.00  0.00    -0.074 C 
ATOM      7  C   UNL     1     118.511 126.298 128.280  1.00  0.00    -0.065 C 
ATOM      8  C   UNL     1     117.866 124.208 126.990  1.00  0.00     0.031 C 
ATOM      9  C   UNL     1     119.373 127.553 128.399  1.00  0.00     0.038 C 
ATOM     10  C   UNL     1     117.281 126.161 129.183  1.00  0.00    -0.011 C 
ATOM     11  C   UNL     1     116.733 123.987 127.990  1.00  0.00     0.005 C 
ATOM     12  C   UNL     1     116.696 127.569 129.442  1.00  0.00     0.011 C 
ATOM     13  C   UNL     1     116.182 125.323 128.478  1.00  0.00     0.011 C 
ATOM     14  C   UNL     1     117.662 125.476 130.523  1.00  0.00     0.016 C 
ATOM     15  C   UNL     1     117.686 128.572 130.064  1.00  0.00     0.008 C 
ENDBRANCH   1   4
BRANCH   1  16
ATOM     16  O   UNL     1     120.395 129.957 131.067  1.00  0.00    -0.390 OA
ATOM     17  H   UNL     1     121.374 129.802 131.138  1.00  0.00     0.211 HD
ENDBRANCH   1  16
TORSDOF 2
ENDMDL
MODEL 3
REMARK VINA RESULT:    -5.833      1.205      2.445
REMARK INTER + INTRA:          -6.542
REMARK INTER:                  -6.271
REMARK INTRA:                  -0.271
REMARK UNBOUND:                -0.198
REMARK SMILES CC1=C2C[C@@H](C(C)(C)O)CC[C@@]2(C)CCC1
REMARK SMILES IDX 6 1 7 2 8 3 5 4 1 5 2 6 3 7 16 8 4 9 12 10 15 11 11 12 14 13
REMARK SMILES IDX 13 14 10 15 9 16
REMARK H PARENT 9 17
REMARK Flexibility Score: inf
ROOT
ATOM      1  C   UNL     1     116.312 126.039 128.188  1.00  0.00     0.062 C 
ATOM      2  C   UNL     1     116.616 126.244 129.692  1.00  0.00     0.042 C 
ATOM      3  C   UNL     1     117.586 126.404 127.388  1.00  0.00     0.042 C 
ENDROOT
BRANCH   1   4
ATOM      4  C   UNL     1     115.883 124.551 127.919  1.00  0.00     0.024 C 
ATOM      5  C   UNL     1     114.011 122.330 131.260  1.00  0.00     0.039 C 
ATOM      6  C   UNL     1     114.510 121.634 130.012  1.00  0.00    -0.074 C 
ATOM      7  C   UNL     1     115.171 122.324 129.028  1.00  0.00    -0.065 C 
ATOM      8  C   UNL     1     114.371 120.120 130.003  1.00  0.00     0.031 C 
ATOM      9  C   UNL     1     115.484 123.807 129.218  1.00  0.00     0.038 C 
ATOM     10  C   UNL     1     115.683 121.619 127.767  1.00  0.00    -0.011 C 
ATOM     11  C   UNL     1     114.737 119.447 128.682  1.00  0.00     0.005 C 
ATOM     12  C   UNL     1     117.026 122.262 127.350  1.00  0.00     0.011 C 
ATOM     13  C   UNL     1     115.955 120.120 128.058  1.00  0.00     0.011 C 
ATOM     14  C   UNL     1     114.644 121.735 126.619  1.00  0.00     0.016 C 
ATOM     15  C   UNL     1     116.963 123.781 127.104  1.00  0.00     0.008 C 
ENDBRANCH   1   4
BRANCH   1  16
ATOM     16  O   UNL     1     115.261 126.895 127.800  1.00  0.00    -0.390 OA
ATOM     17  H   UNL     1     115.643 127.616 127.233  1.00  0.00     0.211 HD
ENDBRANCH   1  16
TORSDOF 2
ENDMDL
MODEL 4
REMARK VINA RESULT:    -5.757      2.878      5.041
REMARK INTER + INTRA:          -6.459
REMARK INTER:                  -6.245
REMARK INTRA:                  -0.214
REMARK UNBOUND:                -0.198
REMARK SMILES CC1=C2C[C@@H](C(C)(C)O)CC[C@@]2(C)CCC1
REMARK SMILES IDX 6 1 7 2 8 3 5 4 1 5 2 6 3 7 16 8 4 9 12 10 15 11 11 12 14 13
REMARK SMILES IDX 13 14 10 15 9 16
REMARK H PARENT 9 17
REMARK Flexibility Score: inf
ROOT
ATOM      1  C   UNL     1     116.258 120.975 133.401  1.00  0.00     0.062 C 
ATOM      2  C   UNL     1     116.012 119.588 134.043  1.00  0.00     0.042 C 
ATOM      3  C   UNL     1     117.781 121.252 133.429  1.00  0.00     0.042 C 
ENDROOT
BRANCH   1   4
ATOM      4  C   UNL     1     115.707 120.995 131.929  1.00  0.00     0.024 C 
ATOM      5  C   UNL     1     118.101 123.133 128.880  1.00  0.00     0.039 C 
ATOM      6  C   UNL     1     116.673 122.701 128.623  1.00  0.00    -0.074 C 
ATOM      7  C   UNL     1     115.915 122.123 129.610  1.00  0.00    -0.065 C 
ATOM      8  C   UNL     1     116.102 123.092 127.270  1.00  0.00     0.031 C 
ATOM      9  C   UNL     1     116.485 121.978 131.019  1.00  0.00     0.038 C 
ATOM     10  C   UNL     1     114.468 121.692 129.352  1.00  0.00    -0.011 C 
ATOM     11  C   UNL     1     114.719 122.521 126.964  1.00  0.00     0.005 C 
ATOM     12  C   UNL     1     113.639 121.950 130.631  1.00  0.00     0.011 C 
ATOM     13  C   UNL     1     113.844 122.542 128.214  1.00  0.00     0.011 C 
ATOM     14  C   UNL     1     114.409 120.192 128.958  1.00  0.00     0.016 C 
ATOM     15  C   UNL     1     114.171 121.247 131.895  1.00  0.00     0.008 C 
ENDBRANCH   1   4
BRANCH   1  16
ATOM     16  O   UNL     1     115.594 121.966 134.151  1.00  0.00    -0.390 OA
ATOM     17  H   UNL     1     116.196 122.752 134.227  1.00  0.00     0.211 HD
ENDBRANCH   1  16
TORSDOF 2
ENDMDL
MODEL 5
REMARK VINA RESULT:    -5.716      2.719      5.060
REMARK INTER + INTRA:          -6.415
REMARK INTER:                  -6.136
REMARK INTRA:                  -0.279
REMARK UNBOUND:                -0.198
REMARK SMILES CC1=C2C[C@@H](C(C)(C)O)CC[C@@]2(C)CCC1
REMARK SMILES IDX 6 1 7 2 8 3 5 4 1 5 2 6 3 7 16 8 4 9 12 10 15 11 11 12 14 13
REMARK SMILES IDX 13 14 10 15 9 16
REMARK H PARENT 9 17
REMARK Flexibility Score: inf
ROOT
ATOM      1  C   UNL     1     114.842 120.852 133.030  1.00  0.00     0.062 C 
ATOM      2  C   UNL     1     113.746 120.026 132.314  1.00  0.00     0.042 C 
ATOM      3  C   UNL     1     115.854 119.863 133.657  1.00  0.00     0.042 C 
ENDROOT
BRANCH   1   4
ATOM      4  C   UNL     1     115.550 121.814 132.009  1.00  0.00     0.024 C 
ATOM      5  C   UNL     1     113.837 122.088 127.936  1.00  0.00     0.039 C 
ATOM      6  C   UNL     1     115.208 122.635 128.270  1.00  0.00    -0.074 C 
ATOM      7  C   UNL     1     115.762 122.460 129.512  1.00  0.00    -0.065 C 
ATOM      8  C   UNL     1     115.976 123.240 127.105  1.00  0.00     0.031 C 
ATOM      9  C   UNL     1     115.025 121.632 130.563  1.00  0.00     0.038 C 
ATOM     10  C   UNL     1     117.153 123.008 129.849  1.00  0.00    -0.011 C 
ATOM     11  C   UNL     1     117.289 123.922 127.483  1.00  0.00     0.005 C 
ATOM     12  C   UNL     1     117.864 122.011 130.793  1.00  0.00     0.011 C 
ATOM     13  C   UNL     1     118.014 123.126 128.563  1.00  0.00     0.011 C 
ATOM     14  C   UNL     1     117.041 124.404 130.517  1.00  0.00     0.016 C 
ATOM     15  C   UNL     1     117.100 121.702 132.095  1.00  0.00     0.008 C 
ENDBRANCH   1   4
BRANCH   1  16
ATOM     16  O   UNL     1     114.255 121.624 134.054  1.00  0.00    -0.390 OA
ATOM     17  H   UNL     1     114.195 122.564 133.737  1.00  0.00     0.211 HD
ENDBRANCH   1  16
TORSDOF 2
ENDMDL
MODEL 6
REMARK VINA RESULT:    -5.656      3.844      5.921
REMARK INTER + INTRA:          -6.350
REMARK INTER:                  -6.114
REMARK INTRA:                  -0.237
REMARK UNBOUND:                -0.198
REMARK SMILES CC1=C2C[C@@H](C(C)(C)O)CC[C@@]2(C)CCC1
REMARK SMILES IDX 6 1 7 2 8 3 5 4 1 5 2 6 3 7 16 8 4 9 12 10 15 11 11 12 14 13
REMARK SMILES IDX 13 14 10 15 9 16
REMARK H PARENT 9 17
REMARK Flexibility Score: inf
ROOT
ATOM      1  C   UNL     1     117.762 119.802 133.912  1.00  0.00     0.062 C 
ATOM      2  C   UNL     1     119.184 119.729 133.305  1.00  0.00     0.042 C 
ATOM      3  C   UNL     1     117.777 120.864 135.038  1.00  0.00     0.042 C 
ENDROOT
BRANCH   1   4
ATOM      4  C   UNL     1     116.716 120.173 132.799  1.00  0.00     0.024 C 
ATOM      5  C   UNL     1     117.723 123.519 130.082  1.00  0.00     0.039 C 
ATOM      6  C   UNL     1     116.325 122.944 130.165  1.00  0.00    -0.074 C 
ATOM      7  C   UNL     1     116.009 121.970 131.078  1.00  0.00    -0.065 C 
ATOM      8  C   UNL     1     115.282 123.622 129.291  1.00  0.00     0.031 C 
ATOM      9  C   UNL     1     117.057 121.506 132.088  1.00  0.00     0.038 C 
ATOM     10  C   UNL     1     114.593 121.393 131.168  1.00  0.00    -0.011 C 
ATOM     11  C   UNL     1     113.917 122.939 129.270  1.00  0.00     0.005 C 
ATOM     12  C   UNL     1     114.269 121.100 132.651  1.00  0.00     0.011 C 
ATOM     13  C   UNL     1     113.553 122.426 130.659  1.00  0.00     0.011 C 
ATOM     14  C   UNL     1     114.479 120.097 130.320  1.00  0.00     0.016 C 
ATOM     15  C   UNL     1     115.260 120.151 133.351  1.00  0.00     0.008 C 
ENDBRANCH   1   4
BRANCH   1  16
ATOM     16  O   UNL     1     117.421 118.550 134.462  1.00  0.00    -0.390 OA
ATOM     17  H   UNL     1     118.258 118.101 134.754  1.00  0.00     0.211 HD
ENDBRANCH   1  16
TORSDOF 2
ENDMDL
MODEL 7
REMARK VINA RESULT:    -5.637      2.113      5.343
REMARK INTER + INTRA:          -6.329
REMARK INTER:                  -6.129
REMARK INTRA:                  -0.200
REMARK UNBOUND:                -0.198
REMARK SMILES CC1=C2C[C@@H](C(C)(C)O)CC[C@@]2(C)CCC1
REMARK SMILES IDX 6 1 7 2 8 3 5 4 1 5 2 6 3 7 16 8 4 9 12 10 15 11 11 12 14 13
REMARK SMILES IDX 13 14 10 15 9 16
REMARK H PARENT 9 17
REMARK Flexibility Score: inf
ROOT
ATOM      1  C   UNL     1     114.895 121.952 127.690  1.00  0.00     0.062 C 
ATOM      2  C   UNL     1     113.987 121.632 128.902  1.00  0.00     0.042 C 
ATOM      3  C   UNL     1     114.037 121.837 126.406  1.00  0.00     0.042 C 
ENDROOT
BRANCH   1   4
ATOM      4  C   UNL     1     115.504 123.394 127.835  1.00  0.00     0.024 C 
ATOM      5  C   UNL     1     119.387 124.180 125.859  1.00  0.00     0.039 C 
ATOM      6  C   UNL     1     118.800 125.126 126.885  1.00  0.00    -0.074 C 
ATOM      7  C   UNL     1     117.643 124.822 127.556  1.00  0.00    -0.065 C 
ATOM      8  C   UNL     1     119.655 126.336 127.227  1.00  0.00     0.031 C 
ATOM      9  C   UNL     1     116.966 123.472 127.328  1.00  0.00     0.038 C 
ATOM     10  C   UNL     1     117.053 125.777 128.599  1.00  0.00    -0.011 C 
ATOM     11  C   UNL     1     118.988 127.358 128.145  1.00  0.00     0.005 C 
ATOM     12  C   UNL     1     116.429 124.940 129.739  1.00  0.00     0.011 C 
ATOM     13  C   UNL     1     118.170 126.654 129.223  1.00  0.00     0.011 C 
ATOM     14  C   UNL     1     115.984 126.698 127.952  1.00  0.00     0.016 C 
ATOM     15  C   UNL     1     115.350 123.938 129.286  1.00  0.00     0.008 C 
ENDBRANCH   1   4
BRANCH   1  16
ATOM     16  O   UNL     1     115.946 121.016 127.629  1.00  0.00    -0.390 OA
ATOM     17  H   UNL     1     115.931 120.479 128.465  1.00  0.00     0.211 HD
ENDBRANCH   1  16
TORSDOF 2
ENDMDL
MODEL 8
REMARK VINA RESULT:    -5.604      2.044      5.300
REMARK INTER + INTRA:          -6.293
REMARK INTER:                  -6.055
REMARK INTRA:                  -0.238
REMARK UNBOUND:                -0.198
REMARK SMILES CC1=C2C[C@@H](C(C)(C)O)CC[C@@]2(C)CCC1
REMARK SMILES IDX 6 1 7 2 8 3 5 4 1 5 2 6 3 7 16 8 4 9 12 10 15 11 11 12 14 13
REMARK SMILES IDX 13 14 10 15 9 16
REMARK H PARENT 9 17
REMARK Flexibility Score: inf
ROOT
ATOM      1  C   UNL     1     114.672 122.108 130.750  1.00  0.00     0.062 C 
ATOM      2  C   UNL     1     113.325 122.782 130.395  1.00  0.00     0.042 C 
ATOM      3  C   UNL     1     114.503 120.579 130.575  1.00  0.00     0.042 C 
ENDROOT
BRANCH   1   4
ATOM      4  C   UNL     1     115.816 122.660 129.824  1.00  0.00     0.024 C 
ATOM      5  C   UNL     1     116.781 126.970 130.117  1.00  0.00     0.039 C 
ATOM      6  C   UNL     1     117.286 126.108 128.979  1.00  0.00    -0.074 C 
ATOM      7  C   UNL     1     116.902 124.798 128.853  1.00  0.00    -0.065 C 
ATOM      8  C   UNL     1     118.105 126.831 127.922  1.00  0.00     0.031 C 
ATOM      9  C   UNL     1     115.885 124.207 129.828  1.00  0.00     0.038 C 
ATOM     10  C   UNL     1     117.408 123.927 127.698  1.00  0.00    -0.011 C 
ATOM     11  C   UNL     1     118.734 125.926 126.864  1.00  0.00     0.005 C 
ATOM     12  C   UNL     1     116.272 122.974 127.262  1.00  0.00     0.011 C 
ATOM     13  C   UNL     1     117.772 124.809 126.475  1.00  0.00     0.011 C 
ATOM     14  C   UNL     1     118.660 123.119 128.134  1.00  0.00     0.016 C 
ATOM     15  C   UNL     1     115.720 122.074 128.384  1.00  0.00     0.008 C 
ENDBRANCH   1   4
BRANCH   1  16
ATOM     16  O   UNL     1     114.998 122.386 132.093  1.00  0.00    -0.390 OA
ATOM     17  H   UNL     1     114.152 122.548 132.589  1.00  0.00     0.211 HD
ENDBRANCH   1  16
TORSDOF 2
ENDMDL
MODEL 9
REMARK VINA RESULT:    -5.529      1.990      5.757
REMARK INTER + INTRA:          -6.212
REMARK INTER:                  -6.002
REMARK INTRA:                  -0.210
REMARK UNBOUND:                -0.198
REMARK SMILES CC1=C2C[C@@H](C(C)(C)O)CC[C@@]2(C)CCC1
REMARK SMILES IDX 6 1 7 2 8 3 5 4 1 5 2 6 3 7 16 8 4 9 12 10 15 11 11 12 14 13
REMARK SMILES IDX 13 14 10 15 9 16
REMARK H PARENT 9 17
REMARK Flexibility Score: inf
ROOT
ATOM      1  C   UNL     1     114.862 122.921 130.302  1.00  0.00     0.062 C 
ATOM      2  C   UNL     1     114.045 122.307 129.139  1.00  0.00     0.042 C 
ATOM      3  C   UNL     1     115.247 121.777 131.272  1.00  0.00     0.042 C 
ENDROOT
BRANCH   1   4
ATOM      4  C   UNL     1     116.141 123.643 129.743  1.00  0.00     0.024 C 
ATOM      5  C   UNL     1     117.022 127.707 131.261  1.00  0.00     0.039 C 
ATOM      6  C   UNL     1     117.715 127.136 130.043  1.00  0.00    -0.074 C 
ATOM      7  C   UNL     1     117.364 125.913 129.531  1.00  0.00    -0.065 C 
ATOM      8  C   UNL     1     118.695 128.068 129.348  1.00  0.00     0.031 C 
ATOM      9  C   UNL     1     116.201 125.137 130.146  1.00  0.00     0.038 C 
ATOM     10  C   UNL     1     118.060 125.338 128.293  1.00  0.00    -0.011 C 
ATOM     11  C   UNL     1     119.497 127.431 128.215  1.00  0.00     0.005 C 
ATOM     12  C   UNL     1     117.019 124.566 127.452  1.00  0.00     0.011 C 
ATOM     13  C   UNL     1     118.619 126.482 127.406  1.00  0.00     0.011 C 
ATOM     14  C   UNL     1     119.226 124.402 128.710  1.00  0.00     0.016 C 
ATOM     15  C   UNL     1     116.291 123.437 128.207  1.00  0.00     0.008 C 
ENDBRANCH   1   4
BRANCH   1  16
ATOM     16  O   UNL     1     114.069 123.863 130.988  1.00  0.00    -0.390 OA
ATOM     17  H   UNL     1     114.323 124.770 130.672  1.00  0.00     0.211 HD
ENDBRANCH   1  16
TORSDOF 2
ENDMDL
