MODEL 1
REMARK VINA RESULT:    -6.895      0.000      0.000
REMARK INTER + INTRA:         -10.599
REMARK INTER:                  -9.111
REMARK INTRA:                  -1.488
REMARK UNBOUND:                -1.488
REMARK SMILES CC(C)=CCC[C@@H](C(=O)[O-])[C@@H]1CC[C@@]2(C)C3=C(CC[C@]12C)[C@]1(C)CC[C@H](O)C(C)(C)[C@H]1CC3
REMARK SMILES IDX 6 1 7 2 8 3 9 4 10 5 11 6 12 7 20 8 13 9 14 10 19 11 21 12
REMARK SMILES IDX 15 13 16 14 18 15 17 16 33 17 22 18 32 19 31 20 24 21 23 22
REMARK SMILES IDX 28 23 25 24 26 25 29 26 30 27 27 28 5 30 4 31 2 32 1 33 3 34
REMARK H PARENT 27 29
REMARK Flexibility Score: inf
ROOT
ATOM      1  C   UNL     1     -64.607 -78.537 225.004  1.00  0.00     0.014 C 
ENDROOT
BRANCH   1   2
ATOM      2  C   UNL     1     -64.615 -78.391 223.456  1.00  0.00     0.039 C 
BRANCH   2   3
ATOM      3  C   UNL     1     -66.016 -78.059 222.993  1.00  0.00     0.045 C 
ATOM      4  O   UNL     1     -66.574 -78.777 222.122  1.00  0.00    -0.550 OA
ATOM      5  O   UNL     1     -66.722 -77.003 223.559  1.00  0.00    -0.550 OA
ENDBRANCH   2   3
BRANCH   2   6
ATOM      6  C   UNL     1     -63.517 -77.382 222.945  1.00  0.00     0.004 C 
ATOM      7  C   UNL     1     -64.059 -76.227 222.047  1.00  0.00     0.006 C 
ATOM      8  C   UNL     1     -62.300 -77.975 222.127  1.00  0.00    -0.020 C 
ATOM      9  C   UNL     1     -63.141 -76.128 220.827  1.00  0.00     0.012 C 
ATOM     10  C   UNL     1     -62.589 -77.548 220.658  1.00  0.00    -0.006 C 
ATOM     11  C   UNL     1     -62.033 -79.502 222.115  1.00  0.00     0.012 C 
ATOM     12  C   UNL     1     -61.013 -77.298 222.713  1.00  0.00     0.012 C 
ATOM     13  C   UNL     1     -63.695 -78.390 219.942  1.00  0.00     0.017 C 
ATOM     14  C   UNL     1     -61.330 -77.714 219.818  1.00  0.00    -0.064 C 
ATOM     15  C   UNL     1     -60.993 -79.919 221.030  1.00  0.00     0.032 C 
ATOM     16  C   UNL     1     -60.589 -78.863 219.971  1.00  0.00    -0.064 C 
ATOM     17  C   UNL     1     -60.901 -76.570 218.912  1.00  0.00     0.032 C 
ATOM     18  C   UNL     1     -59.483 -79.216 218.947  1.00  0.00    -0.008 C 
ATOM     19  C   UNL     1     -59.863 -76.945 217.854  1.00  0.00     0.009 C 
ATOM     20  C   UNL     1     -58.803 -77.882 218.460  1.00  0.00     0.007 C 
ATOM     21  C   UNL     1     -58.390 -80.111 219.595  1.00  0.00     0.014 C 
ATOM     22  C   UNL     1     -60.201 -80.012 217.823  1.00  0.00     0.016 C 
ATOM     23  C   UNL     1     -57.469 -78.008 217.615  1.00  0.00    -0.006 C 
ATOM     24  C   UNL     1     -57.173 -80.332 218.692  1.00  0.00     0.033 C 
ATOM     25  C   UNL     1     -56.493 -79.005 218.320  1.00  0.00     0.120 C 
ATOM     26  C   UNL     1     -57.689 -78.447 216.141  1.00  0.00     0.014 C 
ATOM     27  C   UNL     1     -56.764 -76.618 217.549  1.00  0.00     0.014 C 
BRANCH  25  28
ATOM     28  O   UNL     1     -55.960 -78.423 219.487  1.00  0.00    -0.393 OA
ATOM     29  H   UNL     1     -56.697 -77.928 219.929  1.00  0.00     0.210 HD
ENDBRANCH  25  28
ENDBRANCH   2   6
ENDBRANCH   1   2
BRANCH   1  30
ATOM     30  C   UNL     1     -63.516 -79.482 225.557  1.00  0.00     0.028 C 
BRANCH  30  31
ATOM     31  C   UNL     1     -62.219 -78.751 225.818  1.00  0.00    -0.028 C 
ATOM     32  C   UNL     1     -61.007 -79.305 225.592  1.00  0.00    -0.080 C 
ATOM     33  C   UNL     1     -59.770 -78.520 225.949  1.00  0.00     0.039 C 
ATOM     34  C   UNL     1     -60.868 -80.691 225.004  1.00  0.00     0.039 C 
ENDBRANCH  30  31
ENDBRANCH   1  30
TORSDOF 6
ENDMDL
MODEL 2
REMARK VINA RESULT:    -6.416      2.110      8.597
REMARK INTER + INTRA:          -9.966
REMARK INTER:                  -9.212
REMARK INTRA:                  -0.755
REMARK UNBOUND:                -1.488
REMARK SMILES CC(C)=CCC[C@@H](C(=O)[O-])[C@@H]1CC[C@@]2(C)C3=C(CC[C@]12C)[C@]1(C)CC[C@H](O)C(C)(C)[C@H]1CC3
REMARK SMILES IDX 6 1 7 2 8 3 9 4 10 5 11 6 12 7 20 8 13 9 14 10 19 11 21 12
REMARK SMILES IDX 15 13 16 14 18 15 17 16 33 17 22 18 32 19 31 20 24 21 23 22
REMARK SMILES IDX 28 23 25 24 26 25 29 26 30 27 27 28 5 30 4 31 2 32 1 33 3 34
REMARK H PARENT 27 29
REMARK Flexibility Score: inf
ROOT
ATOM      1  C   UNL     1     -59.331 -76.544 218.384  1.00  0.00     0.014 C 
ENDROOT
BRANCH   1   2
ATOM      2  C   UNL     1     -60.005 -77.868 218.842  1.00  0.00     0.039 C 
BRANCH   2   3
ATOM      3  C   UNL     1     -59.285 -79.039 218.210  1.00  0.00     0.045 C 
ATOM      4  O   UNL     1     -59.945 -80.028 217.794  1.00  0.00    -0.550 OA
ATOM      5  O   UNL     1     -57.906 -79.014 218.026  1.00  0.00    -0.550 OA
ENDBRANCH   2   3
BRANCH   2   6
ATOM      6  C   UNL     1     -60.126 -77.965 220.411  1.00  0.00     0.004 C 
ATOM      7  C   UNL     1     -59.382 -79.178 221.050  1.00  0.00     0.006 C 
ATOM      8  C   UNL     1     -61.580 -78.027 221.031  1.00  0.00    -0.020 C 
ATOM      9  C   UNL     1     -60.347 -79.836 222.038  1.00  0.00     0.012 C 
ATOM     10  C   UNL     1     -61.736 -79.510 221.479  1.00  0.00    -0.006 C 
ATOM     11  C   UNL     1     -62.817 -77.677 220.165  1.00  0.00     0.012 C 
ATOM     12  C   UNL     1     -61.579 -77.026 222.239  1.00  0.00     0.012 C 
ATOM     13  C   UNL     1     -62.011 -80.515 220.312  1.00  0.00     0.017 C 
ATOM     14  C   UNL     1     -62.921 -79.637 222.426  1.00  0.00    -0.064 C 
ATOM     15  C   UNL     1     -64.160 -78.081 220.849  1.00  0.00     0.032 C 
ATOM     16  C   UNL     1     -64.088 -78.984 222.106  1.00  0.00    -0.064 C 
ATOM     17  C   UNL     1     -62.737 -80.409 223.724  1.00  0.00     0.032 C 
ATOM     18  C   UNL     1     -65.397 -79.315 222.864  1.00  0.00    -0.008 C 
ATOM     19  C   UNL     1     -64.037 -80.797 224.429  1.00  0.00     0.009 C 
ATOM     20  C   UNL     1     -65.042 -79.633 224.365  1.00  0.00     0.007 C 
ATOM     21  C   UNL     1     -66.373 -78.105 222.841  1.00  0.00     0.014 C 
ATOM     22  C   UNL     1     -66.031 -80.504 222.093  1.00  0.00     0.016 C 
ATOM     23  C   UNL     1     -66.242 -79.737 225.393  1.00  0.00    -0.006 C 
ATOM     24  C   UNL     1     -67.599 -78.299 223.738  1.00  0.00     0.033 C 
ATOM     25  C   UNL     1     -67.201 -78.516 225.206  1.00  0.00     0.120 C 
ATOM     26  C   UNL     1     -67.053 -81.058 225.292  1.00  0.00     0.014 C 
ATOM     27  C   UNL     1     -65.685 -79.685 226.849  1.00  0.00     0.014 C 
BRANCH  25  28
ATOM     28  O   UNL     1     -66.595 -77.342 225.693  1.00  0.00    -0.393 OA
ATOM     29  H   UNL     1     -65.799 -77.168 225.128  1.00  0.00     0.210 HD
ENDBRANCH  25  28
ENDBRANCH   2   6
ENDBRANCH   1   2
BRANCH   1  30
ATOM     30  C   UNL     1     -60.016 -75.854 217.181  1.00  0.00     0.028 C 
BRANCH  30  31
ATOM     31  C   UNL     1     -59.047 -75.612 216.046  1.00  0.00    -0.028 C 
ATOM     32  C   UNL     1     -58.416 -74.432 215.862  1.00  0.00    -0.080 C 
ATOM     33  C   UNL     1     -57.520 -74.265 214.660  1.00  0.00     0.039 C 
ATOM     34  C   UNL     1     -58.598 -73.278 216.823  1.00  0.00     0.039 C 
ENDBRANCH  30  31
ENDBRANCH   1  30
TORSDOF 6
ENDMDL
MODEL 3
REMARK VINA RESULT:    -6.250      2.366      4.246
REMARK INTER + INTRA:          -9.748
REMARK INTER:                  -8.425
REMARK INTRA:                  -1.323
REMARK UNBOUND:                -1.488
REMARK SMILES CC(C)=CCC[C@@H](C(=O)[O-])[C@@H]1CC[C@@]2(C)C3=C(CC[C@]12C)[C@]1(C)CC[C@H](O)C(C)(C)[C@H]1CC3
REMARK SMILES IDX 6 1 7 2 8 3 9 4 10 5 11 6 12 7 20 8 13 9 14 10 19 11 21 12
REMARK SMILES IDX 15 13 16 14 18 15 17 16 33 17 22 18 32 19 31 20 24 21 23 22
REMARK SMILES IDX 28 23 25 24 26 25 29 26 30 27 27 28 5 30 4 31 2 32 1 33 3 34
REMARK H PARENT 27 29
REMARK Flexibility Score: inf
ROOT
ATOM      1  C   UNL     1     -68.625 -79.103 224.124  1.00  0.00     0.014 C 
ENDROOT
BRANCH   1   2
ATOM      2  C   UNL     1     -67.372 -78.309 223.660  1.00  0.00     0.039 C 
BRANCH   2   3
ATOM      3  C   UNL     1     -67.461 -76.889 224.175  1.00  0.00     0.045 C 
ATOM      4  O   UNL     1     -67.240 -75.925 223.395  1.00  0.00    -0.550 OA
ATOM      5  O   UNL     1     -67.842 -76.629 225.487  1.00  0.00    -0.550 OA
ENDBRANCH   2   3
BRANCH   2   6
ATOM      6  C   UNL     1     -66.027 -79.041 224.035  1.00  0.00     0.004 C 
ATOM      7  C   UNL     1     -65.187 -78.335 225.143  1.00  0.00     0.006 C 
ATOM      8  C   UNL     1     -64.991 -79.312 222.871  1.00  0.00    -0.020 C 
ATOM      9  C   UNL     1     -63.737 -78.287 224.656  1.00  0.00     0.012 C 
ATOM     10  C   UNL     1     -63.856 -78.278 223.128  1.00  0.00    -0.006 C 
ATOM     11  C   UNL     1     -65.420 -79.163 221.389  1.00  0.00     0.012 C 
ATOM     12  C   UNL     1     -64.513 -80.795 223.054  1.00  0.00     0.012 C 
ATOM     13  C   UNL     1     -64.203 -76.814 222.702  1.00  0.00     0.017 C 
ATOM     14  C   UNL     1     -62.621 -78.663 222.327  1.00  0.00    -0.064 C 
ATOM     15  C   UNL     1     -64.205 -79.176 220.411  1.00  0.00     0.032 C 
ATOM     16  C   UNL     1     -62.785 -79.057 221.019  1.00  0.00    -0.064 C 
ATOM     17  C   UNL     1     -61.271 -78.678 223.029  1.00  0.00     0.032 C 
ATOM     18  C   UNL     1     -61.558 -79.171 220.081  1.00  0.00    -0.008 C 
ATOM     19  C   UNL     1     -60.062 -78.715 222.094  1.00  0.00     0.009 C 
ATOM     20  C   UNL     1     -60.328 -79.677 220.922  1.00  0.00     0.007 C 
ATOM     21  C   UNL     1     -61.823 -80.194 218.942  1.00  0.00     0.014 C 
ATOM     22  C   UNL     1     -61.373 -77.755 219.471  1.00  0.00     0.016 C 
ATOM     23  C   UNL     1     -59.033 -80.125 220.126  1.00  0.00    -0.006 C 
ATOM     24  C   UNL     1     -60.581 -80.496 218.098  1.00  0.00     0.033 C 
ATOM     25  C   UNL     1     -59.441 -81.072 218.952  1.00  0.00     0.120 C 
ATOM     26  C   UNL     1     -58.186 -78.945 219.575  1.00  0.00     0.014 C 
ATOM     27  C   UNL     1     -58.090 -80.924 221.077  1.00  0.00     0.014 C 
BRANCH  25  28
ATOM     28  O   UNL     1     -59.836 -82.328 219.452  1.00  0.00    -0.393 OA
ATOM     29  H   UNL     1     -60.768 -82.233 219.778  1.00  0.00     0.210 HD
ENDBRANCH  25  28
ENDBRANCH   2   6
ENDBRANCH   1   2
BRANCH   1  30
ATOM     30  C   UNL     1     -68.319 -80.481 224.754  1.00  0.00     0.028 C 
BRANCH  30  31
ATOM     31  C   UNL     1     -68.385 -80.437 226.264  1.00  0.00    -0.028 C 
ATOM     32  C   UNL     1     -67.446 -80.999 227.055  1.00  0.00    -0.080 C 
ATOM     33  C   UNL     1     -67.637 -80.962 228.550  1.00  0.00     0.039 C 
ATOM     34  C   UNL     1     -66.222 -81.672 226.475  1.00  0.00     0.039 C 
ENDBRANCH  30  31
ENDBRANCH   1  30
TORSDOF 6
ENDMDL
MODEL 4
REMARK VINA RESULT:    -6.123      1.350      2.312
REMARK INTER + INTRA:          -9.579
REMARK INTER:                  -8.523
REMARK INTRA:                  -1.056
REMARK UNBOUND:                -1.488
REMARK SMILES CC(C)=CCC[C@@H](C(=O)[O-])[C@@H]1CC[C@@]2(C)C3=C(CC[C@]12C)[C@]1(C)CC[C@H](O)C(C)(C)[C@H]1CC3
REMARK SMILES IDX 6 1 7 2 8 3 9 4 10 5 11 6 12 7 20 8 13 9 14 10 19 11 21 12
REMARK SMILES IDX 15 13 16 14 18 15 17 16 33 17 22 18 32 19 31 20 24 21 23 22
REMARK SMILES IDX 28 23 25 24 26 25 29 26 30 27 27 28 5 30 4 31 2 32 1 33 3 34
REMARK H PARENT 27 29
REMARK Flexibility Score: inf
ROOT
ATOM      1  C   UNL     1     -64.498 -78.595 225.291  1.00  0.00     0.014 C 
ENDROOT
BRANCH   1   2
ATOM      2  C   UNL     1     -64.578 -78.422 223.748  1.00  0.00     0.039 C 
BRANCH   2   3
ATOM      3  C   UNL     1     -65.991 -78.047 223.360  1.00  0.00     0.045 C 
ATOM      4  O   UNL     1     -66.546 -78.623 222.388  1.00  0.00    -0.550 OA
ATOM      5  O   UNL     1     -66.710 -77.113 224.100  1.00  0.00    -0.550 OA
ENDBRANCH   2   3
BRANCH   2   6
ATOM      6  C   UNL     1     -63.481 -77.431 223.201  1.00  0.00     0.004 C 
ATOM      7  C   UNL     1     -64.031 -76.279 222.304  1.00  0.00     0.006 C 
ATOM      8  C   UNL     1     -62.290 -78.046 222.361  1.00  0.00    -0.020 C 
ATOM      9  C   UNL     1     -63.141 -76.203 221.062  1.00  0.00     0.012 C 
ATOM     10  C   UNL     1     -62.609 -77.631 220.894  1.00  0.00    -0.006 C 
ATOM     11  C   UNL     1     -62.041 -79.577 222.359  1.00  0.00     0.012 C 
ATOM     12  C   UNL     1     -60.982 -77.378 222.910  1.00  0.00     0.012 C 
ATOM     13  C   UNL     1     -63.742 -78.467 220.214  1.00  0.00     0.017 C 
ATOM     14  C   UNL     1     -61.373 -77.821 220.028  1.00  0.00    -0.064 C 
ATOM     15  C   UNL     1     -61.032 -80.017 221.254  1.00  0.00     0.032 C 
ATOM     16  C   UNL     1     -60.642 -78.976 220.175  1.00  0.00    -0.064 C 
ATOM     17  C   UNL     1     -60.952 -76.692 219.099  1.00  0.00     0.032 C 
ATOM     18  C   UNL     1     -59.564 -79.353 219.128  1.00  0.00    -0.008 C 
ATOM     19  C   UNL     1     -59.944 -77.090 218.020  1.00  0.00     0.009 C 
ATOM     20  C   UNL     1     -58.881 -78.033 218.611  1.00  0.00     0.007 C 
ATOM     21  C   UNL     1     -58.467 -80.254 219.761  1.00  0.00     0.014 C 
ATOM     22  C   UNL     1     -60.318 -80.152 218.030  1.00  0.00     0.016 C 
ATOM     23  C   UNL     1     -57.569 -78.182 217.737  1.00  0.00    -0.006 C 
ATOM     24  C   UNL     1     -57.274 -80.499 218.831  1.00  0.00     0.033 C 
ATOM     25  C   UNL     1     -56.588 -79.183 218.430  1.00  0.00     0.120 C 
ATOM     26  C   UNL     1     -57.829 -78.634 216.274  1.00  0.00     0.014 C 
ATOM     27  C   UNL     1     -56.850 -76.802 217.639  1.00  0.00     0.014 C 
BRANCH  25  28
ATOM     28  O   UNL     1     -56.021 -78.595 219.577  1.00  0.00    -0.393 OA
ATOM     29  H   UNL     1     -55.254 -78.043 219.274  1.00  0.00     0.210 HD
ENDBRANCH  25  28
ENDBRANCH   2   6
ENDBRANCH   1   2
BRANCH   1  30
ATOM     30  C   UNL     1     -64.653 -80.051 225.786  1.00  0.00     0.028 C 
BRANCH  30  31
ATOM     31  C   UNL     1     -65.828 -80.204 226.724  1.00  0.00    -0.028 C 
ATOM     32  C   UNL     1     -67.020 -80.702 226.329  1.00  0.00    -0.080 C 
ATOM     33  C   UNL     1     -68.154 -80.751 227.323  1.00  0.00     0.039 C 
ATOM     34  C   UNL     1     -67.243 -81.196 224.918  1.00  0.00     0.039 C 
ENDBRANCH  30  31
ENDBRANCH   1  30
TORSDOF 6
ENDMDL
MODEL 5
REMARK VINA RESULT:    -6.057      2.909      8.436
REMARK INTER + INTRA:          -9.493
REMARK INTER:                  -8.092
REMARK INTRA:                  -1.401
REMARK UNBOUND:                -1.488
REMARK SMILES CC(C)=CCC[C@@H](C(=O)[O-])[C@@H]1CC[C@@]2(C)C3=C(CC[C@]12C)[C@]1(C)CC[C@H](O)C(C)(C)[C@H]1CC3
REMARK SMILES IDX 6 1 7 2 8 3 9 4 10 5 11 6 12 7 20 8 13 9 14 10 19 11 21 12
REMARK SMILES IDX 15 13 16 14 18 15 17 16 33 17 22 18 32 19 31 20 24 21 23 22
REMARK SMILES IDX 28 23 25 24 26 25 29 26 30 27 27 28 5 30 4 31 2 32 1 33 3 34
REMARK H PARENT 27 29
REMARK Flexibility Score: inf
ROOT
ATOM      1  C   UNL     1     -56.765 -76.659 215.303  1.00  0.00     0.014 C 
ENDROOT
BRANCH   1   2
ATOM      2  C   UNL     1     -57.394 -78.067 215.496  1.00  0.00     0.039 C 
BRANCH   2   3
ATOM      3  C   UNL     1     -57.194 -78.880 214.237  1.00  0.00     0.045 C 
ATOM      4  O   UNL     1     -58.165 -79.505 213.734  1.00  0.00    -0.550 OA
ATOM      5  O   UNL     1     -55.963 -78.902 213.590  1.00  0.00    -0.550 OA
ENDBRANCH   2   3
BRANCH   2   6
ATOM      6  C   UNL     1     -56.877 -78.778 216.805  1.00  0.00     0.004 C 
ATOM      7  C   UNL     1     -56.565 -80.298 216.642  1.00  0.00     0.006 C 
ATOM      8  C   UNL     1     -57.795 -78.703 218.091  1.00  0.00    -0.020 C 
ATOM      9  C   UNL     1     -57.208 -81.025 217.824  1.00  0.00     0.012 C 
ATOM     10  C   UNL     1     -58.394 -80.135 218.211  1.00  0.00    -0.006 C 
ATOM     11  C   UNL     1     -58.979 -77.704 218.153  1.00  0.00     0.012 C 
ATOM     12  C   UNL     1     -56.841 -78.343 219.283  1.00  0.00     0.012 C 
ATOM     13  C   UNL     1     -59.549 -80.442 217.202  1.00  0.00     0.017 C 
ATOM     14  C   UNL     1     -58.991 -80.327 219.598  1.00  0.00    -0.064 C 
ATOM     15  C   UNL     1     -59.934 -77.983 219.354  1.00  0.00     0.032 C 
ATOM     16  C   UNL     1     -59.756 -79.313 220.127  1.00  0.00    -0.064 C 
ATOM     17  C   UNL     1     -58.648 -81.590 220.371  1.00  0.00     0.032 C 
ATOM     18  C   UNL     1     -60.621 -79.568 221.385  1.00  0.00    -0.008 C 
ATOM     19  C   UNL     1     -59.554 -81.875 221.570  1.00  0.00     0.009 C 
ATOM     20  C   UNL     1     -59.855 -80.570 222.328  1.00  0.00     0.007 C 
ATOM     21  C   UNL     1     -60.861 -78.249 222.171  1.00  0.00     0.014 C 
ATOM     22  C   UNL     1     -61.977 -80.105 220.852  1.00  0.00     0.016 C 
ATOM     23  C   UNL     1     -60.420 -80.771 223.794  1.00  0.00    -0.006 C 
ATOM     24  C   UNL     1     -61.542 -78.465 223.526  1.00  0.00     0.033 C 
ATOM     25  C   UNL     1     -60.710 -79.378 224.441  1.00  0.00     0.120 C 
ATOM     26  C   UNL     1     -61.694 -81.657 223.869  1.00  0.00     0.014 C 
ATOM     27  C   UNL     1     -59.347 -81.488 224.670  1.00  0.00     0.014 C 
BRANCH  25  28
ATOM     28  O   UNL     1     -59.502 -78.727 224.758  1.00  0.00    -0.393 OA
ATOM     29  H   UNL     1     -59.054 -78.507 223.900  1.00  0.00     0.210 HD
ENDBRANCH  25  28
ENDBRANCH   2   6
ENDBRANCH   1   2
BRANCH   1  30
ATOM     30  C   UNL     1     -57.644 -75.662 214.514  1.00  0.00     0.028 C 
BRANCH  30  31
ATOM     31  C   UNL     1     -59.046 -75.583 215.074  1.00  0.00    -0.028 C 
ATOM     32  C   UNL     1     -59.359 -74.846 216.162  1.00  0.00    -0.080 C 
ATOM     33  C   UNL     1     -60.773 -74.886 216.686  1.00  0.00     0.039 C 
ATOM     34  C   UNL     1     -58.325 -73.997 216.868  1.00  0.00     0.039 C 
ENDBRANCH  30  31
ENDBRANCH   1  30
TORSDOF 6
ENDMDL
MODEL 6
REMARK VINA RESULT:    -5.870      2.105      8.226
REMARK INTER + INTRA:          -9.245
REMARK INTER:                  -8.036
REMARK INTRA:                  -1.209
REMARK UNBOUND:                -1.488
REMARK SMILES CC(C)=CCC[C@@H](C(=O)[O-])[C@@H]1CC[C@@]2(C)C3=C(CC[C@]12C)[C@]1(C)CC[C@H](O)C(C)(C)[C@H]1CC3
REMARK SMILES IDX 6 1 7 2 8 3 9 4 10 5 11 6 12 7 20 8 13 9 14 10 19 11 21 12
REMARK SMILES IDX 15 13 16 14 18 15 17 16 33 17 22 18 32 19 31 20 24 21 23 22
REMARK SMILES IDX 28 23 25 24 26 25 29 26 30 27 27 28 5 30 4 31 2 32 1 33 3 34
REMARK H PARENT 27 29
REMARK Flexibility Score: inf
ROOT
ATOM      1  C   UNL     1     -56.799 -77.781 218.238  1.00  0.00     0.014 C 
ENDROOT
BRANCH   1   2
ATOM      2  C   UNL     1     -57.747 -78.993 218.019  1.00  0.00     0.039 C 
BRANCH   2   3
ATOM      3  C   UNL     1     -57.103 -79.962 217.053  1.00  0.00     0.045 C 
ATOM      4  O   UNL     1     -57.767 -80.411 216.081  1.00  0.00    -0.550 OA
ATOM      5  O   UNL     1     -55.766 -80.321 217.187  1.00  0.00    -0.550 OA
ENDBRANCH   2   3
BRANCH   2   6
ATOM      6  C   UNL     1     -58.199 -79.652 219.378  1.00  0.00     0.004 C 
ATOM      7  C   UNL     1     -58.311 -81.207 219.344  1.00  0.00     0.006 C 
ATOM      8  C   UNL     1     -59.571 -79.174 220.003  1.00  0.00    -0.020 C 
ATOM      9  C   UNL     1     -59.645 -81.583 219.992  1.00  0.00     0.012 C 
ATOM     10  C   UNL     1     -60.540 -80.364 219.741  1.00  0.00    -0.006 C 
ATOM     11  C   UNL     1     -60.268 -77.892 219.479  1.00  0.00     0.012 C 
ATOM     12  C   UNL     1     -59.294 -78.943 221.530  1.00  0.00     0.012 C 
ATOM     13  C   UNL     1     -61.057 -80.468 218.268  1.00  0.00     0.017 C 
ATOM     14  C   UNL     1     -61.781 -80.216 220.609  1.00  0.00    -0.064 C 
ATOM     15  C   UNL     1     -61.732 -77.753 219.999  1.00  0.00     0.032 C 
ATOM     16  C   UNL     1     -62.370 -78.977 220.702  1.00  0.00    -0.064 C 
ATOM     17  C   UNL     1     -62.267 -81.421 221.400  1.00  0.00     0.032 C 
ATOM     18  C   UNL     1     -63.783 -78.832 221.319  1.00  0.00    -0.008 C 
ATOM     19  C   UNL     1     -63.691 -81.301 221.943  1.00  0.00     0.009 C 
ATOM     20  C   UNL     1     -63.934 -79.881 222.483  1.00  0.00     0.007 C 
ATOM     21  C   UNL     1     -63.986 -77.411 221.915  1.00  0.00     0.014 C 
ATOM     22  C   UNL     1     -64.771 -79.042 220.139  1.00  0.00     0.016 C 
ATOM     23  C   UNL     1     -65.192 -79.740 223.435  1.00  0.00    -0.006 C 
ATOM     24  C   UNL     1     -65.287 -77.267 222.710  1.00  0.00     0.033 C 
ATOM     25  C   UNL     1     -65.343 -78.252 223.889  1.00  0.00     0.120 C 
ATOM     26  C   UNL     1     -66.524 -80.231 222.804  1.00  0.00     0.014 C 
ATOM     27  C   UNL     1     -64.976 -80.608 224.713  1.00  0.00     0.014 C 
BRANCH  25  28
ATOM     28  O   UNL     1     -64.332 -77.918 224.811  1.00  0.00    -0.393 OA
ATOM     29  H   UNL     1     -63.578 -78.544 224.657  1.00  0.00     0.210 HD
ENDBRANCH  25  28
ENDBRANCH   2   6
ENDBRANCH   1   2
BRANCH   1  30
ATOM     30  C   UNL     1     -57.037 -76.593 217.278  1.00  0.00     0.028 C 
BRANCH  30  31
ATOM     31  C   UNL     1     -58.510 -76.364 217.021  1.00  0.00    -0.028 C 
ATOM     32  C   UNL     1     -59.046 -75.132 216.885  1.00  0.00    -0.080 C 
ATOM     33  C   UNL     1     -60.538 -75.005 216.700  1.00  0.00     0.039 C 
ATOM     34  C   UNL     1     -58.190 -73.887 216.927  1.00  0.00     0.039 C 
ENDBRANCH  30  31
ENDBRANCH   1  30
TORSDOF 6
ENDMDL
MODEL 7
REMARK VINA RESULT:    -5.760      2.296      4.416
REMARK INTER + INTRA:          -9.099
REMARK INTER:                  -7.599
REMARK INTRA:                  -1.500
REMARK UNBOUND:                -1.488
REMARK SMILES CC(C)=CCC[C@@H](C(=O)[O-])[C@@H]1CC[C@@]2(C)C3=C(CC[C@]12C)[C@]1(C)CC[C@H](O)C(C)(C)[C@H]1CC3
REMARK SMILES IDX 6 1 7 2 8 3 9 4 10 5 11 6 12 7 20 8 13 9 14 10 19 11 21 12
REMARK SMILES IDX 15 13 16 14 18 15 17 16 33 17 22 18 32 19 31 20 24 21 23 22
REMARK SMILES IDX 28 23 25 24 26 25 29 26 30 27 27 28 5 30 4 31 2 32 1 33 3 34
REMARK H PARENT 27 29
REMARK Flexibility Score: inf
ROOT
ATOM      1  C   UNL     1     -63.921 -79.293 223.218  1.00  0.00     0.014 C 
ENDROOT
BRANCH   1   2
ATOM      2  C   UNL     1     -62.453 -79.779 223.058  1.00  0.00     0.039 C 
BRANCH   2   3
ATOM      3  C   UNL     1     -62.097 -80.681 224.218  1.00  0.00     0.045 C 
ATOM      4  O   UNL     1     -60.956 -80.601 224.746  1.00  0.00    -0.550 OA
ATOM      5  O   UNL     1     -63.033 -81.560 224.753  1.00  0.00    -0.550 OA
ENDBRANCH   2   3
BRANCH   2   6
ATOM      6  C   UNL     1     -62.187 -80.423 221.644  1.00  0.00     0.004 C 
ATOM      7  C   UNL     1     -61.610 -81.871 221.684  1.00  0.00     0.006 C 
ATOM      8  C   UNL     1     -61.228 -79.647 220.654  1.00  0.00    -0.020 C 
ATOM      9  C   UNL     1     -60.437 -81.923 220.704  1.00  0.00     0.012 C 
ATOM     10  C   UNL     1     -59.914 -80.482 220.669  1.00  0.00    -0.006 C 
ATOM     11  C   UNL     1     -60.837 -78.173 220.935  1.00  0.00     0.012 C 
ATOM     12  C   UNL     1     -61.941 -79.664 219.257  1.00  0.00     0.012 C 
ATOM     13  C   UNL     1     -59.032 -80.282 221.945  1.00  0.00     0.017 C 
ATOM     14  C   UNL     1     -59.039 -80.083 219.490  1.00  0.00    -0.064 C 
ATOM     15  C   UNL     1     -59.665 -77.683 220.029  1.00  0.00     0.032 C 
ATOM     16  C   UNL     1     -58.891 -78.745 219.208  1.00  0.00    -0.064 C 
ATOM     17  C   UNL     1     -58.434 -81.179 218.626  1.00  0.00     0.032 C 
ATOM     18  C   UNL     1     -57.793 -78.274 218.224  1.00  0.00    -0.008 C 
ATOM     19  C   UNL     1     -57.299 -80.720 217.710  1.00  0.00     0.009 C 
ATOM     20  C   UNL     1     -57.638 -79.354 217.089  1.00  0.00     0.007 C 
ATOM     21  C   UNL     1     -58.184 -76.923 217.560  1.00  0.00     0.014 C 
ATOM     22  C   UNL     1     -56.520 -78.073 219.091  1.00  0.00     0.016 C 
ATOM     23  C   UNL     1     -56.766 -78.966 215.825  1.00  0.00    -0.006 C 
ATOM     24  C   UNL     1     -57.233 -76.504 216.435  1.00  0.00     0.033 C 
ATOM     25  C   UNL     1     -57.188 -77.551 215.310  1.00  0.00     0.120 C 
ATOM     26  C   UNL     1     -55.233 -78.994 216.077  1.00  0.00     0.014 C 
ATOM     27  C   UNL     1     -57.031 -79.988 214.678  1.00  0.00     0.014 C 
BRANCH  25  28
ATOM     28  O   UNL     1     -58.452 -77.614 214.694  1.00  0.00    -0.393 OA
ATOM     29  H   UNL     1     -58.693 -78.573 214.617  1.00  0.00     0.210 HD
ENDBRANCH  25  28
ENDBRANCH   2   6
ENDBRANCH   1   2
BRANCH   1  30
ATOM     30  C   UNL     1     -64.400 -78.316 222.120  1.00  0.00     0.028 C 
BRANCH  30  31
ATOM     31  C   UNL     1     -64.204 -76.873 222.526  1.00  0.00    -0.028 C 
ATOM     32  C   UNL     1     -63.753 -75.927 221.674  1.00  0.00    -0.080 C 
ATOM     33  C   UNL     1     -63.524 -74.530 222.193  1.00  0.00     0.039 C 
ATOM     34  C   UNL     1     -63.462 -76.242 220.224  1.00  0.00     0.039 C 
ENDBRANCH  30  31
ENDBRANCH   1  30
TORSDOF 6
ENDMDL
MODEL 8
REMARK VINA RESULT:    -5.640      2.754      4.965
REMARK INTER + INTRA:          -8.941
REMARK INTER:                  -7.612
REMARK INTRA:                  -1.329
REMARK UNBOUND:                -1.488
REMARK SMILES CC(C)=CCC[C@@H](C(=O)[O-])[C@@H]1CC[C@@]2(C)C3=C(CC[C@]12C)[C@]1(C)CC[C@H](O)C(C)(C)[C@H]1CC3
REMARK SMILES IDX 6 1 7 2 8 3 9 4 10 5 11 6 12 7 20 8 13 9 14 10 19 11 21 12
REMARK SMILES IDX 15 13 16 14 18 15 17 16 33 17 22 18 32 19 31 20 24 21 23 22
REMARK SMILES IDX 28 23 25 24 26 25 29 26 30 27 27 28 5 30 4 31 2 32 1 33 3 34
REMARK H PARENT 27 29
REMARK Flexibility Score: inf
ROOT
ATOM      1  C   UNL     1     -62.390 -80.940 222.942  1.00  0.00     0.014 C 
ENDROOT
BRANCH   1   2
ATOM      2  C   UNL     1     -61.020 -80.860 222.211  1.00  0.00     0.039 C 
BRANCH   2   3
ATOM      3  C   UNL     1     -60.106 -81.941 222.744  1.00  0.00     0.045 C 
ATOM      4  O   UNL     1     -58.905 -81.670 223.009  1.00  0.00    -0.550 OA
ATOM      5  O   UNL     1     -60.588 -83.220 223.004  1.00  0.00    -0.550 OA
ENDBRANCH   2   3
BRANCH   2   6
ATOM      6  C   UNL     1     -61.178 -80.875 220.642  1.00  0.00     0.004 C 
ATOM      7  C   UNL     1     -60.575 -82.128 219.937  1.00  0.00     0.006 C 
ATOM      8  C   UNL     1     -60.588 -79.649 219.835  1.00  0.00    -0.020 C 
ATOM      9  C   UNL     1     -59.754 -81.630 218.746  1.00  0.00     0.012 C 
ATOM     10  C   UNL     1     -59.308 -80.223 219.160  1.00  0.00    -0.006 C 
ATOM     11  C   UNL     1     -60.172 -78.350 220.574  1.00  0.00     0.012 C 
ATOM     12  C   UNL     1     -61.691 -79.242 218.797  1.00  0.00     0.012 C 
ATOM     13  C   UNL     1     -58.086 -80.392 220.122  1.00  0.00     0.017 C 
ATOM     14  C   UNL     1     -58.844 -79.282 218.058  1.00  0.00    -0.064 C 
ATOM     15  C   UNL     1     -59.346 -77.386 219.668  1.00  0.00     0.032 C 
ATOM     16  C   UNL     1     -58.828 -77.931 218.314  1.00  0.00    -0.064 C 
ATOM     17  C   UNL     1     -58.499 -79.867 216.696  1.00  0.00     0.032 C 
ATOM     18  C   UNL     1     -58.095 -76.965 217.351  1.00  0.00    -0.008 C 
ATOM     19  C   UNL     1     -57.709 -78.934 215.778  1.00  0.00     0.009 C 
ATOM     20  C   UNL     1     -58.260 -77.500 215.880  1.00  0.00     0.007 C 
ATOM     21  C   UNL     1     -58.707 -75.539 217.422  1.00  0.00     0.014 C 
ATOM     22  C   UNL     1     -56.625 -76.922 217.851  1.00  0.00     0.016 C 
ATOM     23  C   UNL     1     -57.825 -76.538 214.699  1.00  0.00    -0.006 C 
ATOM     24  C   UNL     1     -58.156 -74.589 216.354  1.00  0.00     0.033 C 
ATOM     25  C   UNL     1     -58.424 -75.113 214.935  1.00  0.00     0.120 C 
ATOM     26  C   UNL     1     -56.288 -76.432 214.500  1.00  0.00     0.014 C 
ATOM     27  C   UNL     1     -58.397 -77.078 213.352  1.00  0.00     0.014 C 
BRANCH  25  28
ATOM     28  O   UNL     1     -59.814 -75.125 214.707  1.00  0.00    -0.393 OA
ATOM     29  H   UNL     1     -59.965 -75.598 213.848  1.00  0.00     0.210 HD
ENDBRANCH  25  28
ENDBRANCH   2   6
ENDBRANCH   1   2
BRANCH   1  30
ATOM     30  C   UNL     1     -62.697 -79.742 223.869  1.00  0.00     0.028 C 
BRANCH  30  31
ATOM     31  C   UNL     1     -62.302 -78.427 223.237  1.00  0.00    -0.028 C 
ATOM     32  C   UNL     1     -63.204 -77.556 222.733  1.00  0.00    -0.080 C 
ATOM     33  C   UNL     1     -62.707 -76.301 222.060  1.00  0.00     0.039 C 
ATOM     34  C   UNL     1     -64.690 -77.819 222.818  1.00  0.00     0.039 C 
ENDBRANCH  30  31
ENDBRANCH   1  30
TORSDOF 6
ENDMDL
MODEL 9
REMARK VINA RESULT:    -5.607      3.098      9.215
REMARK INTER + INTRA:          -8.897
REMARK INTER:                  -8.159
REMARK INTRA:                  -0.738
REMARK UNBOUND:                -1.488
REMARK SMILES CC(C)=CCC[C@@H](C(=O)[O-])[C@@H]1CC[C@@]2(C)C3=C(CC[C@]12C)[C@]1(C)CC[C@H](O)C(C)(C)[C@H]1CC3
REMARK SMILES IDX 6 1 7 2 8 3 9 4 10 5 11 6 12 7 20 8 13 9 14 10 19 11 21 12
REMARK SMILES IDX 15 13 16 14 18 15 17 16 33 17 22 18 32 19 31 20 24 21 23 22
REMARK SMILES IDX 28 23 25 24 26 25 29 26 30 27 27 28 5 30 4 31 2 32 1 33 3 34
REMARK H PARENT 27 29
REMARK Flexibility Score: inf
ROOT
ATOM      1  C   UNL     1     -61.096 -76.987 220.706  1.00  0.00     0.014 C 
ENDROOT
BRANCH   1   2
ATOM      2  C   UNL     1     -61.483 -78.374 221.291  1.00  0.00     0.039 C 
BRANCH   2   3
ATOM      3  C   UNL     1     -60.293 -79.304 221.200  1.00  0.00     0.045 C 
ATOM      4  O   UNL     1     -60.450 -80.483 220.788  1.00  0.00    -0.550 OA
ATOM      5  O   UNL     1     -59.012 -78.856 221.509  1.00  0.00    -0.550 OA
ENDBRANCH   2   3
BRANCH   2   6
ATOM      6  C   UNL     1     -62.095 -78.262 222.739  1.00  0.00     0.004 C 
ATOM      7  C   UNL     1     -61.320 -79.051 223.839  1.00  0.00     0.006 C 
ATOM      8  C   UNL     1     -63.603 -78.701 222.933  1.00  0.00    -0.020 C 
ATOM      9  C   UNL     1     -62.353 -79.828 224.658  1.00  0.00     0.012 C 
ATOM     10  C   UNL     1     -63.506 -80.065 223.676  1.00  0.00    -0.006 C 
ATOM     11  C   UNL     1     -64.522 -78.915 221.702  1.00  0.00     0.012 C 
ATOM     12  C   UNL     1     -64.271 -77.581 223.804  1.00  0.00     0.012 C 
ATOM     13  C   UNL     1     -63.098 -81.272 222.769  1.00  0.00     0.017 C 
ATOM     14  C   UNL     1     -64.863 -80.426 224.264  1.00  0.00    -0.064 C 
ATOM     15  C   UNL     1     -65.860 -79.626 222.071  1.00  0.00     0.032 C 
ATOM     16  C   UNL     1     -65.982 -80.250 223.484  1.00  0.00    -0.064 C 
ATOM     17  C   UNL     1     -64.931 -80.885 225.713  1.00  0.00     0.032 C 
ATOM     18  C   UNL     1     -67.334 -80.870 223.913  1.00  0.00    -0.008 C 
ATOM     19  C   UNL     1     -66.243 -81.564 226.109  1.00  0.00     0.009 C 
ATOM     20  C   UNL     1     -67.435 -80.819 225.483  1.00  0.00     0.007 C 
ATOM     21  C   UNL     1     -68.526 -80.067 223.322  1.00  0.00     0.014 C 
ATOM     22  C   UNL     1     -67.336 -82.306 223.321  1.00  0.00     0.016 C 
ATOM     23  C   UNL     1     -68.840 -81.150 226.136  1.00  0.00    -0.006 C 
ATOM     24  C   UNL     1     -69.886 -80.511 223.868  1.00  0.00     0.033 C 
ATOM     25  C   UNL     1     -69.964 -80.356 225.395  1.00  0.00     0.120 C 
ATOM     26  C   UNL     1     -69.193 -82.663 226.151  1.00  0.00     0.014 C 
ATOM     27  C   UNL     1     -68.840 -80.695 227.628  1.00  0.00     0.014 C 
BRANCH  25  28
ATOM     28  O   UNL     1     -69.889 -78.988 225.719  1.00  0.00    -0.393 OA
ATOM     29  H   UNL     1     -69.081 -78.864 226.282  1.00  0.00     0.210 HD
ENDBRANCH  25  28
ENDBRANCH   2   6
ENDBRANCH   1   2
BRANCH   1  30
ATOM     30  C   UNL     1     -61.120 -76.908 219.162  1.00  0.00     0.028 C 
BRANCH  30  31
ATOM     31  C   UNL     1     -59.726 -76.888 218.578  1.00  0.00    -0.028 C 
ATOM     32  C   UNL     1     -59.373 -76.082 217.553  1.00  0.00    -0.080 C 
ATOM     33  C   UNL     1     -57.976 -76.185 216.994  1.00  0.00     0.039 C 
ATOM     34  C   UNL     1     -60.347 -75.096 216.950  1.00  0.00     0.039 C 
ENDBRANCH  30  31
ENDBRANCH   1  30
TORSDOF 6
ENDMDL
