MODEL 1
REMARK VINA RESULT:    -3.710      0.000      0.000
REMARK INTER + INTRA:          -4.797
REMARK INTER:                  -4.578
REMARK INTRA:                  -0.219
REMARK UNBOUND:                -0.219
REMARK SMILES CCCCCC(=O)[O-]
REMARK SMILES IDX 4 1 5 2 6 3 7 4 8 5 3 6 2 7 1 8
REMARK H PARENT
REMARK Flexibility Score: inf
ROOT
ATOM      1  C   UNL     1       9.062   2.809  -4.410  1.00  0.00     0.006 C 
ENDROOT
BRANCH   1   2
ATOM      2  C   UNL     1       8.954   1.966  -5.689  1.00  0.00     0.053 C 
BRANCH   2   3
ATOM      3  C   UNL     1       8.318   0.636  -5.424  1.00  0.00     0.041 C 
ATOM      4  O   UNL     1       7.083   0.474  -5.611  1.00  0.00    -0.550 OA
ATOM      5  O   UNL     1       9.084  -0.418  -4.944  1.00  0.00    -0.550 OA
ENDBRANCH   2   3
ENDBRANCH   1   2
BRANCH   1   6
ATOM      6  C   UNL     1       7.807   3.665  -4.171  1.00  0.00     0.000 C 
BRANCH   6   7
ATOM      7  C   UNL     1       7.128   4.095  -5.482  1.00  0.00    -0.003 C 
ATOM      8  C   UNL     1       5.661   3.676  -5.552  1.00  0.00     0.004 C 
ENDBRANCH   6   7
ENDBRANCH   1   6
TORSDOF 4
ENDMDL
MODEL 2
REMARK VINA RESULT:    -3.571      1.831      2.683
REMARK INTER + INTRA:          -4.625
REMARK INTER:                  -4.371
REMARK INTRA:                  -0.255
REMARK UNBOUND:                -0.219
REMARK SMILES CCCCCC(=O)[O-]
REMARK SMILES IDX 4 1 5 2 6 3 7 4 8 5 3 6 2 7 1 8
REMARK H PARENT
REMARK Flexibility Score: inf
ROOT
ATOM      1  C   UNL     1       6.835   4.505  -5.186  1.00  0.00     0.006 C 
ENDROOT
BRANCH   1   2
ATOM      2  C   UNL     1       7.657   3.818  -4.086  1.00  0.00     0.053 C 
BRANCH   2   3
ATOM      3  C   UNL     1       8.613   2.813  -4.653  1.00  0.00     0.041 C 
ATOM      4  O   UNL     1       9.285   3.087  -5.682  1.00  0.00    -0.550 OA
ATOM      5  O   UNL     1       8.739   1.563  -4.061  1.00  0.00    -0.550 OA
ENDBRANCH   2   3
ENDBRANCH   1   2
BRANCH   1   6
ATOM      6  C   UNL     1       5.757   3.577  -5.770  1.00  0.00     0.000 C 
BRANCH   6   7
ATOM      7  C   UNL     1       5.938   3.338  -7.277  1.00  0.00    -0.003 C 
ATOM      8  C   UNL     1       6.735   4.449  -7.960  1.00  0.00     0.004 C 
ENDBRANCH   6   7
ENDBRANCH   1   6
TORSDOF 4
ENDMDL
MODEL 3
REMARK VINA RESULT:    -3.547      1.451      1.867
REMARK INTER + INTRA:          -4.596
REMARK INTER:                  -4.379
REMARK INTRA:                  -0.217
REMARK UNBOUND:                -0.219
REMARK SMILES CCCCCC(=O)[O-]
REMARK SMILES IDX 4 1 5 2 6 3 7 4 8 5 3 6 2 7 1 8
REMARK H PARENT
REMARK Flexibility Score: inf
ROOT
ATOM      1  C   UNL     1       8.517   2.425  -6.585  1.00  0.00     0.006 C 
ENDROOT
BRANCH   1   2
ATOM      2  C   UNL     1       9.190   1.052  -6.442  1.00  0.00     0.053 C 
BRANCH   2   3
ATOM      3  C   UNL     1       9.122   0.545  -5.033  1.00  0.00     0.041 C 
ATOM      4  O   UNL     1       8.951   1.346  -4.078  1.00  0.00    -0.550 OA
ATOM      5  O   UNL     1       9.276  -0.811  -4.775  1.00  0.00    -0.550 OA
ENDBRANCH   2   3
ENDBRANCH   1   2
BRANCH   1   6
ATOM      6  C   UNL     1       6.997   2.307  -6.787  1.00  0.00     0.000 C 
BRANCH   6   7
ATOM      7  C   UNL     1       6.199   2.956  -5.645  1.00  0.00    -0.003 C 
ATOM      8  C   UNL     1       6.919   4.155  -5.028  1.00  0.00     0.004 C 
ENDBRANCH   6   7
ENDBRANCH   1   6
TORSDOF 4
ENDMDL
MODEL 4
REMARK VINA RESULT:    -3.527      1.769      2.630
REMARK INTER + INTRA:          -4.571
REMARK INTER:                  -4.294
REMARK INTRA:                  -0.278
REMARK UNBOUND:                -0.219
REMARK SMILES CCCCCC(=O)[O-]
REMARK SMILES IDX 4 1 5 2 6 3 7 4 8 5 3 6 2 7 1 8
REMARK H PARENT
REMARK Flexibility Score: inf
ROOT
ATOM      1  C   UNL     1       6.876   4.403  -4.955  1.00  0.00     0.006 C 
ENDROOT
BRANCH   1   2
ATOM      2  C   UNL     1       7.821   3.735  -3.945  1.00  0.00     0.053 C 
BRANCH   2   3
ATOM      3  C   UNL     1       8.673   2.686  -4.592  1.00  0.00     0.041 C 
ATOM      4  O   UNL     1       8.723   1.524  -4.111  1.00  0.00    -0.550 OA
ATOM      5  O   UNL     1       9.433   3.001  -5.711  1.00  0.00    -0.550 OA
ENDBRANCH   2   3
ENDBRANCH   1   2
BRANCH   1   6
ATOM      6  C   UNL     1       5.888   3.402  -5.575  1.00  0.00     0.000 C 
BRANCH   6   7
ATOM      7  C   UNL     1       5.979   3.357  -7.109  1.00  0.00    -0.003 C 
ATOM      8  C   UNL     1       6.838   4.483  -7.683  1.00  0.00     0.004 C 
ENDBRANCH   6   7
ENDBRANCH   1   6
TORSDOF 4
ENDMDL
MODEL 5
REMARK VINA RESULT:    -3.372      1.430      2.688
REMARK INTER + INTRA:          -4.379
REMARK INTER:                  -4.189
REMARK INTRA:                  -0.190
REMARK UNBOUND:                -0.219
REMARK SMILES CCCCCC(=O)[O-]
REMARK SMILES IDX 4 1 5 2 6 3 7 4 8 5 3 6 2 7 1 8
REMARK H PARENT
REMARK Flexibility Score: inf
ROOT
ATOM      1  C   UNL     1       5.911   3.425  -5.799  1.00  0.00     0.006 C 
ENDROOT
BRANCH   1   2
ATOM      2  C   UNL     1       6.392   2.884  -7.153  1.00  0.00     0.053 C 
BRANCH   2   3
ATOM      3  C   UNL     1       6.979   1.512  -7.026  1.00  0.00     0.041 C 
ATOM      4  O   UNL     1       7.609   0.999  -7.989  1.00  0.00    -0.550 OA
ATOM      5  O   UNL     1       6.806   0.788  -5.854  1.00  0.00    -0.550 OA
ENDBRANCH   2   3
ENDBRANCH   1   2
BRANCH   1   6
ATOM      6  C   UNL     1       6.895   4.443  -5.198  1.00  0.00     0.000 C 
BRANCH   6   7
ATOM      7  C   UNL     1       7.665   3.880  -3.994  1.00  0.00    -0.003 C 
ATOM      8  C   UNL     1       8.902   3.082  -4.405  1.00  0.00     0.004 C 
ENDBRANCH   6   7
ENDBRANCH   1   6
TORSDOF 4
ENDMDL
MODEL 6
REMARK VINA RESULT:    -3.276     13.293     14.740
REMARK INTER + INTRA:          -4.262
REMARK INTER:                  -4.187
REMARK INTRA:                  -0.075
REMARK UNBOUND:                -0.219
REMARK SMILES CCCCCC(=O)[O-]
REMARK SMILES IDX 4 1 5 2 6 3 7 4 8 5 3 6 2 7 1 8
REMARK H PARENT
REMARK Flexibility Score: inf
ROOT
ATOM      1  C   UNL     1      -2.919  12.424  -7.049  1.00  0.00     0.006 C 
ENDROOT
BRANCH   1   2
ATOM      2  C   UNL     1      -2.915  11.617  -8.356  1.00  0.00     0.053 C 
BRANCH   2   3
ATOM      3  C   UNL     1      -1.577  10.998  -8.621  1.00  0.00     0.041 C 
ATOM      4  O   UNL     1      -0.594  11.720  -8.935  1.00  0.00    -0.550 OA
ATOM      5  O   UNL     1      -1.423   9.619  -8.551  1.00  0.00    -0.550 OA
ENDBRANCH   2   3
ENDBRANCH   1   2
BRANCH   1   6
ATOM      6  C   UNL     1      -3.736  11.736  -5.944  1.00  0.00     0.000 C 
BRANCH   6   7
ATOM      7  C   UNL     1      -5.157  12.308  -5.818  1.00  0.00    -0.003 C 
ATOM      8  C   UNL     1      -6.109  11.369  -5.078  1.00  0.00     0.004 C 
ENDBRANCH   6   7
ENDBRANCH   1   6
TORSDOF 4
ENDMDL
MODEL 7
REMARK VINA RESULT:    -3.203     16.131     17.368
REMARK INTER + INTRA:          -4.171
REMARK INTER:                  -4.130
REMARK INTRA:                  -0.041
REMARK UNBOUND:                -0.219
REMARK SMILES CCCCCC(=O)[O-]
REMARK SMILES IDX 4 1 5 2 6 3 7 4 8 5 3 6 2 7 1 8
REMARK H PARENT
REMARK Flexibility Score: inf
ROOT
ATOM      1  C   UNL     1      -7.055  11.118  -5.977  1.00  0.00     0.006 C 
ENDROOT
BRANCH   1   2
ATOM      2  C   UNL     1      -8.068  10.097  -5.440  1.00  0.00     0.053 C 
BRANCH   2   3
ATOM      3  C   UNL     1      -8.594   9.212  -6.529  1.00  0.00     0.041 C 
ATOM      4  O   UNL     1      -8.562   7.960  -6.400  1.00  0.00    -0.550 OA
ATOM      5  O   UNL     1      -9.092   9.770  -7.699  1.00  0.00    -0.550 OA
ENDBRANCH   2   3
ENDBRANCH   1   2
BRANCH   1   6
ATOM      6  C   UNL     1      -6.029  11.534  -4.909  1.00  0.00     0.000 C 
BRANCH   6   7
ATOM      7  C   UNL     1      -4.654  11.867  -5.511  1.00  0.00    -0.003 C 
ATOM      8  C   UNL     1      -3.737  12.588  -4.524  1.00  0.00     0.004 C 
ENDBRANCH   6   7
ENDBRANCH   1   6
TORSDOF 4
ENDMDL
MODEL 8
REMARK VINA RESULT:    -3.079      1.743      2.236
REMARK INTER + INTRA:          -4.018
REMARK INTER:                  -3.918
REMARK INTRA:                  -0.099
REMARK UNBOUND:                -0.219
REMARK SMILES CCCCCC(=O)[O-]
REMARK SMILES IDX 4 1 5 2 6 3 7 4 8 5 3 6 2 7 1 8
REMARK H PARENT
REMARK Flexibility Score: inf
ROOT
ATOM      1  C   UNL     1       6.346   3.345  -6.256  1.00  0.00     0.006 C 
ENDROOT
BRANCH   1   2
ATOM      2  C   UNL     1       7.732   2.685  -6.250  1.00  0.00     0.053 C 
BRANCH   2   3
ATOM      3  C   UNL     1       7.746   1.428  -5.435  1.00  0.00     0.041 C 
ATOM      4  O   UNL     1       6.916   0.511  -5.670  1.00  0.00    -0.550 OA
ATOM      5  O   UNL     1       8.658   1.283  -4.398  1.00  0.00    -0.550 OA
ENDBRANCH   2   3
ENDBRANCH   1   2
BRANCH   1   6
ATOM      6  C   UNL     1       6.405   4.826  -5.845  1.00  0.00     0.000 C 
BRANCH   6   7
ATOM      7  C   UNL     1       6.993   5.720  -6.947  1.00  0.00    -0.003 C 
ATOM      8  C   UNL     1       6.344   5.481  -8.310  1.00  0.00     0.004 C 
ENDBRANCH   6   7
ENDBRANCH   1   6
TORSDOF 4
ENDMDL
MODEL 9
REMARK VINA RESULT:    -3.058     15.536     16.775
REMARK INTER + INTRA:          -3.992
REMARK INTER:                  -3.833
REMARK INTRA:                  -0.160
REMARK UNBOUND:                -0.219
REMARK SMILES CCCCCC(=O)[O-]
REMARK SMILES IDX 4 1 5 2 6 3 7 4 8 5 3 6 2 7 1 8
REMARK H PARENT
REMARK Flexibility Score: inf
ROOT
ATOM      1  C   UNL     1      -4.557  12.669  -3.224  1.00  0.00     0.006 C 
ENDROOT
BRANCH   1   2
ATOM      2  C   UNL     1      -3.398  13.166  -4.100  1.00  0.00     0.053 C 
BRANCH   2   3
ATOM      3  C   UNL     1      -3.457  12.586  -5.481  1.00  0.00     0.041 C 
ATOM      4  O   UNL     1      -2.757  13.075  -6.406  1.00  0.00    -0.550 OA
ATOM      5  O   UNL     1      -4.307  11.521  -5.751  1.00  0.00    -0.550 OA
ENDBRANCH   2   3
ENDBRANCH   1   2
BRANCH   1   6
ATOM      6  C   UNL     1      -5.245  13.817  -2.467  1.00  0.00     0.000 C 
BRANCH   6   7
ATOM      7  C   UNL     1      -6.767  13.835  -2.680  1.00  0.00    -0.003 C 
ATOM      8  C   UNL     1      -7.214  12.924  -3.823  1.00  0.00     0.004 C 
ENDBRANCH   6   7
ENDBRANCH   1   6
TORSDOF 4
ENDMDL
