MODEL 1
REMARK VINA RESULT:    11.193      0.000      0.000
REMARK INTER + INTRA:          15.714
REMARK INTER:                  14.792
REMARK INTRA:                   0.922
REMARK UNBOUND:                 0.922
REMARK SMILES CC(C)=CCC[C@@H](C(=O)[O-])[C@@H]1CC[C@]2(C)C3=C(CC[C@@]12C)[C@@]1(C)CC[C@@H](O)C(C)(C)[C@@H]1CC3
REMARK SMILES IDX 6 1 7 2 8 3 9 4 10 5 11 6 12 7 20 8 13 9 14 10 19 11 21 12
REMARK SMILES IDX 15 13 16 14 18 15 17 16 33 17 22 18 32 19 31 20 24 21 23 22
REMARK SMILES IDX 28 23 25 24 26 25 29 26 30 27 27 28 5 30 4 31 2 32 1 33 3 34
REMARK H PARENT 27 29
REMARK Flexibility Score: inf
ROOT
ATOM      1  C   UNL     1      -5.884  33.485  25.370  1.00  0.00     0.014 C 
ENDROOT
BRANCH   1   2
ATOM      2  C   UNL     1      -4.720  32.972  26.261  1.00  0.00     0.039 C 
BRANCH   2   3
ATOM      3  C   UNL     1      -3.890  34.106  26.820  1.00  0.00     0.045 C 
ATOM      4  O   UNL     1      -2.668  33.954  27.076  1.00  0.00    -0.550 OA
ATOM      5  O   UNL     1      -4.484  35.335  27.078  1.00  0.00    -0.550 OA
ENDBRANCH   2   3
BRANCH   2   6
ATOM      6  C   UNL     1      -5.166  31.870  27.296  1.00  0.00     0.004 C 
ATOM      7  C   UNL     1      -5.503  32.326  28.746  1.00  0.00     0.006 C 
ATOM      8  C   UNL     1      -4.179  30.692  27.515  1.00  0.00    -0.020 C 
ATOM      9  C   UNL     1      -5.046  31.194  29.693  1.00  0.00     0.012 C 
ATOM     10  C   UNL     1      -4.766  29.993  28.775  1.00  0.00    -0.006 C 
ATOM     11  C   UNL     1      -4.116  29.651  26.384  1.00  0.00     0.012 C 
ATOM     12  C   UNL     1      -2.733  31.257  27.757  1.00  0.00     0.012 C 
ATOM     13  C   UNL     1      -6.124  29.246  28.559  1.00  0.00     0.017 C 
ATOM     14  C   UNL     1      -3.790  28.934  29.265  1.00  0.00    -0.064 C 
ATOM     15  C   UNL     1      -3.302  28.402  26.821  1.00  0.00     0.032 C 
ATOM     16  C   UNL     1      -3.173  28.128  28.341  1.00  0.00    -0.064 C 
ATOM     17  C   UNL     1      -3.800  28.546  30.731  1.00  0.00     0.032 C 
ATOM     18  C   UNL     1      -2.372  26.898  28.838  1.00  0.00    -0.008 C 
ATOM     19  C   UNL     1      -2.484  27.927  31.232  1.00  0.00     0.009 C 
ATOM     20  C   UNL     1      -1.570  27.350  30.114  1.00  0.00     0.007 C 
ATOM     21  C   UNL     1      -1.353  26.426  27.753  1.00  0.00     0.014 C 
ATOM     22  C   UNL     1      -3.404  25.765  29.111  1.00  0.00     0.016 C 
ATOM     23  C   UNL     1      -0.464  26.348  30.639  1.00  0.00    -0.006 C 
ATOM     24  C   UNL     1      -0.336  25.394  28.260  1.00  0.00     0.033 C 
ATOM     25  C   UNL     1       0.464  25.927  29.455  1.00  0.00     0.120 C 
ATOM     26  C   UNL     1      -1.039  25.073  31.316  1.00  0.00     0.014 C 
ATOM     27  C   UNL     1       0.407  27.056  31.713  1.00  0.00     0.014 C 
BRANCH  25  28
ATOM     28  O   UNL     1       1.244  27.017  29.017  1.00  0.00    -0.393 OA
ATOM     29  H   UNL     1       2.189  26.712  28.981  1.00  0.00     0.210 HD
ENDBRANCH  25  28
ENDBRANCH   2   6
ENDBRANCH   1   2
BRANCH   1  30
ATOM     30  C   UNL     1      -5.955  32.893  23.946  1.00  0.00     0.028 C 
BRANCH  30  31
ATOM     31  C   UNL     1      -5.347  33.803  22.903  1.00  0.00    -0.028 C 
ATOM     32  C   UNL     1      -5.404  35.149  22.976  1.00  0.00    -0.080 C 
ATOM     33  C   UNL     1      -6.086  35.851  24.128  1.00  0.00     0.039 C 
ATOM     34  C   UNL     1      -4.773  35.962  21.876  1.00  0.00     0.039 C 
ENDBRANCH  30  31
ENDBRANCH   1  30
TORSDOF 6
ENDMDL
MODEL 2
REMARK VINA RESULT:    13.295      0.951      1.146
REMARK INTER + INTRA:          18.492
REMARK INTER:                  18.286
REMARK INTRA:                   0.206
REMARK UNBOUND:                 0.922
REMARK SMILES CC(C)=CCC[C@@H](C(=O)[O-])[C@@H]1CC[C@]2(C)C3=C(CC[C@@]12C)[C@@]1(C)CC[C@@H](O)C(C)(C)[C@@H]1CC3
REMARK SMILES IDX 6 1 7 2 8 3 9 4 10 5 11 6 12 7 20 8 13 9 14 10 19 11 21 12
REMARK SMILES IDX 15 13 16 14 18 15 17 16 33 17 22 18 32 19 31 20 24 21 23 22
REMARK SMILES IDX 28 23 25 24 26 25 29 26 30 27 27 28 5 30 4 31 2 32 1 33 3 34
REMARK H PARENT 27 29
REMARK Flexibility Score: inf
ROOT
ATOM      1  C   UNL     1      -4.004  33.156  24.794  1.00  0.00     0.014 C 
ENDROOT
BRANCH   1   2
ATOM      2  C   UNL     1      -4.227  33.673  26.241  1.00  0.00     0.039 C 
BRANCH   2   3
ATOM      3  C   UNL     1      -4.893  35.030  26.265  1.00  0.00     0.045 C 
ATOM      4  O   UNL     1      -6.125  35.147  26.491  1.00  0.00    -0.550 OA
ATOM      5  O   UNL     1      -4.143  36.172  26.013  1.00  0.00    -0.550 OA
ENDBRANCH   2   3
BRANCH   2   6
ATOM      6  C   UNL     1      -4.845  32.586  27.203  1.00  0.00     0.004 C 
ATOM      7  C   UNL     1      -5.247  33.029  28.640  1.00  0.00     0.006 C 
ATOM      8  C   UNL     1      -3.986  31.317  27.449  1.00  0.00    -0.020 C 
ATOM      9  C   UNL     1      -4.965  31.834  29.576  1.00  0.00     0.012 C 
ATOM     10  C   UNL     1      -4.726  30.639  28.638  1.00  0.00    -0.006 C 
ATOM     11  C   UNL     1      -3.932  30.308  26.289  1.00  0.00     0.012 C 
ATOM     12  C   UNL     1      -2.517  31.740  27.814  1.00  0.00     0.012 C 
ATOM     13  C   UNL     1      -6.125  30.025  28.299  1.00  0.00     0.017 C 
ATOM     14  C   UNL     1      -3.887  29.481  29.159  1.00  0.00    -0.064 C 
ATOM     15  C   UNL     1      -3.268  28.978  26.738  1.00  0.00     0.032 C 
ATOM     16  C   UNL     1      -3.277  28.649  28.254  1.00  0.00    -0.064 C 
ATOM     17  C   UNL     1      -4.040  29.053  30.606  1.00  0.00     0.032 C 
ATOM     18  C   UNL     1      -2.628  27.337  28.762  1.00  0.00    -0.008 C 
ATOM     19  C   UNL     1      -2.826  28.302  31.177  1.00  0.00     0.009 C 
ATOM     20  C   UNL     1      -1.886  27.677  30.107  1.00  0.00     0.007 C 
ATOM     21  C   UNL     1      -1.578  26.806  27.737  1.00  0.00     0.014 C 
ATOM     22  C   UNL     1      -3.774  26.296  28.920  1.00  0.00     0.016 C 
ATOM     23  C   UNL     1      -0.916  26.563  30.675  1.00  0.00    -0.006 C 
ATOM     24  C   UNL     1      -0.697  25.670  28.278  1.00  0.00     0.033 C 
ATOM     25  C   UNL     1       0.056  26.094  29.545  1.00  0.00     0.120 C 
ATOM     26  C   UNL     1      -1.652  25.327  31.262  1.00  0.00     0.014 C 
ATOM     27  C   UNL     1      -0.068  27.157  31.832  1.00  0.00     0.014 C 
BRANCH  25  28
ATOM     28  O   UNL     1       0.961  27.120  29.204  1.00  0.00    -0.393 OA
ATOM     29  H   UNL     1       0.640  27.956  29.635  1.00  0.00     0.210 HD
ENDBRANCH  25  28
ENDBRANCH   2   6
ENDBRANCH   1   2
BRANCH   1  30
ATOM     30  C   UNL     1      -5.270  32.697  24.038  1.00  0.00     0.028 C 
BRANCH  30  31
ATOM     31  C   UNL     1      -5.967  33.830  23.321  1.00  0.00    -0.028 C 
ATOM     32  C   UNL     1      -5.311  34.743  22.574  1.00  0.00    -0.080 C 
ATOM     33  C   UNL     1      -3.811  34.691  22.398  1.00  0.00     0.039 C 
ATOM     34  C   UNL     1      -6.102  35.839  21.908  1.00  0.00     0.039 C 
ENDBRANCH  30  31
ENDBRANCH   1  30
TORSDOF 6
ENDMDL
