MODEL 1
REMARK VINA RESULT:    -5.190      0.000      0.000
REMARK INTER + INTRA:          -8.365
REMARK INTER:                  -7.466
REMARK INTRA:                  -0.899
REMARK UNBOUND:                -0.899
REMARK SMILES O=c1cc(-c2ccc(O)c(O)c2)oc2cc(O[C@H]3O[C@H](CO)[C@H](O)[C@@H](O)[C@@H]3O)cc(O)c12
REMARK SMILES IDX 17 1 16 2 4 3 3 4 13 5 2 6 14 7 1 8 32 9 15 10 30 11 29 12
REMARK SMILES IDX 5 13 6 14 7 15 8 16 12 17 10 18 9 19 11 21 31 23 18 25 27 26
REMARK SMILES IDX 19 27 25 28 20 29 23 30 28 31 26 33 21 35 22 36 24 38
REMARK H PARENT 9 20 11 22 31 24 28 32 26 34 22 37 24 39
REMARK Flexibility Score: inf
ROOT
ATOM      1  O   UNL     1      54.115  15.892  26.096  1.00  0.00    -0.462 OA
ENDROOT
BRANCH   1   2
ATOM      2  C   UNL     1      55.502  15.949  25.880  1.00  0.00     0.130 A 
ATOM      3  C   UNL     1      59.010  15.973  22.648  1.00  0.00     0.138 A 
ATOM      4  C   UNL     1      60.007  16.014  23.638  1.00  0.00     0.100 A 
ATOM      5  O   UNL     1      57.729  15.955  23.011  1.00  0.00    -0.456 OA
ATOM      6  C   UNL     1      59.637  16.051  24.983  1.00  0.00     0.197 A 
ATOM      7  C   UNL     1      57.328  15.980  24.278  1.00  0.00     0.146 A 
ATOM      8  O   UNL     1      60.538  16.091  25.863  1.00  0.00    -0.289 OA
ATOM      9  C   UNL     1      58.270  16.032  25.330  1.00  0.00     0.107 A 
ATOM     10  C   UNL     1      55.960  15.950  24.561  1.00  0.00     0.094 A 
ATOM     11  C   UNL     1      57.811  16.053  26.668  1.00  0.00     0.134 A 
ATOM     12  C   UNL     1      56.435  16.008  26.931  1.00  0.00     0.093 A 
BRANCH   3  13
ATOM     13  C   UNL     1      59.341  15.930  21.199  1.00  0.00     0.021 A 
ATOM     14  C   UNL     1      60.654  16.124  20.732  1.00  0.00     0.016 A 
ATOM     15  C   UNL     1      60.928  16.085  19.362  1.00  0.00     0.051 A 
ATOM     16  C   UNL     1      59.906  15.862  18.431  1.00  0.00     0.157 A 
ATOM     17  C   UNL     1      58.316  15.715  20.262  1.00  0.00     0.062 A 
ATOM     18  C   UNL     1      58.582  15.674  18.887  1.00  0.00     0.158 A 
BRANCH  16  19
ATOM     19  O   UNL     1      60.249  15.841  17.076  1.00  0.00    -0.504 OA
ATOM     20  H   UNL     1      59.915  16.512  16.398  1.00  0.00     0.293 HD
ENDBRANCH  16  19
BRANCH  18  21
ATOM     21  O   UNL     1      57.511  15.443  18.019  1.00  0.00    -0.504 OA
ATOM     22  H   UNL     1      57.532  15.641  17.027  1.00  0.00     0.293 HD
ENDBRANCH  18  21
ENDBRANCH   3  13
BRANCH  11  23
ATOM     23  O   UNL     1      58.711  16.115  27.734  1.00  0.00    -0.507 OA
ATOM     24  H   UNL     1      59.169  16.979  27.999  1.00  0.00     0.293 HD
ENDBRANCH  11  23
ENDBRANCH   1   2
BRANCH   1  25
ATOM     25  C   UNL     1      53.401  14.798  26.688  1.00  0.00     0.339 C 
ATOM     26  C   UNL     1      53.738  13.447  25.998  1.00  0.00     0.214 C 
ATOM     27  O   UNL     1      52.006  15.051  26.674  1.00  0.00    -0.332 OA
ATOM     28  C   UNL     1      53.071  13.307  24.607  1.00  0.00     0.180 C 
ATOM     29  C   UNL     1      51.513  15.179  25.350  1.00  0.00     0.179 C 
ATOM     30  C   UNL     1      51.616  13.826  24.597  1.00  0.00     0.177 C 
BRANCH  26  31
ATOM     31  O   UNL     1      53.389  12.362  26.826  1.00  0.00    -0.384 OA
ATOM     32  H   UNL     1      54.227  11.936  27.147  1.00  0.00     0.211 HD
ENDBRANCH  26  31
BRANCH  28  33
ATOM     33  O   UNL     1      53.843  13.932  23.607  1.00  0.00    -0.387 OA
ATOM     34  H   UNL     1      54.601  14.398  24.043  1.00  0.00     0.211 HD
ENDBRANCH  28  33
BRANCH  29  35
ATOM     35  C   UNL     1      50.068  15.696  25.420  1.00  0.00     0.191 C 
BRANCH  35  36
ATOM     36  O   UNL     1      49.312  14.941  26.331  1.00  0.00    -0.394 OA
ATOM     37  H   UNL     1      48.605  14.479  25.808  1.00  0.00     0.210 HD
ENDBRANCH  35  36
ENDBRANCH  29  35
BRANCH  30  38
ATOM     38  O   UNL     1      50.785  12.864  25.197  1.00  0.00    -0.387 OA
ATOM     39  H   UNL     1      51.371  12.132  25.528  1.00  0.00     0.211 HD
ENDBRANCH  30  38
ENDBRANCH   1  25
TORSDOF 11
ENDMDL
MODEL 2
REMARK VINA RESULT:    -4.997      3.590      5.950
REMARK INTER + INTRA:          -8.087
REMARK INTER:                  -7.893
REMARK INTRA:                  -0.194
REMARK UNBOUND:                -0.899
REMARK SMILES O=c1cc(-c2ccc(O)c(O)c2)oc2cc(O[C@H]3O[C@H](CO)[C@H](O)[C@@H](O)[C@@H]3O)cc(O)c12
REMARK SMILES IDX 17 1 16 2 4 3 3 4 13 5 2 6 14 7 1 8 32 9 15 10 30 11 29 12
REMARK SMILES IDX 5 13 6 14 7 15 8 16 12 17 10 18 9 19 11 21 31 23 18 25 27 26
REMARK SMILES IDX 19 27 25 28 20 29 23 30 28 31 26 33 21 35 22 36 24 38
REMARK H PARENT 9 20 11 22 31 24 28 32 26 34 22 37 24 39
REMARK Flexibility Score: inf
ROOT
ATOM      1  O   UNL     1      50.710  13.229  24.087  1.00  0.00    -0.462 OA
ENDROOT
BRANCH   1   2
ATOM      2  C   UNL     1      51.586  13.195  25.184  1.00  0.00     0.130 A 
ATOM      3  C   UNL     1      55.992  14.113  26.764  1.00  0.00     0.138 A 
ATOM      4  C   UNL     1      55.705  13.613  28.045  1.00  0.00     0.100 A 
ATOM      5  O   UNL     1      55.041  14.108  25.831  1.00  0.00    -0.456 OA
ATOM      6  C   UNL     1      54.424  13.135  28.323  1.00  0.00     0.197 A 
ATOM      7  C   UNL     1      53.810  13.656  26.046  1.00  0.00     0.146 A 
ATOM      8  O   UNL     1      54.175  12.692  29.476  1.00  0.00    -0.289 OA
ATOM      9  C   UNL     1      53.441  13.147  27.312  1.00  0.00     0.107 A 
ATOM     10  C   UNL     1      52.881  13.684  25.003  1.00  0.00     0.094 A 
ATOM     11  C   UNL     1      52.124  12.668  27.507  1.00  0.00     0.134 A 
ATOM     12  C   UNL     1      51.211  12.693  26.443  1.00  0.00     0.093 A 
BRANCH   3  13
ATOM     13  C   UNL     1      57.338  14.634  26.406  1.00  0.00     0.021 A 
ATOM     14  C   UNL     1      57.509  15.664  25.464  1.00  0.00     0.016 A 
ATOM     15  C   UNL     1      58.790  16.124  25.145  1.00  0.00     0.051 A 
ATOM     16  C   UNL     1      59.924  15.566  25.747  1.00  0.00     0.157 A 
ATOM     17  C   UNL     1      58.479  14.068  27.002  1.00  0.00     0.062 A 
ATOM     18  C   UNL     1      59.767  14.523  26.688  1.00  0.00     0.158 A 
BRANCH  16  19
ATOM     19  O   UNL     1      61.175  16.068  25.378  1.00  0.00    -0.504 OA
ATOM     20  H   UNL     1      61.864  16.409  26.035  1.00  0.00     0.293 HD
ENDBRANCH  16  19
BRANCH  18  21
ATOM     21  O   UNL     1      60.850  13.918  27.332  1.00  0.00    -0.504 OA
ATOM     22  H   UNL     1      61.124  14.113  28.286  1.00  0.00     0.293 HD
ENDBRANCH  18  21
ENDBRANCH   3  13
BRANCH  11  23
ATOM     23  O   UNL     1      51.719  12.168  28.746  1.00  0.00    -0.507 OA
ATOM     24  H   UNL     1      51.453  11.198  28.871  1.00  0.00     0.293 HD
ENDBRANCH  11  23
ENDBRANCH   1   2
BRANCH   1  25
ATOM     25  C   UNL     1      49.277  13.245  24.156  1.00  0.00     0.339 C 
ATOM     26  C   UNL     1      48.642  13.767  22.836  1.00  0.00     0.214 C 
ATOM     27  O   UNL     1      48.842  14.002  25.272  1.00  0.00    -0.332 OA
ATOM     28  C   UNL     1      48.787  15.301  22.672  1.00  0.00     0.180 C 
ATOM     29  C   UNL     1      49.253  15.357  25.175  1.00  0.00     0.179 C 
ATOM     30  C   UNL     1      48.534  16.061  23.994  1.00  0.00     0.177 C 
BRANCH  26  31
ATOM     31  O   UNL     1      47.289  13.387  22.748  1.00  0.00    -0.384 OA
ATOM     32  H   UNL     1      47.119  12.688  23.434  1.00  0.00     0.211 HD
ENDBRANCH  26  31
BRANCH  28  33
ATOM     33  O   UNL     1      50.039  15.637  22.122  1.00  0.00    -0.387 OA
ATOM     34  H   UNL     1      50.489  16.273  22.734  1.00  0.00     0.211 HD
ENDBRANCH  28  33
BRANCH  29  35
ATOM     35  C   UNL     1      48.970  16.045  26.519  1.00  0.00     0.191 C 
BRANCH  35  36
ATOM     36  O   UNL     1      49.486  15.290  27.585  1.00  0.00    -0.394 OA
ATOM     37  H   UNL     1      48.784  15.263  28.287  1.00  0.00     0.210 HD
ENDBRANCH  35  36
ENDBRANCH  29  35
BRANCH  30  38
ATOM     38  O   UNL     1      47.149  16.122  24.226  1.00  0.00    -0.387 OA
ATOM     39  H   UNL     1      46.701  16.154  23.338  1.00  0.00     0.211 HD
ENDBRANCH  30  38
ENDBRANCH   1  25
TORSDOF 11
ENDMDL
MODEL 3
REMARK VINA RESULT:    -4.046      3.617      5.779
REMARK INTER + INTRA:          -6.719
REMARK INTER:                  -6.951
REMARK INTRA:                   0.232
REMARK UNBOUND:                -0.899
REMARK SMILES O=c1cc(-c2ccc(O)c(O)c2)oc2cc(O[C@H]3O[C@H](CO)[C@H](O)[C@@H](O)[C@@H]3O)cc(O)c12
REMARK SMILES IDX 17 1 16 2 4 3 3 4 13 5 2 6 14 7 1 8 32 9 15 10 30 11 29 12
REMARK SMILES IDX 5 13 6 14 7 15 8 16 12 17 10 18 9 19 11 21 31 23 18 25 27 26
REMARK SMILES IDX 19 27 25 28 20 29 23 30 28 31 26 33 21 35 22 36 24 38
REMARK H PARENT 9 20 11 22 31 24 28 32 26 34 22 37 24 39
REMARK Flexibility Score: inf
ROOT
ATOM      1  O   UNL     1      50.592  15.781  25.240  1.00  0.00    -0.462 OA
ENDROOT
BRANCH   1   2
ATOM      2  C   UNL     1      51.550  15.110  26.018  1.00  0.00     0.130 A 
ATOM      3  C   UNL     1      56.195  14.426  26.858  1.00  0.00     0.138 A 
ATOM      4  C   UNL     1      55.938  13.476  27.861  1.00  0.00     0.100 A 
ATOM      5  O   UNL     1      55.174  15.003  26.227  1.00  0.00    -0.456 OA
ATOM      6  C   UNL     1      54.618  13.165  28.190  1.00  0.00     0.197 A 
ATOM      7  C   UNL     1      53.901  14.734  26.499  1.00  0.00     0.146 A 
ATOM      8  O   UNL     1      54.399  12.315  29.093  1.00  0.00    -0.289 OA
ATOM      9  C   UNL     1      53.562  13.798  27.502  1.00  0.00     0.107 A 
ATOM     10  C   UNL     1      52.898  15.385  25.778  1.00  0.00     0.094 A 
ATOM     11  C   UNL     1      52.198  13.530  27.764  1.00  0.00     0.134 A 
ATOM     12  C   UNL     1      51.206  14.184  27.020  1.00  0.00     0.093 A 
BRANCH   3  13
ATOM     13  C   UNL     1      57.580  14.797  26.461  1.00  0.00     0.021 A 
ATOM     14  C   UNL     1      57.836  15.808  25.518  1.00  0.00     0.016 A 
ATOM     15  C   UNL     1      59.149  16.125  25.162  1.00  0.00     0.051 A 
ATOM     16  C   UNL     1      60.232  15.441  25.728  1.00  0.00     0.157 A 
ATOM     17  C   UNL     1      58.668  14.105  27.021  1.00  0.00     0.062 A 
ATOM     18  C   UNL     1      59.988  14.417  26.670  1.00  0.00     0.158 A 
BRANCH  16  19
ATOM     19  O   UNL     1      61.519  15.805  25.323  1.00  0.00    -0.504 OA
ATOM     20  H   UNL     1      62.173  15.172  24.882  1.00  0.00     0.293 HD
ENDBRANCH  16  19
BRANCH  18  21
ATOM     21  O   UNL     1      61.017  13.692  27.280  1.00  0.00    -0.504 OA
ATOM     22  H   UNL     1      61.289  12.757  27.010  1.00  0.00     0.293 HD
ENDBRANCH  18  21
ENDBRANCH   3  13
BRANCH  11  23
ATOM     23  O   UNL     1      51.823  12.620  28.754  1.00  0.00    -0.507 OA
ATOM     24  H   UNL     1      52.450  12.356  29.505  1.00  0.00     0.293 HD
ENDBRANCH  11  23
ENDBRANCH   1   2
BRANCH   1  25
ATOM     25  C   UNL     1      49.190  15.482  25.191  1.00  0.00     0.339 C 
ATOM     26  C   UNL     1      48.912  13.974  25.452  1.00  0.00     0.214 C 
ATOM     27  O   UNL     1      48.635  15.903  23.957  1.00  0.00    -0.332 OA
ATOM     28  C   UNL     1      49.283  13.083  24.241  1.00  0.00     0.180 C 
ATOM     29  C   UNL     1      49.227  15.223  22.861  1.00  0.00     0.179 C 
ATOM     30  C   UNL     1      48.863  13.715  22.895  1.00  0.00     0.177 C 
BRANCH  26  31
ATOM     31  O   UNL     1      47.568  13.771  25.823  1.00  0.00    -0.384 OA
ATOM     32  H   UNL     1      47.416  14.224  26.694  1.00  0.00     0.211 HD
ENDBRANCH  26  31
BRANCH  28  33
ATOM     33  O   UNL     1      50.655  12.761  24.248  1.00  0.00    -0.387 OA
ATOM     34  H   UNL     1      50.888  12.406  25.143  1.00  0.00     0.211 HD
ENDBRANCH  28  33
BRANCH  29  35
ATOM     35  C   UNL     1      48.764  15.903  21.563  1.00  0.00     0.191 C 
BRANCH  35  36
ATOM     36  O   UNL     1      49.032  15.088  20.451  1.00  0.00    -0.394 OA
ATOM     37  H   UNL     1      49.792  15.503  19.964  1.00  0.00     0.210 HD
ENDBRANCH  35  36
ENDBRANCH  29  35
BRANCH  30  38
ATOM     38  O   UNL     1      47.479  13.538  22.721  1.00  0.00    -0.387 OA
ATOM     39  H   UNL     1      47.274  12.587  22.929  1.00  0.00     0.211 HD
ENDBRANCH  30  38
ENDBRANCH   1  25
TORSDOF 11
ENDMDL
MODEL 4
REMARK VINA RESULT:    -3.651      3.510      5.832
REMARK INTER + INTRA:          -6.151
REMARK INTER:                  -6.702
REMARK INTRA:                   0.551
REMARK UNBOUND:                -0.899
REMARK SMILES O=c1cc(-c2ccc(O)c(O)c2)oc2cc(O[C@H]3O[C@H](CO)[C@H](O)[C@@H](O)[C@@H]3O)cc(O)c12
REMARK SMILES IDX 17 1 16 2 4 3 3 4 13 5 2 6 14 7 1 8 32 9 15 10 30 11 29 12
REMARK SMILES IDX 5 13 6 14 7 15 8 16 12 17 10 18 9 19 11 21 31 23 18 25 27 26
REMARK SMILES IDX 19 27 25 28 20 29 23 30 28 31 26 33 21 35 22 36 24 38
REMARK H PARENT 9 20 11 22 31 24 28 32 26 34 22 37 24 39
REMARK Flexibility Score: inf
ROOT
ATOM      1  O   UNL     1      50.618  16.125  25.003  1.00  0.00    -0.462 OA
ENDROOT
BRANCH   1   2
ATOM      2  C   UNL     1      51.546  15.418  25.785  1.00  0.00     0.130 A 
ATOM      3  C   UNL     1      56.158  14.581  26.669  1.00  0.00     0.138 A 
ATOM      4  C   UNL     1      55.861  13.632  27.661  1.00  0.00     0.100 A 
ATOM      5  O   UNL     1      55.163  15.195  26.032  1.00  0.00    -0.456 OA
ATOM      6  C   UNL     1      54.528  13.360  27.972  1.00  0.00     0.197 A 
ATOM      7  C   UNL     1      53.879  14.965  26.288  1.00  0.00     0.146 A 
ATOM      8  O   UNL     1      54.272  12.509  28.866  1.00  0.00    -0.289 OA
ATOM      9  C   UNL     1      53.500  14.031  27.280  1.00  0.00     0.107 A 
ATOM     10  C   UNL     1      52.905  15.653  25.562  1.00  0.00     0.094 A 
ATOM     11  C   UNL     1      52.126  13.804  27.524  1.00  0.00     0.134 A 
ATOM     12  C   UNL     1      51.163  14.495  26.775  1.00  0.00     0.093 A 
BRANCH   3  13
ATOM     13  C   UNL     1      57.558  14.912  26.290  1.00  0.00     0.021 A 
ATOM     14  C   UNL     1      57.853  15.843  25.278  1.00  0.00     0.016 A 
ATOM     15  C   UNL     1      59.180  16.124  24.942  1.00  0.00     0.051 A 
ATOM     16  C   UNL     1      60.238  15.482  25.597  1.00  0.00     0.157 A 
ATOM     17  C   UNL     1      58.622  14.261  26.940  1.00  0.00     0.062 A 
ATOM     18  C   UNL     1      59.955  14.537  26.609  1.00  0.00     0.158 A 
BRANCH  16  19
ATOM     19  O   UNL     1      61.540  15.805  25.207  1.00  0.00    -0.504 OA
ATOM     20  H   UNL     1      62.365  15.312  25.524  1.00  0.00     0.293 HD
ENDBRANCH  16  19
BRANCH  18  21
ATOM     21  O   UNL     1      60.958  13.858  27.309  1.00  0.00    -0.504 OA
ATOM     22  H   UNL     1      60.983  12.855  27.432  1.00  0.00     0.293 HD
ENDBRANCH  18  21
ENDBRANCH   3  13
BRANCH  11  23
ATOM     23  O   UNL     1      51.711  12.898  28.502  1.00  0.00    -0.507 OA
ATOM     24  H   UNL     1      50.741  12.618  28.597  1.00  0.00     0.293 HD
ENDBRANCH  11  23
ENDBRANCH   1   2
BRANCH   1  25
ATOM     25  C   UNL     1      50.066  15.688  23.753  1.00  0.00     0.339 C 
ATOM     26  C   UNL     1      48.516  15.809  23.733  1.00  0.00     0.214 C 
ATOM     27  O   UNL     1      50.485  14.366  23.461  1.00  0.00    -0.332 OA
ATOM     28  C   UNL     1      47.824  14.711  24.578  1.00  0.00     0.180 C 
ATOM     29  C   UNL     1      50.030  13.447  24.441  1.00  0.00     0.179 C 
ATOM     30  C   UNL     1      48.483  13.326  24.399  1.00  0.00     0.177 C 
BRANCH  26  31
ATOM     31  O   UNL     1      48.032  15.795  22.411  1.00  0.00    -0.384 OA
ATOM     32  H   UNL     1      47.043  15.704  22.445  1.00  0.00     0.211 HD
ENDBRANCH  26  31
BRANCH  28  33
ATOM     33  O   UNL     1      47.766  15.077  25.938  1.00  0.00    -0.387 OA
ATOM     34  H   UNL     1      47.869  14.258  26.486  1.00  0.00     0.211 HD
ENDBRANCH  28  33
BRANCH  29  35
ATOM     35  C   UNL     1      50.724  12.098  24.199  1.00  0.00     0.191 C 
BRANCH  35  36
ATOM     36  O   UNL     1      52.048  12.127  24.667  1.00  0.00    -0.394 OA
ATOM     37  H   UNL     1      52.616  11.734  23.953  1.00  0.00     0.210 HD
ENDBRANCH  35  36
ENDBRANCH  29  35
BRANCH  30  38
ATOM     38  O   UNL     1      48.065  12.778  23.173  1.00  0.00    -0.387 OA
ATOM     39  H   UNL     1      48.883  12.559  22.652  1.00  0.00     0.211 HD
ENDBRANCH  30  38
ENDBRANCH   1  25
TORSDOF 11
ENDMDL
MODEL 5
REMARK VINA RESULT:    -3.308      1.788      2.699
REMARK INTER + INTRA:          -5.657
REMARK INTER:                  -4.941
REMARK INTRA:                  -0.716
REMARK UNBOUND:                -0.899
REMARK SMILES O=c1cc(-c2ccc(O)c(O)c2)oc2cc(O[C@H]3O[C@H](CO)[C@H](O)[C@@H](O)[C@@H]3O)cc(O)c12
REMARK SMILES IDX 17 1 16 2 4 3 3 4 13 5 2 6 14 7 1 8 32 9 15 10 30 11 29 12
REMARK SMILES IDX 5 13 6 14 7 15 8 16 12 17 10 18 9 19 11 21 31 23 18 25 27 26
REMARK SMILES IDX 19 27 25 28 20 29 23 30 28 31 26 33 21 35 22 36 24 38
REMARK H PARENT 9 20 11 22 31 24 28 32 26 34 22 37 24 39
REMARK Flexibility Score: inf
ROOT
ATOM      1  O   UNL     1      52.033  15.032  24.271  1.00  0.00    -0.462 OA
ENDROOT
BRANCH   1   2
ATOM      2  C   UNL     1      53.396  15.285  24.495  1.00  0.00     0.130 A 
ATOM      3  C   UNL     1      57.699  15.842  22.513  1.00  0.00     0.138 A 
ATOM      4  C   UNL     1      58.322  16.007  23.761  1.00  0.00     0.100 A 
ATOM      5  O   UNL     1      56.383  15.641  22.461  1.00  0.00    -0.456 OA
ATOM      6  C   UNL     1      57.550  15.972  24.923  1.00  0.00     0.197 A 
ATOM      7  C   UNL     1      55.608  15.592  23.539  1.00  0.00     0.146 A 
ATOM      8  O   UNL     1      58.118  16.125  26.038  1.00  0.00    -0.289 OA
ATOM      9  C   UNL     1      56.160  15.759  24.830  1.00  0.00     0.107 A 
ATOM     10  C   UNL     1      54.238  15.368  23.384  1.00  0.00     0.094 A 
ATOM     11  C   UNL     1      55.308  15.696  25.957  1.00  0.00     0.134 A 
ATOM     12  C   UNL     1      53.938  15.457  25.782  1.00  0.00     0.093 A 
BRANCH   3  13
ATOM     13  C   UNL     1      58.467  15.866  21.240  1.00  0.00     0.021 A 
ATOM     14  C   UNL     1      59.855  16.096  21.215  1.00  0.00     0.016 A 
ATOM     15  C   UNL     1      60.544  16.120  20.000  1.00  0.00     0.051 A 
ATOM     16  C   UNL     1      59.871  15.926  18.788  1.00  0.00     0.157 A 
ATOM     17  C   UNL     1      57.792  15.680  20.021  1.00  0.00     0.062 A 
ATOM     18  C   UNL     1      58.476  15.703  18.799  1.00  0.00     0.158 A 
BRANCH  16  19
ATOM     19  O   UNL     1      60.621  15.968  17.610  1.00  0.00    -0.504 OA
ATOM     20  H   UNL     1      60.613  16.745  16.962  1.00  0.00     0.293 HD
ENDBRANCH  16  19
BRANCH  18  21
ATOM     21  O   UNL     1      57.736  15.497  17.630  1.00  0.00    -0.504 OA
ATOM     22  H   UNL     1      57.408  14.593  17.318  1.00  0.00     0.293 HD
ENDBRANCH  18  21
ENDBRANCH   3  13
BRANCH  11  23
ATOM     23  O   UNL     1      55.813  15.867  27.248  1.00  0.00    -0.507 OA
ATOM     24  H   UNL     1      55.712  15.155  27.962  1.00  0.00     0.293 HD
ENDBRANCH  11  23
ENDBRANCH   1   2
BRANCH   1  25
ATOM     25  C   UNL     1      50.938  15.682  24.934  1.00  0.00     0.339 C 
ATOM     26  C   UNL     1      50.423  14.853  26.144  1.00  0.00     0.214 C 
ATOM     27  O   UNL     1      49.894  15.956  24.015  1.00  0.00    -0.332 OA
ATOM     28  C   UNL     1      49.603  13.613  25.710  1.00  0.00     0.180 C 
ATOM     29  C   UNL     1      49.370  14.764  23.450  1.00  0.00     0.179 C 
ATOM     30  C   UNL     1      48.649  13.920  24.534  1.00  0.00     0.177 C 
BRANCH  26  31
ATOM     31  O   UNL     1      49.671  15.662  27.019  1.00  0.00    -0.384 OA
ATOM     32  H   UNL     1      49.425  16.494  26.536  1.00  0.00     0.211 HD
ENDBRANCH  26  31
BRANCH  28  33
ATOM     33  O   UNL     1      50.446  12.524  25.412  1.00  0.00    -0.387 OA
ATOM     34  H   UNL     1      50.504  12.434  24.427  1.00  0.00     0.211 HD
ENDBRANCH  28  33
BRANCH  29  35
ATOM     35  C   UNL     1      48.433  15.147  22.294  1.00  0.00     0.191 C 
BRANCH  35  36
ATOM     36  O   UNL     1      49.170  15.493  21.150  1.00  0.00    -0.394 OA
ATOM     37  H   UNL     1      48.784  14.979  20.392  1.00  0.00     0.210 HD
ENDBRANCH  35  36
ENDBRANCH  29  35
BRANCH  30  38
ATOM     38  O   UNL     1      47.525  14.607  25.027  1.00  0.00    -0.387 OA
ATOM     39  H   UNL     1      46.747  13.991  24.957  1.00  0.00     0.211 HD
ENDBRANCH  30  38
ENDBRANCH   1  25
TORSDOF 11
ENDMDL
MODEL 6
REMARK VINA RESULT:    -3.089      1.129      2.230
REMARK INTER + INTRA:          -5.343
REMARK INTER:                  -4.320
REMARK INTRA:                  -1.023
REMARK UNBOUND:                -0.899
REMARK SMILES O=c1cc(-c2ccc(O)c(O)c2)oc2cc(O[C@H]3O[C@H](CO)[C@H](O)[C@@H](O)[C@@H]3O)cc(O)c12
REMARK SMILES IDX 17 1 16 2 4 3 3 4 13 5 2 6 14 7 1 8 32 9 15 10 30 11 29 12
REMARK SMILES IDX 5 13 6 14 7 15 8 16 12 17 10 18 9 19 11 21 31 23 18 25 27 26
REMARK SMILES IDX 19 27 25 28 20 29 23 30 28 31 26 33 21 35 22 36 24 38
REMARK H PARENT 9 20 11 22 31 24 28 32 26 34 22 37 24 39
REMARK Flexibility Score: inf
ROOT
ATOM      1  O   UNL     1      53.363  15.669  25.520  1.00  0.00    -0.462 OA
ENDROOT
BRANCH   1   2
ATOM      2  C   UNL     1      54.760  15.786  25.441  1.00  0.00     0.130 A 
ATOM      3  C   UNL     1      58.559  16.031  22.567  1.00  0.00     0.138 A 
ATOM      4  C   UNL     1      59.454  16.086  23.650  1.00  0.00     0.100 A 
ATOM      5  O   UNL     1      57.251  15.953  22.803  1.00  0.00    -0.456 OA
ATOM      6  C   UNL     1      58.954  16.072  24.953  1.00  0.00     0.197 A 
ATOM      7  C   UNL     1      56.729  15.930  24.025  1.00  0.00     0.146 A 
ATOM      8  O   UNL     1      59.765  16.125  25.917  1.00  0.00    -0.289 OA
ATOM      9  C   UNL     1      57.563  15.991  25.165  1.00  0.00     0.107 A 
ATOM     10  C   UNL     1      55.343  15.839  24.173  1.00  0.00     0.094 A 
ATOM     11  C   UNL     1      56.977  15.959  26.452  1.00  0.00     0.134 A 
ATOM     12  C   UNL     1      55.584  15.854  26.579  1.00  0.00     0.093 A 
BRANCH   3  13
ATOM     13  C   UNL     1      59.030  16.039  21.157  1.00  0.00     0.021 A 
ATOM     14  C   UNL     1      60.397  16.094  20.831  1.00  0.00     0.016 A 
ATOM     15  C   UNL     1      60.804  16.108  19.494  1.00  0.00     0.051 A 
ATOM     16  C   UNL     1      59.864  16.076  18.456  1.00  0.00     0.157 A 
ATOM     17  C   UNL     1      58.087  16.016  20.114  1.00  0.00     0.062 A 
ATOM     18  C   UNL     1      58.487  16.030  18.771  1.00  0.00     0.158 A 
BRANCH  16  19
ATOM     19  O   UNL     1      60.339  16.098  17.143  1.00  0.00    -0.504 OA
ATOM     20  H   UNL     1      61.320  16.141  16.896  1.00  0.00     0.293 HD
ENDBRANCH  16  19
BRANCH  18  21
ATOM     21  O   UNL     1      57.490  15.993  17.790  1.00  0.00    -0.504 OA
ATOM     22  H   UNL     1      56.639  15.453  17.867  1.00  0.00     0.293 HD
ENDBRANCH  18  21
ENDBRANCH   3  13
BRANCH  11  23
ATOM     23  O   UNL     1      57.766  16.028  27.602  1.00  0.00    -0.507 OA
ATOM     24  H   UNL     1      58.085  15.196  28.084  1.00  0.00     0.293 HD
ENDBRANCH  11  23
ENDBRANCH   1   2
BRANCH   1  25
ATOM     25  C   UNL     1      52.575  14.607  24.963  1.00  0.00     0.339 C 
ATOM     26  C   UNL     1      51.052  14.866  25.136  1.00  0.00     0.214 C 
ATOM     27  O   UNL     1      52.954  13.362  25.524  1.00  0.00    -0.332 OA
ATOM     28  C   UNL     1      50.573  14.643  26.592  1.00  0.00     0.180 C 
ATOM     29  C   UNL     1      52.730  13.333  26.925  1.00  0.00     0.179 C 
ATOM     30  C   UNL     1      51.212  13.392  27.236  1.00  0.00     0.177 C 
BRANCH  26  31
ATOM     31  O   UNL     1      50.306  14.074  24.242  1.00  0.00    -0.384 OA
ATOM     32  H   UNL     1      49.424  13.885  24.658  1.00  0.00     0.211 HD
ENDBRANCH  26  31
BRANCH  28  33
ATOM     33  O   UNL     1      50.787  15.790  27.380  1.00  0.00    -0.387 OA
ATOM     34  H   UNL     1      50.569  16.589  26.836  1.00  0.00     0.211 HD
ENDBRANCH  28  33
BRANCH  29  35
ATOM     35  C   UNL     1      53.390  12.067  27.494  1.00  0.00     0.191 C 
BRANCH  35  36
ATOM     36  O   UNL     1      52.645  11.556  28.569  1.00  0.00    -0.394 OA
ATOM     37  H   UNL     1      51.986  12.255  28.823  1.00  0.00     0.210 HD
ENDBRANCH  35  36
ENDBRANCH  29  35
BRANCH  30  38
ATOM     38  O   UNL     1      50.562  12.245  26.746  1.00  0.00    -0.387 OA
ATOM     39  H   UNL     1      51.092  11.457  27.040  1.00  0.00     0.211 HD
ENDBRANCH  30  38
ENDBRANCH   1  25
TORSDOF 11
ENDMDL
MODEL 7
REMARK VINA RESULT:    -2.741      3.110      6.226
REMARK INTER + INTRA:          -4.841
REMARK INTER:                  -4.334
REMARK INTRA:                  -0.507
REMARK UNBOUND:                -0.899
REMARK SMILES O=c1cc(-c2ccc(O)c(O)c2)oc2cc(O[C@H]3O[C@H](CO)[C@H](O)[C@@H](O)[C@@H]3O)cc(O)c12
REMARK SMILES IDX 17 1 16 2 4 3 3 4 13 5 2 6 14 7 1 8 32 9 15 10 30 11 29 12
REMARK SMILES IDX 5 13 6 14 7 15 8 16 12 17 10 18 9 19 11 21 31 23 18 25 27 26
REMARK SMILES IDX 19 27 25 28 20 29 23 30 28 31 26 33 21 35 22 36 24 38
REMARK H PARENT 9 20 11 22 31 24 28 32 26 34 22 37 24 39
REMARK Flexibility Score: inf
ROOT
ATOM      1  O   UNL     1      50.063  14.499  27.222  1.00  0.00    -0.462 OA
ENDROOT
BRANCH   1   2
ATOM      2  C   UNL     1      50.948  14.832  26.183  1.00  0.00     0.130 A 
ATOM      3  C   UNL     1      55.475  15.711  24.966  1.00  0.00     0.138 A 
ATOM      4  C   UNL     1      55.129  15.983  23.631  1.00  0.00     0.100 A 
ATOM      5  O   UNL     1      54.521  15.375  25.833  1.00  0.00    -0.456 OA
ATOM      6  C   UNL     1      53.795  15.882  23.234  1.00  0.00     0.197 A 
ATOM      7  C   UNL     1      53.238  15.273  25.504  1.00  0.00     0.146 A 
ATOM      8  O   UNL     1      53.496  16.125  22.034  1.00  0.00    -0.289 OA
ATOM      9  C   UNL     1      52.813  15.522  24.178  1.00  0.00     0.107 A 
ATOM     10  C   UNL     1      52.308  14.923  26.485  1.00  0.00     0.094 A 
ATOM     11  C   UNL     1      51.439  15.411  23.862  1.00  0.00     0.134 A 
ATOM     12  C   UNL     1      50.519  15.071  24.865  1.00  0.00     0.093 A 
BRANCH   3  13
ATOM     13  C   UNL     1      56.878  15.804  25.450  1.00  0.00     0.021 A 
ATOM     14  C   UNL     1      57.191  15.802  26.821  1.00  0.00     0.016 A 
ATOM     15  C   UNL     1      58.520  15.899  27.241  1.00  0.00     0.051 A 
ATOM     16  C   UNL     1      59.562  16.009  26.312  1.00  0.00     0.157 A 
ATOM     17  C   UNL     1      57.924  15.923  24.518  1.00  0.00     0.062 A 
ATOM     18  C   UNL     1      59.259  16.021  24.931  1.00  0.00     0.158 A 
BRANCH  16  19
ATOM     19  O   UNL     1      60.867  16.108  26.801  1.00  0.00    -0.504 OA
ATOM     20  H   UNL     1      61.166  16.798  27.479  1.00  0.00     0.293 HD
ENDBRANCH  16  19
BRANCH  18  21
ATOM     21  O   UNL     1      60.245  16.125  23.944  1.00  0.00    -0.504 OA
ATOM     22  H   UNL     1      60.535  16.997  23.523  1.00  0.00     0.293 HD
ENDBRANCH  18  21
ENDBRANCH   3  13
BRANCH  11  23
ATOM     23  O   UNL     1      50.981  15.638  22.562  1.00  0.00    -0.507 OA
ATOM     24  H   UNL     1      50.328  16.382  22.347  1.00  0.00     0.293 HD
ENDBRANCH  11  23
ENDBRANCH   1   2
BRANCH   1  25
ATOM     25  C   UNL     1      49.115  13.422  27.206  1.00  0.00     0.339 C 
ATOM     26  C   UNL     1      47.799  13.823  26.482  1.00  0.00     0.214 C 
ATOM     27  O   UNL     1      48.861  12.965  28.523  1.00  0.00    -0.332 OA
ATOM     28  C   UNL     1      46.916  14.769  27.334  1.00  0.00     0.180 C 
ATOM     29  C   UNL     1      48.292  13.986  29.329  1.00  0.00     0.179 C 
ATOM     30  C   UNL     1      46.872  14.353  28.822  1.00  0.00     0.177 C 
BRANCH  26  31
ATOM     31  O   UNL     1      47.071  12.680  26.099  1.00  0.00    -0.384 OA
ATOM     32  H   UNL     1      47.062  12.638  25.106  1.00  0.00     0.211 HD
ENDBRANCH  26  31
BRANCH  28  33
ATOM     33  O   UNL     1      47.322  16.111  27.191  1.00  0.00    -0.387 OA
ATOM     34  H   UNL     1      47.347  16.527  28.089  1.00  0.00     0.211 HD
ENDBRANCH  28  33
BRANCH  29  35
ATOM     35  C   UNL     1      48.281  13.503  30.787  1.00  0.00     0.191 C 
BRANCH  35  36
ATOM     36  O   UNL     1      47.278  12.540  30.985  1.00  0.00    -0.394 OA
ATOM     37  H   UNL     1      47.116  12.105  30.107  1.00  0.00     0.210 HD
ENDBRANCH  35  36
ENDBRANCH  29  35
BRANCH  30  38
ATOM     38  O   UNL     1      46.000  13.259  28.963  1.00  0.00    -0.387 OA
ATOM     39  H   UNL     1      46.561  12.447  29.087  1.00  0.00     0.211 HD
ENDBRANCH  30  38
ENDBRANCH   1  25
TORSDOF 11
ENDMDL
MODEL 8
REMARK VINA RESULT:    -2.637      2.435      4.046
REMARK INTER + INTRA:          -4.692
REMARK INTER:                  -4.056
REMARK INTRA:                  -0.636
REMARK UNBOUND:                -0.899
REMARK SMILES O=c1cc(-c2ccc(O)c(O)c2)oc2cc(O[C@H]3O[C@H](CO)[C@H](O)[C@@H](O)[C@@H]3O)cc(O)c12
REMARK SMILES IDX 17 1 16 2 4 3 3 4 13 5 2 6 14 7 1 8 32 9 15 10 30 11 29 12
REMARK SMILES IDX 5 13 6 14 7 15 8 16 12 17 10 18 9 19 11 21 31 23 18 25 27 26
REMARK SMILES IDX 19 27 25 28 20 29 23 30 28 31 26 33 21 35 22 36 24 38
REMARK H PARENT 9 20 11 22 31 24 28 32 26 34 22 37 24 39
REMARK Flexibility Score: inf
ROOT
ATOM      1  O   UNL     1      51.646  15.052  25.003  1.00  0.00    -0.462 OA
ENDROOT
BRANCH   1   2
ATOM      2  C   UNL     1      52.856  15.072  25.716  1.00  0.00     0.130 A 
ATOM      3  C   UNL     1      57.603  15.454  25.452  1.00  0.00     0.138 A 
ATOM      4  C   UNL     1      57.758  15.275  26.837  1.00  0.00     0.100 A 
ATOM      5  O   UNL     1      56.381  15.443  24.924  1.00  0.00    -0.456 OA
ATOM      6  C   UNL     1      56.627  15.104  27.637  1.00  0.00     0.197 A 
ATOM      7  C   UNL     1      55.275  15.276  25.643  1.00  0.00     0.146 A 
ATOM      8  O   UNL     1      56.776  14.948  28.879  1.00  0.00    -0.289 OA
ATOM      9  C   UNL     1      55.348  15.099  27.044  1.00  0.00     0.107 A 
ATOM     10  C   UNL     1      54.037  15.270  24.998  1.00  0.00     0.094 A 
ATOM     11  C   UNL     1      54.154  14.918  27.779  1.00  0.00     0.134 A 
ATOM     12  C   UNL     1      52.921  14.903  27.111  1.00  0.00     0.093 A 
BRANCH   3  13
ATOM     13  C   UNL     1      58.769  15.638  24.548  1.00  0.00     0.021 A 
ATOM     14  C   UNL     1      58.618  15.730  23.152  1.00  0.00     0.016 A 
ATOM     15  C   UNL     1      59.737  15.895  22.331  1.00  0.00     0.051 A 
ATOM     16  C   UNL     1      61.025  15.963  22.876  1.00  0.00     0.157 A 
ATOM     17  C   UNL     1      60.064  15.698  25.092  1.00  0.00     0.062 A 
ATOM     18  C   UNL     1      61.191  15.864  24.276  1.00  0.00     0.158 A 
BRANCH  16  19
ATOM     19  O   UNL     1      62.099  16.123  21.997  1.00  0.00    -0.504 OA
ATOM     20  H   UNL     1      62.163  15.671  21.094  1.00  0.00     0.293 HD
ENDBRANCH  16  19
BRANCH  18  21
ATOM     21  O   UNL     1      62.444  15.926  24.894  1.00  0.00    -0.504 OA
ATOM     22  H   UNL     1      62.592  15.815  25.887  1.00  0.00     0.293 HD
ENDBRANCH  18  21
ENDBRANCH   3  13
BRANCH  11  23
ATOM     23  O   UNL     1      54.183  14.752  29.165  1.00  0.00    -0.507 OA
ATOM     24  H   UNL     1      55.054  14.734  29.685  1.00  0.00     0.293 HD
ENDBRANCH  11  23
ENDBRANCH   1   2
BRANCH   1  25
ATOM     25  C   UNL     1      50.341  14.857  25.566  1.00  0.00     0.339 C 
ATOM     26  C   UNL     1      50.108  13.377  25.982  1.00  0.00     0.214 C 
ATOM     27  O   UNL     1      49.341  15.305  24.668  1.00  0.00    -0.332 OA
ATOM     28  C   UNL     1      49.871  12.448  24.764  1.00  0.00     0.180 C 
ATOM     29  C   UNL     1      49.365  14.572  23.453  1.00  0.00     0.179 C 
ATOM     30  C   UNL     1      48.958  13.095  23.700  1.00  0.00     0.177 C 
BRANCH  26  31
ATOM     31  O   UNL     1      49.041  13.277  26.895  1.00  0.00    -0.384 OA
ATOM     32  H   UNL     1      49.286  12.605  27.585  1.00  0.00     0.211 HD
ENDBRANCH  26  31
BRANCH  28  33
ATOM     33  O   UNL     1      51.092  12.026  24.202  1.00  0.00    -0.387 OA
ATOM     34  H   UNL     1      50.924  11.744  23.267  1.00  0.00     0.211 HD
ENDBRANCH  28  33
BRANCH  29  35
ATOM     35  C   UNL     1      48.437  15.270  22.448  1.00  0.00     0.191 C 
BRANCH  35  36
ATOM     36  O   UNL     1      49.162  15.740  21.341  1.00  0.00    -0.394 OA
ATOM     37  H   UNL     1      48.658  16.511  20.970  1.00  0.00     0.210 HD
ENDBRANCH  35  36
ENDBRANCH  29  35
BRANCH  30  38
ATOM     38  O   UNL     1      47.623  13.018  24.137  1.00  0.00    -0.387 OA
ATOM     39  H   UNL     1      47.363  12.059  24.125  1.00  0.00     0.211 HD
ENDBRANCH  30  38
ENDBRANCH   1  25
TORSDOF 11
ENDMDL
