MODEL 1
REMARK VINA RESULT:     5.271      0.000      0.000
REMARK INTER + INTRA:           7.814
REMARK INTER:                   7.428
REMARK INTRA:                   0.386
REMARK UNBOUND:                 0.386
REMARK SMILES CC1=CCC(=C(C)C)C(=O)CC(C)=CCC1
REMARK SMILES IDX 12 1 14 2 13 3 15 4 16 5 2 6 1 7 3 8 11 10 9 11 10 12 5 13
REMARK SMILES IDX 6 14 7 15 8 16 4 17
REMARK H PARENT
REMARK Flexibility Score: 60.00
ROOT
ATOM      1  C   UNL     1      11.700  36.641 -18.620  1.00  0.00    -0.070 C 
ATOM      2  C   UNL     1      11.346  37.875 -19.040  1.00  0.00    -0.027 C 
ATOM      3  C   UNL     1      11.822  35.551 -19.655  1.00  0.00     0.039 C 
ENDROOT
BRANCH   2   4
ATOM      4  C   UNL     1      11.080  39.069 -18.149  1.00  0.00     0.032 C 
BRANCH   4   5
ATOM      5  C   UNL     1      12.323  39.625 -17.423  1.00  0.00     0.034 C 
BRANCH   5   6
ATOM      6  C   UNL     1      12.116  39.791 -15.928  1.00  0.00    -0.077 C 
ATOM      7  C   UNL     1      10.977  40.669 -15.471  1.00  0.00     0.039 C 
ATOM      8  C   UNL     1      12.925  39.260 -14.981  1.00  0.00    -0.023 CG0
ATOM      9  G   UNL     1      14.110  38.339 -15.202  1.00  0.00     0.000 G0
ENDBRANCH   5   6
ENDBRANCH   4   5
ENDBRANCH   2   4
BRANCH   1  10
ATOM     10  C   UNL     1      11.888  36.282 -17.161  1.00  0.00     0.111 C 
BRANCH  10  11
ATOM     11  C   UNL     1      13.322  36.439 -16.730  1.00  0.00     0.163 C 
ATOM     12  O   UNL     1      14.227  36.124 -17.552  1.00  0.00    -0.294 OA
BRANCH  11  13
ATOM     13  C   UNL     1      13.704  36.889 -15.359  1.00  0.00    -0.002 C 
ATOM     14  C   UNL     1      13.604  36.041 -14.292  1.00  0.00    -0.069 C 
ATOM     15  C   UNL     1      13.257  34.581 -14.480  1.00  0.00     0.039 C 
ATOM     16  C   UNL     1      13.831  36.512 -12.871  1.00  0.00     0.039 C 
BRANCH  13  17
ATOM     17  C   UNL     1      14.112  38.344 -15.194  1.00  0.00     0.066 CG0
ATOM     18  G   UNL     1      12.919  39.258 -14.986  1.00  0.00     0.000 G0
ENDBRANCH  13  17
ENDBRANCH  11  13
ENDBRANCH  10  11
ENDBRANCH   1  10
TORSDOF 0
ENDMDL
MODEL 2
REMARK VINA RESULT:     6.345      1.627      4.458
REMARK INTER + INTRA:           9.327
REMARK INTER:                   7.888
REMARK INTRA:                   1.439
REMARK UNBOUND:                 0.386
REMARK SMILES CC1=CCC(=C(C)C)C(=O)CC(C)=CCC1
REMARK SMILES IDX 12 1 14 2 13 3 15 4 16 5 2 6 1 7 3 8 11 10 9 11 10 12 5 13
REMARK SMILES IDX 6 14 7 15 8 16 4 17
REMARK H PARENT
REMARK Flexibility Score: 60.00
ROOT
ATOM      1  C   UNL     1      11.852  39.745 -16.015  1.00  0.00    -0.070 C 
ATOM      2  C   UNL     1      12.854  39.553 -15.129  1.00  0.00    -0.027 C 
ATOM      3  C   UNL     1      10.695  40.617 -15.595  1.00  0.00     0.039 C 
ENDROOT
BRANCH   2   4
ATOM      4  C   UNL     1      14.045  38.641 -15.326  1.00  0.00     0.032 C 
BRANCH   4   5
ATOM      5  C   UNL     1      14.287  37.634 -14.183  1.00  0.00     0.034 C 
BRANCH   5   6
ATOM      6  C   UNL     1      13.977  36.201 -14.574  1.00  0.00    -0.077 C 
ATOM      7  C   UNL     1      13.702  35.215 -13.465  1.00  0.00     0.039 C 
ATOM      8  C   UNL     1      13.997  35.734 -15.846  1.00  0.00    -0.023 CG0
ATOM      9  G   UNL     1      14.230  36.537 -17.111  1.00  0.00     0.000 G0
ENDBRANCH   5   6
ENDBRANCH   4   5
ENDBRANCH   2   4
BRANCH   1  10
ATOM     10  C   UNL     1      11.793  39.058 -17.364  1.00  0.00     0.111 C 
BRANCH  10  11
ATOM     11  C   UNL     1      11.877  37.561 -17.229  1.00  0.00     0.163 C 
ATOM     12  O   UNL     1      11.049  36.986 -16.471  1.00  0.00    -0.294 OA
BRANCH  11  13
ATOM     13  C   UNL     1      12.933  36.752 -17.906  1.00  0.00    -0.002 C 
ATOM     14  C   UNL     1      12.702  36.181 -19.126  1.00  0.00    -0.069 C 
ATOM     15  C   UNL     1      11.436  36.472 -19.902  1.00  0.00     0.039 C 
ATOM     16  C   UNL     1      13.690  35.229 -19.765  1.00  0.00     0.039 C 
BRANCH  13  17
ATOM     17  C   UNL     1      14.227  36.519 -17.142  1.00  0.00     0.066 CG0
ATOM     18  G   UNL     1      14.006  35.747 -15.856  1.00  0.00     0.000 G0
ENDBRANCH  13  17
ENDBRANCH  11  13
ENDBRANCH  10  11
ENDBRANCH   1  10
TORSDOF 0
ENDMDL
MODEL 3
REMARK VINA RESULT:     6.600      1.357      3.938
REMARK INTER + INTRA:           9.686
REMARK INTER:                   8.228
REMARK INTRA:                   1.458
REMARK UNBOUND:                 0.386
REMARK SMILES CC1=CCC(=C(C)C)C(=O)CC(C)=CCC1
REMARK SMILES IDX 12 1 14 2 13 3 15 4 16 5 2 6 1 7 3 8 11 10 9 11 10 12 5 13
REMARK SMILES IDX 6 14 7 15 8 16 4 17
REMARK H PARENT
REMARK Flexibility Score: 60.00
ROOT
ATOM      1  C   UNL     1      13.300  36.444 -14.874  1.00  0.00    -0.070 C 
ATOM      2  C   UNL     1      13.926  37.639 -14.787  1.00  0.00    -0.027 C 
ATOM      3  C   UNL     1      13.672  35.377 -13.875  1.00  0.00     0.039 C 
ENDROOT
BRANCH   2   4
ATOM      4  C   UNL     1      13.762  38.795 -15.749  1.00  0.00     0.032 C 
BRANCH   4   5
ATOM      5  C   UNL     1      12.853  39.935 -15.244  1.00  0.00     0.034 C 
BRANCH   5   6
ATOM      6  C   UNL     1      11.443  39.866 -15.800  1.00  0.00    -0.077 C 
ATOM      7  C   UNL     1      10.317  40.347 -14.918  1.00  0.00     0.039 C 
ATOM      8  C   UNL     1      11.121  39.340 -17.006  1.00  0.00    -0.023 CG0
ATOM      9  G   UNL     1      12.079  38.816 -18.060  1.00  0.00     0.000 G0
ENDBRANCH   5   6
ENDBRANCH   4   5
ENDBRANCH   2   4
BRANCH   1  10
ATOM     10  C   UNL     1      12.319  36.099 -15.974  1.00  0.00     0.111 C 
BRANCH  10  11
ATOM     11  C   UNL     1      12.839  36.500 -17.330  1.00  0.00     0.163 C 
ATOM     12  O   UNL     1      14.012  36.155 -17.641  1.00  0.00    -0.294 OA
BRANCH  11  13
ATOM     13  C   UNL     1      12.045  37.334 -18.279  1.00  0.00    -0.002 C 
ATOM     14  C   UNL     1      11.384  36.762 -19.329  1.00  0.00    -0.069 C 
ATOM     15  C   UNL     1      11.303  35.258 -19.479  1.00  0.00     0.039 C 
ATOM     16  C   UNL     1      10.704  37.592 -20.396  1.00  0.00     0.039 C 
BRANCH  13  17
ATOM     17  C   UNL     1      12.084  38.841 -18.079  1.00  0.00     0.066 CG0
ATOM     18  G   UNL     1      11.116  39.306 -17.008  1.00  0.00     0.000 G0
ENDBRANCH  13  17
ENDBRANCH  11  13
ENDBRANCH  10  11
ENDBRANCH   1  10
TORSDOF 0
ENDMDL
MODEL 4
REMARK VINA RESULT:     7.218      1.445      3.659
REMARK INTER + INTRA:          10.557
REMARK INTER:                   9.315
REMARK INTRA:                   1.242
REMARK UNBOUND:                 0.386
REMARK SMILES CC1=CCC(=C(C)C)C(=O)CC(C)=CCC1
REMARK SMILES IDX 12 1 14 2 13 3 15 4 16 5 2 6 1 7 3 8 11 10 9 11 10 12 5 13
REMARK SMILES IDX 6 14 7 15 8 16 4 17
REMARK H PARENT
REMARK Flexibility Score: 60.00
ROOT
ATOM      1  C   UNL     1      12.262  36.451 -18.575  1.00  0.00    -0.070 C 
ATOM      2  C   UNL     1      13.559  36.133 -18.369  1.00  0.00    -0.027 C 
ATOM      3  C   UNL     1      11.683  36.201 -19.945  1.00  0.00     0.039 C 
ENDROOT
BRANCH   2   4
ATOM      4  C   UNL     1      14.343  36.396 -17.101  1.00  0.00     0.032 C 
BRANCH   4   5
ATOM      5  C   UNL     1      13.724  35.797 -15.821  1.00  0.00     0.034 C 
BRANCH   5   6
ATOM      6  C   UNL     1      13.790  36.735 -14.630  1.00  0.00    -0.077 C 
ATOM      7  C   UNL     1      13.879  36.118 -13.256  1.00  0.00     0.039 C 
ATOM      8  C   UNL     1      13.706  38.084 -14.714  1.00  0.00    -0.023 CG0
ATOM      9  G   UNL     1      13.629  38.919 -15.978  1.00  0.00     0.000 G0
ENDBRANCH   5   6
ENDBRANCH   4   5
ENDBRANCH   2   4
BRANCH   1  10
ATOM     10  C   UNL     1      11.396  37.124 -17.531  1.00  0.00     0.111 C 
BRANCH  10  11
ATOM     11  C   UNL     1      11.609  38.615 -17.509  1.00  0.00     0.163 C 
ATOM     12  O   UNL     1      11.310  39.273 -18.543  1.00  0.00    -0.294 OA
BRANCH  11  13
ATOM     13  C   UNL     1      12.214  39.322 -16.341  1.00  0.00    -0.002 C 
ATOM     14  C   UNL     1      11.540  40.329 -15.708  1.00  0.00    -0.069 C 
ATOM     15  C   UNL     1      10.106  40.658 -16.063  1.00  0.00     0.039 C 
ATOM     16  C   UNL     1      12.186  41.168 -14.627  1.00  0.00     0.039 C 
BRANCH  13  17
ATOM     17  C   UNL     1      13.633  38.938 -15.955  1.00  0.00     0.066 CG0
ATOM     18  G   UNL     1      13.679  38.085 -14.702  1.00  0.00     0.000 G0
ENDBRANCH  13  17
ENDBRANCH  11  13
ENDBRANCH  10  11
ENDBRANCH   1  10
TORSDOF 0
ENDMDL
