MODEL 1
REMARK VINA RESULT:    -4.213      0.000      0.000
REMARK INTER + INTRA:         -10.350
REMARK INTER:                  -8.154
REMARK INTRA:                  -2.196
REMARK UNBOUND:                -2.196
REMARK SMILES CCCCCCCCCCCCCCCCCC(=O)[O-]
REMARK SMILES IDX 10 1 11 2 12 3 13 4 14 5 15 6 16 7 17 8 18 9 19 10 20 11
REMARK SMILES IDX 9 12 8 13 7 14 6 15 5 16 4 17 3 18 2 19 1 20
REMARK H PARENT
REMARK Flexibility Score: inf
ROOT
ATOM      1  C   UNL     1      44.189  12.127  23.366  1.00  0.00     0.000 C 
ENDROOT
BRANCH   1   2
ATOM      2  C   UNL     1      43.911  11.159  22.202  1.00  0.00     0.000 C 
BRANCH   2   3
ATOM      3  C   UNL     1      45.185  10.742  21.453  1.00  0.00     0.000 C 
BRANCH   3   4
ATOM      4  C   UNL     1      45.005   9.377  20.781  1.00  0.00     0.000 C 
BRANCH   4   5
ATOM      5  C   UNL     1      44.615   8.305  21.806  1.00  0.00     0.000 C 
BRANCH   5   6
ATOM      6  C   UNL     1      45.851   7.767  22.538  1.00  0.00     0.000 C 
BRANCH   6   7
ATOM      7  C   UNL     1      45.771   8.061  24.043  1.00  0.00     0.006 C 
BRANCH   7   8
ATOM      8  C   UNL     1      44.344   8.401  24.493  1.00  0.00     0.053 C 
BRANCH   8   9
ATOM      9  C   UNL     1      44.339   9.321  25.676  1.00  0.00     0.041 C 
ATOM     10  O   UNL     1      43.305   9.435  26.385  1.00  0.00    -0.550 OA
ATOM     11  O   UNL     1      45.486  10.028  26.014  1.00  0.00    -0.550 OA
ENDBRANCH   8   9
ENDBRANCH   7   8
ENDBRANCH   6   7
ENDBRANCH   5   6
ENDBRANCH   4   5
ENDBRANCH   3   4
ENDBRANCH   2   3
ENDBRANCH   1   2
BRANCH   1  12
ATOM     12  C   UNL     1      45.590  12.770  23.357  1.00  0.00     0.000 C 
BRANCH  12  13
ATOM     13  C   UNL     1      45.636  14.224  22.850  1.00  0.00    -0.000 C 
BRANCH  13  14
ATOM     14  C   UNL     1      45.622  14.382  21.315  1.00  0.00    -0.000 C 
BRANCH  14  15
ATOM     15  C   UNL     1      45.495  15.830  20.807  1.00  0.00    -0.000 C 
BRANCH  15  16
ATOM     16  C   UNL     1      44.329  16.593  21.459  1.00  0.00    -0.000 C 
BRANCH  16  17
ATOM     17  C   UNL     1      43.012  16.459  20.674  1.00  0.00    -0.000 C 
BRANCH  17  18
ATOM     18  C   UNL     1      41.761  16.188  21.531  1.00  0.00    -0.000 C 
BRANCH  18  19
ATOM     19  C   UNL     1      42.014  15.174  22.656  1.00  0.00    -0.003 C 
ATOM     20  C   UNL     1      41.225  13.887  22.424  1.00  0.00     0.004 C 
ENDBRANCH  18  19
ENDBRANCH  17  18
ENDBRANCH  16  17
ENDBRANCH  15  16
ENDBRANCH  14  15
ENDBRANCH  13  14
ENDBRANCH  12  13
ENDBRANCH   1  12
TORSDOF 16
ENDMDL
MODEL 2
REMARK VINA RESULT:    -4.200      2.423      4.271
REMARK INTER + INTRA:         -10.325
REMARK INTER:                  -7.151
REMARK INTRA:                  -3.173
REMARK UNBOUND:                -2.196
REMARK SMILES CCCCCCCCCCCCCCCCCC(=O)[O-]
REMARK SMILES IDX 10 1 11 2 12 3 13 4 14 5 15 6 16 7 17 8 18 9 19 10 20 11
REMARK SMILES IDX 9 12 8 13 7 14 6 15 5 16 4 17 3 18 2 19 1 20
REMARK H PARENT
REMARK Flexibility Score: inf
ROOT
ATOM      1  C   UNL     1      41.338  15.221  24.820  1.00  0.00     0.000 C 
ENDROOT
BRANCH   1   2
ATOM      2  C   UNL     1      40.855  13.856  25.340  1.00  0.00     0.000 C 
BRANCH   2   3
ATOM      3  C   UNL     1      41.294  12.686  24.446  1.00  0.00     0.000 C 
BRANCH   3   4
ATOM      4  C   UNL     1      41.780  13.191  23.083  1.00  0.00     0.000 C 
BRANCH   4   5
ATOM      5  C   UNL     1      43.048  12.450  22.641  1.00  0.00     0.000 C 
BRANCH   5   6
ATOM      6  C   UNL     1      43.620  11.605  23.786  1.00  0.00     0.000 C 
BRANCH   6   7
ATOM      7  C   UNL     1      45.123  11.357  23.590  1.00  0.00     0.006 C 
BRANCH   7   8
ATOM      8  C   UNL     1      45.495  11.182  22.112  1.00  0.00     0.053 C 
BRANCH   8   9
ATOM      9  C   UNL     1      45.492   9.741  21.705  1.00  0.00     0.041 C 
ATOM     10  O   UNL     1      45.877   8.854  22.512  1.00  0.00    -0.550 OA
ATOM     11  O   UNL     1      45.034   9.372  20.447  1.00  0.00    -0.550 OA
ENDBRANCH   8   9
ENDBRANCH   7   8
ENDBRANCH   6   7
ENDBRANCH   5   6
ENDBRANCH   4   5
ENDBRANCH   3   4
ENDBRANCH   2   3
ENDBRANCH   1   2
BRANCH   1  12
ATOM     12  C   UNL     1      42.451  15.880  25.658  1.00  0.00     0.000 C 
BRANCH  12  13
ATOM     13  C   UNL     1      43.334  14.900  26.455  1.00  0.00    -0.000 C 
BRANCH  13  14
ATOM     14  C   UNL     1      44.619  14.444  25.734  1.00  0.00    -0.000 C 
BRANCH  14  15
ATOM     15  C   UNL     1      45.245  15.484  24.787  1.00  0.00    -0.000 C 
BRANCH  15  16
ATOM     16  C   UNL     1      45.949  14.846  23.579  1.00  0.00    -0.000 C 
BRANCH  16  17
ATOM     17  C   UNL     1      45.423  15.372  22.231  1.00  0.00    -0.000 C 
BRANCH  17  18
ATOM     18  C   UNL     1      44.070  16.104  22.294  1.00  0.00    -0.000 C 
BRANCH  18  19
ATOM     19  C   UNL     1      43.434  16.308  20.912  1.00  0.00    -0.003 C 
ATOM     20  C   UNL     1      41.941  16.605  21.032  1.00  0.00     0.004 C 
ENDBRANCH  18  19
ENDBRANCH  17  18
ENDBRANCH  16  17
ENDBRANCH  15  16
ENDBRANCH  14  15
ENDBRANCH  13  14
ENDBRANCH  12  13
ENDBRANCH   1  12
TORSDOF 16
ENDMDL
MODEL 3
REMARK VINA RESULT:    -4.184      1.871      4.828
REMARK INTER + INTRA:         -10.294
REMARK INTER:                  -8.185
REMARK INTRA:                  -2.110
REMARK UNBOUND:                -2.196
REMARK SMILES CCCCCCCCCCCCCCCCCC(=O)[O-]
REMARK SMILES IDX 10 1 11 2 12 3 13 4 14 5 15 6 16 7 17 8 18 9 19 10 20 11
REMARK SMILES IDX 9 12 8 13 7 14 6 15 5 16 4 17 3 18 2 19 1 20
REMARK H PARENT
REMARK Flexibility Score: inf
ROOT
ATOM      1  C   UNL     1      44.223  16.422  21.298  1.00  0.00     0.000 C 
ENDROOT
BRANCH   1   2
ATOM      2  C   UNL     1      45.125  15.604  20.357  1.00  0.00     0.000 C 
BRANCH   2   3
ATOM      3  C   UNL     1      46.061  14.647  21.108  1.00  0.00     0.000 C 
BRANCH   3   4
ATOM      4  C   UNL     1      45.603  14.456  22.558  1.00  0.00     0.000 C 
BRANCH   4   5
ATOM      5  C   UNL     1      45.598  12.972  22.944  1.00  0.00     0.000 C 
BRANCH   5   6
ATOM      6  C   UNL     1      44.893  12.127  21.877  1.00  0.00     0.000 C 
BRANCH   6   7
ATOM      7  C   UNL     1      45.777  10.951  21.434  1.00  0.00     0.006 C 
BRANCH   7   8
ATOM      8  C   UNL     1      44.949   9.758  20.937  1.00  0.00     0.053 C 
BRANCH   8   9
ATOM      9  C   UNL     1      45.085   8.572  21.842  1.00  0.00     0.041 C 
ATOM     10  O   UNL     1      44.549   7.476  21.534  1.00  0.00    -0.550 OA
ATOM     11  O   UNL     1      45.831   8.669  23.010  1.00  0.00    -0.550 OA
ENDBRANCH   8   9
ENDBRANCH   7   8
ENDBRANCH   6   7
ENDBRANCH   5   6
ENDBRANCH   4   5
ENDBRANCH   3   4
ENDBRANCH   2   3
ENDBRANCH   1   2
BRANCH   1  12
ATOM     12  C   UNL     1      42.829  16.759  20.735  1.00  0.00     0.000 C 
BRANCH  12  13
ATOM     13  C   UNL     1      41.649  16.114  21.488  1.00  0.00    -0.000 C 
BRANCH  13  14
ATOM     14  C   UNL     1      42.032  15.345  22.769  1.00  0.00    -0.000 C 
BRANCH  14  15
ATOM     15  C   UNL     1      41.820  13.822  22.708  1.00  0.00    -0.000 C 
BRANCH  15  16
ATOM     16  C   UNL     1      40.833  13.311  23.771  1.00  0.00    -0.000 C 
BRANCH  16  17
ATOM     17  C   UNL     1      41.514  12.982  25.112  1.00  0.00    -0.000 C 
BRANCH  17  18
ATOM     18  C   UNL     1      41.701  11.481  25.402  1.00  0.00    -0.000 C 
BRANCH  18  19
ATOM     19  C   UNL     1      42.886  10.867  24.643  1.00  0.00    -0.003 C 
ATOM     20  C   UNL     1      43.575   9.789  25.476  1.00  0.00     0.004 C 
ENDBRANCH  18  19
ENDBRANCH  17  18
ENDBRANCH  16  17
ENDBRANCH  15  16
ENDBRANCH  14  15
ENDBRANCH  13  14
ENDBRANCH  12  13
ENDBRANCH   1  12
TORSDOF 16
ENDMDL
MODEL 4
REMARK VINA RESULT:    -4.138      2.900      6.872
REMARK INTER + INTRA:         -10.204
REMARK INTER:                  -7.398
REMARK INTRA:                  -2.806
REMARK UNBOUND:                -2.196
REMARK SMILES CCCCCCCCCCCCCCCCCC(=O)[O-]
REMARK SMILES IDX 10 1 11 2 12 3 13 4 14 5 15 6 16 7 17 8 18 9 19 10 20 11
REMARK SMILES IDX 9 12 8 13 7 14 6 15 5 16 4 17 3 18 2 19 1 20
REMARK H PARENT
REMARK Flexibility Score: inf
ROOT
ATOM      1  C   UNL     1      44.131  12.075  24.590  1.00  0.00     0.000 C 
ENDROOT
BRANCH   1   2
ATOM      2  C   UNL     1      42.805  11.445  24.126  1.00  0.00     0.000 C 
BRANCH   2   3
ATOM      3  C   UNL     1      41.577  12.071  24.803  1.00  0.00     0.000 C 
BRANCH   3   4
ATOM      4  C   UNL     1      41.067  13.277  24.005  1.00  0.00     0.000 C 
BRANCH   4   5
ATOM      5  C   UNL     1      41.135  14.560  24.841  1.00  0.00     0.000 C 
BRANCH   5   6
ATOM      6  C   UNL     1      42.111  15.569  24.224  1.00  0.00     0.000 C 
BRANCH   6   7
ATOM      7  C   UNL     1      42.659  15.055  22.885  1.00  0.00     0.006 C 
BRANCH   7   8
ATOM      8  C   UNL     1      44.095  15.531  22.625  1.00  0.00     0.053 C 
BRANCH   8   9
ATOM      9  C   UNL     1      44.333  15.809  21.172  1.00  0.00     0.041 C 
ATOM     10  O   UNL     1      45.415  15.462  20.630  1.00  0.00    -0.550 OA
ATOM     11  O   UNL     1      43.348  16.422  20.409  1.00  0.00    -0.550 OA
ENDBRANCH   8   9
ENDBRANCH   7   8
ENDBRANCH   6   7
ENDBRANCH   5   6
ENDBRANCH   4   5
ENDBRANCH   3   4
ENDBRANCH   2   3
ENDBRANCH   1   2
BRANCH   1  12
ATOM     12  C   UNL     1      45.230  12.148  23.512  1.00  0.00     0.000 C 
BRANCH  12  13
ATOM     13  C   UNL     1      44.748  11.886  22.072  1.00  0.00    -0.000 C 
BRANCH  13  14
ATOM     14  C   UNL     1      45.407  10.679  21.371  1.00  0.00    -0.000 C 
BRANCH  14  15
ATOM     15  C   UNL     1      44.459   9.509  21.054  1.00  0.00    -0.000 C 
BRANCH  15  16
ATOM     16  C   UNL     1      44.306   8.527  22.228  1.00  0.00    -0.000 C 
BRANCH  16  17
ATOM     17  C   UNL     1      45.651   8.163  22.884  1.00  0.00    -0.000 C 
BRANCH  17  18
ATOM     18  C   UNL     1      45.670   8.229  24.422  1.00  0.00    -0.000 C 
BRANCH  18  19
ATOM     19  C   UNL     1      44.265   8.280  25.038  1.00  0.00    -0.003 C 
ATOM     20  C   UNL     1      44.306   8.837  26.459  1.00  0.00     0.004 C 
ENDBRANCH  18  19
ENDBRANCH  17  18
ENDBRANCH  16  17
ENDBRANCH  15  16
ENDBRANCH  14  15
ENDBRANCH  13  14
ENDBRANCH  12  13
ENDBRANCH   1  12
TORSDOF 16
ENDMDL
MODEL 5
REMARK VINA RESULT:    -4.065      1.933      4.181
REMARK INTER + INTRA:         -10.062
REMARK INTER:                  -7.591
REMARK INTRA:                  -2.471
REMARK UNBOUND:                -2.196
REMARK SMILES CCCCCCCCCCCCCCCCCC(=O)[O-]
REMARK SMILES IDX 10 1 11 2 12 3 13 4 14 5 15 6 16 7 17 8 18 9 19 10 20 11
REMARK SMILES IDX 9 12 8 13 7 14 6 15 5 16 4 17 3 18 2 19 1 20
REMARK H PARENT
REMARK Flexibility Score: inf
ROOT
ATOM      1  C   UNL     1      41.715  15.509  23.567  1.00  0.00     0.000 C 
ENDROOT
BRANCH   1   2
ATOM      2  C   UNL     1      41.646  14.314  24.534  1.00  0.00     0.000 C 
BRANCH   2   3
ATOM      3  C   UNL     1      41.341  12.987  23.825  1.00  0.00     0.000 C 
BRANCH   3   4
ATOM      4  C   UNL     1      42.053  11.818  24.516  1.00  0.00     0.000 C 
BRANCH   4   5
ATOM      5  C   UNL     1      43.459  11.612  23.940  1.00  0.00     0.000 C 
BRANCH   5   6
ATOM      6  C   UNL     1      43.405  11.368  22.428  1.00  0.00     0.000 C 
BRANCH   6   7
ATOM      7  C   UNL     1      44.797  11.025  21.875  1.00  0.00     0.006 C 
BRANCH   7   8
ATOM      8  C   UNL     1      44.772   9.791  20.963  1.00  0.00     0.053 C 
BRANCH   8   9
ATOM      9  C   UNL     1      44.554   8.530  21.741  1.00  0.00     0.041 C 
ATOM     10  O   UNL     1      45.084   8.384  22.873  1.00  0.00    -0.550 OA
ATOM     11  O   UNL     1      43.739   7.527  21.230  1.00  0.00    -0.550 OA
ENDBRANCH   8   9
ENDBRANCH   7   8
ENDBRANCH   6   7
ENDBRANCH   5   6
ENDBRANCH   4   5
ENDBRANCH   3   4
ENDBRANCH   2   3
ENDBRANCH   1   2
BRANCH   1  12
ATOM     12  C   UNL     1      42.060  15.147  22.108  1.00  0.00     0.000 C 
BRANCH  12  13
ATOM     13  C   UNL     1      42.337  16.350  21.187  1.00  0.00    -0.000 C 
BRANCH  13  14
ATOM     14  C   UNL     1      43.742  16.375  20.549  1.00  0.00    -0.000 C 
BRANCH  14  15
ATOM     15  C   UNL     1      44.831  17.065  21.390  1.00  0.00    -0.000 C 
BRANCH  15  16
ATOM     16  C   UNL     1      46.081  16.191  21.585  1.00  0.00    -0.000 C 
BRANCH  16  17
ATOM     17  C   UNL     1      45.744  14.706  21.816  1.00  0.00    -0.000 C 
BRANCH  17  18
ATOM     18  C   UNL     1      45.810  14.238  23.281  1.00  0.00    -0.000 C 
BRANCH  18  19
ATOM     19  C   UNL     1      45.546  15.369  24.285  1.00  0.00    -0.003 C 
ATOM     20  C   UNL     1      45.076  14.815  25.628  1.00  0.00     0.004 C 
ENDBRANCH  18  19
ENDBRANCH  17  18
ENDBRANCH  16  17
ENDBRANCH  15  16
ENDBRANCH  14  15
ENDBRANCH  13  14
ENDBRANCH  12  13
ENDBRANCH   1  12
TORSDOF 16
ENDMDL
MODEL 6
REMARK VINA RESULT:    -4.060      2.792      6.596
REMARK INTER + INTRA:         -10.054
REMARK INTER:                  -7.829
REMARK INTRA:                  -2.225
REMARK UNBOUND:                -2.196
REMARK SMILES CCCCCCCCCCCCCCCCCC(=O)[O-]
REMARK SMILES IDX 10 1 11 2 12 3 13 4 14 5 15 6 16 7 17 8 18 9 19 10 20 11
REMARK SMILES IDX 9 12 8 13 7 14 6 15 5 16 4 17 3 18 2 19 1 20
REMARK H PARENT
REMARK Flexibility Score: inf
ROOT
ATOM      1  C   UNL     1      42.571  12.809  26.002  1.00  0.00     0.000 C 
ENDROOT
BRANCH   1   2
ATOM      2  C   UNL     1      41.690  12.216  24.889  1.00  0.00     0.000 C 
BRANCH   2   3
ATOM      3  C   UNL     1      40.864  13.279  24.150  1.00  0.00     0.000 C 
BRANCH   3   4
ATOM      4  C   UNL     1      41.476  13.595  22.780  1.00  0.00     0.000 C 
BRANCH   4   5
ATOM      5  C   UNL     1      41.929  15.058  22.703  1.00  0.00     0.000 C 
BRANCH   5   6
ATOM      6  C   UNL     1      41.668  15.643  21.310  1.00  0.00     0.000 C 
BRANCH   6   7
ATOM      7  C   UNL     1      42.640  16.793  21.005  1.00  0.00     0.006 C 
BRANCH   7   8
ATOM      8  C   UNL     1      43.780  16.359  20.074  1.00  0.00     0.053 C 
BRANCH   8   9
ATOM      9  C   UNL     1      45.002  15.958  20.841  1.00  0.00     0.041 C 
ATOM     10  O   UNL     1      45.681  14.963  20.477  1.00  0.00    -0.550 OA
ATOM     11  O   UNL     1      45.411  16.704  21.940  1.00  0.00    -0.550 OA
ENDBRANCH   8   9
ENDBRANCH   7   8
ENDBRANCH   6   7
ENDBRANCH   5   6
ENDBRANCH   4   5
ENDBRANCH   3   4
ENDBRANCH   2   3
ENDBRANCH   1   2
BRANCH   1  12
ATOM     12  C   UNL     1      44.080  12.527  25.859  1.00  0.00     0.000 C 
BRANCH  12  13
ATOM     13  C   UNL     1      44.910  13.694  25.291  1.00  0.00    -0.000 C 
BRANCH  13  14
ATOM     14  C   UNL     1      45.113  13.670  23.762  1.00  0.00    -0.000 C 
BRANCH  14  15
ATOM     15  C   UNL     1      45.471  12.295  23.170  1.00  0.00    -0.000 C 
BRANCH  15  16
ATOM     16  C   UNL     1      44.641  11.944  21.924  1.00  0.00    -0.000 C 
BRANCH  16  17
ATOM     17  C   UNL     1      44.011  10.542  21.999  1.00  0.00    -0.000 C 
BRANCH  17  18
ATOM     18  C   UNL     1      44.600   9.504  21.026  1.00  0.00    -0.000 C 
BRANCH  18  19
ATOM     19  C   UNL     1      44.738   8.108  21.650  1.00  0.00    -0.003 C 
ATOM     20  C   UNL     1      45.885   8.067  22.657  1.00  0.00     0.004 C 
ENDBRANCH  18  19
ENDBRANCH  17  18
ENDBRANCH  16  17
ENDBRANCH  15  16
ENDBRANCH  14  15
ENDBRANCH  13  14
ENDBRANCH  12  13
ENDBRANCH   1  12
TORSDOF 16
ENDMDL
MODEL 7
REMARK VINA RESULT:    -3.950      6.808      9.530
REMARK INTER + INTRA:          -9.841
REMARK INTER:                  -7.880
REMARK INTRA:                  -1.960
REMARK UNBOUND:                -2.196
REMARK SMILES CCCCCCCCCCCCCCCCCC(=O)[O-]
REMARK SMILES IDX 10 1 11 2 12 3 13 4 14 5 15 6 16 7 17 8 18 9 19 10 20 11
REMARK SMILES IDX 9 12 8 13 7 14 6 15 5 16 4 17 3 18 2 19 1 20
REMARK H PARENT
REMARK Flexibility Score: inf
ROOT
ATOM      1  C   UNL     1      37.475  11.400  26.145  1.00  0.00     0.000 C 
ENDROOT
BRANCH   1   2
ATOM      2  C   UNL     1      38.375  10.309  26.751  1.00  0.00     0.000 C 
BRANCH   2   3
ATOM      3  C   UNL     1      39.824  10.382  26.249  1.00  0.00     0.000 C 
BRANCH   3   4
ATOM      4  C   UNL     1      40.319  11.832  26.211  1.00  0.00     0.000 C 
BRANCH   4   5
ATOM      5  C   UNL     1      41.179  12.089  24.967  1.00  0.00     0.000 C 
BRANCH   5   6
ATOM      6  C   UNL     1      40.831  13.436  24.325  1.00  0.00     0.000 C 
BRANCH   6   7
ATOM      7  C   UNL     1      41.346  13.507  22.879  1.00  0.00     0.006 C 
BRANCH   7   8
ATOM      8  C   UNL     1      42.367  14.635  22.681  1.00  0.00     0.053 C 
BRANCH   8   9
ATOM      9  C   UNL     1      43.763  14.106  22.558  1.00  0.00     0.041 C 
ATOM     10  O   UNL     1      43.982  12.869  22.646  1.00  0.00    -0.550 OA
ATOM     11  O   UNL     1      44.819  14.975  22.315  1.00  0.00    -0.550 OA
ENDBRANCH   8   9
ENDBRANCH   7   8
ENDBRANCH   6   7
ENDBRANCH   5   6
ENDBRANCH   4   5
ENDBRANCH   3   4
ENDBRANCH   2   3
ENDBRANCH   1   2
BRANCH   1  12
ATOM     12  C   UNL     1      36.757  12.298  27.173  1.00  0.00     0.000 C 
BRANCH  12  13
ATOM     13  C   UNL     1      36.850  11.817  28.634  1.00  0.00    -0.000 C 
BRANCH  13  14
ATOM     14  C   UNL     1      35.552  11.966  29.455  1.00  0.00    -0.000 C 
BRANCH  14  15
ATOM     15  C   UNL     1      34.802  10.652  29.739  1.00  0.00    -0.000 C 
BRANCH  15  16
ATOM     16  C   UNL     1      35.707   9.412  29.635  1.00  0.00    -0.000 C 
BRANCH  16  17
ATOM     17  C   UNL     1      35.311   8.475  28.480  1.00  0.00    -0.000 C 
BRANCH  17  18
ATOM     18  C   UNL     1      34.252   9.036  27.513  1.00  0.00    -0.000 C 
BRANCH  18  19
ATOM     19  C   UNL     1      34.512   8.649  26.050  1.00  0.00    -0.003 C 
ATOM     20  C   UNL     1      35.844   7.916  25.903  1.00  0.00     0.004 C 
ENDBRANCH  18  19
ENDBRANCH  17  18
ENDBRANCH  16  17
ENDBRANCH  15  16
ENDBRANCH  14  15
ENDBRANCH  13  14
ENDBRANCH  12  13
ENDBRANCH   1  12
TORSDOF 16
ENDMDL
MODEL 8
REMARK VINA RESULT:    -3.945      1.109      2.556
REMARK INTER + INTRA:          -9.831
REMARK INTER:                  -7.844
REMARK INTRA:                  -1.987
REMARK UNBOUND:                -2.196
REMARK SMILES CCCCCCCCCCCCCCCCCC(=O)[O-]
REMARK SMILES IDX 10 1 11 2 12 3 13 4 14 5 15 6 16 7 17 8 18 9 19 10 20 11
REMARK SMILES IDX 9 12 8 13 7 14 6 15 5 16 4 17 3 18 2 19 1 20
REMARK H PARENT
REMARK Flexibility Score: inf
ROOT
ATOM      1  C   UNL     1      45.131  12.848  23.115  1.00  0.00     0.000 C 
ENDROOT
BRANCH   1   2
ATOM      2  C   UNL     1      45.172  11.997  21.833  1.00  0.00     0.000 C 
BRANCH   2   3
ATOM      3  C   UNL     1      44.110  10.887  21.819  1.00  0.00     0.000 C 
BRANCH   3   4
ATOM      4  C   UNL     1      44.615   9.654  21.061  1.00  0.00     0.000 C 
BRANCH   4   5
ATOM      5  C   UNL     1      44.438   8.382  21.899  1.00  0.00     0.000 C 
BRANCH   5   6
ATOM      6  C   UNL     1      45.726   8.038  22.657  1.00  0.00     0.000 C 
BRANCH   6   7
ATOM      7  C   UNL     1      45.691   8.601  24.086  1.00  0.00     0.006 C 
BRANCH   7   8
ATOM      8  C   UNL     1      44.287   8.530  24.703  1.00  0.00     0.053 C 
BRANCH   8   9
ATOM      9  C   UNL     1      44.334   8.126  26.145  1.00  0.00     0.041 C 
ATOM     10  O   UNL     1      44.228   6.914  26.467  1.00  0.00    -0.550 OA
ATOM     11  O   UNL     1      44.527   9.085  27.131  1.00  0.00    -0.550 OA
ENDBRANCH   8   9
ENDBRANCH   7   8
ENDBRANCH   6   7
ENDBRANCH   5   6
ENDBRANCH   4   5
ENDBRANCH   3   4
ENDBRANCH   2   3
ENDBRANCH   1   2
BRANCH   1  12
ATOM     12  C   UNL     1      44.196  12.318  24.219  1.00  0.00     0.000 C 
BRANCH  12  13
ATOM     13  C   UNL     1      43.028  13.252  24.588  1.00  0.00    -0.000 C 
BRANCH  13  14
ATOM     14  C   UNL     1      41.672  12.891  23.944  1.00  0.00    -0.000 C 
BRANCH  14  15
ATOM     15  C   UNL     1      41.308  13.699  22.686  1.00  0.00    -0.000 C 
BRANCH  15  16
ATOM     16  C   UNL     1      41.966  15.089  22.657  1.00  0.00    -0.000 C 
BRANCH  16  17
ATOM     17  C   UNL     1      41.729  15.836  21.332  1.00  0.00    -0.000 C 
BRANCH  17  18
ATOM     18  C   UNL     1      42.853  16.801  20.911  1.00  0.00    -0.000 C 
BRANCH  18  19
ATOM     19  C   UNL     1      44.228  16.121  20.832  1.00  0.00    -0.003 C 
ATOM     20  C   UNL     1      45.267  16.885  21.650  1.00  0.00     0.004 C 
ENDBRANCH  18  19
ENDBRANCH  17  18
ENDBRANCH  16  17
ENDBRANCH  15  16
ENDBRANCH  14  15
ENDBRANCH  13  14
ENDBRANCH  12  13
ENDBRANCH   1  12
TORSDOF 16
ENDMDL
MODEL 9
REMARK VINA RESULT:    -3.920      7.415      9.826
REMARK INTER + INTRA:          -9.783
REMARK INTER:                  -7.992
REMARK INTRA:                  -1.791
REMARK UNBOUND:                -2.196
REMARK SMILES CCCCCCCCCCCCCCCCCC(=O)[O-]
REMARK SMILES IDX 10 1 11 2 12 3 13 4 14 5 15 6 16 7 17 8 18 9 19 10 20 11
REMARK SMILES IDX 9 12 8 13 7 14 6 15 5 16 4 17 3 18 2 19 1 20
REMARK H PARENT
REMARK Flexibility Score: inf
ROOT
ATOM      1  C   UNL     1      36.162   8.409  25.998  1.00  0.00     0.000 C 
ENDROOT
BRANCH   1   2
ATOM      2  C   UNL     1      37.275   9.417  26.335  1.00  0.00     0.000 C 
BRANCH   2   3
ATOM      3  C   UNL     1      36.888  10.867  26.010  1.00  0.00     0.000 C 
BRANCH   3   4
ATOM      4  C   UNL     1      37.958  11.845  26.506  1.00  0.00     0.000 C 
BRANCH   4   5
ATOM      5  C   UNL     1      39.355  11.217  26.433  1.00  0.00     0.000 C 
BRANCH   5   6
ATOM      6  C   UNL     1      40.442  12.297  26.367  1.00  0.00     0.000 C 
BRANCH   6   7
ATOM      7  C   UNL     1      41.222  12.211  25.046  1.00  0.00     0.006 C 
BRANCH   7   8
ATOM      8  C   UNL     1      40.711  13.215  24.004  1.00  0.00     0.053 C 
BRANCH   8   9
ATOM      9  C   UNL     1      41.624  14.396  23.876  1.00  0.00     0.041 C 
ATOM     10  O   UNL     1      42.626  14.342  23.116  1.00  0.00    -0.550 OA
ATOM     11  O   UNL     1      41.350  15.567  24.570  1.00  0.00    -0.550 OA
ENDBRANCH   8   9
ENDBRANCH   7   8
ENDBRANCH   6   7
ENDBRANCH   5   6
ENDBRANCH   4   5
ENDBRANCH   3   4
ENDBRANCH   2   3
ENDBRANCH   1   2
BRANCH   1  12
ATOM     12  C   UNL     1      34.824   8.649  26.726  1.00  0.00     0.000 C 
BRANCH  12  13
ATOM     13  C   UNL     1      34.906   8.626  28.264  1.00  0.00    -0.000 C 
BRANCH  13  14
ATOM     14  C   UNL     1      34.645   9.982  28.954  1.00  0.00    -0.000 C 
BRANCH  14  15
ATOM     15  C   UNL     1      35.852  10.580  29.699  1.00  0.00    -0.000 C 
BRANCH  15  16
ATOM     16  C   UNL     1      35.933  12.111  29.574  1.00  0.00    -0.000 C 
BRANCH  16  17
ATOM     17  C   UNL     1      34.550  12.786  29.564  1.00  0.00    -0.000 C 
BRANCH  17  18
ATOM     18  C   UNL     1      34.530  14.236  29.046  1.00  0.00    -0.000 C 
BRANCH  18  19
ATOM     19  C   UNL     1      35.677  14.541  28.073  1.00  0.00    -0.003 C 
ATOM     20  C   UNL     1      36.158  15.983  28.223  1.00  0.00     0.004 C 
ENDBRANCH  18  19
ENDBRANCH  17  18
ENDBRANCH  16  17
ENDBRANCH  15  16
ENDBRANCH  14  15
ENDBRANCH  13  14
ENDBRANCH  12  13
ENDBRANCH   1  12
TORSDOF 16
ENDMDL
