MODEL 1
REMARK VINA RESULT:    -4.042      0.000      0.000
REMARK INTER + INTRA:          -6.564
REMARK INTER:                  -5.932
REMARK INTRA:                  -0.632
REMARK UNBOUND:                -0.632
REMARK SMILES O=C([O-])CCCCCCCC(=O)[O-]
REMARK SMILES IDX 7 1 6 2 5 3 4 4 2 5 1 6 3 7 8 8 9 9 10 10 11 11 12 12 13 13
REMARK H PARENT
REMARK Flexibility Score: inf
ROOT
ATOM      1  C   UNL     1     -53.387 121.016  -8.696  1.00  0.00     0.000 C 
ENDROOT
BRANCH   1   2
ATOM      2  C   UNL     1     -52.447 120.721  -9.877  1.00  0.00     0.000 C 
BRANCH   2   3
ATOM      3  C   UNL     1     -52.221 121.957 -10.772  1.00  0.00     0.006 C 
BRANCH   3   4
ATOM      4  C   UNL     1     -50.765 122.116 -11.242  1.00  0.00     0.053 C 
BRANCH   4   5
ATOM      5  C   UNL     1     -49.800 122.152 -10.098  1.00  0.00     0.041 C 
ATOM      6  O   UNL     1     -48.972 121.219  -9.937  1.00  0.00    -0.550 OA
ATOM      7  O   UNL     1     -49.833 123.207  -9.195  1.00  0.00    -0.550 OA
ENDBRANCH   4   5
ENDBRANCH   3   4
ENDBRANCH   2   3
ENDBRANCH   1   2
BRANCH   1   8
ATOM      8  C   UNL     1     -54.513 121.998  -9.058  1.00  0.00     0.000 C 
BRANCH   8   9
ATOM      9  C   UNL     1     -55.907 121.339  -9.142  1.00  0.00     0.006 C 
BRANCH   9  10
ATOM     10  C   UNL     1     -56.373 121.151 -10.592  1.00  0.00     0.053 C 
BRANCH  10  11
ATOM     11  C   UNL     1     -56.027 119.780 -11.079  1.00  0.00     0.041 C 
ATOM     12  O   UNL     1     -56.677 118.781 -10.676  1.00  0.00    -0.550 OA
ATOM     13  O   UNL     1     -55.016 119.610 -12.017  1.00  0.00    -0.550 OA
ENDBRANCH  10  11
ENDBRANCH   9  10
ENDBRANCH   8   9
ENDBRANCH   1   8
TORSDOF 8
ENDMDL
MODEL 2
REMARK VINA RESULT:    -4.014      1.832      2.250
REMARK INTER + INTRA:          -6.523
REMARK INTER:                  -5.962
REMARK INTRA:                  -0.562
REMARK UNBOUND:                -0.632
REMARK SMILES O=C([O-])CCCCCCCC(=O)[O-]
REMARK SMILES IDX 7 1 6 2 5 3 4 4 2 5 1 6 3 7 8 8 9 9 10 10 11 11 12 12 13 13
REMARK H PARENT
REMARK Flexibility Score: inf
ROOT
ATOM      1  C   UNL     1     -53.166 121.163  -8.860  1.00  0.00     0.000 C 
ENDROOT
BRANCH   1   2
ATOM      2  C   UNL     1     -52.272 122.145  -9.636  1.00  0.00     0.000 C 
BRANCH   2   3
ATOM      3  C   UNL     1     -51.337 121.428 -10.631  1.00  0.00     0.006 C 
BRANCH   3   4
ATOM      4  C   UNL     1     -49.863 121.425 -10.195  1.00  0.00     0.053 C 
BRANCH   4   5
ATOM      5  C   UNL     1     -49.288 122.805 -10.126  1.00  0.00     0.041 C 
ATOM      6  O   UNL     1     -48.948 123.297  -9.019  1.00  0.00    -0.550 OA
ATOM      7  O   UNL     1     -49.150 123.558 -11.285  1.00  0.00    -0.550 OA
ENDBRANCH   4   5
ENDBRANCH   3   4
ENDBRANCH   2   3
ENDBRANCH   1   2
BRANCH   1   8
ATOM      8  C   UNL     1     -53.511 119.901  -9.667  1.00  0.00     0.000 C 
BRANCH   8   9
ATOM      9  C   UNL     1     -54.953 119.893 -10.218  1.00  0.00     0.006 C 
BRANCH   9  10
ATOM     10  C   UNL     1     -55.119 120.825 -11.426  1.00  0.00     0.053 C 
BRANCH  10  11
ATOM     11  C   UNL     1     -55.994 121.986 -11.075  1.00  0.00     0.041 C 
ATOM     12  O   UNL     1     -56.131 122.943 -11.881  1.00  0.00    -0.550 OA
ATOM     13  O   UNL     1     -56.699 121.989  -9.878  1.00  0.00    -0.550 OA
ENDBRANCH  10  11
ENDBRANCH   9  10
ENDBRANCH   8   9
ENDBRANCH   1   8
TORSDOF 8
ENDMDL
MODEL 3
REMARK VINA RESULT:    -4.010      0.347      5.664
REMARK INTER + INTRA:          -6.518
REMARK INTER:                  -5.853
REMARK INTRA:                  -0.666
REMARK UNBOUND:                -0.632
REMARK SMILES O=C([O-])CCCCCCCC(=O)[O-]
REMARK SMILES IDX 7 1 6 2 5 3 4 4 2 5 1 6 3 7 8 8 9 9 10 10 11 11 12 12 13 13
REMARK H PARENT
REMARK Flexibility Score: inf
ROOT
ATOM      1  C   UNL     1     -53.455 121.077  -8.602  1.00  0.00     0.000 C 
ENDROOT
BRANCH   1   2
ATOM      2  C   UNL     1     -54.489 122.073  -9.152  1.00  0.00     0.000 C 
BRANCH   2   3
ATOM      3  C   UNL     1     -55.892 121.449  -9.291  1.00  0.00     0.006 C 
BRANCH   3   4
ATOM      4  C   UNL     1     -56.304 121.181 -10.747  1.00  0.00     0.053 C 
BRANCH   4   5
ATOM      5  C   UNL     1     -55.908 119.813 -11.207  1.00  0.00     0.041 C 
ATOM      6  O   UNL     1     -54.976 119.669 -12.041  1.00  0.00    -0.550 OA
ATOM      7  O   UNL     1     -56.587 118.697 -10.733  1.00  0.00    -0.550 OA
ENDBRANCH   4   5
ENDBRANCH   3   4
ENDBRANCH   2   3
ENDBRANCH   1   2
BRANCH   1   8
ATOM      8  C   UNL     1     -52.500 120.546  -9.684  1.00  0.00     0.000 C 
BRANCH   8   9
ATOM      9  C   UNL     1     -52.195 121.571 -10.798  1.00  0.00     0.006 C 
BRANCH   9  10
ATOM     10  C   UNL     1     -50.763 121.438 -11.332  1.00  0.00     0.053 C 
BRANCH  10  11
ATOM     11  C   UNL     1     -49.772 121.669 -10.236  1.00  0.00     0.041 C 
ATOM     12  O   UNL     1     -48.951 120.768  -9.923  1.00  0.00    -0.550 OA
ATOM     13  O   UNL     1     -49.722 122.899  -9.591  1.00  0.00    -0.550 OA
ENDBRANCH  10  11
ENDBRANCH   9  10
ENDBRANCH   8   9
ENDBRANCH   1   8
TORSDOF 8
ENDMDL
MODEL 4
REMARK VINA RESULT:    -3.820      1.864      5.363
REMARK INTER + INTRA:          -6.239
REMARK INTER:                  -5.705
REMARK INTRA:                  -0.533
REMARK UNBOUND:                -0.632
REMARK SMILES O=C([O-])CCCCCCCC(=O)[O-]
REMARK SMILES IDX 7 1 6 2 5 3 4 4 2 5 1 6 3 7 8 8 9 9 10 10 11 11 12 12 13 13
REMARK H PARENT
REMARK Flexibility Score: inf
ROOT
ATOM      1  C   UNL     1     -53.796 119.835  -9.881  1.00  0.00     0.000 C 
ENDROOT
BRANCH   1   2
ATOM      2  C   UNL     1     -53.985 120.250 -11.350  1.00  0.00     0.000 C 
BRANCH   2   3
ATOM      3  C   UNL     1     -55.412 119.967 -11.862  1.00  0.00     0.006 C 
BRANCH   3   4
ATOM      4  C   UNL     1     -56.508 120.288 -10.833  1.00  0.00     0.053 C 
BRANCH   4   5
ATOM      5  C   UNL     1     -56.521 121.735 -10.449  1.00  0.00     0.041 C 
ATOM      6  O   UNL     1     -56.336 122.624 -11.320  1.00  0.00    -0.550 OA
ATOM      7  O   UNL     1     -56.714 122.100  -9.122  1.00  0.00    -0.550 OA
ENDBRANCH   4   5
ENDBRANCH   3   4
ENDBRANCH   2   3
ENDBRANCH   1   2
BRANCH   1   8
ATOM      8  C   UNL     1     -53.104 120.918  -9.038  1.00  0.00     0.000 C 
BRANCH   8   9
ATOM      9  C   UNL     1     -52.611 122.125  -9.863  1.00  0.00     0.006 C 
BRANCH   9  10
ATOM     10  C   UNL     1     -51.110 122.383  -9.674  1.00  0.00     0.053 C 
BRANCH  10  11
ATOM     11  C   UNL     1     -50.311 121.539 -10.616  1.00  0.00     0.041 C 
ATOM     12  O   UNL     1     -49.282 120.938 -10.212  1.00  0.00    -0.550 OA
ATOM     13  O   UNL     1     -50.731 121.378 -11.931  1.00  0.00    -0.550 OA
ENDBRANCH  10  11
ENDBRANCH   9  10
ENDBRANCH   8   9
ENDBRANCH   1   8
TORSDOF 8
ENDMDL
MODEL 5
REMARK VINA RESULT:    -3.799      1.298      6.156
REMARK INTER + INTRA:          -6.209
REMARK INTER:                  -5.779
REMARK INTRA:                  -0.430
REMARK UNBOUND:                -0.632
REMARK SMILES O=C([O-])CCCCCCCC(=O)[O-]
REMARK SMILES IDX 7 1 6 2 5 3 4 4 2 5 1 6 3 7 8 8 9 9 10 10 11 11 12 12 13 13
REMARK H PARENT
REMARK Flexibility Score: inf
ROOT
ATOM      1  C   UNL     1     -53.255 121.196  -8.881  1.00  0.00     0.000 C 
ENDROOT
BRANCH   1   2
ATOM      2  C   UNL     1     -54.743 121.284  -9.261  1.00  0.00     0.000 C 
BRANCH   2   3
ATOM      3  C   UNL     1     -54.950 121.640 -10.747  1.00  0.00     0.006 C 
BRANCH   3   4
ATOM      4  C   UNL     1     -55.392 120.446 -11.608  1.00  0.00     0.053 C 
BRANCH   4   5
ATOM      5  C   UNL     1     -56.675 119.844 -11.129  1.00  0.00     0.041 C 
ATOM      6  O   UNL     1     -56.687 118.690 -10.626  1.00  0.00    -0.550 OA
ATOM      7  O   UNL     1     -57.865 120.549 -11.261  1.00  0.00    -0.550 OA
ENDBRANCH   4   5
ENDBRANCH   3   4
ENDBRANCH   2   3
ENDBRANCH   1   2
BRANCH   1   8
ATOM      8  C   UNL     1     -52.364 122.112  -9.735  1.00  0.00     0.000 C 
BRANCH   8   9
ATOM      9  C   UNL     1     -51.366 121.348 -10.630  1.00  0.00     0.006 C 
BRANCH   9  10
ATOM     10  C   UNL     1     -49.930 121.423 -10.094  1.00  0.00     0.053 C 
BRANCH  10  11
ATOM     11  C   UNL     1     -49.428 122.831 -10.136  1.00  0.00     0.041 C 
ATOM     12  O   UNL     1     -49.249 123.407 -11.241  1.00  0.00    -0.550 OA
ATOM     13  O   UNL     1     -49.205 123.526  -8.954  1.00  0.00    -0.550 OA
ENDBRANCH  10  11
ENDBRANCH   9  10
ENDBRANCH   8   9
ENDBRANCH   1   8
TORSDOF 8
ENDMDL
MODEL 6
REMARK VINA RESULT:    -3.780      1.660      1.992
REMARK INTER + INTRA:          -6.180
REMARK INTER:                  -5.846
REMARK INTRA:                  -0.334
REMARK UNBOUND:                -0.632
REMARK SMILES O=C([O-])CCCCCCCC(=O)[O-]
REMARK SMILES IDX 7 1 6 2 5 3 4 4 2 5 1 6 3 7 8 8 9 9 10 10 11 11 12 12 13 13
REMARK H PARENT
REMARK Flexibility Score: inf
ROOT
ATOM      1  C   UNL     1     -53.680 119.924  -9.877  1.00  0.00     0.000 C 
ENDROOT
BRANCH   1   2
ATOM      2  C   UNL     1     -52.426 120.692  -9.427  1.00  0.00     0.000 C 
BRANCH   2   3
ATOM      3  C   UNL     1     -52.244 122.020 -10.191  1.00  0.00     0.006 C 
BRANCH   3   4
ATOM      4  C   UNL     1     -50.892 122.131 -10.915  1.00  0.00     0.053 C 
BRANCH   4   5
ATOM      5  C   UNL     1     -49.739 122.162  -9.962  1.00  0.00     0.041 C 
ATOM      6  O   UNL     1     -48.974 121.168  -9.859  1.00  0.00    -0.550 OA
ATOM      7  O   UNL     1     -49.524 123.281  -9.167  1.00  0.00    -0.550 OA
ENDBRANCH   4   5
ENDBRANCH   3   4
ENDBRANCH   2   3
ENDBRANCH   1   2
BRANCH   1   8
ATOM      8  C   UNL     1     -54.030 120.162 -11.355  1.00  0.00     0.000 C 
BRANCH   8   9
ATOM      9  C   UNL     1     -55.532 120.000 -11.671  1.00  0.00     0.006 C 
BRANCH   9  10
ATOM     10  C   UNL     1     -56.413 120.233 -10.436  1.00  0.00     0.053 C 
BRANCH  10  11
ATOM     11  C   UNL     1     -56.553 121.697 -10.162  1.00  0.00     0.041 C 
ATOM     12  O   UNL     1     -56.858 122.099  -9.009  1.00  0.00    -0.550 OA
ATOM     13  O   UNL     1     -56.299 122.620 -11.168  1.00  0.00    -0.550 OA
ENDBRANCH  10  11
ENDBRANCH   9  10
ENDBRANCH   8   9
ENDBRANCH   1   8
TORSDOF 8
ENDMDL
MODEL 7
REMARK VINA RESULT:    -3.700      2.464      5.275
REMARK INTER + INTRA:          -6.063
REMARK INTER:                  -5.625
REMARK INTRA:                  -0.438
REMARK UNBOUND:                -0.632
REMARK SMILES O=C([O-])CCCCCCCC(=O)[O-]
REMARK SMILES IDX 7 1 6 2 5 3 4 4 2 5 1 6 3 7 8 8 9 9 10 10 11 11 12 12 13 13
REMARK H PARENT
REMARK Flexibility Score: inf
ROOT
ATOM      1  C   UNL     1     -53.400 120.104 -12.019  1.00  0.00     0.000 C 
ENDROOT
BRANCH   1   2
ATOM      2  C   UNL     1     -54.935 120.175 -12.062  1.00  0.00     0.000 C 
BRANCH   2   3
ATOM      3  C   UNL     1     -55.590 119.513 -10.833  1.00  0.00     0.006 C 
BRANCH   3   4
ATOM      4  C   UNL     1     -56.887 120.204 -10.381  1.00  0.00     0.053 C 
BRANCH   4   5
ATOM      5  C   UNL     1     -56.651 121.606  -9.916  1.00  0.00     0.041 C 
ATOM      6  O   UNL     1     -56.395 122.516 -10.747  1.00  0.00    -0.550 OA
ATOM      7  O   UNL     1     -56.689 121.905  -8.559  1.00  0.00    -0.550 OA
ENDBRANCH   4   5
ENDBRANCH   3   4
ENDBRANCH   2   3
ENDBRANCH   1   2
BRANCH   1   8
ATOM      8  C   UNL     1     -52.745 121.472 -11.764  1.00  0.00     0.000 C 
BRANCH   8   9
ATOM      9  C   UNL     1     -51.610 121.430 -10.718  1.00  0.00     0.006 C 
BRANCH   9  10
ATOM     10  C   UNL     1     -51.768 122.517  -9.646  1.00  0.00     0.053 C 
BRANCH  10  11
ATOM     11  C   UNL     1     -53.058 122.341  -8.910  1.00  0.00     0.041 C 
ATOM     12  O   UNL     1     -53.802 123.333  -8.689  1.00  0.00    -0.550 OA
ATOM     13  O   UNL     1     -53.463 121.075  -8.509  1.00  0.00    -0.550 OA
ENDBRANCH  10  11
ENDBRANCH   9  10
ENDBRANCH   8   9
ENDBRANCH   1   8
TORSDOF 8
ENDMDL
MODEL 8
REMARK VINA RESULT:    -3.633      2.443      3.153
REMARK INTER + INTRA:          -5.964
REMARK INTER:                  -5.399
REMARK INTRA:                  -0.565
REMARK UNBOUND:                -0.632
REMARK SMILES O=C([O-])CCCCCCCC(=O)[O-]
REMARK SMILES IDX 7 1 6 2 5 3 4 4 2 5 1 6 3 7 8 8 9 9 10 10 11 11 12 12 13 13
REMARK H PARENT
REMARK Flexibility Score: inf
ROOT
ATOM      1  C   UNL     1     -52.622 120.208 -11.944  1.00  0.00     0.000 C 
ENDROOT
BRANCH   1   2
ATOM      2  C   UNL     1     -51.886 121.527 -11.658  1.00  0.00     0.000 C 
BRANCH   2   3
ATOM      3  C   UNL     1     -51.134 121.501 -10.311  1.00  0.00     0.006 C 
BRANCH   3   4
ATOM      4  C   UNL     1     -51.598 122.587  -9.327  1.00  0.00     0.053 C 
BRANCH   4   5
ATOM      5  C   UNL     1     -53.001 122.363  -8.856  1.00  0.00     0.041 C 
ATOM      6  O   UNL     1     -53.815 123.322  -8.808  1.00  0.00    -0.550 OA
ATOM      7  O   UNL     1     -53.403 121.098  -8.446  1.00  0.00    -0.550 OA
ENDBRANCH   4   5
ENDBRANCH   3   4
ENDBRANCH   2   3
ENDBRANCH   1   2
BRANCH   1   8
ATOM      8  C   UNL     1     -54.137 120.395 -12.125  1.00  0.00     0.000 C 
BRANCH   8   9
ATOM      9  C   UNL     1     -54.972 119.872 -10.937  1.00  0.00     0.006 C 
BRANCH   9  10
ATOM     10  C   UNL     1     -56.428 120.352 -10.995  1.00  0.00     0.053 C 
BRANCH  10  11
ATOM     11  C   UNL     1     -56.537 121.757 -10.494  1.00  0.00     0.041 C 
ATOM     12  O   UNL     1     -56.759 121.979  -9.275  1.00  0.00    -0.550 OA
ATOM     13  O   UNL     1     -56.344 122.822 -11.364  1.00  0.00    -0.550 OA
ENDBRANCH  10  11
ENDBRANCH   9  10
ENDBRANCH   8   9
ENDBRANCH   1   8
TORSDOF 8
ENDMDL
