MODEL 1
REMARK VINA RESULT:    28.160      0.000      0.000
REMARK INTER + INTRA:          32.572
REMARK INTER:                  32.275
REMARK INTRA:                   0.297
REMARK UNBOUND:                 0.297
REMARK SMILES C=C(C)[C@H]1CC[C@@]2(C(=O)[O-])CC[C@@]3(C)[C@H](CC[C@H]4[C@@]5(C)CC[C@H](O)C(C)(C)[C@@H]5CC[C@]43C)[C@@H]12
REMARK SMILES IDX 7 1 6 2 33 3 11 4 5 5 15 6 4 7 12 8 16 9 13 10 17 11 31 12
REMARK SMILES IDX 14 13 18 14 30 15 32 16 19 17 29 18 21 19 20 20 28 21 22 22
REMARK SMILES IDX 25 23 23 24 26 25 27 26 8 27 9 28 10 29 2 30 3 31 1 32 24 33
REMARK H PARENT 24 34
REMARK Flexibility Score: inf
ROOT
ATOM      1  C   UNL     1      20.179  15.807  -9.781  1.00  0.00     0.014 C 
ATOM      2  C   UNL     1      19.573  17.125 -10.316  1.00  0.00     0.014 C 
ATOM      3  C   UNL     1      19.355  14.693 -10.513  1.00  0.00     0.012 C 
ATOM      4  C   UNL     1      20.014  15.789  -8.225  1.00  0.00     0.014 C 
ATOM      5  C   UNL     1      18.107  16.828 -10.583  1.00  0.00     0.009 C 
ATOM      6  C   UNL     1      19.233  13.319  -9.733  1.00  0.00     0.000 C 
ATOM      7  C   UNL     1      18.097  15.393 -11.123  1.00  0.00     0.018 C 
ATOM      8  C   UNL     1      19.976  14.388  -7.586  1.00  0.00     0.008 C 
ATOM      9  C   UNL     1      20.544  12.519 -10.006  1.00  0.00     0.005 C 
ATOM     10  C   UNL     1      18.909  13.415  -8.204  1.00  0.00    -0.024 C 
ATOM     11  C   UNL     1      20.962  11.498  -8.952  1.00  0.00     0.005 C 
ATOM     12  C   UNL     1      18.871  11.910  -7.515  1.00  0.00    -0.024 C 
ATOM     13  C   UNL     1      17.524  14.112  -8.005  1.00  0.00     0.012 C 
ATOM     14  C   UNL     1      19.754  10.818  -8.293  1.00  0.00     0.002 C 
ATOM     15  C   UNL     1      19.333  12.006  -6.027  1.00  0.00     0.008 C 
ATOM     16  C   UNL     1      17.401  11.365  -7.507  1.00  0.00     0.012 C 
ATOM     17  C   UNL     1      20.117   9.457  -7.484  1.00  0.00    -0.026 C 
ATOM     18  C   UNL     1      19.478  10.669  -5.304  1.00  0.00     0.005 C 
ATOM     19  C   UNL     1      21.326   8.696  -8.132  1.00  0.00     0.010 C 
ATOM     20  C   UNL     1      18.880   8.488  -7.555  1.00  0.00     0.012 C 
ATOM     21  C   UNL     1      20.544   9.801  -6.007  1.00  0.00     0.003 C 
ATOM     22  C   UNL     1      21.809   7.470  -7.340  1.00  0.00     0.033 C 
ATOM     23  C   UNL     1      21.095   8.596  -5.129  1.00  0.00    -0.006 C 
ATOM     24  C   UNL     1      22.224   7.855  -5.917  1.00  0.00     0.120 C 
ATOM     25  C   UNL     1      21.744   9.153  -3.830  1.00  0.00     0.014 C 
ATOM     26  C   UNL     1      19.990   7.599  -4.690  1.00  0.00     0.014 C 
ENDROOT
BRANCH   1  27
ATOM     27  C   UNL     1      21.655  15.746 -10.168  1.00  0.00     0.048 C 
ATOM     28  O   UNL     1      22.067  14.951 -11.057  1.00  0.00    -0.550 OA
ATOM     29  O   UNL     1      22.569  16.610  -9.573  1.00  0.00    -0.550 OA
ENDBRANCH   1  27
BRANCH   7  30
ATOM     30  C   UNL     1      16.765  14.638 -11.125  1.00  0.00    -0.077 C 
ATOM     31  C   UNL     1      15.486  15.428 -11.005  1.00  0.00     0.039 C 
ATOM     32  C   UNL     1      16.673  13.296 -11.068  1.00  0.00     0.008 C 
ENDBRANCH   7  30
BRANCH  24  33
ATOM     33  O   UNL     1      22.625   6.686  -5.239  1.00  0.00    -0.393 OA
ATOM     34  H   UNL     1      22.039   5.945  -5.544  1.00  0.00     0.210 HD
ENDBRANCH  24  33
TORSDOF 3
ENDMDL
