MODEL 1
REMARK VINA RESULT:    -6.420      0.000      0.000
REMARK INTER + INTRA:          -7.809
REMARK INTER:                  -7.546
REMARK INTRA:                  -0.263
REMARK UNBOUND:                -0.263
REMARK SMILES O=c1cc(-c2ccc(O)c(O)c2)oc2cc(O)cc(O)c12
REMARK SMILES IDX 4 1 3 2 2 3 1 4 21 5 19 6 18 7 16 8 15 9 14 10 13 11 5 12
REMARK SMILES IDX 6 13 7 14 8 15 12 16 10 17 9 18 11 20 20 22 17 24
REMARK H PARENT 9 19 11 21 20 23 17 25
REMARK Flexibility Score: inf
ROOT
ATOM      1  C   UNL     1       2.138 -11.633 -32.601  1.00  0.00     0.138 A 
ATOM      2  C   UNL     1       0.928 -10.925 -32.583  1.00  0.00     0.100 A 
ATOM      3  C   UNL     1       0.172 -10.880 -31.411  1.00  0.00     0.197 A 
ATOM      4  O   UNL     1      -0.935 -10.283 -31.443  1.00  0.00    -0.289 OA
ATOM      5  C   UNL     1       0.647 -11.521 -30.241  1.00  0.00     0.107 A 
ATOM      6  C   UNL     1      -0.022 -11.515 -28.981  1.00  0.00     0.134 A 
ATOM      7  C   UNL     1       0.498 -12.267 -27.920  1.00  0.00     0.093 A 
ATOM      8  C   UNL     1       1.689 -12.978 -28.055  1.00  0.00     0.123 A 
ATOM      9  C   UNL     1       2.379 -12.951 -29.268  1.00  0.00     0.094 A 
ATOM     10  C   UNL     1       1.869 -12.238 -30.356  1.00  0.00     0.146 A 
ATOM     11  O   UNL     1       2.547 -12.252 -31.499  1.00  0.00    -0.456 OA
ENDROOT
BRANCH   1  12
ATOM     12  C   UNL     1       2.984 -11.710 -33.819  1.00  0.00     0.021 A 
ATOM     13  C   UNL     1       4.279 -11.161 -33.858  1.00  0.00     0.016 A 
ATOM     14  C   UNL     1       5.049 -11.241 -35.022  1.00  0.00     0.051 A 
ATOM     15  C   UNL     1       4.537 -11.863 -36.167  1.00  0.00     0.157 A 
ATOM     16  C   UNL     1       2.472 -12.322 -34.978  1.00  0.00     0.062 A 
ATOM     17  C   UNL     1       3.242 -12.403 -36.145  1.00  0.00     0.158 A 
BRANCH  15  18
ATOM     18  O   UNL     1       5.308 -11.942 -37.326  1.00  0.00    -0.504 OA
ATOM     19  H   UNL     1       6.283 -11.664 -37.335  1.00  0.00     0.293 HD
ENDBRANCH  15  18
BRANCH  17  20
ATOM     20  O   UNL     1       2.701 -13.026 -37.270  1.00  0.00    -0.504 OA
ATOM     21  H   UNL     1       2.258 -12.501 -38.014  1.00  0.00     0.293 HD
ENDBRANCH  17  20
ENDBRANCH   1  12
BRANCH   6  22
ATOM     22  O   UNL     1      -1.178 -10.776 -28.710  1.00  0.00    -0.507 OA
ATOM     23  H   UNL     1      -1.193  -9.823 -28.381  1.00  0.00     0.293 HD
ENDBRANCH   6  22
BRANCH   8  24
ATOM     24  O   UNL     1       2.185 -13.703 -26.973  1.00  0.00    -0.508 OA
ATOM     25  H   UNL     1       1.920 -13.479 -26.021  1.00  0.00     0.293 HD
ENDBRANCH   8  24
TORSDOF 5
ENDMDL
MODEL 2
REMARK VINA RESULT:    -6.403      1.978      2.946
REMARK INTER + INTRA:          -7.789
REMARK INTER:                  -7.504
REMARK INTRA:                  -0.284
REMARK UNBOUND:                -0.263
REMARK SMILES O=c1cc(-c2ccc(O)c(O)c2)oc2cc(O)cc(O)c12
REMARK SMILES IDX 4 1 3 2 2 3 1 4 21 5 19 6 18 7 16 8 15 9 14 10 13 11 5 12
REMARK SMILES IDX 6 13 7 14 8 15 12 16 10 17 9 18 11 20 20 22 17 24
REMARK H PARENT 9 19 11 21 20 23 17 25
REMARK Flexibility Score: inf
ROOT
ATOM      1  C   UNL     1       3.502 -11.411 -31.632  1.00  0.00     0.138 A 
ATOM      2  C   UNL     1       4.179 -10.334 -31.044  1.00  0.00     0.100 A 
ATOM      3  C   UNL     1       4.128 -10.159 -29.661  1.00  0.00     0.197 A 
ATOM      4  O   UNL     1       4.700  -9.151 -29.170  1.00  0.00    -0.289 OA
ATOM      5  C   UNL     1       3.421 -11.087 -28.858  1.00  0.00     0.107 A 
ATOM      6  C   UNL     1       3.328 -11.029 -27.435  1.00  0.00     0.134 A 
ATOM      7  C   UNL     1       2.519 -11.950 -26.759  1.00  0.00     0.093 A 
ATOM      8  C   UNL     1       1.846 -12.960 -27.445  1.00  0.00     0.123 A 
ATOM      9  C   UNL     1       1.970 -13.058 -28.831  1.00  0.00     0.094 A 
ATOM     10  C   UNL     1       2.742 -12.134 -29.540  1.00  0.00     0.146 A 
ATOM     11  O   UNL     1       2.819 -12.251 -30.860  1.00  0.00    -0.456 OA
ENDROOT
BRANCH   1  12
ATOM     12  C   UNL     1       3.525 -11.648 -33.098  1.00  0.00     0.021 A 
ATOM     13  C   UNL     1       2.445 -12.250 -33.769  1.00  0.00     0.016 A 
ATOM     14  C   UNL     1       2.499 -12.469 -35.148  1.00  0.00     0.051 A 
ATOM     15  C   UNL     1       3.634 -12.096 -35.879  1.00  0.00     0.157 A 
ATOM     16  C   UNL     1       4.667 -11.289 -33.837  1.00  0.00     0.062 A 
ATOM     17  C   UNL     1       4.724 -11.506 -35.219  1.00  0.00     0.158 A 
BRANCH  15  18
ATOM     18  O   UNL     1       3.685 -12.314 -37.255  1.00  0.00    -0.504 OA
ATOM     19  H   UNL     1       2.841 -12.378 -37.814  1.00  0.00     0.293 HD
ENDBRANCH  15  18
BRANCH  17  20
ATOM     20  O   UNL     1       5.870 -11.127 -35.917  1.00  0.00    -0.504 OA
ATOM     21  H   UNL     1       5.974 -11.293 -36.911  1.00  0.00     0.293 HD
ENDBRANCH  17  20
ENDBRANCH   1  12
BRANCH   6  22
ATOM     22  O   UNL     1       4.021 -10.110 -26.642  1.00  0.00    -0.507 OA
ATOM     23  H   UNL     1       3.804  -9.128 -26.568  1.00  0.00     0.293 HD
ENDBRANCH   6  22
BRANCH   8  24
ATOM     24  O   UNL     1       1.062 -13.868 -26.736  1.00  0.00    -0.508 OA
ATOM     25  H   UNL     1       1.448 -14.733 -26.376  1.00  0.00     0.293 HD
ENDBRANCH   8  24
TORSDOF 5
ENDMDL
MODEL 3
REMARK VINA RESULT:    -6.340      2.174      7.354
REMARK INTER + INTRA:          -7.715
REMARK INTER:                  -7.422
REMARK INTRA:                  -0.293
REMARK UNBOUND:                -0.263
REMARK SMILES O=c1cc(-c2ccc(O)c(O)c2)oc2cc(O)cc(O)c12
REMARK SMILES IDX 4 1 3 2 2 3 1 4 21 5 19 6 18 7 16 8 15 9 14 10 13 11 5 12
REMARK SMILES IDX 6 13 7 14 8 15 12 16 10 17 9 18 11 20 20 22 17 24
REMARK H PARENT 9 19 11 21 20 23 17 25
REMARK Flexibility Score: inf
ROOT
ATOM      1  C   UNL     1       3.801 -11.183 -32.105  1.00  0.00     0.138 A 
ATOM      2  C   UNL     1       4.749 -10.218 -32.474  1.00  0.00     0.100 A 
ATOM      3  C   UNL     1       5.038 -10.014 -33.823  1.00  0.00     0.197 A 
ATOM      4  O   UNL     1       5.933  -9.181 -34.118  1.00  0.00    -0.289 OA
ATOM      5  C   UNL     1       4.349 -10.759 -34.812  1.00  0.00     0.107 A 
ATOM      6  C   UNL     1       4.536 -10.613 -36.219  1.00  0.00     0.134 A 
ATOM      7  C   UNL     1       3.867 -11.474 -37.097  1.00  0.00     0.093 A 
ATOM      8  C   UNL     1       2.975 -12.437 -36.624  1.00  0.00     0.123 A 
ATOM      9  C   UNL     1       2.746 -12.555 -35.252  1.00  0.00     0.094 A 
ATOM     10  C   UNL     1       3.424 -11.733 -34.348  1.00  0.00     0.146 A 
ATOM     11  O   UNL     1       3.191 -11.890 -33.050  1.00  0.00    -0.456 OA
ENDROOT
BRANCH   1  12
ATOM     12  C   UNL     1       3.453 -11.439 -30.684  1.00  0.00     0.021 A 
ATOM     13  C   UNL     1       2.690 -12.556 -30.298  1.00  0.00     0.016 A 
ATOM     14  C   UNL     1       2.369 -12.766 -28.954  1.00  0.00     0.051 A 
ATOM     15  C   UNL     1       2.798 -11.861 -27.975  1.00  0.00     0.157 A 
ATOM     16  C   UNL     1       3.869 -10.527 -29.696  1.00  0.00     0.062 A 
ATOM     17  C   UNL     1       3.549 -10.736 -28.349  1.00  0.00     0.158 A 
BRANCH  15  18
ATOM     18  O   UNL     1       2.478 -12.074 -26.635  1.00  0.00    -0.504 OA
ATOM     19  H   UNL     1       1.522 -12.013 -26.302  1.00  0.00     0.293 HD
ENDBRANCH  15  18
BRANCH  17  20
ATOM     20  O   UNL     1       3.988  -9.813 -27.399  1.00  0.00    -0.504 OA
ATOM     21  H   UNL     1       4.972  -9.660 -27.214  1.00  0.00     0.293 HD
ENDBRANCH  17  20
ENDBRANCH   1  12
BRANCH   6  22
ATOM     22  O   UNL     1       5.343  -9.633 -36.805  1.00  0.00    -0.507 OA
ATOM     23  H   UNL     1       5.011  -8.883 -37.391  1.00  0.00     0.293 HD
ENDBRANCH   6  22
BRANCH   8  24
ATOM     24  O   UNL     1       2.315 -13.266 -37.528  1.00  0.00    -0.508 OA
ATOM     25  H   UNL     1       1.746 -14.043 -37.216  1.00  0.00     0.293 HD
ENDBRANCH   8  24
TORSDOF 5
ENDMDL
MODEL 4
REMARK VINA RESULT:    -6.256      2.169      7.214
REMARK INTER + INTRA:          -7.616
REMARK INTER:                  -7.317
REMARK INTRA:                  -0.299
REMARK UNBOUND:                -0.263
REMARK SMILES O=c1cc(-c2ccc(O)c(O)c2)oc2cc(O)cc(O)c12
REMARK SMILES IDX 4 1 3 2 2 3 1 4 21 5 19 6 18 7 16 8 15 9 14 10 13 11 5 12
REMARK SMILES IDX 6 13 7 14 8 15 12 16 10 17 9 18 11 20 20 22 17 24
REMARK H PARENT 9 19 11 21 20 23 17 25
REMARK Flexibility Score: inf
ROOT
ATOM      1  C   UNL     1       2.525 -12.184 -29.782  1.00  0.00     0.138 A 
ATOM      2  C   UNL     1       1.367 -12.660 -30.411  1.00  0.00     0.100 A 
ATOM      3  C   UNL     1       1.285 -12.654 -31.803  1.00  0.00     0.197 A 
ATOM      4  O   UNL     1       0.210 -13.036 -32.335  1.00  0.00    -0.289 OA
ATOM      5  C   UNL     1       2.384 -12.200 -32.572  1.00  0.00     0.107 A 
ATOM      6  C   UNL     1       2.427 -12.179 -33.998  1.00  0.00     0.134 A 
ATOM      7  C   UNL     1       3.533 -11.615 -34.647  1.00  0.00     0.093 A 
ATOM      8  C   UNL     1       4.620 -11.124 -33.925  1.00  0.00     0.123 A 
ATOM      9  C   UNL     1       4.611 -11.185 -32.530  1.00  0.00     0.094 A 
ATOM     10  C   UNL     1       3.508 -11.710 -31.852  1.00  0.00     0.146 A 
ATOM     11  O   UNL     1       3.531 -11.733 -30.525  1.00  0.00    -0.456 OA
ENDROOT
BRANCH   1  12
ATOM     12  C   UNL     1       2.668 -12.171 -28.304  1.00  0.00     0.021 A 
ATOM     13  C   UNL     1       2.167 -13.213 -27.501  1.00  0.00     0.016 A 
ATOM     14  C   UNL     1       2.307 -13.168 -26.112  1.00  0.00     0.051 A 
ATOM     15  C   UNL     1       2.942 -12.080 -25.499  1.00  0.00     0.157 A 
ATOM     16  C   UNL     1       3.292 -11.075 -27.680  1.00  0.00     0.062 A 
ATOM     17  C   UNL     1       3.434 -11.029 -26.288  1.00  0.00     0.158 A 
BRANCH  15  18
ATOM     18  O   UNL     1       3.082 -12.039 -24.113  1.00  0.00    -0.504 OA
ATOM     19  H   UNL     1       2.864 -12.843 -23.534  1.00  0.00     0.293 HD
ENDBRANCH  15  18
BRANCH  17  20
ATOM     20  O   UNL     1       4.069  -9.929 -25.709  1.00  0.00    -0.504 OA
ATOM     21  H   UNL     1       3.621  -9.362 -25.000  1.00  0.00     0.293 HD
ENDBRANCH  17  20
ENDBRANCH   1  12
BRANCH   6  22
ATOM     22  O   UNL     1       1.431 -12.714 -34.821  1.00  0.00    -0.507 OA
ATOM     23  H   UNL     1       1.565 -13.014 -35.774  1.00  0.00     0.293 HD
ENDBRANCH   6  22
BRANCH   8  24
ATOM     24  O   UNL     1       5.710 -10.584 -34.605  1.00  0.00    -0.508 OA
ATOM     25  H   UNL     1       6.423 -10.051 -34.122  1.00  0.00     0.293 HD
ENDBRANCH   8  24
TORSDOF 5
ENDMDL
MODEL 5
REMARK VINA RESULT:    -6.232      2.205      7.266
REMARK INTER + INTRA:          -7.588
REMARK INTER:                  -7.273
REMARK INTRA:                  -0.314
REMARK UNBOUND:                -0.263
REMARK SMILES O=c1cc(-c2ccc(O)c(O)c2)oc2cc(O)cc(O)c12
REMARK SMILES IDX 4 1 3 2 2 3 1 4 21 5 19 6 18 7 16 8 15 9 14 10 13 11 5 12
REMARK SMILES IDX 6 13 7 14 8 15 12 16 10 17 9 18 11 20 20 22 17 24
REMARK H PARENT 9 19 11 21 20 23 17 25
REMARK Flexibility Score: inf
ROOT
ATOM      1  C   UNL     1       3.286 -11.758 -32.094  1.00  0.00     0.138 A 
ATOM      2  C   UNL     1       2.472 -12.468 -32.988  1.00  0.00     0.100 A 
ATOM      3  C   UNL     1       2.690 -12.352 -34.361  1.00  0.00     0.197 A 
ATOM      4  O   UNL     1       1.907 -12.957 -35.138  1.00  0.00    -0.289 OA
ATOM      5  C   UNL     1       3.751 -11.546 -34.840  1.00  0.00     0.107 A 
ATOM      6  C   UNL     1       4.089 -11.379 -36.217  1.00  0.00     0.134 A 
ATOM      7  C   UNL     1       5.100 -10.479 -36.575  1.00  0.00     0.093 A 
ATOM      8  C   UNL     1       5.823  -9.783 -35.606  1.00  0.00     0.123 A 
ATOM      9  C   UNL     1       5.536  -9.977 -34.255  1.00  0.00     0.094 A 
ATOM     10  C   UNL     1       4.510 -10.842 -33.866  1.00  0.00     0.146 A 
ATOM     11  O   UNL     1       4.256 -10.984 -32.570  1.00  0.00    -0.456 OA
ENDROOT
BRANCH   1  12
ATOM     12  C   UNL     1       3.101 -11.848 -30.623  1.00  0.00     0.021 A 
ATOM     13  C   UNL     1       2.340 -12.873 -30.032  1.00  0.00     0.016 A 
ATOM     14  C   UNL     1       2.176 -12.926 -28.646  1.00  0.00     0.051 A 
ATOM     15  C   UNL     1       2.762 -11.953 -27.826  1.00  0.00     0.157 A 
ATOM     16  C   UNL     1       3.675 -10.866 -29.794  1.00  0.00     0.062 A 
ATOM     17  C   UNL     1       3.512 -10.917 -28.405  1.00  0.00     0.158 A 
BRANCH  15  18
ATOM     18  O   UNL     1       2.597 -12.009 -26.443  1.00  0.00    -0.504 OA
ATOM     19  H   UNL     1       2.210 -12.829 -25.988  1.00  0.00     0.293 HD
ENDBRANCH  15  18
BRANCH  17  20
ATOM     20  O   UNL     1       4.105  -9.930 -27.617  1.00  0.00    -0.504 OA
ATOM     21  H   UNL     1       3.846  -8.954 -27.693  1.00  0.00     0.293 HD
ENDBRANCH  17  20
ENDBRANCH   1  12
BRANCH   6  22
ATOM     22  O   UNL     1       3.485 -12.082 -37.263  1.00  0.00    -0.507 OA
ATOM     23  H   UNL     1       3.794 -12.074 -38.223  1.00  0.00     0.293 HD
ENDBRANCH   6  22
BRANCH   8  24
ATOM     24  O   UNL     1       6.833  -8.907 -35.999  1.00  0.00    -0.508 OA
ATOM     25  H   UNL     1       7.041  -8.069 -35.471  1.00  0.00     0.293 HD
ENDBRANCH   8  24
TORSDOF 5
ENDMDL
MODEL 6
REMARK VINA RESULT:    -6.168      3.839      6.011
REMARK INTER + INTRA:          -7.513
REMARK INTER:                  -7.229
REMARK INTRA:                  -0.284
REMARK UNBOUND:                -0.263
REMARK SMILES O=c1cc(-c2ccc(O)c(O)c2)oc2cc(O)cc(O)c12
REMARK SMILES IDX 4 1 3 2 2 3 1 4 21 5 19 6 18 7 16 8 15 9 14 10 13 11 5 12
REMARK SMILES IDX 6 13 7 14 8 15 12 16 10 17 9 18 11 20 20 22 17 24
REMARK H PARENT 9 19 11 21 20 23 17 25
REMARK Flexibility Score: inf
ROOT
ATOM      1  C   UNL     1       2.674 -11.796 -27.117  1.00  0.00     0.138 A 
ATOM      2  C   UNL     1       1.550 -12.254 -26.415  1.00  0.00     0.100 A 
ATOM      3  C   UNL     1       1.494 -12.109 -25.029  1.00  0.00     0.197 A 
ATOM      4  O   UNL     1       0.497 -12.580 -24.423  1.00  0.00    -0.289 OA
ATOM      5  C   UNL     1       2.557 -11.470 -24.344  1.00  0.00     0.107 A 
ATOM      6  C   UNL     1       2.595 -11.236 -22.937  1.00  0.00     0.134 A 
ATOM      7  C   UNL     1       3.744 -10.682 -22.361  1.00  0.00     0.093 A 
ATOM      8  C   UNL     1       4.832 -10.301 -23.144  1.00  0.00     0.123 A 
ATOM      9  C   UNL     1       4.787 -10.478 -24.528  1.00  0.00     0.094 A 
ATOM     10  C   UNL     1       3.668 -11.061 -25.130  1.00  0.00     0.146 A 
ATOM     11  O   UNL     1       3.672 -11.229 -26.447  1.00  0.00    -0.456 OA
ENDROOT
BRANCH   1  12
ATOM     12  C   UNL     1       2.784 -11.922 -28.592  1.00  0.00     0.021 A 
ATOM     13  C   UNL     1       3.457 -10.962 -29.370  1.00  0.00     0.016 A 
ATOM     14  C   UNL     1       3.536 -11.102 -30.758  1.00  0.00     0.051 A 
ATOM     15  C   UNL     1       2.940 -12.198 -31.393  1.00  0.00     0.157 A 
ATOM     16  C   UNL     1       2.176 -13.013 -29.240  1.00  0.00     0.062 A 
ATOM     17  C   UNL     1       2.254 -13.156 -30.630  1.00  0.00     0.158 A 
BRANCH  15  18
ATOM     18  O   UNL     1       3.022 -12.336 -32.778  1.00  0.00    -0.504 OA
ATOM     19  H   UNL     1       2.901 -11.542 -33.398  1.00  0.00     0.293 HD
ENDBRANCH  15  18
BRANCH  17  20
ATOM     20  O   UNL     1       1.646 -14.257 -31.232  1.00  0.00    -0.504 OA
ATOM     21  H   UNL     1       1.597 -14.360 -32.238  1.00  0.00     0.293 HD
ENDBRANCH  17  20
ENDBRANCH   1  12
BRANCH   6  22
ATOM     22  O   UNL     1       1.532 -11.506 -22.069  1.00  0.00    -0.507 OA
ATOM     23  H   UNL     1       0.576 -11.655 -22.351  1.00  0.00     0.293 HD
ENDBRANCH   6  22
BRANCH   8  24
ATOM     24  O   UNL     1       5.953  -9.738 -22.538  1.00  0.00    -0.508 OA
ATOM     25  H   UNL     1       6.312  -8.835 -22.823  1.00  0.00     0.293 HD
ENDBRANCH   8  24
TORSDOF 5
ENDMDL
MODEL 7
REMARK VINA RESULT:    -6.148      2.232      2.822
REMARK INTER + INTRA:          -7.489
REMARK INTER:                  -7.197
REMARK INTRA:                  -0.293
REMARK UNBOUND:                -0.263
REMARK SMILES O=c1cc(-c2ccc(O)c(O)c2)oc2cc(O)cc(O)c12
REMARK SMILES IDX 4 1 3 2 2 3 1 4 21 5 19 6 18 7 16 8 15 9 14 10 13 11 5 12
REMARK SMILES IDX 6 13 7 14 8 15 12 16 10 17 9 18 11 20 20 22 17 24
REMARK H PARENT 9 19 11 21 20 23 17 25
REMARK Flexibility Score: inf
ROOT
ATOM      1  C   UNL     1       3.953 -11.344 -32.199  1.00  0.00     0.138 A 
ATOM      2  C   UNL     1       3.167 -12.502 -32.127  1.00  0.00     0.100 A 
ATOM      3  C   UNL     1       2.672 -12.925 -30.894  1.00  0.00     0.197 A 
ATOM      4  O   UNL     1       2.016 -13.999 -30.856  1.00  0.00    -0.289 OA
ATOM      5  C   UNL     1       2.938 -12.165 -29.729  1.00  0.00     0.107 A 
ATOM      6  C   UNL     1       2.458 -12.481 -28.423  1.00  0.00     0.134 A 
ATOM      7  C   UNL     1       2.868 -11.707 -27.331  1.00  0.00     0.093 A 
ATOM      8  C   UNL     1       3.694 -10.597 -27.503  1.00  0.00     0.123 A 
ATOM      9  C   UNL     1       4.129 -10.248 -28.783  1.00  0.00     0.094 A 
ATOM     10  C   UNL     1       3.765 -11.020 -29.889  1.00  0.00     0.146 A 
ATOM     11  O   UNL     1       4.215 -10.665 -31.087  1.00  0.00    -0.456 OA
ENDROOT
BRANCH   1  12
ATOM     12  C   UNL     1       4.503 -10.846 -33.485  1.00  0.00     0.021 A 
ATOM     13  C   UNL     1       5.037  -9.550 -33.612  1.00  0.00     0.016 A 
ATOM     14  C   UNL     1       5.538  -9.105 -34.838  1.00  0.00     0.051 A 
ATOM     15  C   UNL     1       5.510  -9.943 -35.959  1.00  0.00     0.157 A 
ATOM     16  C   UNL     1       4.466 -11.677 -34.620  1.00  0.00     0.062 A 
ATOM     17  C   UNL     1       4.969 -11.234 -35.849  1.00  0.00     0.158 A 
BRANCH  15  18
ATOM     18  O   UNL     1       6.013  -9.497 -37.181  1.00  0.00    -0.504 OA
ATOM     19  H   UNL     1       6.739 -10.005 -37.673  1.00  0.00     0.293 HD
ENDBRANCH  15  18
BRANCH  17  20
ATOM     20  O   UNL     1       4.922 -12.092 -36.948  1.00  0.00    -0.504 OA
ATOM     21  H   UNL     1       4.193 -12.786 -37.057  1.00  0.00     0.293 HD
ENDBRANCH  17  20
ENDBRANCH   1  12
BRANCH   6  22
ATOM     22  O   UNL     1       1.565 -13.521 -28.146  1.00  0.00    -0.507 OA
ATOM     23  H   UNL     1       1.084 -13.656 -27.271  1.00  0.00     0.293 HD
ENDBRANCH   6  22
BRANCH   8  24
ATOM     24  O   UNL     1       4.070  -9.840 -26.395  1.00  0.00    -0.508 OA
ATOM     25  H   UNL     1       3.730 -10.058 -25.466  1.00  0.00     0.293 HD
ENDBRANCH   8  24
TORSDOF 5
ENDMDL
MODEL 8
REMARK VINA RESULT:    -6.053      2.654      4.185
REMARK INTER + INTRA:          -7.377
REMARK INTER:                  -7.076
REMARK INTRA:                  -0.301
REMARK UNBOUND:                -0.263
REMARK SMILES O=c1cc(-c2ccc(O)c(O)c2)oc2cc(O)cc(O)c12
REMARK SMILES IDX 4 1 3 2 2 3 1 4 21 5 19 6 18 7 16 8 15 9 14 10 13 11 5 12
REMARK SMILES IDX 6 13 7 14 8 15 12 16 10 17 9 18 11 20 20 22 17 24
REMARK H PARENT 9 19 11 21 20 23 17 25
REMARK Flexibility Score: inf
ROOT
ATOM      1  C   UNL     1       2.396 -12.195 -29.423  1.00  0.00     0.138 A 
ATOM      2  C   UNL     1       1.492 -13.019 -28.737  1.00  0.00     0.100 A 
ATOM      3  C   UNL     1       1.444 -12.982 -27.344  1.00  0.00     0.197 A 
ATOM      4  O   UNL     1       0.661 -13.773 -26.757  1.00  0.00    -0.289 OA
ATOM      5  C   UNL     1       2.283 -12.090 -26.633  1.00  0.00     0.107 A 
ATOM      6  C   UNL     1       2.298 -11.941 -25.214  1.00  0.00     0.134 A 
ATOM      7  C   UNL     1       3.242 -11.096 -24.618  1.00  0.00     0.093 A 
ATOM      8  C   UNL     1       4.133 -10.352 -25.390  1.00  0.00     0.123 A 
ATOM      9  C   UNL     1       4.095 -10.450 -26.782  1.00  0.00     0.094 A 
ATOM     10  C   UNL     1       3.187 -11.311 -27.405  1.00  0.00     0.146 A 
ATOM     11  O   UNL     1       3.195 -11.390 -28.731  1.00  0.00    -0.456 OA
ENDROOT
BRANCH   1  12
ATOM     12  C   UNL     1       2.487 -12.192 -30.905  1.00  0.00     0.021 A 
ATOM     13  C   UNL     1       1.350 -12.356 -31.718  1.00  0.00     0.016 A 
ATOM     14  C   UNL     1       1.468 -12.358 -33.110  1.00  0.00     0.051 A 
ATOM     15  C   UNL     1       2.722 -12.203 -33.714  1.00  0.00     0.157 A 
ATOM     16  C   UNL     1       3.745 -12.050 -31.519  1.00  0.00     0.062 A 
ATOM     17  C   UNL     1       3.865 -12.051 -32.914  1.00  0.00     0.158 A 
BRANCH  15  18
ATOM     18  O   UNL     1       2.836 -12.204 -35.104  1.00  0.00    -0.504 OA
ATOM     19  H   UNL     1       3.170 -13.017 -35.608  1.00  0.00     0.293 HD
ENDBRANCH  15  18
BRANCH  17  20
ATOM     20  O   UNL     1       5.129 -11.898 -33.484  1.00  0.00    -0.504 OA
ATOM     21  H   UNL     1       5.475 -10.997 -33.790  1.00  0.00     0.293 HD
ENDBRANCH  17  20
ENDBRANCH   1  12
BRANCH   6  22
ATOM     22  O   UNL     1       1.401 -12.577 -24.350  1.00  0.00    -0.507 OA
ATOM     23  H   UNL     1       0.929 -12.135 -23.576  1.00  0.00     0.293 HD
ENDBRANCH   6  22
BRANCH   8  24
ATOM     24  O   UNL     1       5.049  -9.509 -24.764  1.00  0.00    -0.508 OA
ATOM     25  H   UNL     1       5.020  -8.505 -24.894  1.00  0.00     0.293 HD
ENDBRANCH   8  24
TORSDOF 5
ENDMDL
MODEL 9
REMARK VINA RESULT:    -6.040      3.507      7.370
REMARK INTER + INTRA:          -7.362
REMARK INTER:                  -7.071
REMARK INTRA:                  -0.292
REMARK UNBOUND:                -0.263
REMARK SMILES O=c1cc(-c2ccc(O)c(O)c2)oc2cc(O)cc(O)c12
REMARK SMILES IDX 4 1 3 2 2 3 1 4 21 5 19 6 18 7 16 8 15 9 14 10 13 11 5 12
REMARK SMILES IDX 6 13 7 14 8 15 12 16 10 17 9 18 11 20 20 22 17 24
REMARK H PARENT 9 19 11 21 20 23 17 25
REMARK Flexibility Score: inf
ROOT
ATOM      1  C   UNL     1       3.792  -9.934 -34.266  1.00  0.00     0.138 A 
ATOM      2  C   UNL     1       2.939  -8.903 -34.683  1.00  0.00     0.100 A 
ATOM      3  C   UNL     1       3.452  -7.842 -35.428  1.00  0.00     0.197 A 
ATOM      4  O   UNL     1       2.672  -6.904 -35.740  1.00  0.00    -0.289 OA
ATOM      5  C   UNL     1       4.822  -7.830 -35.788  1.00  0.00     0.107 A 
ATOM      6  C   UNL     1       5.449  -6.817 -36.574  1.00  0.00     0.134 A 
ATOM      7  C   UNL     1       6.833  -6.864 -36.782  1.00  0.00     0.093 A 
ATOM      8  C   UNL     1       7.603  -7.914 -36.283  1.00  0.00     0.123 A 
ATOM      9  C   UNL     1       6.993  -8.936 -35.555  1.00  0.00     0.094 A 
ATOM     10  C   UNL     1       5.619  -8.901 -35.301  1.00  0.00     0.146 A 
ATOM     11  O   UNL     1       5.080  -9.884 -34.589  1.00  0.00    -0.456 OA
ENDROOT
BRANCH   1  12
ATOM     12  C   UNL     1       3.299 -11.089 -33.473  1.00  0.00     0.021 A 
ATOM     13  C   UNL     1       4.177 -11.940 -32.777  1.00  0.00     0.016 A 
ATOM     14  C   UNL     1       3.685 -13.025 -32.048  1.00  0.00     0.051 A 
ATOM     15  C   UNL     1       2.309 -13.283 -32.006  1.00  0.00     0.157 A 
ATOM     16  C   UNL     1       1.919 -11.363 -33.437  1.00  0.00     0.062 A 
ATOM     17  C   UNL     1       1.423 -12.449 -32.706  1.00  0.00     0.158 A 
BRANCH  15  18
ATOM     18  O   UNL     1       1.821 -14.366 -31.275  1.00  0.00    -0.504 OA
ATOM     19  H   UNL     1       0.826 -14.529 -31.170  1.00  0.00     0.293 HD
ENDBRANCH  15  18
BRANCH  17  20
ATOM     20  O   UNL     1       0.048 -12.681 -32.688  1.00  0.00    -0.504 OA
ATOM     21  H   UNL     1      -0.563 -12.238 -32.013  1.00  0.00     0.293 HD
ENDBRANCH  17  20
ENDBRANCH   1  12
BRANCH   6  22
ATOM     22  O   UNL     1       4.764  -5.764 -37.188  1.00  0.00    -0.507 OA
ATOM     23  H   UNL     1       3.942  -5.314 -36.818  1.00  0.00     0.293 HD
ENDBRANCH   6  22
BRANCH   8  24
ATOM     24  O   UNL     1       8.975  -7.935 -36.523  1.00  0.00    -0.508 OA
ATOM     25  H   UNL     1       9.627  -7.454 -35.915  1.00  0.00     0.293 HD
ENDBRANCH   8  24
TORSDOF 5
ENDMDL
