MODEL 1
REMARK VINA RESULT:    -5.772      0.000      0.000
REMARK INTER + INTRA:         -10.206
REMARK INTER:                  -9.146
REMARK INTRA:                  -1.060
REMARK UNBOUND:                -1.060
REMARK SMILES CCCCCCCCCCCC(=O)[O-]
REMARK SMILES IDX 7 1 8 2 9 3 10 4 11 5 12 6 13 7 14 8 6 9 5 10 4 11 3 12 2 13
REMARK SMILES IDX 1 14
REMARK H PARENT
REMARK Flexibility Score: inf
ROOT
ATOM      1  C   UNL     1      -7.586 -17.065  -3.778  1.00  0.00     0.000 C 
ENDROOT
BRANCH   1   2
ATOM      2  C   UNL     1      -6.809 -16.279  -2.712  1.00  0.00     0.000 C 
BRANCH   2   3
ATOM      3  C   UNL     1      -5.291 -16.295  -2.953  1.00  0.00     0.000 C 
BRANCH   3   4
ATOM      4  C   UNL     1      -4.485 -16.045  -1.671  1.00  0.00     0.006 C 
BRANCH   4   5
ATOM      5  C   UNL     1      -3.198 -16.874  -1.661  1.00  0.00     0.053 C 
BRANCH   5   6
ATOM      6  C   UNL     1      -2.834 -17.264  -0.263  1.00  0.00     0.041 C 
ATOM      7  O   UNL     1      -3.403 -16.714   0.716  1.00  0.00    -0.550 OA
ATOM      8  O   UNL     1      -1.903 -18.271  -0.042  1.00  0.00    -0.550 OA
ENDBRANCH   5   6
ENDBRANCH   4   5
ENDBRANCH   3   4
ENDBRANCH   2   3
ENDBRANCH   1   2
BRANCH   1   9
ATOM      9  C   UNL     1      -6.758 -17.217  -5.060  1.00  0.00     0.000 C 
BRANCH   9  10
ATOM     10  C   UNL     1      -7.161 -16.163  -6.103  1.00  0.00    -0.000 C 
BRANCH  10  11
ATOM     11  C   UNL     1      -8.552 -15.566  -5.832  1.00  0.00    -0.000 C 
BRANCH  11  12
ATOM     12  C   UNL     1      -8.520 -14.034  -5.688  1.00  0.00    -0.000 C 
BRANCH  12  13
ATOM     13  C   UNL     1      -7.092 -13.488  -5.537  1.00  0.00    -0.003 C 
ATOM     14  C   UNL     1      -6.828 -12.900  -4.152  1.00  0.00     0.004 C 
ENDBRANCH  12  13
ENDBRANCH  11  12
ENDBRANCH  10  11
ENDBRANCH   9  10
ENDBRANCH   1   9
TORSDOF 10
ENDMDL
MODEL 2
REMARK VINA RESULT:    -5.633      3.016      5.891
REMARK INTER + INTRA:          -9.986
REMARK INTER:                  -9.014
REMARK INTRA:                  -0.972
REMARK UNBOUND:                -1.060
REMARK SMILES CCCCCCCCCCCC(=O)[O-]
REMARK SMILES IDX 7 1 8 2 9 3 10 4 11 5 12 6 13 7 14 8 6 9 5 10 4 11 3 12 2 13
REMARK SMILES IDX 1 14
REMARK H PARENT
REMARK Flexibility Score: inf
ROOT
ATOM      1  C   UNL     1      -6.988 -12.978  -3.534  1.00  0.00     0.000 C 
ENDROOT
BRANCH   1   2
ATOM      2  C   UNL     1      -6.911 -13.427  -5.001  1.00  0.00     0.000 C 
BRANCH   2   3
ATOM      3  C   UNL     1      -8.298 -13.569  -5.651  1.00  0.00     0.000 C 
BRANCH   3   4
ATOM      4  C   UNL     1      -8.683 -15.033  -5.909  1.00  0.00     0.006 C 
BRANCH   4   5
ATOM      5  C   UNL     1      -7.453 -15.867  -6.275  1.00  0.00     0.053 C 
BRANCH   5   6
ATOM      6  C   UNL     1      -7.582 -17.258  -5.740  1.00  0.00     0.041 C 
ATOM      7  O   UNL     1      -6.778 -18.155  -6.106  1.00  0.00    -0.550 OA
ATOM      8  O   UNL     1      -8.560 -17.552  -4.798  1.00  0.00    -0.550 OA
ENDBRANCH   5   6
ENDBRANCH   4   5
ENDBRANCH   3   4
ENDBRANCH   2   3
ENDBRANCH   1   2
BRANCH   1   9
ATOM      9  C   UNL     1      -6.147 -13.894  -2.636  1.00  0.00     0.000 C 
BRANCH   9  10
ATOM     10  C   UNL     1      -6.654 -15.343  -2.700  1.00  0.00    -0.000 C 
BRANCH  10  11
ATOM     11  C   UNL     1      -5.510 -16.365  -2.810  1.00  0.00    -0.000 C 
BRANCH  11  12
ATOM     12  C   UNL     1      -4.678 -16.462  -1.520  1.00  0.00    -0.000 C 
BRANCH  12  13
ATOM     13  C   UNL     1      -3.168 -16.366  -1.786  1.00  0.00    -0.003 C 
ATOM     14  C   UNL     1      -2.381 -17.506  -1.141  1.00  0.00     0.004 C 
ENDBRANCH  12  13
ENDBRANCH  11  12
ENDBRANCH  10  11
ENDBRANCH   9  10
ENDBRANCH   1   9
TORSDOF 10
ENDMDL
MODEL 3
REMARK VINA RESULT:    -5.594      1.027      2.444
REMARK INTER + INTRA:          -9.925
REMARK INTER:                  -8.912
REMARK INTRA:                  -1.013
REMARK UNBOUND:                -1.060
REMARK SMILES CCCCCCCCCCCC(=O)[O-]
REMARK SMILES IDX 7 1 8 2 9 3 10 4 11 5 12 6 13 7 14 8 6 9 5 10 4 11 3 12 2 13
REMARK SMILES IDX 1 14
REMARK H PARENT
REMARK Flexibility Score: inf
ROOT
ATOM      1  C   UNL     1      -6.117 -13.929  -2.761  1.00  0.00     0.000 C 
ENDROOT
BRANCH   1   2
ATOM      2  C   UNL     1      -6.756 -15.320  -2.637  1.00  0.00     0.000 C 
BRANCH   2   3
ATOM      3  C   UNL     1      -5.715 -16.452  -2.639  1.00  0.00     0.000 C 
BRANCH   3   4
ATOM      4  C   UNL     1      -4.441 -16.086  -1.865  1.00  0.00     0.006 C 
BRANCH   4   5
ATOM      5  C   UNL     1      -4.174 -17.092  -0.742  1.00  0.00     0.053 C 
BRANCH   5   6
ATOM      6  C   UNL     1      -2.842 -16.833  -0.110  1.00  0.00     0.041 C 
ATOM      7  O   UNL     1      -2.744 -16.725   1.140  1.00  0.00    -0.550 OA
ATOM      8  O   UNL     1      -1.701 -16.762  -0.899  1.00  0.00    -0.550 OA
ENDBRANCH   5   6
ENDBRANCH   4   5
ENDBRANCH   3   4
ENDBRANCH   2   3
ENDBRANCH   1   2
BRANCH   1   9
ATOM      9  C   UNL     1      -7.046 -12.963  -3.508  1.00  0.00     0.000 C 
BRANCH   9  10
ATOM     10  C   UNL     1      -6.953 -13.175  -5.026  1.00  0.00    -0.000 C 
BRANCH  10  11
ATOM     11  C   UNL     1      -8.311 -13.527  -5.657  1.00  0.00    -0.000 C 
BRANCH  11  12
ATOM     12  C   UNL     1      -8.484 -15.039  -5.884  1.00  0.00    -0.000 C 
BRANCH  12  13
ATOM     13  C   UNL     1      -7.193 -15.711  -6.373  1.00  0.00    -0.003 C 
ATOM     14  C   UNL     1      -7.118 -17.191  -5.999  1.00  0.00     0.004 C 
ENDBRANCH  12  13
ENDBRANCH  11  12
ENDBRANCH  10  11
ENDBRANCH   9  10
ENDBRANCH   1   9
TORSDOF 10
ENDMDL
MODEL 4
REMARK VINA RESULT:    -5.548      1.312      2.509
REMARK INTER + INTRA:          -9.852
REMARK INTER:                  -9.202
REMARK INTRA:                  -0.650
REMARK UNBOUND:                -1.060
REMARK SMILES CCCCCCCCCCCC(=O)[O-]
REMARK SMILES IDX 7 1 8 2 9 3 10 4 11 5 12 6 13 7 14 8 6 9 5 10 4 11 3 12 2 13
REMARK SMILES IDX 1 14
REMARK H PARENT
REMARK Flexibility Score: inf
ROOT
ATOM      1  C   UNL     1      -6.809 -15.416  -3.231  1.00  0.00     0.000 C 
ENDROOT
BRANCH   1   2
ATOM      2  C   UNL     1      -5.928 -16.494  -2.583  1.00  0.00     0.000 C 
BRANCH   2   3
ATOM      3  C   UNL     1      -4.708 -15.904  -1.858  1.00  0.00     0.000 C 
BRANCH   3   4
ATOM      4  C   UNL     1      -3.953 -16.949  -1.024  1.00  0.00     0.006 C 
BRANCH   4   5
ATOM      5  C   UNL     1      -2.447 -16.881  -1.292  1.00  0.00     0.053 C 
BRANCH   5   6
ATOM      6  C   UNL     1      -1.778 -18.150  -0.866  1.00  0.00     0.041 C 
ATOM      7  O   UNL     1      -1.219 -18.889  -1.718  1.00  0.00    -0.550 OA
ATOM      8  O   UNL     1      -1.730 -18.491   0.480  1.00  0.00    -0.550 OA
ENDBRANCH   5   6
ENDBRANCH   4   5
ENDBRANCH   3   4
ENDBRANCH   2   3
ENDBRANCH   1   2
BRANCH   1   9
ATOM      9  C   UNL     1      -6.414 -14.017  -2.742  1.00  0.00     0.000 C 
BRANCH   9  10
ATOM     10  C   UNL     1      -6.819 -12.943  -3.763  1.00  0.00    -0.000 C 
BRANCH  10  11
ATOM     11  C   UNL     1      -7.051 -13.522  -5.169  1.00  0.00    -0.000 C 
BRANCH  11  12
ATOM     12  C   UNL     1      -8.474 -13.259  -5.690  1.00  0.00    -0.000 C 
BRANCH  12  13
ATOM     13  C   UNL     1      -9.356 -14.516  -5.649  1.00  0.00    -0.003 C 
ATOM     14  C   UNL     1      -8.721 -15.707  -6.367  1.00  0.00     0.004 C 
ENDBRANCH  12  13
ENDBRANCH  11  12
ENDBRANCH  10  11
ENDBRANCH   9  10
ENDBRANCH   1   9
TORSDOF 10
ENDMDL
MODEL 5
REMARK VINA RESULT:    -5.483      0.927      1.350
REMARK INTER + INTRA:          -9.748
REMARK INTER:                  -8.766
REMARK INTRA:                  -0.982
REMARK UNBOUND:                -1.060
REMARK SMILES CCCCCCCCCCCC(=O)[O-]
REMARK SMILES IDX 7 1 8 2 9 3 10 4 11 5 12 6 13 7 14 8 6 9 5 10 4 11 3 12 2 13
REMARK SMILES IDX 1 14
REMARK H PARENT
REMARK Flexibility Score: inf
ROOT
ATOM      1  C   UNL     1      -7.118 -16.840  -2.993  1.00  0.00     0.000 C 
ENDROOT
BRANCH   1   2
ATOM      2  C   UNL     1      -5.637 -16.503  -3.224  1.00  0.00     0.000 C 
BRANCH   2   3
ATOM      3  C   UNL     1      -4.970 -15.887  -1.983  1.00  0.00     0.000 C 
BRANCH   3   4
ATOM      4  C   UNL     1      -4.306 -16.940  -1.084  1.00  0.00     0.006 C 
BRANCH   4   5
ATOM      5  C   UNL     1      -2.803 -16.682  -0.957  1.00  0.00     0.053 C 
BRANCH   5   6
ATOM      6  C   UNL     1      -2.067 -17.965  -0.726  1.00  0.00     0.041 C 
ATOM      7  O   UNL     1      -1.619 -18.622  -1.701  1.00  0.00    -0.550 OA
ATOM      8  O   UNL     1      -1.833 -18.408   0.570  1.00  0.00    -0.550 OA
ENDBRANCH   5   6
ENDBRANCH   4   5
ENDBRANCH   3   4
ENDBRANCH   2   3
ENDBRANCH   1   2
BRANCH   1   9
ATOM      9  C   UNL     1      -7.904 -16.788  -4.310  1.00  0.00     0.000 C 
BRANCH   9  10
ATOM     10  C   UNL     1      -6.953 -16.762  -5.517  1.00  0.00    -0.000 C 
BRANCH  10  11
ATOM     11  C   UNL     1      -7.265 -15.611  -6.488  1.00  0.00    -0.000 C 
BRANCH  11  12
ATOM     12  C   UNL     1      -7.950 -14.421  -5.794  1.00  0.00    -0.000 C 
BRANCH  12  13
ATOM     13  C   UNL     1      -6.963 -13.295  -5.448  1.00  0.00    -0.003 C 
ATOM     14  C   UNL     1      -6.824 -13.075  -3.942  1.00  0.00     0.004 C 
ENDBRANCH  12  13
ENDBRANCH  11  12
ENDBRANCH  10  11
ENDBRANCH   9  10
ENDBRANCH   1   9
TORSDOF 10
ENDMDL
MODEL 6
REMARK VINA RESULT:    -5.398      3.544      6.531
REMARK INTER + INTRA:          -9.613
REMARK INTER:                  -8.968
REMARK INTRA:                  -0.645
REMARK UNBOUND:                -1.060
REMARK SMILES CCCCCCCCCCCC(=O)[O-]
REMARK SMILES IDX 7 1 8 2 9 3 10 4 11 5 12 6 13 7 14 8 6 9 5 10 4 11 3 12 2 13
REMARK SMILES IDX 1 14
REMARK H PARENT
REMARK Flexibility Score: inf
ROOT
ATOM      1  C   UNL     1      -6.732 -15.335  -2.732  1.00  0.00     0.000 C 
ENDROOT
BRANCH   1   2
ATOM      2  C   UNL     1      -6.133 -13.922  -2.774  1.00  0.00     0.000 C 
BRANCH   2   3
ATOM      3  C   UNL     1      -6.913 -12.975  -3.700  1.00  0.00     0.000 C 
BRANCH   3   4
ATOM      4  C   UNL     1      -6.925 -13.451  -5.159  1.00  0.00     0.006 C 
BRANCH   4   5
ATOM      5  C   UNL     1      -8.354 -13.739  -5.629  1.00  0.00     0.053 C 
BRANCH   5   6
ATOM      6  C   UNL     1      -8.515 -15.189  -5.964  1.00  0.00     0.041 C 
ATOM      7  O   UNL     1      -9.525 -15.823  -5.561  1.00  0.00    -0.550 OA
ATOM      8  O   UNL     1      -7.575 -15.826  -6.763  1.00  0.00    -0.550 OA
ENDBRANCH   5   6
ENDBRANCH   4   5
ENDBRANCH   3   4
ENDBRANCH   2   3
ENDBRANCH   1   2
BRANCH   1   9
ATOM      9  C   UNL     1      -5.630 -16.401  -2.764  1.00  0.00     0.000 C 
BRANCH   9  10
ATOM     10  C   UNL     1      -4.463 -16.013  -1.842  1.00  0.00    -0.000 C 
BRANCH  10  11
ATOM     11  C   UNL     1      -4.200 -17.063  -0.750  1.00  0.00    -0.000 C 
BRANCH  11  12
ATOM     12  C   UNL     1      -2.732 -17.524  -0.714  1.00  0.00    -0.000 C 
BRANCH  12  13
ATOM     13  C   UNL     1      -1.895 -16.905  -1.844  1.00  0.00    -0.003 C 
ATOM     14  C   UNL     1      -0.925 -17.903  -2.475  1.00  0.00     0.004 C 
ENDBRANCH  12  13
ENDBRANCH  11  12
ENDBRANCH  10  11
ENDBRANCH   9  10
ENDBRANCH   1   9
TORSDOF 10
ENDMDL
MODEL 7
REMARK VINA RESULT:    -5.263      3.514      6.657
REMARK INTER + INTRA:          -9.400
REMARK INTER:                  -8.794
REMARK INTRA:                  -0.607
REMARK UNBOUND:                -1.060
REMARK SMILES CCCCCCCCCCCC(=O)[O-]
REMARK SMILES IDX 7 1 8 2 9 3 10 4 11 5 12 6 13 7 14 8 6 9 5 10 4 11 3 12 2 13
REMARK SMILES IDX 1 14
REMARK H PARENT
REMARK Flexibility Score: inf
ROOT
ATOM      1  C   UNL     1      -5.752 -15.595  -2.246  1.00  0.00     0.000 C 
ENDROOT
BRANCH   1   2
ATOM      2  C   UNL     1      -6.148 -16.231  -3.587  1.00  0.00     0.000 C 
BRANCH   2   3
ATOM      3  C   UNL     1      -7.667 -16.424  -3.726  1.00  0.00     0.000 C 
BRANCH   3   4
ATOM      4  C   UNL     1      -8.238 -15.746  -4.980  1.00  0.00     0.006 C 
BRANCH   4   5
ATOM      5  C   UNL     1      -7.241 -14.740  -5.560  1.00  0.00     0.053 C 
BRANCH   5   6
ATOM      6  C   UNL     1      -7.665 -13.339  -5.246  1.00  0.00     0.041 C 
ATOM      7  O   UNL     1      -7.001 -12.643  -4.435  1.00  0.00    -0.550 OA
ATOM      8  O   UNL     1      -8.766 -12.786  -5.889  1.00  0.00    -0.550 OA
ENDBRANCH   5   6
ENDBRANCH   4   5
ENDBRANCH   3   4
ENDBRANCH   2   3
ENDBRANCH   1   2
BRANCH   1   9
ATOM      9  C   UNL     1      -4.290 -15.906  -1.902  1.00  0.00     0.000 C 
BRANCH   9  10
ATOM     10  C   UNL     1      -4.200 -16.952  -0.780  1.00  0.00    -0.000 C 
BRANCH  10  11
ATOM     11  C   UNL     1      -2.783 -17.529  -0.624  1.00  0.00    -0.000 C 
BRANCH  11  12
ATOM     12  C   UNL     1      -1.863 -17.165  -1.802  1.00  0.00    -0.000 C 
BRANCH  12  13
ATOM     13  C   UNL     1      -0.619 -16.382  -1.355  1.00  0.00    -0.003 C 
ATOM     14  C   UNL     1      -0.014 -15.542  -2.480  1.00  0.00     0.004 C 
ENDBRANCH  12  13
ENDBRANCH  11  12
ENDBRANCH  10  11
ENDBRANCH   9  10
ENDBRANCH   1   9
TORSDOF 10
ENDMDL
MODEL 8
REMARK VINA RESULT:    -5.208      1.579      2.744
REMARK INTER + INTRA:          -9.313
REMARK INTER:                  -8.787
REMARK INTRA:                  -0.526
REMARK UNBOUND:                -1.060
REMARK SMILES CCCCCCCCCCCC(=O)[O-]
REMARK SMILES IDX 7 1 8 2 9 3 10 4 11 5 12 6 13 7 14 8 6 9 5 10 4 11 3 12 2 13
REMARK SMILES IDX 1 14
REMARK H PARENT
REMARK Flexibility Score: inf
ROOT
ATOM      1  C   UNL     1      -4.943 -15.767  -1.888  1.00  0.00     0.000 C 
ENDROOT
BRANCH   1   2
ATOM      2  C   UNL     1      -3.943 -16.782  -1.313  1.00  0.00     0.000 C 
BRANCH   2   3
ATOM      3  C   UNL     1      -2.483 -16.419  -1.630  1.00  0.00     0.000 C 
BRANCH   3   4
ATOM      4  C   UNL     1      -1.552 -17.640  -1.612  1.00  0.00     0.006 C 
BRANCH   4   5
ATOM      5  C   UNL     1      -1.601 -18.346  -0.254  1.00  0.00     0.053 C 
BRANCH   5   6
ATOM      6  C   UNL     1      -1.080 -17.448   0.824  1.00  0.00     0.041 C 
ATOM      7  O   UNL     1      -1.842 -17.060   1.748  1.00  0.00    -0.550 OA
ATOM      8  O   UNL     1       0.259 -17.079   0.835  1.00  0.00    -0.550 OA
ENDBRANCH   5   6
ENDBRANCH   4   5
ENDBRANCH   3   4
ENDBRANCH   2   3
ENDBRANCH   1   2
BRANCH   1   9
ATOM      9  C   UNL     1      -5.814 -16.410  -2.974  1.00  0.00     0.000 C 
BRANCH   9  10
ATOM     10  C   UNL     1      -6.838 -15.405  -3.524  1.00  0.00    -0.000 C 
BRANCH  10  11
ATOM     11  C   UNL     1      -6.576 -13.970  -3.038  1.00  0.00    -0.000 C 
BRANCH  11  12
ATOM     12  C   UNL     1      -6.798 -12.921  -4.142  1.00  0.00    -0.000 C 
BRANCH  12  13
ATOM     13  C   UNL     1      -7.234 -13.553  -5.473  1.00  0.00    -0.003 C 
ATOM     14  C   UNL     1      -8.723 -13.360  -5.758  1.00  0.00     0.004 C 
ENDBRANCH  12  13
ENDBRANCH  11  12
ENDBRANCH  10  11
ENDBRANCH   9  10
ENDBRANCH   1   9
TORSDOF 10
ENDMDL
MODEL 9
REMARK VINA RESULT:    -5.046      3.809      7.179
REMARK INTER + INTRA:          -9.056
REMARK INTER:                  -8.603
REMARK INTRA:                  -0.453
REMARK UNBOUND:                -1.060
REMARK SMILES CCCCCCCCCCCC(=O)[O-]
REMARK SMILES IDX 7 1 8 2 9 3 10 4 11 5 12 6 13 7 14 8 6 9 5 10 4 11 3 12 2 13
REMARK SMILES IDX 1 14
REMARK H PARENT
REMARK Flexibility Score: inf
ROOT
ATOM      1  C   UNL     1      -5.687 -16.506  -2.768  1.00  0.00     0.000 C 
ENDROOT
BRANCH   1   2
ATOM      2  C   UNL     1      -6.611 -15.530  -3.511  1.00  0.00     0.000 C 
BRANCH   2   3
ATOM      3  C   UNL     1      -6.572 -14.111  -2.921  1.00  0.00     0.000 C 
BRANCH   3   4
ATOM      4  C   UNL     1      -6.794 -13.022  -3.981  1.00  0.00     0.006 C 
BRANCH   4   5
ATOM      5  C   UNL     1      -7.063 -13.642  -5.355  1.00  0.00     0.053 C 
BRANCH   5   6
ATOM      6  C   UNL     1      -8.512 -13.527  -5.709  1.00  0.00     0.041 C 
ATOM      7  O   UNL     1      -8.970 -12.443  -6.159  1.00  0.00    -0.550 OA
ATOM      8  O   UNL     1      -9.346 -14.631  -5.591  1.00  0.00    -0.550 OA
ENDBRANCH   5   6
ENDBRANCH   4   5
ENDBRANCH   3   4
ENDBRANCH   2   3
ENDBRANCH   1   2
BRANCH   1   9
ATOM      9  C   UNL     1      -4.749 -15.755  -1.815  1.00  0.00     0.000 C 
BRANCH   9  10
ATOM     10  C   UNL     1      -3.858 -16.734  -1.036  1.00  0.00    -0.000 C 
BRANCH  10  11
ATOM     11  C   UNL     1      -2.497 -16.962  -1.715  1.00  0.00    -0.000 C 
BRANCH  11  12
ATOM     12  C   UNL     1      -1.578 -17.891  -0.902  1.00  0.00    -0.000 C 
BRANCH  12  13
ATOM     13  C   UNL     1      -0.804 -17.140   0.192  1.00  0.00    -0.003 C 
ATOM     14  C   UNL     1      -0.470 -18.025   1.392  1.00  0.00     0.004 C 
ENDBRANCH  12  13
ENDBRANCH  11  12
ENDBRANCH  10  11
ENDBRANCH   9  10
ENDBRANCH   1   9
TORSDOF 10
ENDMDL
