MODEL 1
REMARK VINA RESULT:    -4.648      0.000      0.000
REMARK INTER + INTRA:          -6.119
REMARK INTER:                  -5.735
REMARK INTRA:                  -0.384
REMARK UNBOUND:                -0.384
REMARK SMILES Oc1cc(O)c2cc(O)c(-c3cc(O)c(O)c(O)c3)[o+]c2c1
REMARK SMILES IDX 10 1 20 2 21 3 22 4 2 5 3 6 4 7 6 8 7 9 8 10 11 11 12 12
REMARK SMILES IDX 13 13 19 14 15 15 17 16 14 17 16 19 18 21 9 23 1 25 5 27
REMARK H PARENT 14 18 16 20 18 22 9 24 1 26 5 28
REMARK Flexibility Score: inf
ROOT
ATOM      1  C   UNL     1       7.586 -18.460  20.525  1.00  0.00     0.402 A 
ATOM      2  O   UNL     1       6.652 -18.118  19.640  1.00  0.00    -0.202 OA
ATOM      3  C   UNL     1       5.376 -18.467  19.756  1.00  0.00     0.368 A 
ATOM      4  C   UNL     1       4.468 -18.062  18.773  1.00  0.00     0.162 A 
ATOM      5  C   UNL     1       3.122 -18.417  18.866  1.00  0.00     0.128 A 
ATOM      6  C   UNL     1       2.676 -19.182  19.951  1.00  0.00     0.093 A 
ATOM      7  C   UNL     1       3.566 -19.599  20.949  1.00  0.00     0.136 A 
ATOM      8  C   UNL     1       4.935 -19.239  20.858  1.00  0.00     0.125 A 
ATOM      9  C   UNL     1       5.894 -19.602  21.818  1.00  0.00     0.078 A 
ATOM     10  C   UNL     1       7.226 -19.206  21.663  1.00  0.00     0.223 A 
ENDROOT
BRANCH   1  11
ATOM     11  C   UNL     1       8.977 -18.018  20.279  1.00  0.00     0.091 A 
ATOM     12  C   UNL     1       9.391 -16.756  20.729  1.00  0.00     0.068 A 
ATOM     13  C   UNL     1      10.694 -16.305  20.495  1.00  0.00     0.162 A 
ATOM     14  C   UNL     1       9.881 -18.815  19.555  1.00  0.00     0.068 A 
ATOM     15  C   UNL     1      11.600 -17.113  19.788  1.00  0.00     0.200 A 
ATOM     16  C   UNL     1      11.188 -18.370  19.313  1.00  0.00     0.162 A 
BRANCH  13  17
ATOM     17  O   UNL     1      11.069 -15.049  20.971  1.00  0.00    -0.504 OA
ATOM     18  H   UNL     1      11.864 -14.546  20.596  1.00  0.00     0.293 HD
ENDBRANCH  13  17
BRANCH  15  19
ATOM     19  O   UNL     1      12.899 -16.657  19.560  1.00  0.00    -0.502 OA
ATOM     20  H   UNL     1      13.322 -15.929  20.123  1.00  0.00     0.293 HD
ENDBRANCH  15  19
BRANCH  16  21
ATOM     21  O   UNL     1      12.077 -19.172  18.599  1.00  0.00    -0.504 OA
ATOM     22  H   UNL     1      12.055 -20.182  18.667  1.00  0.00     0.293 HD
ENDBRANCH  16  21
ENDBRANCH   1  11
BRANCH  10  23
ATOM     23  O   UNL     1       8.169 -19.523  22.640  1.00  0.00    -0.500 OA
ATOM     24  H   UNL     1       8.837 -20.274  22.511  1.00  0.00     0.294 HD
ENDBRANCH  10  23
BRANCH   5  25
ATOM     25  O   UNL     1       2.233 -18.003  17.876  1.00  0.00    -0.507 OA
ATOM     26  H   UNL     1       2.512 -17.353  17.152  1.00  0.00     0.293 HD
ENDBRANCH   5  25
BRANCH   7  27
ATOM     27  O   UNL     1       3.044 -20.364  21.997  1.00  0.00    -0.507 OA
ATOM     28  H   UNL     1       2.132 -20.225  22.405  1.00  0.00     0.293 HD
ENDBRANCH   7  27
TORSDOF 7
ENDMDL
MODEL 2
REMARK VINA RESULT:    -4.594      2.559      4.679
REMARK INTER + INTRA:          -6.053
REMARK INTER:                  -5.734
REMARK INTRA:                  -0.318
REMARK UNBOUND:                -0.384
REMARK SMILES Oc1cc(O)c2cc(O)c(-c3cc(O)c(O)c(O)c3)[o+]c2c1
REMARK SMILES IDX 10 1 20 2 21 3 22 4 2 5 3 6 4 7 6 8 7 9 8 10 11 11 12 12
REMARK SMILES IDX 13 13 19 14 15 15 17 16 14 17 16 19 18 21 9 23 1 25 5 27
REMARK H PARENT 14 18 16 20 18 22 9 24 1 26 5 28
REMARK Flexibility Score: inf
ROOT
ATOM      1  C   UNL     1       4.310 -19.044  20.053  1.00  0.00     0.402 A 
ATOM      2  O   UNL     1       4.273 -19.411  21.332  1.00  0.00    -0.202 OA
ATOM      3  C   UNL     1       3.186 -19.900  21.919  1.00  0.00     0.368 A 
ATOM      4  C   UNL     1       3.245 -20.255  23.269  1.00  0.00     0.162 A 
ATOM      5  C   UNL     1       2.119 -20.769  23.913  1.00  0.00     0.128 A 
ATOM      6  C   UNL     1       0.923 -20.930  23.203  1.00  0.00     0.093 A 
ATOM      7  C   UNL     1       0.839 -20.581  21.849  1.00  0.00     0.136 A 
ATOM      8  C   UNL     1       1.983 -20.061  21.192  1.00  0.00     0.125 A 
ATOM      9  C   UNL     1       1.994 -19.698  19.835  1.00  0.00     0.078 A 
ATOM     10  C   UNL     1       3.162 -19.195  19.253  1.00  0.00     0.223 A 
ENDROOT
BRANCH   1  11
ATOM     11  C   UNL     1       5.579 -18.502  19.517  1.00  0.00     0.091 A 
ATOM     12  C   UNL     1       6.686 -19.352  19.373  1.00  0.00     0.068 A 
ATOM     13  C   UNL     1       7.903 -18.865  18.886  1.00  0.00     0.162 A 
ATOM     14  C   UNL     1       5.718 -17.139  19.200  1.00  0.00     0.068 A 
ATOM     15  C   UNL     1       8.032 -17.505  18.551  1.00  0.00     0.200 A 
ATOM     16  C   UNL     1       6.935 -16.642  18.714  1.00  0.00     0.162 A 
BRANCH  13  17
ATOM     17  O   UNL     1       8.975 -19.745  18.744  1.00  0.00    -0.504 OA
ATOM     18  H   UNL     1       9.103 -20.542  19.355  1.00  0.00     0.293 HD
ENDBRANCH  13  17
BRANCH  15  19
ATOM     19  O   UNL     1       9.248 -17.027  18.065  1.00  0.00    -0.502 OA
ATOM     20  H   UNL     1       9.565 -17.215  17.121  1.00  0.00     0.293 HD
ENDBRANCH  15  19
BRANCH  16  21
ATOM     21  O   UNL     1       7.059 -15.289  18.398  1.00  0.00    -0.504 OA
ATOM     22  H   UNL     1       7.734 -14.694  18.863  1.00  0.00     0.293 HD
ENDBRANCH  16  21
ENDBRANCH   1  11
BRANCH  10  23
ATOM     23  O   UNL     1       3.189 -18.881  17.894  1.00  0.00    -0.500 OA
ATOM     24  H   UNL     1       4.033 -18.978  17.342  1.00  0.00     0.294 HD
ENDBRANCH  10  23
BRANCH   5  25
ATOM     25  O   UNL     1       2.197 -21.118  25.260  1.00  0.00    -0.507 OA
ATOM     26  H   UNL     1       2.274 -20.415  25.986  1.00  0.00     0.293 HD
ENDBRANCH   5  25
BRANCH   7  27
ATOM     27  O   UNL     1      -0.391 -20.767  21.212  1.00  0.00    -0.507 OA
ATOM     28  H   UNL     1      -0.596 -20.473  20.270  1.00  0.00     0.293 HD
ENDBRANCH   7  27
TORSDOF 7
ENDMDL
MODEL 3
REMARK VINA RESULT:    -4.508      1.399      3.347
REMARK INTER + INTRA:          -5.946
REMARK INTER:                  -5.637
REMARK INTRA:                  -0.309
REMARK UNBOUND:                -0.384
REMARK SMILES Oc1cc(O)c2cc(O)c(-c3cc(O)c(O)c(O)c3)[o+]c2c1
REMARK SMILES IDX 10 1 20 2 21 3 22 4 2 5 3 6 4 7 6 8 7 9 8 10 11 11 12 12
REMARK SMILES IDX 13 13 19 14 15 15 17 16 14 17 16 19 18 21 9 23 1 25 5 27
REMARK H PARENT 14 18 16 20 18 22 9 24 1 26 5 28
REMARK Flexibility Score: inf
ROOT
ATOM      1  C   UNL     1       6.662 -18.584  20.132  1.00  0.00     0.402 A 
ATOM      2  O   UNL     1       6.307 -19.118  21.298  1.00  0.00    -0.202 OA
ATOM      3  C   UNL     1       5.059 -19.469  21.589  1.00  0.00     0.368 A 
ATOM      4  C   UNL     1       4.784 -20.021  22.843  1.00  0.00     0.162 A 
ATOM      5  C   UNL     1       3.482 -20.396  23.179  1.00  0.00     0.128 A 
ATOM      6  C   UNL     1       2.446 -20.219  22.254  1.00  0.00     0.093 A 
ATOM      7  C   UNL     1       2.696 -19.668  20.991  1.00  0.00     0.136 A 
ATOM      8  C   UNL     1       4.019 -19.288  20.646  1.00  0.00     0.125 A 
ATOM      9  C   UNL     1       4.365 -18.741  19.400  1.00  0.00     0.078 A 
ATOM     10  C   UNL     1       5.693 -18.394  19.130  1.00  0.00     0.223 A 
ENDROOT
BRANCH   1  11
ATOM     11  C   UNL     1       8.085 -18.225  19.931  1.00  0.00     0.091 A 
ATOM     12  C   UNL     1       8.897 -19.044  19.132  1.00  0.00     0.068 A 
ATOM     13  C   UNL     1      10.248 -18.740  18.939  1.00  0.00     0.162 A 
ATOM     14  C   UNL     1       8.656 -17.110  20.569  1.00  0.00     0.068 A 
ATOM     15  C   UNL     1      10.810 -17.613  19.563  1.00  0.00     0.200 A 
ATOM     16  C   UNL     1      10.010 -16.800  20.384  1.00  0.00     0.162 A 
BRANCH  13  17
ATOM     17  O   UNL     1      11.018 -19.572  18.126  1.00  0.00    -0.504 OA
ATOM     18  H   UNL     1      10.923 -19.579  17.119  1.00  0.00     0.293 HD
ENDBRANCH  13  17
BRANCH  15  19
ATOM     19  O   UNL     1      12.159 -17.316  19.365  1.00  0.00    -0.502 OA
ATOM     20  H   UNL     1      12.462 -16.506  18.836  1.00  0.00     0.293 HD
ENDBRANCH  15  19
BRANCH  16  21
ATOM     21  O   UNL     1      10.564 -15.688  21.017  1.00  0.00    -0.504 OA
ATOM     22  H   UNL     1      10.653 -15.640  22.025  1.00  0.00     0.293 HD
ENDBRANCH  16  21
ENDBRANCH   1  11
BRANCH  10  23
ATOM     23  O   UNL     1       6.046 -17.897  17.875  1.00  0.00    -0.500 OA
ATOM     24  H   UNL     1       6.985 -17.572  17.676  1.00  0.00     0.294 HD
ENDBRANCH  10  23
BRANCH   5  25
ATOM     25  O   UNL     1       3.227 -20.945  24.434  1.00  0.00    -0.507 OA
ATOM     26  H   UNL     1       2.523 -21.661  24.565  1.00  0.00     0.293 HD
ENDBRANCH   5  25
BRANCH   7  27
ATOM     27  O   UNL     1       1.608 -19.519  20.126  1.00  0.00    -0.507 OA
ATOM     28  H   UNL     1       1.552 -19.926  19.205  1.00  0.00     0.293 HD
ENDBRANCH   7  27
TORSDOF 7
ENDMDL
MODEL 4
REMARK VINA RESULT:    -4.449      1.512      7.107
REMARK INTER + INTRA:          -5.874
REMARK INTER:                  -5.490
REMARK INTRA:                  -0.384
REMARK UNBOUND:                -0.384
REMARK SMILES Oc1cc(O)c2cc(O)c(-c3cc(O)c(O)c(O)c3)[o+]c2c1
REMARK SMILES IDX 10 1 20 2 21 3 22 4 2 5 3 6 4 7 6 8 7 9 8 10 11 11 12 12
REMARK SMILES IDX 13 13 19 14 15 15 17 16 14 17 16 19 18 21 9 23 1 25 5 27
REMARK H PARENT 14 18 16 20 18 22 9 24 1 26 5 28
REMARK Flexibility Score: inf
ROOT
ATOM      1  C   UNL     1       7.587 -17.765  19.881  1.00  0.00     0.402 A 
ATOM      2  O   UNL     1       7.768 -16.471  20.136  1.00  0.00    -0.202 OA
ATOM      3  C   UNL     1       8.956 -15.878  20.086  1.00  0.00     0.368 A 
ATOM      4  C   UNL     1       9.046 -14.513  20.372  1.00  0.00     0.162 A 
ATOM      5  C   UNL     1      10.280 -13.863  20.332  1.00  0.00     0.128 A 
ATOM      6  C   UNL     1      11.435 -14.582  20.001  1.00  0.00     0.093 A 
ATOM      7  C   UNL     1      11.371 -15.951  19.710  1.00  0.00     0.136 A 
ATOM      8  C   UNL     1      10.117 -16.613  19.749  1.00  0.00     0.125 A 
ATOM      9  C   UNL     1       9.956 -17.978  19.459  1.00  0.00     0.078 A 
ATOM     10  C   UNL     1       8.687 -18.562  19.513  1.00  0.00     0.223 A 
ENDROOT
BRANCH   1  11
ATOM     11  C   UNL     1       6.215 -18.312  19.980  1.00  0.00     0.091 A 
ATOM     12  C   UNL     1       5.330 -18.155  18.902  1.00  0.00     0.068 A 
ATOM     13  C   UNL     1       4.022 -18.646  18.974  1.00  0.00     0.162 A 
ATOM     14  C   UNL     1       5.758 -18.938  21.153  1.00  0.00     0.068 A 
ATOM     15  C   UNL     1       3.576 -19.289  20.141  1.00  0.00     0.200 A 
ATOM     16  C   UNL     1       4.448 -19.429  21.234  1.00  0.00     0.162 A 
BRANCH  13  17
ATOM     17  O   UNL     1       3.179 -18.482  17.875  1.00  0.00    -0.504 OA
ATOM     18  H   UNL     1       2.175 -18.389  17.975  1.00  0.00     0.293 HD
ENDBRANCH  13  17
BRANCH  15  19
ATOM     19  O   UNL     1       2.271 -19.776  20.205  1.00  0.00    -0.502 OA
ATOM     20  H   UNL     1       1.525 -19.401  19.631  1.00  0.00     0.293 HD
ENDBRANCH  15  19
BRANCH  16  21
ATOM     21  O   UNL     1       4.009 -20.053  22.401  1.00  0.00    -0.504 OA
ATOM     22  H   UNL     1       4.309 -19.740  23.317  1.00  0.00     0.293 HD
ENDBRANCH  16  21
ENDBRANCH   1  11
BRANCH  10  23
ATOM     23  O   UNL     1       8.519 -19.905  19.177  1.00  0.00    -0.500 OA
ATOM     24  H   UNL     1       8.108 -20.568  19.824  1.00  0.00     0.294 HD
ENDBRANCH  10  23
BRANCH   5  25
ATOM     25  O   UNL     1      10.349 -12.502  20.620  1.00  0.00    -0.507 OA
ATOM     26  H   UNL     1       9.514 -11.938  20.719  1.00  0.00     0.293 HD
ENDBRANCH   5  25
BRANCH   7  27
ATOM     27  O   UNL     1      12.569 -16.598  19.394  1.00  0.00    -0.507 OA
ATOM     28  H   UNL     1      13.431 -16.485  19.905  1.00  0.00     0.293 HD
ENDBRANCH   7  27
TORSDOF 7
ENDMDL
MODEL 5
REMARK VINA RESULT:    -4.433      1.692      7.117
REMARK INTER + INTRA:          -5.854
REMARK INTER:                  -5.497
REMARK INTRA:                  -0.358
REMARK UNBOUND:                -0.384
REMARK SMILES Oc1cc(O)c2cc(O)c(-c3cc(O)c(O)c(O)c3)[o+]c2c1
REMARK SMILES IDX 10 1 20 2 21 3 22 4 2 5 3 6 4 7 6 8 7 9 8 10 11 11 12 12
REMARK SMILES IDX 13 13 19 14 15 15 17 16 14 17 16 19 18 21 9 23 1 25 5 27
REMARK H PARENT 14 18 16 20 18 22 9 24 1 26 5 28
REMARK Flexibility Score: inf
ROOT
ATOM      1  C   UNL     1       7.890 -17.477  19.838  1.00  0.00     0.402 A 
ATOM      2  O   UNL     1       8.052 -16.179  20.084  1.00  0.00    -0.202 OA
ATOM      3  C   UNL     1       9.233 -15.572  20.047  1.00  0.00     0.368 A 
ATOM      4  C   UNL     1       9.303 -14.203  20.323  1.00  0.00     0.162 A 
ATOM      5  C   UNL     1      10.530 -13.539  20.294  1.00  0.00     0.128 A 
ATOM      6  C   UNL     1      11.698 -14.247  19.988  1.00  0.00     0.093 A 
ATOM      7  C   UNL     1      11.655 -15.618  19.707  1.00  0.00     0.136 A 
ATOM      8  C   UNL     1      10.409 -16.296  19.734  1.00  0.00     0.125 A 
ATOM      9  C   UNL     1      10.269 -17.665  19.453  1.00  0.00     0.078 A 
ATOM     10  C   UNL     1       9.005 -18.263  19.494  1.00  0.00     0.223 A 
ENDROOT
BRANCH   1  11
ATOM     11  C   UNL     1       6.524 -18.040  19.921  1.00  0.00     0.091 A 
ATOM     12  C   UNL     1       6.139 -18.750  21.068  1.00  0.00     0.068 A 
ATOM     13  C   UNL     1       4.860 -19.309  21.167  1.00  0.00     0.162 A 
ATOM     14  C   UNL     1       5.619 -17.926  18.851  1.00  0.00     0.068 A 
ATOM     15  C   UNL     1       3.951 -19.176  20.102  1.00  0.00     0.200 A 
ATOM     16  C   UNL     1       4.337 -18.486  18.941  1.00  0.00     0.162 A 
BRANCH  13  17
ATOM     17  O   UNL     1       4.511 -19.996  22.329  1.00  0.00    -0.504 OA
ATOM     18  H   UNL     1       5.091 -19.980  23.159  1.00  0.00     0.293 HD
ENDBRANCH  13  17
BRANCH  15  19
ATOM     19  O   UNL     1       2.678 -19.735  20.209  1.00  0.00    -0.502 OA
ATOM     20  H   UNL     1       2.504 -20.590  20.723  1.00  0.00     0.293 HD
ENDBRANCH  15  19
BRANCH  16  21
ATOM     21  O   UNL     1       3.446 -18.362  17.875  1.00  0.00    -0.504 OA
ATOM     22  H   UNL     1       3.720 -17.928  17.001  1.00  0.00     0.293 HD
ENDBRANCH  16  21
ENDBRANCH   1  11
BRANCH  10  23
ATOM     23  O   UNL     1       8.858 -19.612  19.167  1.00  0.00    -0.500 OA
ATOM     24  H   UNL     1       8.678 -19.912  18.216  1.00  0.00     0.294 HD
ENDBRANCH  10  23
BRANCH   5  25
ATOM     25  O   UNL     1      10.578 -12.174  20.572  1.00  0.00    -0.507 OA
ATOM     26  H   UNL     1      11.299 -11.780  21.164  1.00  0.00     0.293 HD
ENDBRANCH   5  25
BRANCH   7  27
ATOM     27  O   UNL     1      12.865 -16.254  19.415  1.00  0.00    -0.507 OA
ATOM     28  H   UNL     1      13.101 -16.644  18.515  1.00  0.00     0.293 HD
ENDBRANCH   7  27
TORSDOF 7
ENDMDL
MODEL 6
REMARK VINA RESULT:    -4.432      1.988      7.493
REMARK INTER + INTRA:          -5.853
REMARK INTER:                  -5.493
REMARK INTRA:                  -0.360
REMARK UNBOUND:                -0.384
REMARK SMILES Oc1cc(O)c2cc(O)c(-c3cc(O)c(O)c(O)c3)[o+]c2c1
REMARK SMILES IDX 10 1 20 2 21 3 22 4 2 5 3 6 4 7 6 8 7 9 8 10 11 11 12 12
REMARK SMILES IDX 13 13 19 14 15 15 17 16 14 17 16 19 18 21 9 23 1 25 5 27
REMARK H PARENT 14 18 16 20 18 22 9 24 1 26 5 28
REMARK Flexibility Score: inf
ROOT
ATOM      1  C   UNL     1       4.972 -18.360  19.944  1.00  0.00     0.402 A 
ATOM      2  O   UNL     1       6.009 -19.055  19.483  1.00  0.00    -0.202 OA
ATOM      3  C   UNL     1       7.216 -18.530  19.304  1.00  0.00     0.368 A 
ATOM      4  C   UNL     1       8.244 -19.341  18.813  1.00  0.00     0.162 A 
ATOM      5  C   UNL     1       9.521 -18.816  18.610  1.00  0.00     0.128 A 
ATOM      6  C   UNL     1       9.775 -17.470  18.901  1.00  0.00     0.093 A 
ATOM      7  C   UNL     1       8.763 -16.638  19.395  1.00  0.00     0.136 A 
ATOM      8  C   UNL     1       7.464 -17.169  19.603  1.00  0.00     0.125 A 
ATOM      9  C   UNL     1       6.393 -16.412  20.106  1.00  0.00     0.078 A 
ATOM     10  C   UNL     1       5.140 -17.006  20.289  1.00  0.00     0.223 A 
ENDROOT
BRANCH   1  11
ATOM     11  C   UNL     1       3.673 -19.056  20.091  1.00  0.00     0.091 A 
ATOM     12  C   UNL     1       3.311 -19.585  21.338  1.00  0.00     0.068 A 
ATOM     13  C   UNL     1       2.100 -20.263  21.503  1.00  0.00     0.162 A 
ATOM     14  C   UNL     1       2.817 -19.248  18.992  1.00  0.00     0.068 A 
ATOM     15  C   UNL     1       1.237 -20.436  20.407  1.00  0.00     0.200 A 
ATOM     16  C   UNL     1       1.602 -19.929  19.148  1.00  0.00     0.162 A 
BRANCH  13  17
ATOM     17  O   UNL     1       1.770 -20.762  22.763  1.00  0.00    -0.504 OA
ATOM     18  H   UNL     1       0.859 -20.617  23.179  1.00  0.00     0.293 HD
ENDBRANCH  13  17
BRANCH  15  19
ATOM     19  O   UNL     1       0.029 -21.112  20.579  1.00  0.00    -0.502 OA
ATOM     20  H   UNL     1      -0.407 -21.216  21.487  1.00  0.00     0.293 HD
ENDBRANCH  15  19
BRANCH  16  21
ATOM     21  O   UNL     1       0.758 -20.108  18.052  1.00  0.00    -0.504 OA
ATOM     22  H   UNL     1      -0.192 -20.444  18.162  1.00  0.00     0.293 HD
ENDBRANCH  16  21
ENDBRANCH   1  11
BRANCH  10  23
ATOM     23  O   UNL     1       4.089 -16.270  20.836  1.00  0.00    -0.500 OA
ATOM     24  H   UNL     1       4.184 -15.780  21.718  1.00  0.00     0.294 HD
ENDBRANCH  10  23
BRANCH   5  25
ATOM     25  O   UNL     1      10.532 -19.640  18.120  1.00  0.00    -0.507 OA
ATOM     26  H   UNL     1      10.365 -20.618  17.915  1.00  0.00     0.293 HD
ENDBRANCH   5  25
BRANCH   7  27
ATOM     27  O   UNL     1       9.096 -15.306  19.656  1.00  0.00    -0.507 OA
ATOM     28  H   UNL     1       9.810 -15.013  20.306  1.00  0.00     0.293 HD
ENDBRANCH   7  27
TORSDOF 7
ENDMDL
MODEL 7
REMARK VINA RESULT:    -4.255      2.097      7.261
REMARK INTER + INTRA:          -5.635
REMARK INTER:                  -5.282
REMARK INTRA:                  -0.352
REMARK UNBOUND:                -0.384
REMARK SMILES Oc1cc(O)c2cc(O)c(-c3cc(O)c(O)c(O)c3)[o+]c2c1
REMARK SMILES IDX 10 1 20 2 21 3 22 4 2 5 3 6 4 7 6 8 7 9 8 10 11 11 12 12
REMARK SMILES IDX 13 13 19 14 15 15 17 16 14 17 16 19 18 21 9 23 1 25 5 27
REMARK H PARENT 14 18 16 20 18 22 9 24 1 26 5 28
REMARK Flexibility Score: inf
ROOT
ATOM      1  C   UNL     1       4.560 -18.879  19.935  1.00  0.00     0.402 A 
ATOM      2  O   UNL     1       5.583 -18.744  19.095  1.00  0.00    -0.202 OA
ATOM      3  C   UNL     1       6.848 -18.936  19.451  1.00  0.00     0.368 A 
ATOM      4  C   UNL     1       7.855 -18.768  18.496  1.00  0.00     0.162 A 
ATOM      5  C   UNL     1       9.194 -18.958  18.841  1.00  0.00     0.128 A 
ATOM      6  C   UNL     1       9.531 -19.320  20.151  1.00  0.00     0.093 A 
ATOM      7  C   UNL     1       8.540 -19.495  21.126  1.00  0.00     0.136 A 
ATOM      8  C   UNL     1       7.179 -19.303  20.777  1.00  0.00     0.125 A 
ATOM      9  C   UNL     1       6.119 -19.469  21.685  1.00  0.00     0.078 A 
ATOM     10  C   UNL     1       4.800 -19.267  21.267  1.00  0.00     0.223 A 
ENDROOT
BRANCH   1  11
ATOM     11  C   UNL     1       3.194 -18.628  19.422  1.00  0.00     0.091 A 
ATOM     12  C   UNL     1       2.708 -17.314  19.366  1.00  0.00     0.068 A 
ATOM     13  C   UNL     1       1.415 -17.049  18.903  1.00  0.00     0.162 A 
ATOM     14  C   UNL     1       2.350 -19.686  19.039  1.00  0.00     0.068 A 
ATOM     15  C   UNL     1       0.582 -18.107  18.502  1.00  0.00     0.200 A 
ATOM     16  C   UNL     1       1.052 -19.429  18.576  1.00  0.00     0.162 A 
BRANCH  13  17
ATOM     17  O   UNL     1       0.975 -15.726  18.850  1.00  0.00    -0.504 OA
ATOM     18  H   UNL     1       1.269 -15.032  19.526  1.00  0.00     0.293 HD
ENDBRANCH  13  17
BRANCH  15  19
ATOM     19  O   UNL     1      -0.705 -17.835  18.040  1.00  0.00    -0.502 OA
ATOM     20  H   UNL     1      -1.464 -17.591  18.665  1.00  0.00     0.293 HD
ENDBRANCH  15  19
BRANCH  16  21
ATOM     21  O   UNL     1       0.226 -20.486  18.195  1.00  0.00    -0.504 OA
ATOM     22  H   UNL     1      -0.612 -20.719  18.712  1.00  0.00     0.293 HD
ENDBRANCH  16  21
ENDBRANCH   1  11
BRANCH  10  23
ATOM     23  O   UNL     1       3.744 -19.480  22.153  1.00  0.00    -0.500 OA
ATOM     24  H   UNL     1       2.794 -19.610  21.828  1.00  0.00     0.294 HD
ENDBRANCH  10  23
BRANCH   5  25
ATOM     25  O   UNL     1      10.183 -18.787  17.875  1.00  0.00    -0.507 OA
ATOM     26  H   UNL     1      10.730 -19.568  17.532  1.00  0.00     0.293 HD
ENDBRANCH   5  25
BRANCH   7  27
ATOM     27  O   UNL     1       8.958 -19.851  22.411  1.00  0.00    -0.507 OA
ATOM     28  H   UNL     1       8.970 -20.796  22.766  1.00  0.00     0.293 HD
ENDBRANCH   7  27
TORSDOF 7
ENDMDL
MODEL 8
REMARK VINA RESULT:    -4.246      1.835      7.020
REMARK INTER + INTRA:          -5.623
REMARK INTER:                  -5.242
REMARK INTRA:                  -0.381
REMARK UNBOUND:                -0.384
REMARK SMILES Oc1cc(O)c2cc(O)c(-c3cc(O)c(O)c(O)c3)[o+]c2c1
REMARK SMILES IDX 10 1 20 2 21 3 22 4 2 5 3 6 4 7 6 8 7 9 8 10 11 11 12 12
REMARK SMILES IDX 13 13 19 14 15 15 17 16 14 17 16 19 18 21 9 23 1 25 5 27
REMARK H PARENT 14 18 16 20 18 22 9 24 1 26 5 28
REMARK Flexibility Score: inf
ROOT
ATOM      1  C   UNL     1       6.179 -18.257  20.188  1.00  0.00     0.402 A 
ATOM      2  O   UNL     1       7.208 -18.424  19.360  1.00  0.00    -0.202 OA
ATOM      3  C   UNL     1       8.463 -18.556  19.776  1.00  0.00     0.368 A 
ATOM      4  C   UNL     1       9.477 -18.724  18.829  1.00  0.00     0.162 A 
ATOM      5  C   UNL     1      10.806 -18.862  19.235  1.00  0.00     0.128 A 
ATOM      6  C   UNL     1      11.124 -18.832  20.598  1.00  0.00     0.093 A 
ATOM      7  C   UNL     1      10.125 -18.665  21.566  1.00  0.00     0.136 A 
ATOM      8  C   UNL     1       8.774 -18.526  21.156  1.00  0.00     0.125 A 
ATOM      9  C   UNL     1       7.707 -18.369  22.056  1.00  0.00     0.078 A 
ATOM     10  C   UNL     1       6.399 -18.242  21.577  1.00  0.00     0.223 A 
ENDROOT
BRANCH   1  11
ATOM     11  C   UNL     1       4.827 -18.111  19.602  1.00  0.00     0.091 A 
ATOM     12  C   UNL     1       4.047 -19.254  19.372  1.00  0.00     0.068 A 
ATOM     13  C   UNL     1       2.774 -19.149  18.804  1.00  0.00     0.162 A 
ATOM     14  C   UNL     1       4.327 -16.854  19.218  1.00  0.00     0.068 A 
ATOM     15  C   UNL     1       2.269 -17.888  18.440  1.00  0.00     0.200 A 
ATOM     16  C   UNL     1       3.053 -16.740  18.645  1.00  0.00     0.162 A 
BRANCH  13  17
ATOM     17  O   UNL     1       2.025 -20.308  18.604  1.00  0.00    -0.504 OA
ATOM     18  H   UNL     1       1.911 -21.008  19.328  1.00  0.00     0.293 HD
ENDBRANCH  13  17
BRANCH  15  19
ATOM     19  O   UNL     1       0.998 -17.790  17.875  1.00  0.00    -0.502 OA
ATOM     20  H   UNL     1       0.560 -16.898  17.680  1.00  0.00     0.293 HD
ENDBRANCH  15  19
BRANCH  16  21
ATOM     21  O   UNL     1       2.566 -15.487  18.274  1.00  0.00    -0.504 OA
ATOM     22  H   UNL     1       1.600 -15.224  18.431  1.00  0.00     0.293 HD
ENDBRANCH  16  21
ENDBRANCH   1  11
BRANCH  10  23
ATOM     23  O   UNL     1       5.334 -18.135  22.472  1.00  0.00    -0.500 OA
ATOM     24  H   UNL     1       4.941 -17.236  22.726  1.00  0.00     0.294 HD
ENDBRANCH  10  23
BRANCH   5  25
ATOM     25  O   UNL     1      11.803 -19.029  18.277  1.00  0.00    -0.507 OA
ATOM     26  H   UNL     1      12.782 -19.064  18.532  1.00  0.00     0.293 HD
ENDBRANCH   5  25
BRANCH   7  27
ATOM     27  O   UNL     1      10.524 -18.642  22.905  1.00  0.00    -0.507 OA
ATOM     28  H   UNL     1      11.086 -19.355  23.346  1.00  0.00     0.293 HD
ENDBRANCH   7  27
TORSDOF 7
ENDMDL
