MODEL 1
REMARK VINA RESULT:    -3.845      0.000      0.000
REMARK INTER + INTRA:          -9.102
REMARK INTER:                  -6.991
REMARK INTRA:                  -2.111
REMARK UNBOUND:                -2.111
REMARK SMILES CCCCCCCCCCCCCCCC(=O)[O-]
REMARK SMILES IDX 9 1 10 2 11 3 12 4 13 5 14 6 15 7 16 8 17 9 18 10 8 11 7 12
REMARK SMILES IDX 6 13 5 14 4 15 3 16 2 17 1 18
REMARK H PARENT
REMARK Flexibility Score: inf
ROOT
ATOM      1  C   UNL     1      12.741  62.727   6.873  1.00  0.00     0.000 C 
ENDROOT
BRANCH   1   2
ATOM      2  C   UNL     1      11.634  62.079   7.714  1.00  0.00     0.000 C 
BRANCH   2   3
ATOM      3  C   UNL     1      11.121  63.049   8.789  1.00  0.00     0.000 C 
BRANCH   3   4
ATOM      4  C   UNL     1       9.734  63.624   8.459  1.00  0.00     0.000 C 
BRANCH   4   5
ATOM      5  C   UNL     1       9.515  65.020   9.065  1.00  0.00     0.000 C 
BRANCH   5   6
ATOM      6  C   UNL     1       8.311  65.760   8.450  1.00  0.00     0.006 C 
BRANCH   6   7
ATOM      7  C   UNL     1       6.995  65.569   9.226  1.00  0.00     0.053 C 
BRANCH   7   8
ATOM      8  C   UNL     1       5.994  64.747   8.475  1.00  0.00     0.041 C 
ATOM      9  O   UNL     1       6.087  63.491   8.457  1.00  0.00    -0.550 OA
ATOM     10  O   UNL     1       4.940  65.367   7.815  1.00  0.00    -0.550 OA
ENDBRANCH   7   8
ENDBRANCH   6   7
ENDBRANCH   5   6
ENDBRANCH   4   5
ENDBRANCH   3   4
ENDBRANCH   2   3
ENDBRANCH   1   2
BRANCH   1  11
ATOM     11  C   UNL     1      13.518  63.767   7.693  1.00  0.00     0.000 C 
BRANCH  11  12
ATOM     12  C   UNL     1      13.626  65.123   6.978  1.00  0.00    -0.000 C 
BRANCH  12  13
ATOM     13  C   UNL     1      12.765  66.212   7.643  1.00  0.00    -0.000 C 
BRANCH  13  14
ATOM     14  C   UNL     1      11.819  66.909   6.652  1.00  0.00    -0.000 C 
BRANCH  14  15
ATOM     15  C   UNL     1      11.032  65.908   5.787  1.00  0.00    -0.000 C 
BRANCH  15  16
ATOM     16  C   UNL     1      10.467  66.551   4.509  1.00  0.00    -0.000 C 
BRANCH  16  17
ATOM     17  C   UNL     1      10.804  65.749   3.244  1.00  0.00    -0.003 C 
ATOM     18  C   UNL     1      12.095  64.955   3.424  1.00  0.00     0.004 C 
ENDBRANCH  16  17
ENDBRANCH  15  16
ENDBRANCH  14  15
ENDBRANCH  13  14
ENDBRANCH  12  13
ENDBRANCH  11  12
ENDBRANCH   1  11
TORSDOF 14
ENDMDL
MODEL 2
REMARK VINA RESULT:    -3.645      2.743      5.536
REMARK INTER + INTRA:          -8.739
REMARK INTER:                  -7.026
REMARK INTRA:                  -1.713
REMARK UNBOUND:                -2.111
REMARK SMILES CCCCCCCCCCCCCCCC(=O)[O-]
REMARK SMILES IDX 9 1 10 2 11 3 12 4 13 5 14 6 15 7 16 8 17 9 18 10 8 11 7 12
REMARK SMILES IDX 6 13 5 14 4 15 3 16 2 17 1 18
REMARK H PARENT
REMARK Flexibility Score: inf
ROOT
ATOM      1  C   UNL     1      11.053  63.081   8.998  1.00  0.00     0.000 C 
ENDROOT
BRANCH   1   2
ATOM      2  C   UNL     1      11.583  62.071   7.973  1.00  0.00     0.000 C 
BRANCH   2   3
ATOM      3  C   UNL     1      12.749  62.665   7.167  1.00  0.00     0.000 C 
BRANCH   3   4
ATOM      4  C   UNL     1      13.327  63.938   7.807  1.00  0.00     0.000 C 
BRANCH   4   5
ATOM      5  C   UNL     1      13.242  65.158   6.875  1.00  0.00     0.000 C 
BRANCH   5   6
ATOM      6  C   UNL     1      12.609  64.828   5.510  1.00  0.00     0.006 C 
BRANCH   6   7
ATOM      7  C   UNL     1      11.455  65.766   5.110  1.00  0.00     0.053 C 
BRANCH   7   8
ATOM      8  C   UNL     1      11.218  65.795   3.632  1.00  0.00     0.041 C 
ATOM      9  O   UNL     1      12.190  65.814   2.832  1.00  0.00    -0.550 OA
ATOM     10  O   UNL     1       9.919  65.773   3.136  1.00  0.00    -0.550 OA
ENDBRANCH   7   8
ENDBRANCH   6   7
ENDBRANCH   5   6
ENDBRANCH   4   5
ENDBRANCH   3   4
ENDBRANCH   2   3
ENDBRANCH   1   2
BRANCH   1  11
ATOM     11  C   UNL     1       9.594  63.455   8.698  1.00  0.00     0.000 C 
BRANCH  11  12
ATOM     12  C   UNL     1       9.454  64.873   8.121  1.00  0.00    -0.000 C 
BRANCH  12  13
ATOM     13  C   UNL     1       9.482  65.959   9.211  1.00  0.00    -0.000 C 
BRANCH  13  14
ATOM     14  C   UNL     1       8.104  66.600   9.446  1.00  0.00    -0.000 C 
BRANCH  14  15
ATOM     15  C   UNL     1       7.075  66.193   8.376  1.00  0.00    -0.000 C 
BRANCH  15  16
ATOM     16  C   UNL     1       5.627  66.295   8.882  1.00  0.00    -0.000 C 
BRANCH  16  17
ATOM     17  C   UNL     1       4.917  64.934   8.925  1.00  0.00    -0.003 C 
ATOM     18  C   UNL     1       5.846  63.815   8.462  1.00  0.00     0.004 C 
ENDBRANCH  16  17
ENDBRANCH  15  16
ENDBRANCH  14  15
ENDBRANCH  13  14
ENDBRANCH  12  13
ENDBRANCH  11  12
ENDBRANCH   1  11
TORSDOF 14
ENDMDL
MODEL 3
REMARK VINA RESULT:    -3.640      3.386      5.608
REMARK INTER + INTRA:          -8.730
REMARK INTER:                  -6.313
REMARK INTRA:                  -2.417
REMARK UNBOUND:                -2.111
REMARK SMILES CCCCCCCCCCCCCCCC(=O)[O-]
REMARK SMILES IDX 9 1 10 2 11 3 12 4 13 5 14 6 15 7 16 8 17 9 18 10 8 11 7 12
REMARK SMILES IDX 6 13 5 14 4 15 3 16 2 17 1 18
REMARK H PARENT
REMARK Flexibility Score: inf
ROOT
ATOM      1  C   UNL     1      11.789  62.051   7.671  1.00  0.00     0.000 C 
ENDROOT
BRANCH   1   2
ATOM      2  C   UNL     1      12.855  62.679   6.765  1.00  0.00     0.000 C 
BRANCH   2   3
ATOM      3  C   UNL     1      13.468  63.927   7.418  1.00  0.00     0.000 C 
BRANCH   3   4
ATOM      4  C   UNL     1      13.509  65.136   6.469  1.00  0.00     0.000 C 
BRANCH   4   5
ATOM      5  C   UNL     1      12.501  65.014   5.314  1.00  0.00     0.000 C 
BRANCH   5   6
ATOM      6  C   UNL     1      12.072  66.379   4.743  1.00  0.00     0.006 C 
BRANCH   6   7
ATOM      7  C   UNL     1      10.952  66.295   3.690  1.00  0.00     0.053 C 
BRANCH   7   8
ATOM      8  C   UNL     1      11.425  66.642   2.313  1.00  0.00     0.041 C 
ATOM      9  O   UNL     1      10.666  67.252   1.515  1.00  0.00    -0.550 OA
ATOM     10  O   UNL     1      12.717  66.314   1.918  1.00  0.00    -0.550 OA
ENDBRANCH   7   8
ENDBRANCH   6   7
ENDBRANCH   5   6
ENDBRANCH   4   5
ENDBRANCH   3   4
ENDBRANCH   2   3
ENDBRANCH   1   2
BRANCH   1  11
ATOM     11  C   UNL     1      11.272  63.070   8.698  1.00  0.00     0.000 C 
BRANCH  11  12
ATOM     12  C   UNL     1       9.778  63.385   8.519  1.00  0.00    -0.000 C 
BRANCH  12  13
ATOM     13  C   UNL     1       9.444  64.856   8.824  1.00  0.00    -0.000 C 
BRANCH  13  14
ATOM     14  C   UNL     1       9.929  65.815   7.724  1.00  0.00    -0.000 C 
BRANCH  14  15
ATOM     15  C   UNL     1      10.792  66.961   8.281  1.00  0.00    -0.000 C 
BRANCH  15  16
ATOM     16  C   UNL     1      11.390  66.632   9.658  1.00  0.00    -0.000 C 
BRANCH  16  17
ATOM     17  C   UNL     1      12.913  66.825   9.704  1.00  0.00    -0.003 C 
ATOM     18  C   UNL     1      13.565  65.821  10.651  1.00  0.00     0.004 C 
ENDBRANCH  16  17
ENDBRANCH  15  16
ENDBRANCH  14  15
ENDBRANCH  13  14
ENDBRANCH  12  13
ENDBRANCH  11  12
ENDBRANCH   1  11
TORSDOF 14
ENDMDL
MODEL 4
REMARK VINA RESULT:    -3.606      2.979      4.932
REMARK INTER + INTRA:          -8.668
REMARK INTER:                  -6.202
REMARK INTRA:                  -2.466
REMARK UNBOUND:                -2.111
REMARK SMILES CCCCCCCCCCCCCCCC(=O)[O-]
REMARK SMILES IDX 9 1 10 2 11 3 12 4 13 5 14 6 15 7 16 8 17 9 18 10 8 11 7 12
REMARK SMILES IDX 6 13 5 14 4 15 3 16 2 17 1 18
REMARK H PARENT
REMARK Flexibility Score: inf
ROOT
ATOM      1  C   UNL     1      11.327  62.386   7.971  1.00  0.00     0.000 C 
ENDROOT
BRANCH   1   2
ATOM      2  C   UNL     1      10.799  63.244   9.127  1.00  0.00     0.000 C 
BRANCH   2   3
ATOM      3  C   UNL     1       9.786  64.284   8.622  1.00  0.00     0.000 C 
BRANCH   3   4
ATOM      4  C   UNL     1      10.405  65.680   8.442  1.00  0.00     0.000 C 
BRANCH   4   5
ATOM      5  C   UNL     1       9.848  66.417   7.213  1.00  0.00     0.000 C 
BRANCH   5   6
ATOM      6  C   UNL     1      10.909  66.646   6.119  1.00  0.00     0.006 C 
BRANCH   6   7
ATOM      7  C   UNL     1      10.322  66.867   4.713  1.00  0.00     0.053 C 
BRANCH   7   8
ATOM      8  C   UNL     1      10.891  65.930   3.693  1.00  0.00     0.041 C 
ATOM      9  O   UNL     1      12.124  65.676   3.682  1.00  0.00    -0.550 OA
ATOM     10  O   UNL     1      10.054  65.316   2.769  1.00  0.00    -0.550 OA
ENDBRANCH   7   8
ENDBRANCH   6   7
ENDBRANCH   5   6
ENDBRANCH   4   5
ENDBRANCH   3   4
ENDBRANCH   2   3
ENDBRANCH   1   2
BRANCH   1  11
ATOM     11  C   UNL     1      12.799  62.708   7.673  1.00  0.00     0.000 C 
BRANCH  11  12
ATOM     12  C   UNL     1      12.967  63.654   6.474  1.00  0.00    -0.000 C 
BRANCH  12  13
ATOM     13  C   UNL     1      13.989  64.773   6.743  1.00  0.00    -0.000 C 
BRANCH  13  14
ATOM     14  C   UNL     1      14.117  65.113   8.237  1.00  0.00    -0.000 C 
BRANCH  14  15
ATOM     15  C   UNL     1      14.043  66.626   8.505  1.00  0.00    -0.000 C 
BRANCH  15  16
ATOM     16  C   UNL     1      13.492  66.951   9.903  1.00  0.00    -0.000 C 
BRANCH  16  17
ATOM     17  C   UNL     1      13.340  65.704  10.785  1.00  0.00    -0.003 C 
ATOM     18  C   UNL     1      12.092  65.797  11.658  1.00  0.00     0.004 C 
ENDBRANCH  16  17
ENDBRANCH  15  16
ENDBRANCH  14  15
ENDBRANCH  13  14
ENDBRANCH  12  13
ENDBRANCH  11  12
ENDBRANCH   1  11
TORSDOF 14
ENDMDL
MODEL 5
REMARK VINA RESULT:    -3.592      2.812      3.553
REMARK INTER + INTRA:          -8.642
REMARK INTER:                  -6.582
REMARK INTRA:                  -2.060
REMARK UNBOUND:                -2.111
REMARK SMILES CCCCCCCCCCCCCCCC(=O)[O-]
REMARK SMILES IDX 9 1 10 2 11 3 12 4 13 5 14 6 15 7 16 8 17 9 18 10 8 11 7 12
REMARK SMILES IDX 6 13 5 14 4 15 3 16 2 17 1 18
REMARK H PARENT
REMARK Flexibility Score: inf
ROOT
ATOM      1  C   UNL     1      12.815  62.702   6.811  1.00  0.00     0.000 C 
ENDROOT
BRANCH   1   2
ATOM      2  C   UNL     1      11.685  62.038   7.607  1.00  0.00     0.000 C 
BRANCH   2   3
ATOM      3  C   UNL     1      11.236  62.930   8.775  1.00  0.00     0.000 C 
BRANCH   3   4
ATOM      4  C   UNL     1       9.842  63.540   8.556  1.00  0.00     0.000 C 
BRANCH   4   5
ATOM      5  C   UNL     1       9.906  64.996   8.064  1.00  0.00     0.000 C 
BRANCH   5   6
ATOM      6  C   UNL     1      10.031  66.014   9.214  1.00  0.00     0.006 C 
BRANCH   6   7
ATOM      7  C   UNL     1      11.412  66.688   9.308  1.00  0.00     0.053 C 
BRANCH   7   8
ATOM      8  C   UNL     1      12.271  66.100  10.384  1.00  0.00     0.041 C 
ATOM      9  O   UNL     1      11.759  65.393  11.291  1.00  0.00    -0.550 OA
ATOM     10  O   UNL     1      13.645  66.311  10.369  1.00  0.00    -0.550 OA
ENDBRANCH   7   8
ENDBRANCH   6   7
ENDBRANCH   5   6
ENDBRANCH   4   5
ENDBRANCH   3   4
ENDBRANCH   2   3
ENDBRANCH   1   2
BRANCH   1  11
ATOM     11  C   UNL     1      13.490  63.810   7.633  1.00  0.00     0.000 C 
BRANCH  11  12
ATOM     12  C   UNL     1      13.584  65.139   6.868  1.00  0.00    -0.000 C 
BRANCH  12  13
ATOM     13  C   UNL     1      12.642  65.189   5.653  1.00  0.00    -0.000 C 
BRANCH  13  14
ATOM     14  C   UNL     1      12.029  66.583   5.434  1.00  0.00    -0.000 C 
BRANCH  14  15
ATOM     15  C   UNL     1      12.183  67.072   3.984  1.00  0.00    -0.000 C 
BRANCH  15  16
ATOM     16  C   UNL     1      11.636  66.064   2.960  1.00  0.00    -0.000 C 
BRANCH  16  17
ATOM     17  C   UNL     1      10.122  65.841   3.098  1.00  0.00    -0.003 C 
ATOM     18  C   UNL     1       9.353  67.139   2.866  1.00  0.00     0.004 C 
ENDBRANCH  16  17
ENDBRANCH  15  16
ENDBRANCH  14  15
ENDBRANCH  13  14
ENDBRANCH  12  13
ENDBRANCH  11  12
ENDBRANCH   1  11
TORSDOF 14
ENDMDL
MODEL 6
REMARK VINA RESULT:    -3.579      2.344      4.929
REMARK INTER + INTRA:          -8.619
REMARK INTER:                  -6.489
REMARK INTRA:                  -2.130
REMARK UNBOUND:                -2.111
REMARK SMILES CCCCCCCCCCCCCCCC(=O)[O-]
REMARK SMILES IDX 9 1 10 2 11 3 12 4 13 5 14 6 15 7 16 8 17 9 18 10 8 11 7 12
REMARK SMILES IDX 6 13 5 14 4 15 3 16 2 17 1 18
REMARK H PARENT
REMARK Flexibility Score: inf
ROOT
ATOM      1  C   UNL     1      13.376  63.723   7.652  1.00  0.00     0.000 C 
ENDROOT
BRANCH   1   2
ATOM      2  C   UNL     1      13.517  64.821   6.590  1.00  0.00     0.000 C 
BRANCH   2   3
ATOM      3  C   UNL     1      12.631  64.524   5.370  1.00  0.00     0.000 C 
BRANCH   3   4
ATOM      4  C   UNL     1      12.136  65.800   4.669  1.00  0.00     0.000 C 
BRANCH   4   5
ATOM      5  C   UNL     1      11.917  65.597   3.161  1.00  0.00     0.000 C 
BRANCH   5   6
ATOM      6  C   UNL     1      10.871  66.562   2.570  1.00  0.00     0.006 C 
BRANCH   6   7
ATOM      7  C   UNL     1       9.439  66.323   3.081  1.00  0.00     0.053 C 
BRANCH   7   8
ATOM      8  C   UNL     1       8.893  67.490   3.843  1.00  0.00     0.041 C 
ATOM      9  O   UNL     1       7.658  67.579   4.072  1.00  0.00    -0.550 OA
ATOM     10  O   UNL     1       9.754  68.470   4.324  1.00  0.00    -0.550 OA
ENDBRANCH   7   8
ENDBRANCH   6   7
ENDBRANCH   5   6
ENDBRANCH   4   5
ENDBRANCH   3   4
ENDBRANCH   2   3
ENDBRANCH   1   2
BRANCH   1  11
ATOM     11  C   UNL     1      12.633  62.504   7.087  1.00  0.00     0.000 C 
BRANCH  11  12
ATOM     12  C   UNL     1      11.509  62.015   8.014  1.00  0.00    -0.000 C 
BRANCH  12  13
ATOM     13  C   UNL     1      10.967  63.131   8.924  1.00  0.00    -0.000 C 
BRANCH  13  14
ATOM     14  C   UNL     1       9.609  63.675   8.452  1.00  0.00    -0.000 C 
BRANCH  14  15
ATOM     15  C   UNL     1       9.450  65.180   8.727  1.00  0.00    -0.000 C 
BRANCH  15  16
ATOM     16  C   UNL     1       9.904  66.047   7.542  1.00  0.00    -0.000 C 
BRANCH  16  17
ATOM     17  C   UNL     1      10.991  67.060   7.930  1.00  0.00    -0.003 C 
ATOM     18  C   UNL     1      11.565  66.748   9.310  1.00  0.00     0.004 C 
ENDBRANCH  16  17
ENDBRANCH  15  16
ENDBRANCH  14  15
ENDBRANCH  13  14
ENDBRANCH  12  13
ENDBRANCH  11  12
ENDBRANCH   1  11
TORSDOF 14
ENDMDL
MODEL 7
REMARK VINA RESULT:    -3.567      1.176      2.271
REMARK INTER + INTRA:          -8.598
REMARK INTER:                  -7.288
REMARK INTRA:                  -1.310
REMARK UNBOUND:                -2.111
REMARK SMILES CCCCCCCCCCCCCCCC(=O)[O-]
REMARK SMILES IDX 9 1 10 2 11 3 12 4 13 5 14 6 15 7 16 8 17 9 18 10 8 11 7 12
REMARK SMILES IDX 6 13 5 14 4 15 3 16 2 17 1 18
REMARK H PARENT
REMARK Flexibility Score: inf
ROOT
ATOM      1  C   UNL     1      11.018  63.115   8.944  1.00  0.00     0.000 C 
ENDROOT
BRANCH   1   2
ATOM      2  C   UNL     1       9.772  63.814   8.386  1.00  0.00     0.000 C 
BRANCH   2   3
ATOM      3  C   UNL     1      10.014  65.322   8.221  1.00  0.00     0.000 C 
BRANCH   3   4
ATOM      4  C   UNL     1       8.960  66.177   8.946  1.00  0.00     0.000 C 
BRANCH   4   5
ATOM      5  C   UNL     1       7.558  65.547   8.900  1.00  0.00     0.000 C 
BRANCH   5   6
ATOM      6  C   UNL     1       6.557  66.370   8.066  1.00  0.00     0.006 C 
BRANCH   6   7
ATOM      7  C   UNL     1       5.191  65.686   7.873  1.00  0.00     0.053 C 
BRANCH   7   8
ATOM      8  C   UNL     1       4.700  65.010   9.116  1.00  0.00     0.041 C 
ATOM      9  O   UNL     1       4.545  63.761   9.142  1.00  0.00    -0.550 OA
ATOM     10  O   UNL     1       4.439  65.760  10.257  1.00  0.00    -0.550 OA
ENDBRANCH   7   8
ENDBRANCH   6   7
ENDBRANCH   5   6
ENDBRANCH   4   5
ENDBRANCH   3   4
ENDBRANCH   2   3
ENDBRANCH   1   2
BRANCH   1  11
ATOM     11  C   UNL     1      11.524  62.036   7.975  1.00  0.00     0.000 C 
BRANCH  11  12
ATOM     12  C   UNL     1      12.674  62.533   7.085  1.00  0.00    -0.000 C 
BRANCH  12  13
ATOM     13  C   UNL     1      13.341  63.805   7.637  1.00  0.00    -0.000 C 
BRANCH  13  14
ATOM     14  C   UNL     1      13.374  64.950   6.612  1.00  0.00    -0.000 C 
BRANCH  14  15
ATOM     15  C   UNL     1      12.598  64.612   5.327  1.00  0.00    -0.000 C 
BRANCH  15  16
ATOM     16  C   UNL     1      11.688  65.764   4.868  1.00  0.00    -0.000 C 
BRANCH  16  17
ATOM     17  C   UNL     1      11.351  65.693   3.372  1.00  0.00    -0.003 C 
ATOM     18  C   UNL     1       9.902  66.099   3.115  1.00  0.00     0.004 C 
ENDBRANCH  16  17
ENDBRANCH  15  16
ENDBRANCH  14  15
ENDBRANCH  13  14
ENDBRANCH  12  13
ENDBRANCH  11  12
ENDBRANCH   1  11
TORSDOF 14
ENDMDL
MODEL 8
REMARK VINA RESULT:    -3.558      1.374      2.460
REMARK INTER + INTRA:          -8.581
REMARK INTER:                  -7.197
REMARK INTRA:                  -1.383
REMARK UNBOUND:                -2.111
REMARK SMILES CCCCCCCCCCCCCCCC(=O)[O-]
REMARK SMILES IDX 9 1 10 2 11 3 12 4 13 5 14 6 15 7 16 8 17 9 18 10 8 11 7 12
REMARK SMILES IDX 6 13 5 14 4 15 3 16 2 17 1 18
REMARK H PARENT
REMARK Flexibility Score: inf
ROOT
ATOM      1  C   UNL     1      11.028  62.910   9.034  1.00  0.00     0.000 C 
ENDROOT
BRANCH   1   2
ATOM      2  C   UNL     1       9.627  63.441   8.706  1.00  0.00     0.000 C 
BRANCH   2   3
ATOM      3  C   UNL     1       9.691  64.893   8.209  1.00  0.00     0.000 C 
BRANCH   3   4
ATOM      4  C   UNL     1       8.499  65.740   8.688  1.00  0.00     0.000 C 
BRANCH   4   5
ATOM      5  C   UNL     1       7.232  64.898   8.915  1.00  0.00     0.000 C 
BRANCH   5   6
ATOM      6  C   UNL     1       5.958  65.754   9.048  1.00  0.00     0.006 C 
BRANCH   6   7
ATOM      7  C   UNL     1       4.900  65.477   7.965  1.00  0.00     0.053 C 
BRANCH   7   8
ATOM      8  C   UNL     1       5.007  66.410   6.799  1.00  0.00     0.041 C 
ATOM      9  O   UNL     1       4.272  66.251   5.788  1.00  0.00    -0.550 OA
ATOM     10  O   UNL     1       5.900  67.474   6.839  1.00  0.00    -0.550 OA
ENDBRANCH   7   8
ENDBRANCH   6   7
ENDBRANCH   5   6
ENDBRANCH   4   5
ENDBRANCH   3   4
ENDBRANCH   2   3
ENDBRANCH   1   2
BRANCH   1  11
ATOM     11  C   UNL     1      11.531  61.968   7.930  1.00  0.00     0.000 C 
BRANCH  11  12
ATOM     12  C   UNL     1      12.703  62.563   7.133  1.00  0.00    -0.000 C 
BRANCH  12  13
ATOM     13  C   UNL     1      13.311  63.802   7.815  1.00  0.00    -0.000 C 
BRANCH  13  14
ATOM     14  C   UNL     1      13.483  64.986   6.850  1.00  0.00    -0.000 C 
BRANCH  14  15
ATOM     15  C   UNL     1      12.623  64.842   5.582  1.00  0.00    -0.000 C 
BRANCH  15  16
ATOM     16  C   UNL     1      11.583  65.966   5.445  1.00  0.00    -0.000 C 
BRANCH  16  17
ATOM     17  C   UNL     1      11.050  66.109   4.012  1.00  0.00    -0.003 C 
ATOM     18  C   UNL     1      11.836  65.230   3.043  1.00  0.00     0.004 C 
ENDBRANCH  16  17
ENDBRANCH  15  16
ENDBRANCH  14  15
ENDBRANCH  13  14
ENDBRANCH  12  13
ENDBRANCH  11  12
ENDBRANCH   1  11
TORSDOF 14
ENDMDL
MODEL 9
REMARK VINA RESULT:    -3.367      3.428      4.355
REMARK INTER + INTRA:          -8.233
REMARK INTER:                  -5.808
REMARK INTRA:                  -2.425
REMARK UNBOUND:                -2.111
REMARK SMILES CCCCCCCCCCCCCCCC(=O)[O-]
REMARK SMILES IDX 9 1 10 2 11 3 12 4 13 5 14 6 15 7 16 8 17 9 18 10 8 11 7 12
REMARK SMILES IDX 6 13 5 14 4 15 3 16 2 17 1 18
REMARK H PARENT
REMARK Flexibility Score: inf
ROOT
ATOM      1  C   UNL     1      13.214  65.740   6.200  1.00  0.00     0.000 C 
ENDROOT
BRANCH   1   2
ATOM      2  C   UNL     1      12.515  64.414   5.878  1.00  0.00     0.000 C 
BRANCH   2   3
ATOM      3  C   UNL     1      13.223  63.237   6.569  1.00  0.00     0.000 C 
BRANCH   3   4
ATOM      4  C   UNL     1      12.263  62.367   7.396  1.00  0.00     0.000 C 
BRANCH   4   5
ATOM      5  C   UNL     1      11.131  63.187   8.039  1.00  0.00     0.000 C 
BRANCH   5   6
ATOM      6  C   UNL     1      11.394  63.514   9.522  1.00  0.00     0.006 C 
BRANCH   6   7
ATOM      7  C   UNL     1      11.510  65.021   9.819  1.00  0.00     0.053 C 
BRANCH   7   8
ATOM      8  C   UNL     1      12.929  65.497   9.850  1.00  0.00     0.041 C 
ATOM      9  O   UNL     1      13.186  66.722   9.992  1.00  0.00    -0.550 OA
ATOM     10  O   UNL     1      13.972  64.584   9.748  1.00  0.00    -0.550 OA
ENDBRANCH   7   8
ENDBRANCH   6   7
ENDBRANCH   5   6
ENDBRANCH   4   5
ENDBRANCH   3   4
ENDBRANCH   2   3
ENDBRANCH   1   2
BRANCH   1  11
ATOM     11  C   UNL     1      12.189  66.859   6.439  1.00  0.00     0.000 C 
BRANCH  11  12
ATOM     12  C   UNL     1      10.739  66.352   6.389  1.00  0.00    -0.000 C 
BRANCH  12  13
ATOM     13  C   UNL     1       9.713  67.499   6.386  1.00  0.00    -0.000 C 
BRANCH  13  14
ATOM     14  C   UNL     1       9.541  68.138   4.998  1.00  0.00    -0.000 C 
BRANCH  14  15
ATOM     15  C   UNL     1       8.965  67.154   3.965  1.00  0.00    -0.000 C 
BRANCH  15  16
ATOM     16  C   UNL     1       9.872  66.994   2.734  1.00  0.00    -0.000 C 
BRANCH  16  17
ATOM     17  C   UNL     1      10.785  65.762   2.827  1.00  0.00    -0.003 C 
ATOM     18  C   UNL     1      12.249  66.147   2.633  1.00  0.00     0.004 C 
ENDBRANCH  16  17
ENDBRANCH  15  16
ENDBRANCH  14  15
ENDBRANCH  13  14
ENDBRANCH  12  13
ENDBRANCH  11  12
ENDBRANCH   1  11
TORSDOF 14
ENDMDL
