MODEL 1
REMARK VINA RESULT:     2.971      0.000      0.000
REMARK INTER + INTRA:           5.694
REMARK INTER:                   4.361
REMARK INTRA:                   1.333
REMARK UNBOUND:                 1.333
REMARK SMILES C=C1CC=CC(C)(C)CC=C(C)CCC1
REMARK SMILES IDX 2 1 1 2 15 3 14 4 13 5 11 6 12 7 10 8 3 10 4 11 5 12 6 13
REMARK SMILES IDX 7 14 8 15 9 16
REMARK H PARENT
REMARK Flexibility Score: 60.00
ROOT
ATOM      1  C   UNL     1     -14.771  -4.068  15.783  1.00  0.00    -0.074 C 
ATOM      2  C   UNL     1     -14.658  -5.371  15.460  1.00  0.00     0.008 C 
ENDROOT
BRANCH   1   3
ATOM      3  C   UNL     1     -13.528  -3.194  15.789  1.00  0.00     0.031 C 
BRANCH   3   4
ATOM      4  C   UNL     1     -13.377  -2.353  17.066  1.00  0.00     0.009 C 
BRANCH   4   5
ATOM      5  C   UNL     1     -13.689  -3.133  18.359  1.00  0.00     0.030 C 
BRANCH   5   6
ATOM      6  C   UNL     1     -14.236  -2.212  19.439  1.00  0.00    -0.077 C 
ATOM      7  C   UNL     1     -13.425  -1.995  20.689  1.00  0.00     0.039 C 
ATOM      8  C   UNL     1     -15.416  -1.553  19.319  1.00  0.00    -0.027 CG0
ATOM      9  G   UNL     1     -16.368  -1.694  18.151  1.00  0.00     0.000 G0
ENDBRANCH   5   6
ENDBRANCH   4   5
ENDBRANCH   3   4
ENDBRANCH   1   3
BRANCH   1  10
ATOM     10  C   UNL     1     -16.139  -3.425  15.953  1.00  0.00     0.057 C 
BRANCH  10  11
ATOM     11  C   UNL     1     -16.327  -2.096  15.241  1.00  0.00    -0.026 C 
ATOM     12  C   UNL     1     -16.457  -0.853  15.769  1.00  0.00    -0.024 C 
BRANCH  12  13
ATOM     13  C   UNL     1     -16.511  -0.425  17.244  1.00  0.00    -0.014 C 
ATOM     14  C   UNL     1     -17.900   0.209  17.499  1.00  0.00     0.016 C 
ATOM     15  C   UNL     1     -15.457   0.672  17.533  1.00  0.00     0.016 C 
BRANCH  13  16
ATOM     16  C   UNL     1     -16.379  -1.683  18.156  1.00  0.00     0.038 CG0
ATOM     17  G   UNL     1     -15.417  -1.528  19.316  1.00  0.00     0.000 G0
ENDBRANCH  13  16
ENDBRANCH  12  13
ENDBRANCH  10  11
ENDBRANCH   1  10
TORSDOF 0
ENDMDL
MODEL 2
REMARK VINA RESULT:     4.377      0.921      3.568
REMARK INTER + INTRA:           7.757
REMARK INTER:                   5.870
REMARK INTRA:                   1.887
REMARK UNBOUND:                 1.333
REMARK SMILES C=C1CC=CC(C)(C)CC=C(C)CCC1
REMARK SMILES IDX 2 1 1 2 15 3 14 4 13 5 11 6 12 7 10 8 3 10 4 11 5 12 6 13
REMARK SMILES IDX 7 14 8 15 9 16
REMARK H PARENT
REMARK Flexibility Score: 60.00
ROOT
ATOM      1  C   UNL     1     -14.890  -3.382  15.922  1.00  0.00    -0.074 C 
ATOM      2  C   UNL     1     -14.507  -4.642  15.642  1.00  0.00     0.008 C 
ENDROOT
BRANCH   1   3
ATOM      3  C   UNL     1     -16.333  -2.973  15.678  1.00  0.00     0.031 C 
BRANCH   3   4
ATOM      4  C   UNL     1     -16.523  -1.456  15.530  1.00  0.00     0.009 C 
BRANCH   4   5
ATOM      5  C   UNL     1     -17.174  -0.792  16.761  1.00  0.00     0.030 C 
BRANCH   5   6
ATOM      6  C   UNL     1     -16.174   0.075  17.511  1.00  0.00    -0.077 C 
ATOM      7  C   UNL     1     -16.017   1.518  17.107  1.00  0.00     0.039 C 
ATOM      8  C   UNL     1     -15.431  -0.383  18.548  1.00  0.00    -0.027 CG0
ATOM      9  G   UNL     1     -15.438  -1.812  19.050  1.00  0.00     0.000 G0
ENDBRANCH   5   6
ENDBRANCH   4   5
ENDBRANCH   3   4
ENDBRANCH   1   3
BRANCH   1  10
ATOM     10  C   UNL     1     -13.955  -2.430  16.651  1.00  0.00     0.057 C 
BRANCH  10  11
ATOM     11  C   UNL     1     -13.080  -3.065  17.718  1.00  0.00    -0.026 C 
ATOM     12  C   UNL     1     -13.185  -2.990  19.069  1.00  0.00    -0.024 C 
BRANCH  12  13
ATOM     13  C   UNL     1     -14.185  -2.193  19.922  1.00  0.00    -0.014 C 
ATOM     14  C   UNL     1     -13.485  -0.884  20.367  1.00  0.00     0.016 C 
ATOM     15  C   UNL     1     -14.544  -2.971  21.212  1.00  0.00     0.016 C 
BRANCH  13  16
ATOM     16  C   UNL     1     -15.422  -1.809  19.053  1.00  0.00     0.038 CG0
ATOM     17  G   UNL     1     -15.424  -0.382  18.548  1.00  0.00     0.000 G0
ENDBRANCH  13  16
ENDBRANCH  12  13
ENDBRANCH  10  11
ENDBRANCH   1  10
TORSDOF 0
ENDMDL
MODEL 3
REMARK VINA RESULT:     5.072      1.237      3.619
REMARK INTER + INTRA:           8.777
REMARK INTER:                   5.745
REMARK INTRA:                   3.031
REMARK UNBOUND:                 1.333
REMARK SMILES C=C1CC=CC(C)(C)CC=C(C)CCC1
REMARK SMILES IDX 2 1 1 2 15 3 14 4 13 5 11 6 12 7 10 8 3 10 4 11 5 12 6 13
REMARK SMILES IDX 7 14 8 15 9 16
REMARK H PARENT
REMARK Flexibility Score: 60.00
ROOT
ATOM      1  C   UNL     1     -16.435  -1.062  16.989  1.00  0.00    -0.074 C 
ATOM      2  C   UNL     1     -16.805   0.228  17.094  1.00  0.00     0.008 C 
ENDROOT
BRANCH   1   3
ATOM      3  C   UNL     1     -16.452  -1.943  18.228  1.00  0.00     0.031 C 
BRANCH   3   4
ATOM      4  C   UNL     1     -15.737  -1.315  19.435  1.00  0.00     0.009 C 
BRANCH   4   5
ATOM      5  C   UNL     1     -15.143  -2.354  20.408  1.00  0.00     0.030 C 
BRANCH   5   6
ATOM      6  C   UNL     1     -13.637  -2.473  20.234  1.00  0.00    -0.077 C 
ATOM      7  C   UNL     1     -12.781  -2.715  21.451  1.00  0.00     0.039 C 
ATOM      8  C   UNL     1     -13.024  -2.397  19.027  1.00  0.00    -0.027 CG0
ATOM      9  G   UNL     1     -13.731  -2.117  17.717  1.00  0.00     0.000 G0
ENDBRANCH   5   6
ENDBRANCH   4   5
ENDBRANCH   3   4
ENDBRANCH   1   3
BRANCH   1  10
ATOM     10  C   UNL     1     -16.189  -1.692  15.626  1.00  0.00     0.057 C 
BRANCH  10  11
ATOM     11  C   UNL     1     -15.822  -3.166  15.646  1.00  0.00    -0.026 C 
ATOM     12  C   UNL     1     -14.668  -3.756  16.049  1.00  0.00    -0.024 C 
BRANCH  12  13
ATOM     13  C   UNL     1     -13.369  -3.106  16.549  1.00  0.00    -0.014 C 
ATOM     14  C   UNL     1     -12.761  -2.303  15.372  1.00  0.00     0.016 C 
ATOM     15  C   UNL     1     -12.331  -4.188  16.938  1.00  0.00     0.016 C 
BRANCH  13  16
ATOM     16  C   UNL     1     -13.696  -2.104  17.699  1.00  0.00     0.038 CG0
ATOM     17  G   UNL     1     -13.030  -2.418  19.023  1.00  0.00     0.000 G0
ENDBRANCH  13  16
ENDBRANCH  12  13
ENDBRANCH  10  11
ENDBRANCH   1  10
TORSDOF 0
ENDMDL
MODEL 4
REMARK VINA RESULT:     5.337      1.268      4.021
REMARK INTER + INTRA:           9.166
REMARK INTER:                   7.925
REMARK INTRA:                   1.241
REMARK UNBOUND:                 1.333
REMARK SMILES C=C1CC=CC(C)(C)CC=C(C)CCC1
REMARK SMILES IDX 2 1 1 2 15 3 14 4 13 5 11 6 12 7 10 8 3 10 4 11 5 12 6 13
REMARK SMILES IDX 7 14 8 15 9 16
REMARK H PARENT
REMARK Flexibility Score: 60.00
ROOT
ATOM      1  C   UNL     1     -16.531  -0.718  16.758  1.00  0.00    -0.074 C 
ATOM      2  C   UNL     1     -16.841   0.548  16.419  1.00  0.00     0.008 C 
ENDROOT
BRANCH   1   3
ATOM      3  C   UNL     1     -16.088  -1.689  15.676  1.00  0.00     0.031 C 
BRANCH   3   4
ATOM      4  C   UNL     1     -16.104  -3.158  16.127  1.00  0.00     0.009 C 
BRANCH   4   5
ATOM      5  C   UNL     1     -14.719  -3.836  16.069  1.00  0.00     0.030 C 
BRANCH   5   6
ATOM      6  C   UNL     1     -13.619  -2.877  16.497  1.00  0.00    -0.077 C 
ATOM      7  C   UNL     1     -12.764  -2.232  15.437  1.00  0.00     0.039 C 
ATOM      8  C   UNL     1     -13.384  -2.552  17.792  1.00  0.00    -0.027 CG0
ATOM      9  G   UNL     1     -14.121  -3.141  18.976  1.00  0.00     0.000 G0
ENDBRANCH   5   6
ENDBRANCH   4   5
ENDBRANCH   3   4
ENDBRANCH   1   3
BRANCH   1  10
ATOM     10  C   UNL     1     -16.435  -1.131  18.219  1.00  0.00     0.057 C 
BRANCH  10  11
ATOM     11  C   UNL     1     -15.448  -0.336  19.057  1.00  0.00    -0.026 C 
ATOM     12  C   UNL     1     -14.475  -0.785  19.889  1.00  0.00    -0.024 C 
BRANCH  12  13
ATOM     13  C   UNL     1     -14.119  -2.229  20.277  1.00  0.00    -0.014 C 
ATOM     14  C   UNL     1     -15.229  -2.749  21.223  1.00  0.00     0.016 C 
ATOM     15  C   UNL     1     -12.793  -2.269  21.076  1.00  0.00     0.016 C 
BRANCH  13  16
ATOM     16  C   UNL     1     -14.113  -3.125  19.000  1.00  0.00     0.038 CG0
ATOM     17  G   UNL     1     -13.374  -2.537  17.816  1.00  0.00     0.000 G0
ENDBRANCH  13  16
ENDBRANCH  12  13
ENDBRANCH  10  11
ENDBRANCH   1  10
TORSDOF 0
ENDMDL
MODEL 5
REMARK VINA RESULT:     5.558      1.201      3.691
REMARK INTER + INTRA:           9.490
REMARK INTER:                   7.192
REMARK INTRA:                   2.298
REMARK UNBOUND:                 1.333
REMARK SMILES C=C1CC=CC(C)(C)CC=C(C)CCC1
REMARK SMILES IDX 2 1 1 2 15 3 14 4 13 5 11 6 12 7 10 8 3 10 4 11 5 12 6 13
REMARK SMILES IDX 7 14 8 15 9 16
REMARK H PARENT
REMARK Flexibility Score: 60.00
ROOT
ATOM      1  C   UNL     1     -13.507  -2.302  19.835  1.00  0.00    -0.074 C 
ATOM      2  C   UNL     1     -12.632  -2.324  20.858  1.00  0.00     0.008 C 
ENDROOT
BRANCH   1   3
ATOM      3  C   UNL     1     -13.238  -3.161  18.610  1.00  0.00     0.031 C 
BRANCH   3   4
ATOM      4  C   UNL     1     -13.282  -2.375  17.290  1.00  0.00     0.009 C 
BRANCH   4   5
ATOM      5  C   UNL     1     -13.335  -3.275  16.038  1.00  0.00     0.030 C 
BRANCH   5   6
ATOM      6  C   UNL     1     -14.748  -3.774  15.779  1.00  0.00    -0.077 C 
ATOM      7  C   UNL     1     -14.977  -5.253  15.608  1.00  0.00     0.039 C 
ATOM      8  C   UNL     1     -15.824  -2.950  15.719  1.00  0.00    -0.027 CG0
ATOM      9  G   UNL     1     -15.761  -1.441  15.827  1.00  0.00     0.000 G0
ENDBRANCH   5   6
ENDBRANCH   4   5
ENDBRANCH   3   4
ENDBRANCH   1   3
BRANCH   1  10
ATOM     10  C   UNL     1     -14.843  -1.586  19.969  1.00  0.00     0.057 C 
BRANCH  10  11
ATOM     11  C   UNL     1     -16.024  -2.283  19.316  1.00  0.00    -0.026 C 
ATOM     12  C   UNL     1     -16.642  -2.000  18.141  1.00  0.00    -0.024 C 
BRANCH  12  13
ATOM     13  C   UNL     1     -16.369  -0.858  17.150  1.00  0.00    -0.014 C 
ATOM     14  C   UNL     1     -15.302   0.069  17.784  1.00  0.00     0.016 C 
ATOM     15  C   UNL     1     -17.641  -0.000  16.941  1.00  0.00     0.016 C 
BRANCH  13  16
ATOM     16  C   UNL     1     -15.778  -1.443  15.830  1.00  0.00     0.038 CG0
ATOM     17  G   UNL     1     -15.847  -2.951  15.717  1.00  0.00     0.000 G0
ENDBRANCH  13  16
ENDBRANCH  12  13
ENDBRANCH  10  11
ENDBRANCH   1  10
TORSDOF 0
ENDMDL
