MODEL 1
REMARK VINA RESULT:    -5.683      0.000      0.000
REMARK INTER + INTRA:          -6.679
REMARK INTER:                  -6.514
REMARK INTRA:                  -0.165
REMARK UNBOUND:                -0.165
REMARK SMILES CC=Cc1ccc(O)c(OC)c1
REMARK SMILES IDX 4 1 12 2 9 3 7 4 6 5 5 6 3 7 1 8 2 9 10 10 11 11 8 12
REMARK H PARENT 8 13
REMARK Flexibility Score: inf
ROOT
ATOM      1  C   UNL     1      31.011   8.930 105.540  1.00  0.00    -0.022 A 
ATOM      2  C   UNL     1      31.428   8.342 106.746  1.00  0.00     0.058 A 
ATOM      3  C   UNL     1      31.398   6.943 106.915  1.00  0.00     0.161 A 
ATOM      4  C   UNL     1      30.935   6.134 105.869  1.00  0.00     0.157 A 
ATOM      5  C   UNL     1      30.502   6.716 104.672  1.00  0.00     0.051 A 
ATOM      6  C   UNL     1      30.535   8.101 104.506  1.00  0.00     0.012 A 
ENDROOT
BRANCH   1   7
ATOM      7  C   UNL     1      31.055  10.409 105.420  1.00  0.00     0.003 C 
ATOM      8  C   UNL     1      30.101  12.679 105.333  1.00  0.00     0.035 C 
ATOM      9  C   UNL     1      29.974  11.197 105.477  1.00  0.00    -0.030 C 
ENDBRANCH   1   7
BRANCH   3  10
ATOM     10  O   UNL     1      31.817   6.323 108.103  1.00  0.00    -0.493 OA
ATOM     11  C   UNL     1      33.172   6.018 108.419  1.00  0.00     0.278 C 
ENDBRANCH   3  10
BRANCH   4  12
ATOM     12  O   UNL     1      30.903   4.750 106.030  1.00  0.00    -0.504 OA
ATOM     13  H   UNL     1      31.736   4.223 106.264  1.00  0.00     0.293 HD
ENDBRANCH   4  12
TORSDOF 3
ENDMDL
MODEL 2
REMARK VINA RESULT:    -4.808      2.381      3.895
REMARK INTER + INTRA:          -5.675
REMARK INTER:                  -5.506
REMARK INTRA:                  -0.169
REMARK UNBOUND:                -0.165
REMARK SMILES CC=Cc1ccc(O)c(OC)c1
REMARK SMILES IDX 4 1 12 2 9 3 7 4 6 5 5 6 3 7 1 8 2 9 10 10 11 11 8 12
REMARK H PARENT 8 13
REMARK Flexibility Score: inf
ROOT
ATOM      1  C   UNL     1      33.151   7.779 107.747  1.00  0.00    -0.022 A 
ATOM      2  C   UNL     1      32.163   8.027 106.779  1.00  0.00     0.058 A 
ATOM      3  C   UNL     1      31.281   7.007 106.368  1.00  0.00     0.161 A 
ATOM      4  C   UNL     1      31.403   5.728 106.927  1.00  0.00     0.157 A 
ATOM      5  C   UNL     1      32.396   5.470 107.879  1.00  0.00     0.051 A 
ATOM      6  C   UNL     1      33.266   6.483 108.285  1.00  0.00     0.012 A 
ENDROOT
BRANCH   1   7
ATOM      7  C   UNL     1      34.058   8.887 108.135  1.00  0.00     0.003 C 
ATOM      8  C   UNL     1      35.733  10.653 107.747  1.00  0.00     0.035 C 
ATOM      9  C   UNL     1      34.835   9.555 107.274  1.00  0.00    -0.030 C 
ENDBRANCH   1   7
BRANCH   3  10
ATOM     10  O   UNL     1      30.277   7.226 105.412  1.00  0.00    -0.493 OA
ATOM     11  C   UNL     1      30.513   7.376 104.015  1.00  0.00     0.278 C 
ENDBRANCH   3  10
BRANCH   4  12
ATOM     12  O   UNL     1      30.534   4.715 106.526  1.00  0.00    -0.504 OA
ATOM     13  H   UNL     1      30.233   4.624 105.563  1.00  0.00     0.293 HD
ENDBRANCH   4  12
TORSDOF 3
ENDMDL
MODEL 3
REMARK VINA RESULT:    -4.729      3.449      5.291
REMARK INTER + INTRA:          -5.585
REMARK INTER:                  -5.431
REMARK INTRA:                  -0.154
REMARK UNBOUND:                -0.165
REMARK SMILES CC=Cc1ccc(O)c(OC)c1
REMARK SMILES IDX 4 1 12 2 9 3 7 4 6 5 5 6 3 7 1 8 2 9 10 10 11 11 8 12
REMARK H PARENT 8 13
REMARK Flexibility Score: inf
ROOT
ATOM      1  C   UNL     1      32.263  12.928 104.949  1.00  0.00    -0.022 A 
ATOM      2  C   UNL     1      32.005  11.548 105.013  1.00  0.00     0.058 A 
ATOM      3  C   UNL     1      30.709  11.068 105.291  1.00  0.00     0.161 A 
ATOM      4  C   UNL     1      29.671  11.982 105.516  1.00  0.00     0.157 A 
ATOM      5  C   UNL     1      29.926  13.358 105.470  1.00  0.00     0.051 A 
ATOM      6  C   UNL     1      31.210  13.830 105.192  1.00  0.00     0.012 A 
ENDROOT
BRANCH   1   7
ATOM      7  C   UNL     1      33.648  13.378 104.661  1.00  0.00     0.003 C 
ATOM      8  C   UNL     1      36.007  13.091 104.008  1.00  0.00     0.035 C 
ATOM      9  C   UNL     1      34.632  12.561 104.265  1.00  0.00    -0.030 C 
ENDBRANCH   1   7
BRANCH   3  10
ATOM     10  O   UNL     1      30.416   9.696 105.352  1.00  0.00    -0.493 OA
ATOM     11  C   UNL     1      31.386   8.672 105.546  1.00  0.00     0.278 C 
ENDBRANCH   3  10
BRANCH   4  12
ATOM     12  O   UNL     1      28.388  11.514 105.791  1.00  0.00    -0.504 OA
ATOM     13  H   UNL     1      28.099  11.276 106.732  1.00  0.00     0.293 HD
ENDBRANCH   4  12
TORSDOF 3
ENDMDL
MODEL 4
REMARK VINA RESULT:    -4.706      2.405      3.292
REMARK INTER + INTRA:          -5.559
REMARK INTER:                  -5.392
REMARK INTRA:                  -0.168
REMARK UNBOUND:                -0.165
REMARK SMILES CC=Cc1ccc(O)c(OC)c1
REMARK SMILES IDX 4 1 12 2 9 3 7 4 6 5 5 6 3 7 1 8 2 9 10 10 11 11 8 12
REMARK H PARENT 8 13
REMARK Flexibility Score: inf
ROOT
ATOM      1  C   UNL     1      33.042   8.126 107.465  1.00  0.00    -0.022 A 
ATOM      2  C   UNL     1      33.246   6.794 107.862  1.00  0.00     0.058 A 
ATOM      3  C   UNL     1      32.368   5.773 107.444  1.00  0.00     0.161 A 
ATOM      4  C   UNL     1      31.274   6.097 106.631  1.00  0.00     0.157 A 
ATOM      5  C   UNL     1      31.057   7.426 106.246  1.00  0.00     0.051 A 
ATOM      6  C   UNL     1      31.928   8.434 106.661  1.00  0.00     0.012 A 
ENDROOT
BRANCH   1   7
ATOM      7  C   UNL     1      33.992   9.161 107.942  1.00  0.00     0.003 C 
ATOM      8  C   UNL     1      35.865  10.749 107.735  1.00  0.00     0.035 C 
ATOM      9  C   UNL     1      34.936   9.720 107.175  1.00  0.00    -0.030 C 
ENDBRANCH   1   7
BRANCH   3  10
ATOM     10  O   UNL     1      32.550   4.431 107.814  1.00  0.00    -0.493 OA
ATOM     11  C   UNL     1      33.457   3.534 107.179  1.00  0.00     0.278 C 
ENDBRANCH   3  10
BRANCH   4  12
ATOM     12  O   UNL     1      30.404   5.093 106.214  1.00  0.00    -0.504 OA
ATOM     13  H   UNL     1      29.762   4.645 106.857  1.00  0.00     0.293 HD
ENDBRANCH   4  12
TORSDOF 3
ENDMDL
MODEL 5
REMARK VINA RESULT:    -4.686      3.526      5.356
REMARK INTER + INTRA:          -5.536
REMARK INTER:                  -5.369
REMARK INTRA:                  -0.167
REMARK UNBOUND:                -0.165
REMARK SMILES CC=Cc1ccc(O)c(OC)c1
REMARK SMILES IDX 4 1 12 2 9 3 7 4 6 5 5 6 3 7 1 8 2 9 10 10 11 11 8 12
REMARK H PARENT 8 13
REMARK Flexibility Score: inf
ROOT
ATOM      1  C   UNL     1      31.521   9.619 105.363  1.00  0.00    -0.022 A 
ATOM      2  C   UNL     1      32.906   9.852 105.351  1.00  0.00     0.058 A 
ATOM      3  C   UNL     1      33.418  11.158 105.209  1.00  0.00     0.161 A 
ATOM      4  C   UNL     1      32.530  12.232 105.067  1.00  0.00     0.157 A 
ATOM      5  C   UNL     1      31.149  12.004 105.062  1.00  0.00     0.051 A 
ATOM      6  C   UNL     1      30.645  10.710 105.204  1.00  0.00     0.012 A 
ENDROOT
BRANCH   1   7
ATOM      7  C   UNL     1      31.037   8.224 105.506  1.00  0.00     0.003 C 
ATOM      8  C   UNL     1      30.920   5.988 106.536  1.00  0.00     0.035 C 
ATOM      9  C   UNL     1      31.445   7.386 106.468  1.00  0.00    -0.030 C 
ENDBRANCH   1   7
BRANCH   3  10
ATOM     10  O   UNL     1      34.797  11.425 105.204  1.00  0.00    -0.493 OA
ATOM     11  C   UNL     1      35.599  11.547 106.374  1.00  0.00     0.278 C 
ENDBRANCH   3  10
BRANCH   4  12
ATOM     12  O   UNL     1      33.029  13.526 104.927  1.00  0.00    -0.504 OA
ATOM     13  H   UNL     1      32.682  14.155 104.213  1.00  0.00     0.293 HD
ENDBRANCH   4  12
TORSDOF 3
ENDMDL
MODEL 6
REMARK VINA RESULT:    -4.622      3.293      3.883
REMARK INTER + INTRA:          -5.462
REMARK INTER:                  -5.309
REMARK INTRA:                  -0.153
REMARK UNBOUND:                -0.165
REMARK SMILES CC=Cc1ccc(O)c(OC)c1
REMARK SMILES IDX 4 1 12 2 9 3 7 4 6 5 5 6 3 7 1 8 2 9 10 10 11 11 8 12
REMARK H PARENT 8 13
REMARK Flexibility Score: inf
ROOT
ATOM      1  C   UNL     1      34.379   9.633 106.661  1.00  0.00    -0.022 A 
ATOM      2  C   UNL     1      33.966   8.645 107.571  1.00  0.00     0.058 A 
ATOM      3  C   UNL     1      32.710   8.018 107.435  1.00  0.00     0.161 A 
ATOM      4  C   UNL     1      31.864   8.395 106.384  1.00  0.00     0.157 A 
ATOM      5  C   UNL     1      32.264   9.390 105.485  1.00  0.00     0.051 A 
ATOM      6  C   UNL     1      33.507  10.008 105.621  1.00  0.00     0.012 A 
ENDROOT
BRANCH   1   7
ATOM      7  C   UNL     1      35.706  10.267 106.857  1.00  0.00     0.003 C 
ATOM      8  C   UNL     1      37.277  12.152 107.087  1.00  0.00     0.035 C 
ATOM      9  C   UNL     1      35.904  11.590 106.900  1.00  0.00    -0.030 C 
ENDBRANCH   1   7
BRANCH   3  10
ATOM     10  O   UNL     1      32.272   7.020 108.321  1.00  0.00    -0.493 OA
ATOM     11  C   UNL     1      32.533   5.629 108.162  1.00  0.00     0.278 C 
ENDBRANCH   3  10
BRANCH   4  12
ATOM     12  O   UNL     1      30.623   7.778 106.244  1.00  0.00    -0.504 OA
ATOM     13  H   UNL     1      30.354   7.315 105.384  1.00  0.00     0.293 HD
ENDBRANCH   4  12
TORSDOF 3
ENDMDL
MODEL 7
REMARK VINA RESULT:    -4.465      3.396      4.458
REMARK INTER + INTRA:          -5.282
REMARK INTER:                  -5.236
REMARK INTRA:                  -0.046
REMARK UNBOUND:                -0.165
REMARK SMILES CC=Cc1ccc(O)c(OC)c1
REMARK SMILES IDX 4 1 12 2 9 3 7 4 6 5 5 6 3 7 1 8 2 9 10 10 11 11 8 12
REMARK H PARENT 8 13
REMARK Flexibility Score: inf
ROOT
ATOM      1  C   UNL     1      34.337   9.563 106.550  1.00  0.00    -0.022 A 
ATOM      2  C   UNL     1      33.174   9.500 105.764  1.00  0.00     0.058 A 
ATOM      3  C   UNL     1      32.060   8.742 106.181  1.00  0.00     0.161 A 
ATOM      4  C   UNL     1      32.123   8.038 107.391  1.00  0.00     0.157 A 
ATOM      5  C   UNL     1      33.285   8.085 108.170  1.00  0.00     0.051 A 
ATOM      6  C   UNL     1      34.385   8.836 107.755  1.00  0.00     0.012 A 
ENDROOT
BRANCH   1   7
ATOM      7  C   UNL     1      35.483  10.368 106.058  1.00  0.00     0.003 C 
ATOM      8  C   UNL     1      37.336  11.980 106.254  1.00  0.00     0.035 C 
ATOM      9  C   UNL     1      36.204  11.192 106.829  1.00  0.00    -0.030 C 
ENDBRANCH   1   7
BRANCH   3  10
ATOM     10  O   UNL     1      30.881   8.667 105.424  1.00  0.00    -0.493 OA
ATOM     11  C   UNL     1      30.502   7.547 104.630  1.00  0.00     0.278 C 
ENDBRANCH   3  10
BRANCH   4  12
ATOM     12  O   UNL     1      31.026   7.289 107.810  1.00  0.00    -0.504 OA
ATOM     13  H   UNL     1      30.633   7.395 108.738  1.00  0.00     0.293 HD
ENDBRANCH   4  12
TORSDOF 3
ENDMDL
MODEL 8
REMARK VINA RESULT:    -4.412      2.516      3.590
REMARK INTER + INTRA:          -5.221
REMARK INTER:                  -5.050
REMARK INTRA:                  -0.172
REMARK UNBOUND:                -0.165
REMARK SMILES CC=Cc1ccc(O)c(OC)c1
REMARK SMILES IDX 4 1 12 2 9 3 7 4 6 5 5 6 3 7 1 8 2 9 10 10 11 11 8 12
REMARK H PARENT 8 13
REMARK Flexibility Score: inf
ROOT
ATOM      1  C   UNL     1      33.627   9.724 106.206  1.00  0.00    -0.022 A 
ATOM      2  C   UNL     1      32.456   8.950 106.145  1.00  0.00     0.058 A 
ATOM      3  C   UNL     1      32.220   7.921 107.079  1.00  0.00     0.161 A 
ATOM      4  C   UNL     1      33.174   7.663 108.072  1.00  0.00     0.157 A 
ATOM      5  C   UNL     1      34.350   8.421 108.128  1.00  0.00     0.051 A 
ATOM      6  C   UNL     1      34.580   9.440 107.203  1.00  0.00     0.012 A 
ENDROOT
BRANCH   1   7
ATOM      7  C   UNL     1      33.828  10.789 105.192  1.00  0.00     0.003 C 
ATOM      8  C   UNL     1      34.428  13.044 104.399  1.00  0.00     0.035 C 
ATOM      9  C   UNL     1      34.265  12.021 105.478  1.00  0.00    -0.030 C 
ENDBRANCH   1   7
BRANCH   3  10
ATOM     10  O   UNL     1      31.056   7.137 107.051  1.00  0.00    -0.493 OA
ATOM     11  C   UNL     1      30.855   6.022 106.188  1.00  0.00     0.278 C 
ENDBRANCH   3  10
BRANCH   4  12
ATOM     12  O   UNL     1      32.947   6.648 108.999  1.00  0.00    -0.504 OA
ATOM     13  H   UNL     1      32.081   6.590 109.522  1.00  0.00     0.293 HD
ENDBRANCH   4  12
TORSDOF 3
ENDMDL
MODEL 9
REMARK VINA RESULT:    -4.221      8.490      9.601
REMARK INTER + INTRA:          -5.003
REMARK INTER:                  -4.836
REMARK INTRA:                  -0.167
REMARK UNBOUND:                -0.165
REMARK SMILES CC=Cc1ccc(O)c(OC)c1
REMARK SMILES IDX 4 1 12 2 9 3 7 4 6 5 5 6 3 7 1 8 2 9 10 10 11 11 8 12
REMARK H PARENT 8 13
REMARK Flexibility Score: inf
ROOT
ATOM      1  C   UNL     1      40.096  11.523 105.480  1.00  0.00    -0.022 A 
ATOM      2  C   UNL     1      39.082  11.900 106.375  1.00  0.00     0.058 A 
ATOM      3  C   UNL     1      37.743  12.009 105.946  1.00  0.00     0.161 A 
ATOM      4  C   UNL     1      37.428  11.748 104.606  1.00  0.00     0.157 A 
ATOM      5  C   UNL     1      38.438  11.387 103.706  1.00  0.00     0.051 A 
ATOM      6  C   UNL     1      39.761  11.279 104.134  1.00  0.00     0.012 A 
ENDROOT
BRANCH   1   7
ATOM      7  C   UNL     1      41.490  11.432 105.983  1.00  0.00     0.003 C 
ATOM      8  C   UNL     1      43.352  10.440 107.256  1.00  0.00     0.035 C 
ATOM      9  C   UNL     1      41.935  10.452 106.780  1.00  0.00    -0.030 C 
ENDBRANCH   1   7
BRANCH   3  10
ATOM     10  O   UNL     1      36.705  12.374 106.818  1.00  0.00    -0.493 OA
ATOM     11  C   UNL     1      36.117  11.504 107.781  1.00  0.00     0.278 C 
ENDBRANCH   3  10
BRANCH   4  12
ATOM     12  O   UNL     1      36.107  11.853 104.176  1.00  0.00    -0.504 OA
ATOM     13  H   UNL     1      35.470  11.067 104.220  1.00  0.00     0.293 HD
ENDBRANCH   4  12
TORSDOF 3
ENDMDL
