MODEL 1
REMARK VINA RESULT:    -3.833      0.000      0.000
REMARK INTER + INTRA:          -8.206
REMARK INTER:                  -6.746
REMARK INTRA:                  -1.460
REMARK UNBOUND:                -1.460
REMARK SMILES CCCCCCCCCCCCCCC(=O)[O-]
REMARK SMILES IDX 9 1 10 2 11 3 12 4 13 5 14 6 15 7 16 8 17 9 8 10 7 11 6 12
REMARK SMILES IDX 5 13 4 14 3 15 2 16 1 17
REMARK H PARENT
REMARK Flexibility Score: inf
ROOT
ATOM      1  C   UNL     1      43.991  26.822   2.254  1.00  0.00     0.000 C 
ENDROOT
BRANCH   1   2
ATOM      2  C   UNL     1      42.932  27.901   2.522  1.00  0.00     0.000 C 
BRANCH   2   3
ATOM      3  C   UNL     1      43.401  29.314   2.131  1.00  0.00     0.000 C 
BRANCH   3   4
ATOM      4  C   UNL     1      44.672  29.802   2.851  1.00  0.00     0.000 C 
BRANCH   4   5
ATOM      5  C   UNL     1      45.900  29.856   1.929  1.00  0.00     0.006 C 
BRANCH   5   6
ATOM      6  C   UNL     1      45.486  29.746   0.458  1.00  0.00     0.053 C 
BRANCH   6   7
ATOM      7  C   UNL     1      46.219  28.626  -0.210  1.00  0.00     0.041 C 
ATOM      8  O   UNL     1      46.049  28.402  -1.437  1.00  0.00    -0.550 OA
ATOM      9  O   UNL     1      47.052  27.799   0.533  1.00  0.00    -0.550 OA
ENDBRANCH   6   7
ENDBRANCH   5   6
ENDBRANCH   4   5
ENDBRANCH   3   4
ENDBRANCH   2   3
ENDBRANCH   1   2
BRANCH   1  10
ATOM     10  C   UNL     1      44.583  26.295   3.571  1.00  0.00     0.000 C 
BRANCH  10  11
ATOM     11  C   UNL     1      46.120  26.318   3.580  1.00  0.00    -0.000 C 
BRANCH  11  12
ATOM     12  C   UNL     1      46.703  26.500   4.993  1.00  0.00    -0.000 C 
BRANCH  12  13
ATOM     13  C   UNL     1      46.419  27.907   5.562  1.00  0.00    -0.000 C 
BRANCH  13  14
ATOM     14  C   UNL     1      46.360  27.950   7.099  1.00  0.00    -0.000 C 
BRANCH  14  15
ATOM     15  C   UNL     1      45.976  26.598   7.719  1.00  0.00    -0.000 C 
BRANCH  15  16
ATOM     16  C   UNL     1      45.591  26.720   9.203  1.00  0.00    -0.003 C 
ATOM     17  C   UNL     1      45.064  28.107   9.566  1.00  0.00     0.004 C 
ENDBRANCH  15  16
ENDBRANCH  14  15
ENDBRANCH  13  14
ENDBRANCH  12  13
ENDBRANCH  11  12
ENDBRANCH  10  11
ENDBRANCH   1  10
TORSDOF 13
ENDMDL
MODEL 2
REMARK VINA RESULT:    -3.728      1.106      1.773
REMARK INTER + INTRA:          -8.022
REMARK INTER:                  -7.047
REMARK INTRA:                  -0.975
REMARK UNBOUND:                -1.460
REMARK SMILES CCCCCCCCCCCCCCC(=O)[O-]
REMARK SMILES IDX 9 1 10 2 11 3 12 4 13 5 14 6 15 7 16 8 17 9 8 10 7 11 6 12
REMARK SMILES IDX 5 13 4 14 3 15 2 16 1 17
REMARK H PARENT
REMARK Flexibility Score: inf
ROOT
ATOM      1  C   UNL     1      43.716  27.128   2.537  1.00  0.00     0.000 C 
ENDROOT
BRANCH   1   2
ATOM      2  C   UNL     1      43.582  28.629   2.243  1.00  0.00     0.000 C 
BRANCH   2   3
ATOM      3  C   UNL     1      44.940  29.322   2.023  1.00  0.00     0.000 C 
BRANCH   3   4
ATOM      4  C   UNL     1      45.267  29.666   0.559  1.00  0.00     0.000 C 
BRANCH   4   5
ATOM      5  C   UNL     1      46.187  28.634  -0.109  1.00  0.00     0.006 C 
BRANCH   5   6
ATOM      6  C   UNL     1      46.648  29.119  -1.487  1.00  0.00     0.053 C 
BRANCH   6   7
ATOM      7  C   UNL     1      46.058  28.267  -2.566  1.00  0.00     0.041 C 
ATOM      8  O   UNL     1      46.060  27.013  -2.454  1.00  0.00    -0.550 OA
ATOM      9  O   UNL     1      45.552  28.856  -3.718  1.00  0.00    -0.550 OA
ENDBRANCH   6   7
ENDBRANCH   5   6
ENDBRANCH   4   5
ENDBRANCH   3   4
ENDBRANCH   2   3
ENDBRANCH   1   2
BRANCH   1  10
ATOM     10  C   UNL     1      45.170  26.760   2.869  1.00  0.00     0.000 C 
BRANCH  10  11
ATOM     11  C   UNL     1      45.294  25.948   4.168  1.00  0.00    -0.000 C 
BRANCH  11  12
ATOM     12  C   UNL     1      46.509  26.365   5.016  1.00  0.00    -0.000 C 
BRANCH  12  13
ATOM     13  C   UNL     1      46.388  27.816   5.529  1.00  0.00    -0.000 C 
BRANCH  13  14
ATOM     14  C   UNL     1      46.203  27.918   7.053  1.00  0.00    -0.000 C 
BRANCH  14  15
ATOM     15  C   UNL     1      46.395  26.572   7.768  1.00  0.00    -0.000 C 
BRANCH  15  16
ATOM     16  C   UNL     1      45.508  26.436   9.017  1.00  0.00    -0.003 C 
ATOM     17  C   UNL     1      45.217  27.780   9.684  1.00  0.00     0.004 C 
ENDBRANCH  15  16
ENDBRANCH  14  15
ENDBRANCH  13  14
ENDBRANCH  12  13
ENDBRANCH  11  12
ENDBRANCH  10  11
ENDBRANCH   1  10
TORSDOF 13
ENDMDL
MODEL 3
REMARK VINA RESULT:    -3.720      3.353      6.902
REMARK INTER + INTRA:          -8.007
REMARK INTER:                  -6.173
REMARK INTRA:                  -1.834
REMARK UNBOUND:                -1.460
REMARK SMILES CCCCCCCCCCCCCCC(=O)[O-]
REMARK SMILES IDX 9 1 10 2 11 3 12 4 13 5 14 6 15 7 16 8 17 9 8 10 7 11 6 12
REMARK SMILES IDX 5 13 4 14 3 15 2 16 1 17
REMARK H PARENT
REMARK Flexibility Score: inf
ROOT
ATOM      1  C   UNL     1      44.739  26.498   3.560  1.00  0.00     0.000 C 
ENDROOT
BRANCH   1   2
ATOM      2  C   UNL     1      46.269  26.482   3.422  1.00  0.00     0.000 C 
BRANCH   2   3
ATOM      3  C   UNL     1      46.955  27.623   4.194  1.00  0.00     0.000 C 
BRANCH   3   4
ATOM      4  C   UNL     1      46.219  28.084   5.466  1.00  0.00     0.000 C 
BRANCH   4   5
ATOM      5  C   UNL     1      46.897  27.606   6.758  1.00  0.00     0.006 C 
BRANCH   5   6
ATOM      6  C   UNL     1      46.070  26.512   7.440  1.00  0.00     0.053 C 
BRANCH   6   7
ATOM      7  C   UNL     1      45.571  26.984   8.769  1.00  0.00     0.041 C 
ATOM      8  O   UNL     1      45.525  26.191   9.746  1.00  0.00    -0.550 OA
ATOM      9  O   UNL     1      45.110  28.286   8.916  1.00  0.00    -0.550 OA
ENDBRANCH   6   7
ENDBRANCH   5   6
ENDBRANCH   4   5
ENDBRANCH   3   4
ENDBRANCH   2   3
ENDBRANCH   1   2
BRANCH   1  10
ATOM     10  C   UNL     1      44.071  26.843   2.220  1.00  0.00     0.000 C 
BRANCH  10  11
ATOM     11  C   UNL     1      43.022  27.960   2.351  1.00  0.00    -0.000 C 
BRANCH  11  12
ATOM     12  C   UNL     1      43.655  29.341   2.597  1.00  0.00    -0.000 C 
BRANCH  12  13
ATOM     13  C   UNL     1      44.441  29.847   1.368  1.00  0.00    -0.000 C 
BRANCH  13  14
ATOM     14  C   UNL     1      45.952  29.988   1.618  1.00  0.00    -0.000 C 
BRANCH  14  15
ATOM     15  C   UNL     1      46.799  29.187   0.617  1.00  0.00    -0.000 C 
BRANCH  15  16
ATOM     16  C   UNL     1      45.939  28.432  -0.411  1.00  0.00    -0.003 C 
ATOM     17  C   UNL     1      46.473  28.562  -1.837  1.00  0.00     0.004 C 
ENDBRANCH  15  16
ENDBRANCH  14  15
ENDBRANCH  13  14
ENDBRANCH  12  13
ENDBRANCH  11  12
ENDBRANCH  10  11
ENDBRANCH   1  10
TORSDOF 13
ENDMDL
MODEL 4
REMARK VINA RESULT:    -3.588      1.663      2.522
REMARK INTER + INTRA:          -7.775
REMARK INTER:                  -6.957
REMARK INTRA:                  -0.818
REMARK UNBOUND:                -1.460
REMARK SMILES CCCCCCCCCCCCCCC(=O)[O-]
REMARK SMILES IDX 9 1 10 2 11 3 12 4 13 5 14 6 15 7 16 8 17 9 8 10 7 11 6 12
REMARK SMILES IDX 5 13 4 14 3 15 2 16 1 17
REMARK H PARENT
REMARK Flexibility Score: inf
ROOT
ATOM      1  C   UNL     1      44.052  27.497   1.649  1.00  0.00     0.000 C 
ENDROOT
BRANCH   1   2
ATOM      2  C   UNL     1      44.201  29.018   1.808  1.00  0.00     0.000 C 
BRANCH   2   3
ATOM      3  C   UNL     1      45.273  29.617   0.880  1.00  0.00     0.000 C 
BRANCH   3   4
ATOM      4  C   UNL     1      46.004  28.599  -0.015  1.00  0.00     0.000 C 
BRANCH   4   5
ATOM      5  C   UNL     1      46.003  28.997  -1.498  1.00  0.00     0.006 C 
BRANCH   5   6
ATOM      6  C   UNL     1      46.358  27.800  -2.386  1.00  0.00     0.053 C 
BRANCH   6   7
ATOM      7  C   UNL     1      45.633  27.883  -3.692  1.00  0.00     0.041 C 
ATOM      8  O   UNL     1      45.034  28.942  -4.017  1.00  0.00    -0.550 OA
ATOM      9  O   UNL     1      45.576  26.775  -4.528  1.00  0.00    -0.550 OA
ENDBRANCH   6   7
ENDBRANCH   5   6
ENDBRANCH   4   5
ENDBRANCH   3   4
ENDBRANCH   2   3
ENDBRANCH   1   2
BRANCH   1  10
ATOM     10  C   UNL     1      44.237  26.783   2.996  1.00  0.00     0.000 C 
BRANCH  10  11
ATOM     11  C   UNL     1      45.717  26.606   3.374  1.00  0.00    -0.000 C 
BRANCH  11  12
ATOM     12  C   UNL     1      46.114  27.426   4.615  1.00  0.00    -0.000 C 
BRANCH  12  13
ATOM     13  C   UNL     1      46.778  26.552   5.700  1.00  0.00    -0.000 C 
BRANCH  13  14
ATOM     14  C   UNL     1      46.124  26.685   7.086  1.00  0.00    -0.000 C 
BRANCH  14  15
ATOM     15  C   UNL     1      46.038  28.142   7.567  1.00  0.00    -0.000 C 
BRANCH  15  16
ATOM     16  C   UNL     1      45.315  28.275   8.917  1.00  0.00    -0.003 C 
ATOM     17  C   UNL     1      45.299  26.969   9.710  1.00  0.00     0.004 C 
ENDBRANCH  15  16
ENDBRANCH  14  15
ENDBRANCH  13  14
ENDBRANCH  12  13
ENDBRANCH  11  12
ENDBRANCH  10  11
ENDBRANCH   1  10
TORSDOF 13
ENDMDL
MODEL 5
REMARK VINA RESULT:    -3.470      3.986      7.292
REMARK INTER + INTRA:          -7.567
REMARK INTER:                  -6.555
REMARK INTRA:                  -1.012
REMARK UNBOUND:                -1.460
REMARK SMILES CCCCCCCCCCCCCCC(=O)[O-]
REMARK SMILES IDX 9 1 10 2 11 3 12 4 13 5 14 6 15 7 16 8 17 9 8 10 7 11 6 12
REMARK SMILES IDX 5 13 4 14 3 15 2 16 1 17
REMARK H PARENT
REMARK Flexibility Score: inf
ROOT
ATOM      1  C   UNL     1      45.580  25.985   4.508  1.00  0.00     0.000 C 
ENDROOT
BRANCH   1   2
ATOM      2  C   UNL     1      46.807  26.663   5.137  1.00  0.00     0.000 C 
BRANCH   2   3
ATOM      3  C   UNL     1      46.436  27.687   6.225  1.00  0.00     0.000 C 
BRANCH   3   4
ATOM      4  C   UNL     1      46.850  27.297   7.656  1.00  0.00     0.000 C 
BRANCH   4   5
ATOM      5  C   UNL     1      45.706  26.658   8.458  1.00  0.00     0.006 C 
BRANCH   5   6
ATOM      6  C   UNL     1      45.757  27.090   9.926  1.00  0.00     0.053 C 
BRANCH   6   7
ATOM      7  C   UNL     1      46.598  26.143  10.723  1.00  0.00     0.041 C 
ATOM      8  O   UNL     1      46.797  24.971  10.307  1.00  0.00    -0.550 OA
ATOM      9  O   UNL     1      47.120  26.538  11.947  1.00  0.00    -0.550 OA
ENDBRANCH   6   7
ENDBRANCH   5   6
ENDBRANCH   4   5
ENDBRANCH   3   4
ENDBRANCH   2   3
ENDBRANCH   1   2
BRANCH   1  10
ATOM     10  C   UNL     1      45.097  26.762   3.274  1.00  0.00     0.000 C 
BRANCH  10  11
ATOM     11  C   UNL     1      46.235  27.510   2.561  1.00  0.00    -0.000 C 
BRANCH  11  12
ATOM     12  C   UNL     1      45.771  28.202   1.267  1.00  0.00    -0.000 C 
BRANCH  12  13
ATOM     13  C   UNL     1      45.529  29.713   1.471  1.00  0.00    -0.000 C 
BRANCH  13  14
ATOM     14  C   UNL     1      44.045  30.114   1.405  1.00  0.00    -0.000 C 
BRANCH  14  15
ATOM     15  C   UNL     1      43.368  30.124   2.784  1.00  0.00    -0.000 C 
BRANCH  15  16
ATOM     16  C   UNL     1      41.944  29.546   2.746  1.00  0.00    -0.003 C 
ATOM     17  C   UNL     1      41.919  28.059   2.396  1.00  0.00     0.004 C 
ENDBRANCH  15  16
ENDBRANCH  14  15
ENDBRANCH  13  14
ENDBRANCH  12  13
ENDBRANCH  11  12
ENDBRANCH  10  11
ENDBRANCH   1  10
TORSDOF 13
ENDMDL
MODEL 6
REMARK VINA RESULT:    -3.468      3.480      7.696
REMARK INTER + INTRA:          -7.564
REMARK INTER:                  -6.600
REMARK INTRA:                  -0.964
REMARK UNBOUND:                -1.460
REMARK SMILES CCCCCCCCCCCCCCC(=O)[O-]
REMARK SMILES IDX 9 1 10 2 11 3 12 4 13 5 14 6 15 7 16 8 17 9 8 10 7 11 6 12
REMARK SMILES IDX 5 13 4 14 3 15 2 16 1 17
REMARK H PARENT
REMARK Flexibility Score: inf
ROOT
ATOM      1  C   UNL     1      44.276  26.747   3.027  1.00  0.00     0.000 C 
ENDROOT
BRANCH   1   2
ATOM      2  C   UNL     1      45.767  26.565   3.351  1.00  0.00     0.000 C 
BRANCH   2   3
ATOM      3  C   UNL     1      46.101  26.858   4.825  1.00  0.00     0.000 C 
BRANCH   3   4
ATOM      4  C   UNL     1      46.049  28.345   5.222  1.00  0.00     0.000 C 
BRANCH   4   5
ATOM      5  C   UNL     1      46.330  28.577   6.714  1.00  0.00     0.006 C 
BRANCH   5   6
ATOM      6  C   UNL     1      46.375  27.250   7.477  1.00  0.00     0.053 C 
BRANCH   6   7
ATOM      7  C   UNL     1      45.522  27.322   8.705  1.00  0.00     0.041 C 
ATOM      8  O   UNL     1      45.164  28.439   9.161  1.00  0.00    -0.550 OA
ATOM      9  O   UNL     1      45.166  26.157   9.372  1.00  0.00    -0.550 OA
ENDBRANCH   6   7
ENDBRANCH   5   6
ENDBRANCH   4   5
ENDBRANCH   3   4
ENDBRANCH   2   3
ENDBRANCH   1   2
BRANCH   1  10
ATOM     10  C   UNL     1      44.092  27.488   1.693  1.00  0.00     0.000 C 
BRANCH  10  11
ATOM     11  C   UNL     1      44.066  29.015   1.863  1.00  0.00    -0.000 C 
BRANCH  11  12
ATOM     12  C   UNL     1      45.217  29.714   1.118  1.00  0.00    -0.000 C 
BRANCH  12  13
ATOM     13  C   UNL     1      46.024  28.732   0.242  1.00  0.00    -0.000 C 
BRANCH  13  14
ATOM     14  C   UNL     1      46.187  29.194  -1.216  1.00  0.00    -0.000 C 
BRANCH  14  15
ATOM     15  C   UNL     1      46.294  28.023  -2.204  1.00  0.00    -0.000 C 
BRANCH  15  16
ATOM     16  C   UNL     1      45.607  28.320  -3.547  1.00  0.00    -0.003 C 
ATOM     17  C   UNL     1      45.155  27.054  -4.274  1.00  0.00     0.004 C 
ENDBRANCH  15  16
ENDBRANCH  14  15
ENDBRANCH  13  14
ENDBRANCH  12  13
ENDBRANCH  11  12
ENDBRANCH  10  11
ENDBRANCH   1  10
TORSDOF 13
ENDMDL
MODEL 7
REMARK VINA RESULT:    -3.425      4.031      6.795
REMARK INTER + INTRA:          -7.488
REMARK INTER:                  -6.341
REMARK INTRA:                  -1.147
REMARK UNBOUND:                -1.460
REMARK SMILES CCCCCCCCCCCCCCC(=O)[O-]
REMARK SMILES IDX 9 1 10 2 11 3 12 4 13 5 14 6 15 7 16 8 17 9 8 10 7 11 6 12
REMARK SMILES IDX 5 13 4 14 3 15 2 16 1 17
REMARK H PARENT
REMARK Flexibility Score: inf
ROOT
ATOM      1  C   UNL     1      45.923  27.900  -3.171  1.00  0.00     0.000 C 
ENDROOT
BRANCH   1   2
ATOM      2  C   UNL     1      46.923  27.348  -4.198  1.00  0.00     0.000 C 
BRANCH   2   3
ATOM      3  C   UNL     1      46.896  28.113  -5.534  1.00  0.00     0.000 C 
BRANCH   3   4
ATOM      4  C   UNL     1      46.219  29.495  -5.481  1.00  0.00     0.000 C 
BRANCH   4   5
ATOM      5  C   UNL     1      44.932  29.564  -6.317  1.00  0.00     0.006 C 
BRANCH   5   6
ATOM      6  C   UNL     1      43.697  29.661  -5.417  1.00  0.00     0.053 C 
BRANCH   6   7
ATOM      7  C   UNL     1      42.866  28.422  -5.532  1.00  0.00     0.041 C 
ATOM      8  O   UNL     1      43.420  27.299  -5.666  1.00  0.00    -0.550 OA
ATOM      9  O   UNL     1      41.480  28.513  -5.540  1.00  0.00    -0.550 OA
ENDBRANCH   6   7
ENDBRANCH   5   6
ENDBRANCH   4   5
ENDBRANCH   3   4
ENDBRANCH   2   3
ENDBRANCH   1   2
BRANCH   1  10
ATOM     10  C   UNL     1      46.647  28.390  -1.908  1.00  0.00     0.000 C 
BRANCH  10  11
ATOM     11  C   UNL     1      46.091  29.725  -1.387  1.00  0.00    -0.000 C 
BRANCH  11  12
ATOM     12  C   UNL     1      45.640  29.647   0.082  1.00  0.00    -0.000 C 
BRANCH  12  13
ATOM     13  C   UNL     1      45.420  28.191   0.546  1.00  0.00    -0.000 C 
BRANCH  13  14
ATOM     14  C   UNL     1      45.821  27.943   2.010  1.00  0.00    -0.000 C 
BRANCH  14  15
ATOM     15  C   UNL     1      44.625  27.576   2.902  1.00  0.00    -0.000 C 
BRANCH  15  16
ATOM     16  C   UNL     1      43.386  27.168   2.088  1.00  0.00    -0.003 C 
ATOM     17  C   UNL     1      42.167  28.040   2.389  1.00  0.00     0.004 C 
ENDBRANCH  15  16
ENDBRANCH  14  15
ENDBRANCH  13  14
ENDBRANCH  12  13
ENDBRANCH  11  12
ENDBRANCH  10  11
ENDBRANCH   1  10
TORSDOF 13
ENDMDL
MODEL 8
REMARK VINA RESULT:    -3.312      3.746      6.099
REMARK INTER + INTRA:          -7.289
REMARK INTER:                  -6.350
REMARK INTRA:                  -0.939
REMARK UNBOUND:                -1.460
REMARK SMILES CCCCCCCCCCCCCCC(=O)[O-]
REMARK SMILES IDX 9 1 10 2 11 3 12 4 13 5 14 6 15 7 16 8 17 9 8 10 7 11 6 12
REMARK SMILES IDX 5 13 4 14 3 15 2 16 1 17
REMARK H PARENT
REMARK Flexibility Score: inf
ROOT
ATOM      1  C   UNL     1      45.954  28.535  -0.786  1.00  0.00     0.000 C 
ENDROOT
BRANCH   1   2
ATOM      2  C   UNL     1      46.681  28.275  -2.114  1.00  0.00     0.000 C 
BRANCH   2   3
ATOM      3  C   UNL     1      45.746  28.343  -3.335  1.00  0.00     0.000 C 
BRANCH   3   4
ATOM      4  C   UNL     1      46.074  27.347  -4.463  1.00  0.00     0.000 C 
BRANCH   4   5
ATOM      5  C   UNL     1      45.199  27.546  -5.710  1.00  0.00     0.006 C 
BRANCH   5   6
ATOM      6  C   UNL     1      43.719  27.326  -5.383  1.00  0.00     0.053 C 
BRANCH   6   7
ATOM      7  C   UNL     1      42.879  28.391  -6.015  1.00  0.00     0.041 C 
ATOM      8  O   UNL     1      43.368  29.141  -6.900  1.00  0.00    -0.550 OA
ATOM      9  O   UNL     1      41.571  28.586  -5.591  1.00  0.00    -0.550 OA
ENDBRANCH   6   7
ENDBRANCH   5   6
ENDBRANCH   4   5
ENDBRANCH   3   4
ENDBRANCH   2   3
ENDBRANCH   1   2
BRANCH   1  10
ATOM     10  C   UNL     1      46.922  29.091   0.270  1.00  0.00     0.000 C 
BRANCH  10  11
ATOM     11  C   UNL     1      46.215  29.965   1.318  1.00  0.00    -0.000 C 
BRANCH  11  12
ATOM     12  C   UNL     1      46.625  29.612   2.760  1.00  0.00    -0.000 C 
BRANCH  12  13
ATOM     13  C   UNL     1      45.558  28.754   3.473  1.00  0.00    -0.000 C 
BRANCH  13  14
ATOM     14  C   UNL     1      45.632  27.258   3.121  1.00  0.00    -0.000 C 
BRANCH  14  15
ATOM     15  C   UNL     1      44.247  26.617   2.945  1.00  0.00    -0.000 C 
BRANCH  15  16
ATOM     16  C   UNL     1      43.415  27.303   1.848  1.00  0.00    -0.003 C 
ATOM     17  C   UNL     1      42.149  27.963   2.391  1.00  0.00     0.004 C 
ENDBRANCH  15  16
ENDBRANCH  14  15
ENDBRANCH  13  14
ENDBRANCH  12  13
ENDBRANCH  11  12
ENDBRANCH  10  11
ENDBRANCH   1  10
TORSDOF 13
ENDMDL
MODEL 9
REMARK VINA RESULT:    -3.145      3.909      8.517
REMARK INTER + INTRA:          -6.995
REMARK INTER:                  -6.469
REMARK INTRA:                  -0.526
REMARK UNBOUND:                -1.460
REMARK SMILES CCCCCCCCCCCCCCC(=O)[O-]
REMARK SMILES IDX 9 1 10 2 11 3 12 4 13 5 14 6 15 7 16 8 17 9 8 10 7 11 6 12
REMARK SMILES IDX 5 13 4 14 3 15 2 16 1 17
REMARK H PARENT
REMARK Flexibility Score: inf
ROOT
ATOM      1  C   UNL     1      44.788  27.665   1.128  1.00  0.00     0.000 C 
ENDROOT
BRANCH   1   2
ATOM      2  C   UNL     1      44.570  27.812   2.641  1.00  0.00     0.000 C 
BRANCH   2   3
ATOM      3  C   UNL     1      44.885  26.524   3.422  1.00  0.00     0.000 C 
BRANCH   3   4
ATOM      4  C   UNL     1      46.258  26.502   4.119  1.00  0.00     0.000 C 
BRANCH   4   5
ATOM      5  C   UNL     1      46.293  27.350   5.399  1.00  0.00     0.006 C 
BRANCH   5   6
ATOM      6  C   UNL     1      46.676  26.496   6.612  1.00  0.00     0.053 C 
BRANCH   6   7
ATOM      7  C   UNL     1      45.995  27.002   7.845  1.00  0.00     0.041 C 
ATOM      8  O   UNL     1      45.754  26.219   8.801  1.00  0.00    -0.550 OA
ATOM      9  O   UNL     1      45.584  28.327   7.918  1.00  0.00    -0.550 OA
ENDBRANCH   6   7
ENDBRANCH   5   6
ENDBRANCH   4   5
ENDBRANCH   3   4
ENDBRANCH   2   3
ENDBRANCH   1   2
BRANCH   1  10
ATOM     10  C   UNL     1      45.491  28.904   0.551  1.00  0.00     0.000 C 
BRANCH  10  11
ATOM     11  C   UNL     1      46.537  28.548  -0.517  1.00  0.00    -0.000 C 
BRANCH  11  12
ATOM     12  C   UNL     1      45.988  28.672  -1.950  1.00  0.00    -0.000 C 
BRANCH  12  13
ATOM     13  C   UNL     1      46.486  27.531  -2.863  1.00  0.00    -0.000 C 
BRANCH  13  14
ATOM     14  C   UNL     1      45.454  27.088  -3.914  1.00  0.00    -0.000 C 
BRANCH  14  15
ATOM     15  C   UNL     1      45.346  28.066  -5.094  1.00  0.00    -0.000 C 
BRANCH  15  16
ATOM     16  C   UNL     1      44.014  28.834  -5.104  1.00  0.00    -0.003 C 
ATOM     17  C   UNL     1      42.841  27.977  -5.577  1.00  0.00     0.004 C 
ENDBRANCH  15  16
ENDBRANCH  14  15
ENDBRANCH  13  14
ENDBRANCH  12  13
ENDBRANCH  11  12
ENDBRANCH  10  11
ENDBRANCH   1  10
TORSDOF 13
ENDMDL
