MODEL 1
REMARK VINA RESULT:    -4.658      0.000      0.000
REMARK INTER + INTRA:          -5.096
REMARK INTER:                  -4.930
REMARK INTRA:                  -0.166
REMARK UNBOUND:                -0.166
REMARK SMILES CC1=CC=C(C(C)C)CC1
REMARK SMILES IDX 1 1 2 2 3 3 4 4 5 5 9 6 10 7 6 8 7 9 8 10
REMARK H PARENT
REMARK Flexibility Score: inf
ROOT
ATOM      1  C   UNL     1     135.293 134.875 130.024  1.00  0.00     0.039 C 
ATOM      2  C   UNL     1     135.251 136.194 129.309  1.00  0.00    -0.073 C 
ATOM      3  C   UNL     1     134.934 137.310 129.982  1.00  0.00    -0.001 C 
ATOM      4  C   UNL     1     134.881 138.615 129.298  1.00  0.00    -0.001 C 
ATOM      5  C   UNL     1     134.924 138.696 127.954  1.00  0.00    -0.067 C 
ATOM      6  C   UNL     1     134.914 137.420 127.139  1.00  0.00     0.035 C 
ATOM      7  C   UNL     1     135.663 136.288 127.858  1.00  0.00     0.035 C 
ENDROOT
BRANCH   5   8
ATOM      8  C   UNL     1     134.890 140.037 127.243  1.00  0.00     0.009 C 
ATOM      9  C   UNL     1     136.046 140.162 126.242  1.00  0.00     0.012 C 
ATOM     10  C   UNL     1     134.893 141.202 128.240  1.00  0.00     0.012 C 
ENDBRANCH   5   8
TORSDOF 1
ENDMDL
MODEL 2
REMARK VINA RESULT:    -4.069     11.801     13.003
REMARK INTER + INTRA:          -4.473
REMARK INTER:                  -4.309
REMARK INTRA:                  -0.164
REMARK UNBOUND:                -0.166
REMARK SMILES CC1=CC=C(C(C)C)CC1
REMARK SMILES IDX 1 1 2 2 3 3 4 4 5 5 9 6 10 7 6 8 7 9 8 10
REMARK H PARENT
REMARK Flexibility Score: inf
ROOT
ATOM      1  C   UNL     1     143.497 142.247 130.387  1.00  0.00     0.039 C 
ATOM      2  C   UNL     1     144.168 143.383 131.100  1.00  0.00    -0.073 C 
ATOM      3  C   UNL     1     144.828 144.317 130.398  1.00  0.00    -0.001 C 
ATOM      4  C   UNL     1     145.501 145.439 131.079  1.00  0.00    -0.001 C 
ATOM      5  C   UNL     1     145.667 145.440 132.416  1.00  0.00    -0.067 C 
ATOM      6  C   UNL     1     145.254 144.218 133.210  1.00  0.00     0.035 C 
ATOM      7  C   UNL     1     144.021 143.539 132.596  1.00  0.00     0.035 C 
ENDROOT
BRANCH   5   8
ATOM      8  C   UNL     1     146.340 146.599 133.127  1.00  0.00     0.009 C 
ATOM      9  C   UNL     1     145.386 147.267 134.125  1.00  0.00     0.012 C 
ATOM     10  C   UNL     1     146.900 147.621 132.130  1.00  0.00     0.012 C 
ENDBRANCH   5   8
TORSDOF 1
ENDMDL
MODEL 3
REMARK VINA RESULT:    -3.952     12.488     14.134
REMARK INTER + INTRA:          -4.349
REMARK INTER:                  -4.205
REMARK INTRA:                  -0.144
REMARK UNBOUND:                -0.166
REMARK SMILES CC1=CC=C(C(C)C)CC1
REMARK SMILES IDX 1 1 2 2 3 3 4 4 5 5 9 6 10 7 6 8 7 9 8 10
REMARK H PARENT
REMARK Flexibility Score: inf
ROOT
ATOM      1  C   UNL     1     147.250 148.557 130.444  1.00  0.00     0.039 C 
ATOM      2  C   UNL     1     146.500 147.459 131.138  1.00  0.00    -0.073 C 
ATOM      3  C   UNL     1     146.418 147.448 132.477  1.00  0.00    -0.001 C 
ATOM      4  C   UNL     1     145.690 146.375 133.180  1.00  0.00    -0.001 C 
ATOM      5  C   UNL     1     145.287 145.268 132.527  1.00  0.00    -0.067 C 
ATOM      6  C   UNL     1     145.687 145.080 131.079  1.00  0.00     0.035 C 
ATOM      7  C   UNL     1     145.750 146.422 130.334  1.00  0.00     0.035 C 
ENDROOT
BRANCH   5   8
ATOM      8  C   UNL     1     144.520 144.167 133.239  1.00  0.00     0.009 C 
ATOM      9  C   UNL     1     145.450 143.329 134.125  1.00  0.00     0.012 C 
ATOM     10  C   UNL     1     143.756 143.284 132.246  1.00  0.00     0.012 C 
ENDBRANCH   5   8
TORSDOF 1
ENDMDL
MODEL 4
REMARK VINA RESULT:    -3.927     11.877     13.050
REMARK INTER + INTRA:          -4.323
REMARK INTER:                  -4.179
REMARK INTRA:                  -0.144
REMARK UNBOUND:                -0.166
REMARK SMILES CC1=CC=C(C(C)C)CC1
REMARK SMILES IDX 1 1 2 2 3 3 4 4 5 5 9 6 10 7 6 8 7 9 8 10
REMARK H PARENT
REMARK Flexibility Score: inf
ROOT
ATOM      1  C   UNL     1     143.498 142.364 130.520  1.00  0.00     0.039 C 
ATOM      2  C   UNL     1     144.262 143.466 131.193  1.00  0.00    -0.073 C 
ATOM      3  C   UNL     1     144.360 143.491 132.531  1.00  0.00    -0.001 C 
ATOM      4  C   UNL     1     145.101 144.567 133.214  1.00  0.00    -0.001 C 
ATOM      5  C   UNL     1     145.501 145.666 132.545  1.00  0.00    -0.067 C 
ATOM      6  C   UNL     1     145.085 145.841 131.100  1.00  0.00     0.035 C 
ATOM      7  C   UNL     1     145.007 144.491 130.370  1.00  0.00     0.035 C 
ENDROOT
BRANCH   5   8
ATOM      8  C   UNL     1     146.281 146.770 133.236  1.00  0.00     0.009 C 
ATOM      9  C   UNL     1     145.367 147.622 134.125  1.00  0.00     0.012 C 
ATOM     10  C   UNL     1     147.037 147.641 132.224  1.00  0.00     0.012 C 
ENDBRANCH   5   8
TORSDOF 1
ENDMDL
MODEL 5
REMARK VINA RESULT:    -3.700      1.116      4.419
REMARK INTER + INTRA:          -4.082
REMARK INTER:                  -3.937
REMARK INTRA:                  -0.145
REMARK UNBOUND:                -0.166
REMARK SMILES CC1=CC=C(C(C)C)CC1
REMARK SMILES IDX 1 1 2 2 3 3 4 4 5 5 9 6 10 7 6 8 7 9 8 10
REMARK H PARENT
REMARK Flexibility Score: inf
ROOT
ATOM      1  C   UNL     1     136.083 140.471 125.557  1.00  0.00     0.039 C 
ATOM      2  C   UNL     1     136.039 139.477 126.680  1.00  0.00    -0.073 C 
ATOM      3  C   UNL     1     136.562 138.253 126.510  1.00  0.00    -0.001 C 
ATOM      4  C   UNL     1     136.524 137.258 127.598  1.00  0.00    -0.001 C 
ATOM      5  C   UNL     1     135.775 137.462 128.699  1.00  0.00    -0.067 C 
ATOM      6  C   UNL     1     134.876 138.679 128.762  1.00  0.00     0.035 C 
ATOM      7  C   UNL     1     135.500 139.878 128.034  1.00  0.00     0.035 C 
ENDROOT
BRANCH   5   8
ATOM      8  C   UNL     1     135.745 136.452 129.832  1.00  0.00     0.009 C 
ATOM      9  C   UNL     1     135.285 135.076 129.335  1.00  0.00     0.012 C 
ATOM     10  C   UNL     1     134.875 136.940 130.996  1.00  0.00     0.012 C 
ENDBRANCH   5   8
TORSDOF 1
ENDMDL
MODEL 6
REMARK VINA RESULT:    -3.681      1.070      4.299
REMARK INTER + INTRA:          -4.062
REMARK INTER:                  -3.917
REMARK INTRA:                  -0.145
REMARK UNBOUND:                -0.166
REMARK SMILES CC1=CC=C(C(C)C)CC1
REMARK SMILES IDX 1 1 2 2 3 3 4 4 5 5 9 6 10 7 6 8 7 9 8 10
REMARK H PARENT
REMARK Flexibility Score: inf
ROOT
ATOM      1  C   UNL     1     135.931 140.405 125.937  1.00  0.00     0.039 C 
ATOM      2  C   UNL     1     135.691 139.322 126.948  1.00  0.00    -0.073 C 
ATOM      3  C   UNL     1     135.115 139.620 128.123  1.00  0.00    -0.001 C 
ATOM      4  C   UNL     1     134.875 138.573 129.133  1.00  0.00    -0.001 C 
ATOM      5  C   UNL     1     135.423 137.349 129.007  1.00  0.00    -0.067 C 
ATOM      6  C   UNL     1     136.386 137.087 127.869  1.00  0.00     0.035 C 
ATOM      7  C   UNL     1     136.000 137.882 126.612  1.00  0.00     0.035 C 
ENDROOT
BRANCH   5   8
ATOM      8  C   UNL     1     135.165 136.260 130.033  1.00  0.00     0.009 C 
ATOM      9  C   UNL     1     136.233 136.272 131.133  1.00  0.00     0.012 C 
ATOM     10  C   UNL     1     135.066 134.879 129.372  1.00  0.00     0.012 C 
ENDBRANCH   5   8
TORSDOF 1
ENDMDL
MODEL 7
REMARK VINA RESULT:    -3.606     12.744     13.683
REMARK INTER + INTRA:          -3.983
REMARK INTER:                  -3.820
REMARK INTRA:                  -0.163
REMARK UNBOUND:                -0.166
REMARK SMILES CC1=CC=C(C(C)C)CC1
REMARK SMILES IDX 1 1 2 2 3 3 4 4 5 5 9 6 10 7 6 8 7 9 8 10
REMARK H PARENT
REMARK Flexibility Score: inf
ROOT
ATOM      1  C   UNL     1     148.374 143.499 130.450  1.00  0.00     0.039 C 
ATOM      2  C   UNL     1     147.278 144.249 131.148  1.00  0.00    -0.073 C 
ATOM      3  C   UNL     1     146.294 144.813 130.432  1.00  0.00    -0.001 C 
ATOM      4  C   UNL     1     145.209 145.559 131.097  1.00  0.00    -0.001 C 
ATOM      5  C   UNL     1     145.291 145.888 132.401  1.00  0.00    -0.067 C 
ATOM      6  C   UNL     1     146.566 145.582 133.158  1.00  0.00     0.035 C 
ATOM      7  C   UNL     1     147.220 144.285 132.658  1.00  0.00     0.035 C 
ENDROOT
BRANCH   5   8
ATOM      8  C   UNL     1     144.171 146.639 133.097  1.00  0.00     0.009 C 
ATOM      9  C   UNL     1     143.462 145.748 134.125  1.00  0.00     0.012 C 
ATOM     10  C   UNL     1     143.173 147.222 132.089  1.00  0.00     0.012 C 
ENDBRANCH   5   8
TORSDOF 1
ENDMDL
MODEL 8
REMARK VINA RESULT:    -3.536     12.056     13.575
REMARK INTER + INTRA:          -3.909
REMARK INTER:                  -3.751
REMARK INTRA:                  -0.158
REMARK UNBOUND:                -0.166
REMARK SMILES CC1=CC=C(C(C)C)CC1
REMARK SMILES IDX 1 1 2 2 3 3 4 4 5 5 9 6 10 7 6 8 7 9 8 10
REMARK H PARENT
REMARK Flexibility Score: inf
ROOT
ATOM      1  C   UNL     1     142.375 147.267 130.670  1.00  0.00     0.039 C 
ATOM      2  C   UNL     1     143.492 146.511 131.327  1.00  0.00    -0.073 C 
ATOM      3  C   UNL     1     144.563 146.142 130.608  1.00  0.00    -0.001 C 
ATOM      4  C   UNL     1     145.670 145.394 131.232  1.00  0.00    -0.001 C 
ATOM      5  C   UNL     1     145.542 144.865 132.464  1.00  0.00    -0.067 C 
ATOM      6  C   UNL     1     144.203 144.949 133.166  1.00  0.00     0.035 C 
ATOM      7  C   UNL     1     143.465 146.250 132.816  1.00  0.00     0.035 C 
ENDROOT
BRANCH   5   8
ATOM      8  C   UNL     1     146.683 144.110 133.122  1.00  0.00     0.009 C 
ATOM      9  C   UNL     1     147.434 145.000 134.120  1.00  0.00     0.012 C 
ATOM     10  C   UNL     1     147.640 143.519 132.079  1.00  0.00     0.012 C 
ENDBRANCH   5   8
TORSDOF 1
ENDMDL
