MODEL 1
REMARK VINA RESULT:    -3.673      0.000      0.000
REMARK INTER + INTRA:          -4.288
REMARK INTER:                  -4.102
REMARK INTRA:                  -0.186
REMARK UNBOUND:                -0.186
REMARK SMILES CC(C)c1ccc(C=O)cc1
REMARK SMILES IDX 4 1 5 2 6 3 7 4 10 5 11 6 2 7 1 8 3 9 8 10 9 11
REMARK H PARENT
REMARK Flexibility Score: inf
ROOT
ATOM      1  C   UNL     1     -31.030 -21.116 -33.791  1.00  0.00    -0.045 A 
ATOM      2  C   UNL     1     -29.905 -20.407 -34.252  1.00  0.00     0.005 A 
ATOM      3  C   UNL     1     -29.109 -19.682 -33.362  1.00  0.00     0.012 A 
ATOM      4  C   UNL     1     -29.419 -19.650 -31.995  1.00  0.00     0.014 A 
ATOM      5  C   UNL     1     -30.541 -20.356 -31.531  1.00  0.00     0.012 A 
ATOM      6  C   UNL     1     -31.337 -21.082 -32.421  1.00  0.00     0.005 A 
ENDROOT
BRANCH   1   7
ATOM      7  C   UNL     1     -31.903 -21.907 -34.746  1.00  0.00     0.013 C 
ATOM      8  C   UNL     1     -33.215 -21.170 -35.036  1.00  0.00     0.012 C 
ATOM      9  C   UNL     1     -31.152 -22.230 -36.044  1.00  0.00     0.012 C 
ENDBRANCH   1   7
BRANCH   4  10
ATOM     10  C   UNL     1     -28.566 -18.879 -31.072  1.00  0.00     0.260 C 
ATOM     11  O   UNL     1     -28.788 -18.875 -29.832  1.00  0.00    -0.298 OA
ENDBRANCH   4  10
TORSDOF 2
ENDMDL
MODEL 2
REMARK VINA RESULT:    -3.655      0.148      1.453
REMARK INTER + INTRA:          -4.268
REMARK INTER:                  -4.078
REMARK INTRA:                  -0.190
REMARK UNBOUND:                -0.186
REMARK SMILES CC(C)c1ccc(C=O)cc1
REMARK SMILES IDX 4 1 5 2 6 3 7 4 10 5 11 6 2 7 1 8 3 9 8 10 9 11
REMARK H PARENT
REMARK Flexibility Score: inf
ROOT
ATOM      1  C   UNL     1     -31.069 -21.128 -33.781  1.00  0.00    -0.045 A 
ATOM      2  C   UNL     1     -31.485 -20.888 -32.458  1.00  0.00     0.005 A 
ATOM      3  C   UNL     1     -30.677 -20.162 -31.580  1.00  0.00     0.012 A 
ATOM      4  C   UNL     1     -29.437 -19.662 -32.005  1.00  0.00     0.014 A 
ATOM      5  C   UNL     1     -29.018 -19.899 -33.324  1.00  0.00     0.012 A 
ATOM      6  C   UNL     1     -29.827 -20.625 -34.203  1.00  0.00     0.005 A 
ENDROOT
BRANCH   1   7
ATOM      7  C   UNL     1     -31.937 -21.915 -34.745  1.00  0.00     0.013 C 
ATOM      8  C   UNL     1     -33.236 -21.163 -35.058  1.00  0.00     0.012 C 
ATOM      9  C   UNL     1     -31.171 -22.251 -36.030  1.00  0.00     0.012 C 
ENDBRANCH   1   7
BRANCH   4  10
ATOM     10  C   UNL     1     -28.598 -18.898 -31.063  1.00  0.00     0.260 C 
ATOM     11  O   UNL     1     -28.825 -18.920 -29.824  1.00  0.00    -0.298 OA
ENDBRANCH   4  10
TORSDOF 2
ENDMDL
MODEL 3
REMARK VINA RESULT:    -3.181      2.631      4.735
REMARK INTER + INTRA:          -3.739
REMARK INTER:                  -3.552
REMARK INTRA:                  -0.187
REMARK UNBOUND:                -0.186
REMARK SMILES CC(C)c1ccc(C=O)cc1
REMARK SMILES IDX 4 1 5 2 6 3 7 4 10 5 11 6 2 7 1 8 3 9 8 10 9 11
REMARK H PARENT
REMARK Flexibility Score: inf
ROOT
ATOM      1  C   UNL     1     -30.089 -19.673 -32.481  1.00  0.00    -0.045 A 
ATOM      2  C   UNL     1     -29.539 -20.664 -33.314  1.00  0.00     0.005 A 
ATOM      3  C   UNL     1     -30.354 -21.389 -34.187  1.00  0.00     0.012 A 
ATOM      4  C   UNL     1     -31.732 -21.140 -34.245  1.00  0.00     0.014 A 
ATOM      5  C   UNL     1     -32.285 -20.151 -33.415  1.00  0.00     0.012 A 
ATOM      6  C   UNL     1     -31.470 -19.424 -32.542  1.00  0.00     0.005 A 
ENDROOT
BRANCH   1   7
ATOM      7  C   UNL     1     -29.216 -18.876 -31.528  1.00  0.00     0.013 C 
ATOM      8  C   UNL     1     -29.342 -19.401 -30.094  1.00  0.00     0.012 C 
ATOM      9  C   UNL     1     -27.753 -18.875 -31.989  1.00  0.00     0.012 C 
ENDBRANCH   1   7
BRANCH   4  10
ATOM     10  C   UNL     1     -32.575 -21.916 -35.173  1.00  0.00     0.260 C 
ATOM     11  O   UNL     1     -32.105 -22.890 -35.820  1.00  0.00    -0.298 OA
ENDBRANCH   4  10
TORSDOF 2
ENDMDL
MODEL 4
REMARK VINA RESULT:    -3.095      2.726      4.861
REMARK INTER + INTRA:          -3.642
REMARK INTER:                  -3.464
REMARK INTRA:                  -0.178
REMARK UNBOUND:                -0.186
REMARK SMILES CC(C)c1ccc(C=O)cc1
REMARK SMILES IDX 4 1 5 2 6 3 7 4 10 5 11 6 2 7 1 8 3 9 8 10 9 11
REMARK H PARENT
REMARK Flexibility Score: inf
ROOT
ATOM      1  C   UNL     1     -31.289 -19.727 -31.750  1.00  0.00    -0.045 A 
ATOM      2  C   UNL     1     -30.873 -21.069 -31.818  1.00  0.00     0.005 A 
ATOM      3  C   UNL     1     -31.149 -21.841 -32.950  1.00  0.00     0.012 A 
ATOM      4  C   UNL     1     -31.844 -21.289 -34.035  1.00  0.00     0.014 A 
ATOM      5  C   UNL     1     -32.260 -19.949 -33.971  1.00  0.00     0.012 A 
ATOM      6  C   UNL     1     -31.984 -19.176 -32.839  1.00  0.00     0.005 A 
ENDROOT
BRANCH   1   7
ATOM      7  C   UNL     1     -30.996 -18.877 -30.528  1.00  0.00     0.013 C 
ATOM      8  C   UNL     1     -31.985 -19.176 -29.396  1.00  0.00     0.012 C 
ATOM      9  C   UNL     1     -29.548 -19.063 -30.059  1.00  0.00     0.012 C 
ENDBRANCH   1   7
BRANCH   4  10
ATOM     10  C   UNL     1     -32.125 -22.120 -35.220  1.00  0.00     0.260 C 
ATOM     11  O   UNL     1     -31.310 -22.182 -36.179  1.00  0.00    -0.298 OA
ENDBRANCH   4  10
TORSDOF 2
ENDMDL
MODEL 5
REMARK VINA RESULT:    -2.840      3.498      5.612
REMARK INTER + INTRA:          -3.358
REMARK INTER:                  -3.162
REMARK INTRA:                  -0.196
REMARK UNBOUND:                -0.186
REMARK SMILES CC(C)c1ccc(C=O)cc1
REMARK SMILES IDX 4 1 5 2 6 3 7 4 10 5 11 6 2 7 1 8 3 9 8 10 9 11
REMARK H PARENT
REMARK Flexibility Score: inf
ROOT
ATOM      1  C   UNL     1     -31.692 -21.251 -34.338  1.00  0.00    -0.045 A 
ATOM      2  C   UNL     1     -30.940 -21.976 -35.280  1.00  0.00     0.005 A 
ATOM      3  C   UNL     1     -31.483 -22.294 -36.528  1.00  0.00     0.012 A 
ATOM      4  C   UNL     1     -32.785 -21.894 -36.859  1.00  0.00     0.014 A 
ATOM      5  C   UNL     1     -33.539 -21.170 -35.922  1.00  0.00     0.012 A 
ATOM      6  C   UNL     1     -32.996 -20.851 -34.673  1.00  0.00     0.005 A 
ENDROOT
BRANCH   1   7
ATOM      7  C   UNL     1     -31.116 -20.898 -32.979  1.00  0.00     0.013 C 
ATOM      8  C   UNL     1     -29.591 -20.758 -33.045  1.00  0.00     0.012 C 
ATOM      9  C   UNL     1     -31.763 -19.627 -32.417  1.00  0.00     0.012 C 
ENDBRANCH   1   7
BRANCH   4  10
ATOM     10  C   UNL     1     -33.339 -22.239 -38.182  1.00  0.00     0.260 C 
ATOM     11  O   UNL     1     -32.590 -22.608 -39.125  1.00  0.00    -0.298 OA
ENDBRANCH   4  10
TORSDOF 2
ENDMDL
MODEL 6
REMARK VINA RESULT:    -2.748      1.510      2.101
REMARK INTER + INTRA:          -3.255
REMARK INTER:                  -3.059
REMARK INTRA:                  -0.196
REMARK UNBOUND:                -0.186
REMARK SMILES CC(C)c1ccc(C=O)cc1
REMARK SMILES IDX 4 1 5 2 6 3 7 4 10 5 11 6 2 7 1 8 3 9 8 10 9 11
REMARK H PARENT
REMARK Flexibility Score: inf
ROOT
ATOM      1  C   UNL     1     -32.184 -20.827 -34.332  1.00  0.00    -0.045 A 
ATOM      2  C   UNL     1     -31.220 -21.466 -33.531  1.00  0.00     0.005 A 
ATOM      3  C   UNL     1     -30.760 -20.863 -32.358  1.00  0.00     0.012 A 
ATOM      4  C   UNL     1     -31.253 -19.612 -31.960  1.00  0.00     0.014 A 
ATOM      5  C   UNL     1     -32.217 -18.972 -32.757  1.00  0.00     0.012 A 
ATOM      6  C   UNL     1     -32.678 -19.575 -33.931  1.00  0.00     0.005 A 
ENDROOT
BRANCH   1   7
ATOM      7  C   UNL     1     -32.693 -21.470 -35.608  1.00  0.00     0.013 C 
ATOM      8  C   UNL     1     -32.602 -22.998 -35.532  1.00  0.00     0.012 C 
ATOM      9  C   UNL     1     -34.125 -21.018 -35.923  1.00  0.00     0.012 C 
ENDBRANCH   1   7
BRANCH   4  10
ATOM     10  C   UNL     1     -30.756 -18.993 -30.718  1.00  0.00     0.260 C 
ATOM     11  O   UNL     1     -29.850 -19.541 -30.035  1.00  0.00    -0.298 OA
ENDBRANCH   4  10
TORSDOF 2
ENDMDL
MODEL 7
REMARK VINA RESULT:    -2.588      1.604      2.385
REMARK INTER + INTRA:          -3.077
REMARK INTER:                  -2.883
REMARK INTRA:                  -0.194
REMARK UNBOUND:                -0.186
REMARK SMILES CC(C)c1ccc(C=O)cc1
REMARK SMILES IDX 4 1 5 2 6 3 7 4 10 5 11 6 2 7 1 8 3 9 8 10 9 11
REMARK H PARENT
REMARK Flexibility Score: inf
ROOT
ATOM      1  C   UNL     1     -32.731 -21.215 -34.932  1.00  0.00    -0.045 A 
ATOM      2  C   UNL     1     -33.223 -19.934 -34.620  1.00  0.00     0.005 A 
ATOM      3  C   UNL     1     -32.648 -19.184 -33.592  1.00  0.00     0.012 A 
ATOM      4  C   UNL     1     -31.571 -19.696 -32.855  1.00  0.00     0.014 A 
ATOM      5  C   UNL     1     -31.076 -20.974 -33.163  1.00  0.00     0.012 A 
ATOM      6  C   UNL     1     -31.652 -21.725 -34.193  1.00  0.00     0.005 A 
ENDROOT
BRANCH   1   7
ATOM      7  C   UNL     1     -33.346 -22.041 -36.047  1.00  0.00     0.013 C 
ATOM      8  C   UNL     1     -33.517 -21.208 -37.322  1.00  0.00     0.012 C 
ATOM      9  C   UNL     1     -32.520 -23.304 -36.319  1.00  0.00     0.012 C 
ENDBRANCH   1   7
BRANCH   4  10
ATOM     10  C   UNL     1     -30.977 -18.889 -31.774  1.00  0.00     0.260 C 
ATOM     11  O   UNL     1     -29.999 -19.316 -31.105  1.00  0.00    -0.298 OA
ENDBRANCH   4  10
TORSDOF 2
ENDMDL
MODEL 8
REMARK VINA RESULT:    -2.557      3.209      5.291
REMARK INTER + INTRA:          -3.042
REMARK INTER:                  -2.864
REMARK INTRA:                  -0.178
REMARK UNBOUND:                -0.186
REMARK SMILES CC(C)c1ccc(C=O)cc1
REMARK SMILES IDX 4 1 5 2 6 3 7 4 10 5 11 6 2 7 1 8 3 9 8 10 9 11
REMARK H PARENT
REMARK Flexibility Score: inf
ROOT
ATOM      1  C   UNL     1     -31.834 -20.254 -33.432  1.00  0.00    -0.045 A 
ATOM      2  C   UNL     1     -31.465 -21.512 -33.944  1.00  0.00     0.005 A 
ATOM      3  C   UNL     1     -32.169 -22.079 -35.009  1.00  0.00     0.012 A 
ATOM      4  C   UNL     1     -33.255 -21.403 -35.584  1.00  0.00     0.014 A 
ATOM      5  C   UNL     1     -33.626 -20.147 -35.076  1.00  0.00     0.012 A 
ATOM      6  C   UNL     1     -32.922 -19.579 -34.011  1.00  0.00     0.005 A 
ENDROOT
BRANCH   1   7
ATOM      7  C   UNL     1     -31.079 -19.626 -32.277  1.00  0.00     0.013 C 
ATOM      8  C   UNL     1     -30.793 -20.656 -31.178  1.00  0.00     0.012 C 
ATOM      9  C   UNL     1     -29.784 -18.959 -32.759  1.00  0.00     0.012 C 
ENDBRANCH   1   7
BRANCH   4  10
ATOM     10  C   UNL     1     -33.985 -22.018 -36.708  1.00  0.00     0.260 C 
ATOM     11  O   UNL     1     -33.680 -21.758 -37.902  1.00  0.00    -0.298 OA
ENDBRANCH   4  10
TORSDOF 2
ENDMDL
