MODEL 1
REMARK VINA RESULT:    -4.757      0.000      0.000
REMARK INTER + INTRA:          -5.203
REMARK INTER:                  -5.174
REMARK INTRA:                  -0.029
REMARK UNBOUND:                -0.029
REMARK SMILES O=C([O-])c1ccc(O)cc1
REMARK SMILES IDX 4 1 5 2 10 3 6 4 9 5 7 6 2 7 1 8 3 9 8 10
REMARK H PARENT 8 11
REMARK Flexibility Score: inf
ROOT
ATOM      1  C   UNL     1      20.915   0.628 -20.403  1.00  0.00    -0.003 A 
ATOM      2  C   UNL     1      21.388   0.911 -19.109  1.00  0.00     0.014 A 
ATOM      3  C   UNL     1      19.778  -0.186 -20.551  1.00  0.00     0.014 A 
ATOM      4  C   UNL     1      20.736   0.390 -17.987  1.00  0.00     0.047 A 
ATOM      5  C   UNL     1      19.128  -0.706 -19.427  1.00  0.00     0.047 A 
ATOM      6  C   UNL     1      19.604  -0.420 -18.143  1.00  0.00     0.115 A 
ENDROOT
BRANCH   1   7
ATOM      7  C   UNL     1      21.601   1.177 -21.594  1.00  0.00     0.071 C 
ATOM      8  O   UNL     1      21.693   2.422 -21.764  1.00  0.00    -0.545 OA
ATOM      9  O   UNL     1      22.154   0.324 -22.543  1.00  0.00    -0.545 OA
ENDBRANCH   1   7
BRANCH   6  10
ATOM     10  O   UNL     1      18.947  -0.945 -17.033  1.00  0.00    -0.508 OA
ATOM     11  H   UNL     1      18.028  -0.619 -16.759  1.00  0.00     0.293 HD
ENDBRANCH   6  10
TORSDOF 2
ENDMDL
MODEL 2
REMARK VINA RESULT:    -4.749      0.038      1.532
REMARK INTER + INTRA:          -5.194
REMARK INTER:                  -5.165
REMARK INTRA:                  -0.029
REMARK UNBOUND:                -0.029
REMARK SMILES O=C([O-])c1ccc(O)cc1
REMARK SMILES IDX 4 1 5 2 10 3 6 4 9 5 7 6 2 7 1 8 3 9 8 10
REMARK H PARENT 8 11
REMARK Flexibility Score: inf
ROOT
ATOM      1  C   UNL     1      20.910   0.636 -20.415  1.00  0.00    -0.003 A 
ATOM      2  C   UNL     1      19.782  -0.189 -20.581  1.00  0.00     0.014 A 
ATOM      3  C   UNL     1      21.367   0.913 -19.115  1.00  0.00     0.014 A 
ATOM      4  C   UNL     1      19.128  -0.725 -19.468  1.00  0.00     0.047 A 
ATOM      5  C   UNL     1      20.709   0.375 -18.003  1.00  0.00     0.047 A 
ATOM      6  C   UNL     1      19.590  -0.445 -18.176  1.00  0.00     0.115 A 
ENDROOT
BRANCH   1   7
ATOM      7  C   UNL     1      21.606   1.206 -21.589  1.00  0.00     0.071 C 
ATOM      8  O   UNL     1      21.714   2.454 -21.728  1.00  0.00    -0.545 OA
ATOM      9  O   UNL     1      22.152   0.371 -22.558  1.00  0.00    -0.545 OA
ENDBRANCH   1   7
BRANCH   6  10
ATOM     10  O   UNL     1      18.945  -0.973 -17.060  1.00  0.00    -0.508 OA
ATOM     11  H   UNL     1      17.942  -0.892 -16.941  1.00  0.00     0.293 HD
ENDBRANCH   6  10
TORSDOF 2
ENDMDL
MODEL 3
REMARK VINA RESULT:    -4.598      1.166      4.511
REMARK INTER + INTRA:          -5.030
REMARK INTER:                  -4.994
REMARK INTRA:                  -0.036
REMARK UNBOUND:                -0.029
REMARK SMILES O=C([O-])c1ccc(O)cc1
REMARK SMILES IDX 4 1 5 2 10 3 6 4 9 5 7 6 2 7 1 8 3 9 8 10
REMARK H PARENT 8 11
REMARK Flexibility Score: inf
ROOT
ATOM      1  C   UNL     1      20.264  -0.331 -19.715  1.00  0.00    -0.003 A 
ATOM      2  C   UNL     1      20.338  -0.934 -20.984  1.00  0.00     0.014 A 
ATOM      3  C   UNL     1      20.954   0.873 -19.490  1.00  0.00     0.014 A 
ATOM      4  C   UNL     1      21.089  -0.343 -22.005  1.00  0.00     0.047 A 
ATOM      5  C   UNL     1      21.703   1.461 -20.514  1.00  0.00     0.047 A 
ATOM      6  C   UNL     1      21.772   0.856 -21.773  1.00  0.00     0.115 A 
ENDROOT
BRANCH   1   7
ATOM      7  C   UNL     1      19.472  -0.953 -18.630  1.00  0.00     0.071 C 
ATOM      8  O   UNL     1      19.042  -2.131 -18.744  1.00  0.00    -0.545 OA
ATOM      9  O   UNL     1      19.192  -0.242 -17.468  1.00  0.00    -0.545 OA
ENDBRANCH   1   7
BRANCH   6  10
ATOM     10  O   UNL     1      22.523   1.454 -22.783  1.00  0.00    -0.508 OA
ATOM     11  H   UNL     1      22.108   1.704 -23.673  1.00  0.00     0.293 HD
ENDBRANCH   6  10
TORSDOF 2
ENDMDL
MODEL 4
REMARK VINA RESULT:    -4.532      1.598      4.159
REMARK INTER + INTRA:          -4.959
REMARK INTER:                  -4.929
REMARK INTRA:                  -0.030
REMARK UNBOUND:                -0.029
REMARK SMILES O=C([O-])c1ccc(O)cc1
REMARK SMILES IDX 4 1 5 2 10 3 6 4 9 5 7 6 2 7 1 8 3 9 8 10
REMARK H PARENT 8 11
REMARK Flexibility Score: inf
ROOT
ATOM      1  C   UNL     1      20.973   0.392 -18.917  1.00  0.00    -0.003 A 
ATOM      2  C   UNL     1      20.518  -0.854 -19.388  1.00  0.00     0.014 A 
ATOM      3  C   UNL     1      21.525   1.306 -19.831  1.00  0.00     0.014 A 
ATOM      4  C   UNL     1      20.614  -1.175 -20.745  1.00  0.00     0.047 A 
ATOM      5  C   UNL     1      21.619   0.981 -21.189  1.00  0.00     0.047 A 
ATOM      6  C   UNL     1      21.164  -0.258 -21.649  1.00  0.00     0.115 A 
ENDROOT
BRANCH   1   7
ATOM      7  C   UNL     1      20.875   0.737 -17.481  1.00  0.00     0.071 C 
ATOM      8  O   UNL     1      21.899   1.084 -16.834  1.00  0.00    -0.545 OA
ATOM      9  O   UNL     1      19.650   0.683 -16.826  1.00  0.00    -0.545 OA
ENDBRANCH   1   7
BRANCH   6  10
ATOM     10  O   UNL     1      21.264  -0.568 -23.003  1.00  0.00    -0.508 OA
ATOM     11  H   UNL     1      22.131  -0.906 -23.405  1.00  0.00     0.293 HD
ENDBRANCH   6  10
TORSDOF 2
ENDMDL
MODEL 5
REMARK VINA RESULT:    -4.525      1.695      3.953
REMARK INTER + INTRA:          -4.951
REMARK INTER:                  -4.922
REMARK INTRA:                  -0.029
REMARK UNBOUND:                -0.029
REMARK SMILES O=C([O-])c1ccc(O)cc1
REMARK SMILES IDX 4 1 5 2 10 3 6 4 9 5 7 6 2 7 1 8 3 9 8 10
REMARK H PARENT 8 11
REMARK Flexibility Score: inf
ROOT
ATOM      1  C   UNL     1      20.930   0.322 -18.703  1.00  0.00    -0.003 A 
ATOM      2  C   UNL     1      21.411   1.202 -19.690  1.00  0.00     0.014 A 
ATOM      3  C   UNL     1      20.470  -0.949 -19.088  1.00  0.00     0.014 A 
ATOM      4  C   UNL     1      21.429   0.815 -21.034  1.00  0.00     0.047 A 
ATOM      5  C   UNL     1      20.490  -1.333 -20.433  1.00  0.00     0.047 A 
ATOM      6  C   UNL     1      20.970  -0.453 -21.409  1.00  0.00     0.115 A 
ENDROOT
BRANCH   1   7
ATOM      7  C   UNL     1      20.907   0.726 -17.280  1.00  0.00     0.071 C 
ATOM      8  O   UNL     1      19.816   0.822 -16.657  1.00  0.00    -0.545 OA
ATOM      9  O   UNL     1      22.093   1.006 -16.608  1.00  0.00    -0.545 OA
ENDBRANCH   1   7
BRANCH   6  10
ATOM     10  O   UNL     1      20.983  -0.848 -22.744  1.00  0.00    -0.508 OA
ATOM     11  H   UNL     1      21.821  -0.773 -23.310  1.00  0.00     0.293 HD
ENDBRANCH   6  10
TORSDOF 2
ENDMDL
MODEL 6
REMARK VINA RESULT:    -4.288      2.451      3.938
REMARK INTER + INTRA:          -4.693
REMARK INTER:                  -4.659
REMARK INTRA:                  -0.033
REMARK UNBOUND:                -0.029
REMARK SMILES O=C([O-])c1ccc(O)cc1
REMARK SMILES IDX 4 1 5 2 10 3 6 4 9 5 7 6 2 7 1 8 3 9 8 10
REMARK H PARENT 8 11
REMARK Flexibility Score: inf
ROOT
ATOM      1  C   UNL     1      21.164   0.703 -17.684  1.00  0.00    -0.003 A 
ATOM      2  C   UNL     1      19.964   0.010 -17.445  1.00  0.00     0.014 A 
ATOM      3  C   UNL     1      21.540   0.979 -19.010  1.00  0.00     0.014 A 
ATOM      4  C   UNL     1      19.158  -0.399 -18.513  1.00  0.00     0.047 A 
ATOM      5  C   UNL     1      20.732   0.570 -20.076  1.00  0.00     0.047 A 
ATOM      6  C   UNL     1      19.540  -0.119 -19.830  1.00  0.00     0.115 A 
ENDROOT
BRANCH   1   7
ATOM      7  C   UNL     1      22.021   1.137 -16.558  1.00  0.00     0.071 C 
ATOM      8  O   UNL     1      23.273   1.196 -16.690  1.00  0.00    -0.545 OA
ATOM      9  O   UNL     1      21.455   1.486 -15.337  1.00  0.00    -0.545 OA
ENDBRANCH   1   7
BRANCH   6  10
ATOM     10  O   UNL     1      18.745  -0.521 -20.901  1.00  0.00    -0.508 OA
ATOM     11  H   UNL     1      18.166   0.138 -21.407  1.00  0.00     0.293 HD
ENDBRANCH   6  10
TORSDOF 2
ENDMDL
MODEL 7
REMARK VINA RESULT:    -4.231      0.986      4.653
REMARK INTER + INTRA:          -4.631
REMARK INTER:                  -4.601
REMARK INTRA:                  -0.030
REMARK UNBOUND:                -0.029
REMARK SMILES O=C([O-])c1ccc(O)cc1
REMARK SMILES IDX 4 1 5 2 10 3 6 4 9 5 7 6 2 7 1 8 3 9 8 10
REMARK H PARENT 8 11
REMARK Flexibility Score: inf
ROOT
ATOM      1  C   UNL     1      19.500  -0.132 -17.943  1.00  0.00    -0.003 A 
ATOM      2  C   UNL     1      18.964  -0.505 -19.189  1.00  0.00     0.014 A 
ATOM      3  C   UNL     1      20.727   0.553 -17.905  1.00  0.00     0.014 A 
ATOM      4  C   UNL     1      19.644  -0.199 -20.371  1.00  0.00     0.047 A 
ATOM      5  C   UNL     1      21.404   0.858 -19.090  1.00  0.00     0.047 A 
ATOM      6  C   UNL     1      20.866   0.484 -20.325  1.00  0.00     0.115 A 
ENDROOT
BRANCH   1   7
ATOM      7  C   UNL     1      18.785  -0.454 -16.687  1.00  0.00     0.071 C 
ATOM      8  O   UNL     1      18.525   0.448 -15.847  1.00  0.00    -0.545 OA
ATOM      9  O   UNL     1      18.390  -1.760 -16.418  1.00  0.00    -0.545 OA
ENDBRANCH   1   7
BRANCH   6  10
ATOM     10  O   UNL     1      21.552   0.794 -21.497  1.00  0.00    -0.508 OA
ATOM     11  H   UNL     1      21.432   0.247 -22.341  1.00  0.00     0.293 HD
ENDBRANCH   6  10
TORSDOF 2
ENDMDL
MODEL 8
REMARK VINA RESULT:    -4.187      6.322      7.200
REMARK INTER + INTRA:          -4.583
REMARK INTER:                  -4.554
REMARK INTRA:                  -0.030
REMARK UNBOUND:                -0.029
REMARK SMILES O=C([O-])c1ccc(O)cc1
REMARK SMILES IDX 4 1 5 2 10 3 6 4 9 5 7 6 2 7 1 8 3 9 8 10
REMARK H PARENT 8 11
REMARK Flexibility Score: inf
ROOT
ATOM      1  C   UNL     1      24.163   6.107 -20.683  1.00  0.00    -0.003 A 
ATOM      2  C   UNL     1      24.981   7.177 -20.279  1.00  0.00     0.014 A 
ATOM      3  C   UNL     1      23.492   5.353 -19.704  1.00  0.00     0.014 A 
ATOM      4  C   UNL     1      25.125   7.485 -18.923  1.00  0.00     0.047 A 
ATOM      5  C   UNL     1      23.638   5.664 -18.348  1.00  0.00     0.047 A 
ATOM      6  C   UNL     1      24.453   6.730 -17.954  1.00  0.00     0.115 A 
ENDROOT
BRANCH   1   7
ATOM      7  C   UNL     1      24.008   5.776 -22.117  1.00  0.00     0.071 C 
ATOM      8  O   UNL     1      22.865   5.724 -22.644  1.00  0.00    -0.545 OA
ATOM      9  O   UNL     1      25.125   5.515 -22.904  1.00  0.00    -0.545 OA
ENDBRANCH   1   7
BRANCH   6  10
ATOM     10  O   UNL     1      24.588   7.028 -16.600  1.00  0.00    -0.508 OA
ATOM     11  H   UNL     1      24.011   7.729 -16.152  1.00  0.00     0.293 HD
ENDBRANCH   6  10
TORSDOF 2
ENDMDL
MODEL 9
REMARK VINA RESULT:    -4.085      1.701      2.541
REMARK INTER + INTRA:          -4.472
REMARK INTER:                  -4.440
REMARK INTRA:                  -0.032
REMARK UNBOUND:                -0.029
REMARK SMILES O=C([O-])c1ccc(O)cc1
REMARK SMILES IDX 4 1 5 2 10 3 6 4 9 5 7 6 2 7 1 8 3 9 8 10
REMARK H PARENT 8 11
REMARK Flexibility Score: inf
ROOT
ATOM      1  C   UNL     1      21.487   1.005 -19.624  1.00  0.00    -0.003 A 
ATOM      2  C   UNL     1      20.630   0.241 -18.810  1.00  0.00     0.014 A 
ATOM      3  C   UNL     1      22.488   1.784 -19.018  1.00  0.00     0.014 A 
ATOM      4  C   UNL     1      20.773   0.259 -17.419  1.00  0.00     0.047 A 
ATOM      5  C   UNL     1      22.628   1.800 -17.627  1.00  0.00     0.047 A 
ATOM      6  C   UNL     1      21.773   1.038 -16.824  1.00  0.00     0.115 A 
ENDROOT
BRANCH   1   7
ATOM      7  C   UNL     1      21.339   0.990 -21.096  1.00  0.00     0.071 C 
ATOM      8  O   UNL     1      21.488   2.046 -21.766  1.00  0.00    -0.545 OA
ATOM      9  O   UNL     1      21.033  -0.192 -21.761  1.00  0.00    -0.545 OA
ENDBRANCH   1   7
BRANCH   6  10
ATOM     10  O   UNL     1      21.925   1.064 -15.440  1.00  0.00    -0.508 OA
ATOM     11  H   UNL     1      22.091   0.216 -14.910  1.00  0.00     0.293 HD
ENDBRANCH   6  10
TORSDOF 2
ENDMDL
