MODEL 1
REMARK VINA RESULT:    -3.023      0.000      0.000
REMARK INTER + INTRA:          -3.288
REMARK INTER:                  -3.288
REMARK INTRA:                   0.000
REMARK UNBOUND:                 0.000
REMARK SMILES [NH3+]CC(=O)[O-]
REMARK SMILES IDX 2 1 1 2 3 6 4 7 5 8
REMARK H PARENT 1 3 1 4 1 5
REMARK Flexibility Score: inf
ROOT
ATOM      1  C   UNL     1      22.961 -34.910 -28.690  1.00  0.00     0.312 C 
ENDROOT
BRANCH   1   2
ATOM      2  N   UNL     1      24.013 -33.941 -28.389  1.00  0.00    -0.353 N 
ATOM      3  H   UNL     1      24.819 -34.098 -29.038  1.00  0.00     0.344 HD
ATOM      4  H   UNL     1      23.654 -32.968 -28.525  1.00  0.00     0.344 HD
ATOM      5  H   UNL     1      24.343 -34.064 -27.404  1.00  0.00     0.344 HD
ENDBRANCH   1   2
BRANCH   1   6
ATOM      6  C   UNL     1      23.382 -36.289 -28.287  1.00  0.00     0.096 C 
ATOM      7  O   UNL     1      24.300 -36.448 -27.441  1.00  0.00    -0.544 OA
ATOM      8  O   UNL     1      22.726 -37.397 -28.809  1.00  0.00    -0.544 OA
ENDBRANCH   1   6
TORSDOF 2
ENDMDL
MODEL 2
REMARK VINA RESULT:    -2.948     17.998     18.362
REMARK INTER + INTRA:          -3.206
REMARK INTER:                  -3.206
REMARK INTRA:                   0.000
REMARK UNBOUND:                 0.000
REMARK SMILES [NH3+]CC(=O)[O-]
REMARK SMILES IDX 2 1 1 2 3 6 4 7 5 8
REMARK H PARENT 1 3 1 4 1 5
REMARK Flexibility Score: inf
ROOT
ATOM      1  C   UNL     1      17.394 -18.227 -26.842  1.00  0.00     0.312 C 
ENDROOT
BRANCH   1   2
ATOM      2  N   UNL     1      18.786 -18.670 -26.779  1.00  0.00    -0.353 N 
ATOM      3  H   UNL     1      19.214 -18.588 -27.731  1.00  0.00     0.344 HD
ATOM      4  H   UNL     1      19.324 -18.068 -26.113  1.00  0.00     0.344 HD
ATOM      5  H   UNL     1      18.831 -19.669 -26.472  1.00  0.00     0.344 HD
ENDBRANCH   1   2
BRANCH   1   6
ATOM      6  C   UNL     1      16.588 -18.863 -25.751  1.00  0.00     0.096 C 
ATOM      7  O   UNL     1      15.891 -18.152 -24.982  1.00  0.00    -0.544 OA
ATOM      8  O   UNL     1      16.568 -20.246 -25.618  1.00  0.00    -0.544 OA
ENDBRANCH   1   6
TORSDOF 2
ENDMDL
MODEL 3
REMARK VINA RESULT:    -2.914     17.637     17.997
REMARK INTER + INTRA:          -3.170
REMARK INTER:                  -3.170
REMARK INTRA:                   0.000
REMARK UNBOUND:                 0.000
REMARK SMILES [NH3+]CC(=O)[O-]
REMARK SMILES IDX 2 1 1 2 3 6 4 7 5 8
REMARK H PARENT 1 3 1 4 1 5
REMARK Flexibility Score: inf
ROOT
ATOM      1  C   UNL     1      16.648 -19.578 -25.625  1.00  0.00     0.312 C 
ENDROOT
BRANCH   1   2
ATOM      2  N   UNL     1      16.195 -20.916 -26.001  1.00  0.00    -0.353 N 
ATOM      3  H   UNL     1      16.092 -20.963 -27.042  1.00  0.00     0.344 HD
ATOM      4  H   UNL     1      16.897 -21.631 -25.699  1.00  0.00     0.344 HD
ATOM      5  H   UNL     1      15.269 -21.119 -25.559  1.00  0.00     0.344 HD
ENDBRANCH   1   2
BRANCH   1   6
ATOM      6  C   UNL     1      17.244 -18.872 -26.803  1.00  0.00     0.096 C 
ATOM      7  O   UNL     1      16.509 -18.215 -27.585  1.00  0.00    -0.544 OA
ATOM      8  O   UNL     1      18.618 -18.898 -27.008  1.00  0.00    -0.544 OA
ENDBRANCH   1   6
TORSDOF 2
ENDMDL
MODEL 4
REMARK VINA RESULT:    -2.900      2.156      2.308
REMARK INTER + INTRA:          -3.154
REMARK INTER:                  -3.154
REMARK INTRA:                   0.000
REMARK UNBOUND:                 0.000
REMARK SMILES [NH3+]CC(=O)[O-]
REMARK SMILES IDX 2 1 1 2 3 6 4 7 5 8
REMARK H PARENT 1 3 1 4 1 5
REMARK Flexibility Score: inf
ROOT
ATOM      1  C   UNL     1      22.851 -37.102 -28.999  1.00  0.00     0.312 C 
ENDROOT
BRANCH   1   2
ATOM      2  N   UNL     1      21.483 -36.588 -28.953  1.00  0.00    -0.353 N 
ATOM      3  H   UNL     1      21.457 -35.644 -29.405  1.00  0.00     0.344 HD
ATOM      4  H   UNL     1      20.841 -37.229 -29.474  1.00  0.00     0.344 HD
ATOM      5  H   UNL     1      21.167 -36.497 -27.960  1.00  0.00     0.344 HD
ENDBRANCH   1   2
BRANCH   1   6
ATOM      6  C   UNL     1      23.718 -36.383 -28.012  1.00  0.00     0.096 C 
ATOM      7  O   UNL     1      24.582 -37.016 -27.351  1.00  0.00    -0.544 OA
ATOM      8  O   UNL     1      23.605 -35.007 -27.859  1.00  0.00    -0.544 OA
ENDBRANCH   1   6
TORSDOF 2
ENDMDL
MODEL 5
REMARK VINA RESULT:    -2.833     14.258     14.568
REMARK INTER + INTRA:          -3.081
REMARK INTER:                  -3.081
REMARK INTRA:                   0.000
REMARK UNBOUND:                 0.000
REMARK SMILES [NH3+]CC(=O)[O-]
REMARK SMILES IDX 2 1 1 2 3 6 4 7 5 8
REMARK H PARENT 1 3 1 4 1 5
REMARK Flexibility Score: inf
ROOT
ATOM      1  C   UNL     1      13.161 -27.313 -29.515  1.00  0.00     0.312 C 
ENDROOT
BRANCH   1   2
ATOM      2  N   UNL     1      14.215 -26.791 -30.383  1.00  0.00    -0.353 N 
ATOM      3  H   UNL     1      14.943 -26.323 -29.794  1.00  0.00     0.344 HD
ATOM      4  H   UNL     1      14.662 -27.573 -30.915  1.00  0.00     0.344 HD
ATOM      5  H   UNL     1      13.816 -26.090 -31.049  1.00  0.00     0.344 HD
ENDBRANCH   1   2
BRANCH   1   6
ATOM      6  C   UNL     1      11.827 -26.763 -29.913  1.00  0.00     0.096 C 
ATOM      7  O   UNL     1      10.984 -26.449 -29.034  1.00  0.00    -0.544 OA
ATOM      8  O   UNL     1      11.536 -26.550 -31.255  1.00  0.00    -0.544 OA
ENDBRANCH   1   6
TORSDOF 2
ENDMDL
MODEL 6
REMARK VINA RESULT:    -2.812      1.991      1.991
REMARK INTER + INTRA:          -3.059
REMARK INTER:                  -3.059
REMARK INTRA:                   0.000
REMARK UNBOUND:                 0.000
REMARK SMILES [NH3+]CC(=O)[O-]
REMARK SMILES IDX 2 1 1 2 3 6 4 7 5 8
REMARK H PARENT 1 3 1 4 1 5
REMARK Flexibility Score: inf
ROOT
ATOM      1  C   UNL     1      21.951 -35.196 -29.226  1.00  0.00     0.312 C 
ENDROOT
BRANCH   1   2
ATOM      2  N   UNL     1      20.696 -35.909 -28.995  1.00  0.00    -0.353 N 
ATOM      3  H   UNL     1      20.737 -36.381 -28.062  1.00  0.00     0.344 HD
ATOM      4  H   UNL     1      19.895 -35.237 -28.999  1.00  0.00     0.344 HD
ATOM      5  H   UNL     1      20.555 -36.635 -29.736  1.00  0.00     0.344 HD
ENDBRANCH   1   2
BRANCH   1   6
ATOM      6  C   UNL     1      23.123 -36.088 -28.958  1.00  0.00     0.096 C 
ATOM      7  O   UNL     1      23.733 -36.019 -27.860  1.00  0.00    -0.544 OA
ATOM      8  O   UNL     1      23.509 -37.032 -29.903  1.00  0.00    -0.544 OA
ENDBRANCH   1   6
TORSDOF 2
ENDMDL
MODEL 7
REMARK VINA RESULT:    -2.788     17.764     18.127
REMARK INTER + INTRA:          -3.033
REMARK INTER:                  -3.033
REMARK INTRA:                   0.000
REMARK UNBOUND:                 0.000
REMARK SMILES [NH3+]CC(=O)[O-]
REMARK SMILES IDX 2 1 1 2 3 6 4 7 5 8
REMARK H PARENT 1 3 1 4 1 5
REMARK Flexibility Score: inf
ROOT
ATOM      1  C   UNL     1      18.681 -19.276 -27.134  1.00  0.00     0.312 C 
ENDROOT
BRANCH   1   2
ATOM      2  N   UNL     1      19.247 -18.647 -28.326  1.00  0.00    -0.353 N 
ATOM      3  H   UNL     1      18.894 -17.664 -28.395  1.00  0.00     0.344 HD
ATOM      4  H   UNL     1      20.291 -18.627 -28.260  1.00  0.00     0.344 HD
ATOM      5  H   UNL     1      18.955 -19.173 -29.182  1.00  0.00     0.344 HD
ENDBRANCH   1   2
BRANCH   1   6
ATOM      6  C   UNL     1      17.281 -18.800 -26.900  1.00  0.00     0.096 C 
ATOM      7  O   UNL     1      16.687 -19.086 -25.828  1.00  0.00    -0.544 OA
ATOM      8  O   UNL     1      16.652 -17.998 -27.844  1.00  0.00    -0.544 OA
ENDBRANCH   1   6
TORSDOF 2
ENDMDL
MODEL 8
REMARK VINA RESULT:    -2.730      1.723      2.156
REMARK INTER + INTRA:          -2.970
REMARK INTER:                  -2.970
REMARK INTRA:                   0.000
REMARK UNBOUND:                 0.000
REMARK SMILES [NH3+]CC(=O)[O-]
REMARK SMILES IDX 2 1 1 2 3 6 4 7 5 8
REMARK H PARENT 1 3 1 4 1 5
REMARK Flexibility Score: inf
ROOT
ATOM      1  C   UNL     1      23.813 -36.213 -27.722  1.00  0.00     0.312 C 
ENDROOT
BRANCH   1   2
ATOM      2  N   UNL     1      23.632 -35.117 -26.771  1.00  0.00    -0.353 N 
ATOM      3  H   UNL     1      24.555 -34.886 -26.335  1.00  0.00     0.344 HD
ATOM      4  H   UNL     1      23.270 -34.269 -27.266  1.00  0.00     0.344 HD
ATOM      5  H   UNL     1      22.963 -35.402 -26.019  1.00  0.00     0.344 HD
ENDBRANCH   1   2
BRANCH   1   6
ATOM      6  C   UNL     1      22.859 -36.082 -28.868  1.00  0.00     0.096 C 
ATOM      7  O   UNL     1      22.140 -37.057 -29.208  1.00  0.00    -0.544 OA
ATOM      8  O   UNL     1      22.726 -34.866 -29.527  1.00  0.00    -0.544 OA
ENDBRANCH   1   6
TORSDOF 2
ENDMDL
MODEL 9
REMARK VINA RESULT:    -2.703     13.410     13.854
REMARK INTER + INTRA:          -2.940
REMARK INTER:                  -2.940
REMARK INTRA:                   0.000
REMARK UNBOUND:                 0.000
REMARK SMILES [NH3+]CC(=O)[O-]
REMARK SMILES IDX 2 1 1 2 3 6 4 7 5 8
REMARK H PARENT 1 3 1 4 1 5
REMARK Flexibility Score: inf
ROOT
ATOM      1  C   UNL     1      13.146 -27.581 -31.172  1.00  0.00     0.312 C 
ENDROOT
BRANCH   1   2
ATOM      2  N   UNL     1      14.237 -26.807 -30.583  1.00  0.00    -0.353 N 
ATOM      3  H   UNL     1      15.112 -26.976 -31.132  1.00  0.00     0.344 HD
ATOM      4  H   UNL     1      14.010 -25.786 -30.614  1.00  0.00     0.344 HD
ATOM      5  H   UNL     1      14.395 -27.106 -29.593  1.00  0.00     0.344 HD
ENDBRANCH   1   2
BRANCH   1   6
ATOM      6  C   UNL     1      13.183 -27.494 -32.667  1.00  0.00     0.096 C 
ATOM      7  O   UNL     1      14.175 -27.936 -33.302  1.00  0.00    -0.544 OA
ATOM      8  O   UNL     1      12.099 -26.970 -33.360  1.00  0.00    -0.544 OA
ENDBRANCH   1   6
TORSDOF 2
ENDMDL
