MODEL 1
REMARK VINA RESULT:    -3.916      0.000      0.000
REMARK INTER + INTRA:          -5.378
REMARK INTER:                  -5.061
REMARK INTRA:                  -0.316
REMARK UNBOUND:                -0.316
REMARK SMILES CCCCCCC(=O)[O-]
REMARK SMILES IDX 5 1 6 2 7 3 8 4 9 5 4 6 3 7 2 8 1 9
REMARK H PARENT
REMARK Flexibility Score: inf
ROOT
ATOM      1  C   UNL     1     -40.036  21.133 -31.110  1.00  0.00     0.006 C 
ENDROOT
BRANCH   1   2
ATOM      2  C   UNL     1     -39.323  20.169 -30.156  1.00  0.00     0.053 C 
BRANCH   2   3
ATOM      3  C   UNL     1     -39.901  18.794 -30.271  1.00  0.00     0.041 C 
ATOM      4  O   UNL     1     -39.359  17.828 -29.672  1.00  0.00    -0.550 OA
ATOM      5  O   UNL     1     -41.066  18.588 -30.998  1.00  0.00    -0.550 OA
ENDBRANCH   2   3
ENDBRANCH   1   2
BRANCH   1   6
ATOM      6  C   UNL     1     -40.046  22.560 -30.544  1.00  0.00     0.000 C 
BRANCH   6   7
ATOM      7  C   UNL     1     -40.388  22.601 -29.045  1.00  0.00    -0.000 C 
BRANCH   7   8
ATOM      8  C   UNL     1     -41.898  22.517 -28.781  1.00  0.00    -0.003 C 
ATOM      9  C   UNL     1     -42.260  21.221 -28.061  1.00  0.00     0.004 C 
ENDBRANCH   7   8
ENDBRANCH   6   7
ENDBRANCH   1   6
TORSDOF 5
ENDMDL
MODEL 2
REMARK VINA RESULT:    -3.915      0.180      1.094
REMARK INTER + INTRA:          -5.376
REMARK INTER:                  -5.034
REMARK INTRA:                  -0.342
REMARK UNBOUND:                -0.316
REMARK SMILES CCCCCCC(=O)[O-]
REMARK SMILES IDX 5 1 6 2 7 3 8 4 9 5 4 6 3 7 2 8 1 9
REMARK H PARENT
REMARK Flexibility Score: inf
ROOT
ATOM      1  C   UNL     1     -39.967  21.305 -31.166  1.00  0.00     0.006 C 
ENDROOT
BRANCH   1   2
ATOM      2  C   UNL     1     -39.292  20.375 -30.154  1.00  0.00     0.053 C 
BRANCH   2   3
ATOM      3  C   UNL     1     -39.891  19.006 -30.218  1.00  0.00     0.041 C 
ATOM      4  O   UNL     1     -40.915  18.795 -30.919  1.00  0.00    -0.550 OA
ATOM      5  O   UNL     1     -39.289  17.952 -29.542  1.00  0.00    -0.550 OA
ENDBRANCH   2   3
ENDBRANCH   1   2
BRANCH   1   6
ATOM      6  C   UNL     1     -40.152  22.713 -30.581  1.00  0.00     0.000 C 
BRANCH   6   7
ATOM      7  C   UNL     1     -40.450  22.693 -29.073  1.00  0.00    -0.000 C 
BRANCH   7   8
ATOM      8  C   UNL     1     -41.949  22.567 -28.768  1.00  0.00    -0.003 C 
ATOM      9  C   UNL     1     -42.259  21.242 -28.075  1.00  0.00     0.004 C 
ENDBRANCH   7   8
ENDBRANCH   6   7
ENDBRANCH   1   6
TORSDOF 5
ENDMDL
MODEL 3
REMARK VINA RESULT:    -3.900      2.535      4.096
REMARK INTER + INTRA:          -5.357
REMARK INTER:                  -5.036
REMARK INTRA:                  -0.320
REMARK UNBOUND:                -0.316
REMARK SMILES CCCCCCC(=O)[O-]
REMARK SMILES IDX 5 1 6 2 7 3 8 4 9 5 4 6 3 7 2 8 1 9
REMARK H PARENT
REMARK Flexibility Score: inf
ROOT
ATOM      1  C   UNL     1     -39.915  20.594 -27.659  1.00  0.00     0.006 C 
ENDROOT
BRANCH   1   2
ATOM      2  C   UNL     1     -40.261  21.791 -28.551  1.00  0.00     0.053 C 
BRANCH   2   3
ATOM      3  C   UNL     1     -41.738  22.025 -28.565  1.00  0.00     0.041 C 
ATOM      4  O   UNL     1     -42.507  21.253 -27.935  1.00  0.00    -0.550 OA
ATOM      5  O   UNL     1     -42.261  23.126 -29.232  1.00  0.00    -0.550 OA
ENDBRANCH   2   3
ENDBRANCH   1   2
BRANCH   1   6
ATOM      6  C   UNL     1     -38.664  19.868 -28.176  1.00  0.00     0.000 C 
BRANCH   6   7
ATOM      7  C   UNL     1     -38.714  19.605 -29.690  1.00  0.00    -0.000 C 
BRANCH   7   8
ATOM      8  C   UNL     1     -39.602  18.407 -30.052  1.00  0.00    -0.003 C 
ATOM      9  C   UNL     1     -40.829  18.852 -30.844  1.00  0.00     0.004 C 
ENDBRANCH   7   8
ENDBRANCH   6   7
ENDBRANCH   1   6
TORSDOF 5
ENDMDL
MODEL 4
REMARK VINA RESULT:    -3.774      1.170      2.317
REMARK INTER + INTRA:          -5.193
REMARK INTER:                  -4.929
REMARK INTRA:                  -0.265
REMARK UNBOUND:                -0.316
REMARK SMILES CCCCCCC(=O)[O-]
REMARK SMILES IDX 5 1 6 2 7 3 8 4 9 5 4 6 3 7 2 8 1 9
REMARK H PARENT
REMARK Flexibility Score: inf
ROOT
ATOM      1  C   UNL     1     -40.463  20.723 -28.531  1.00  0.00     0.006 C 
ENDROOT
BRANCH   1   2
ATOM      2  C   UNL     1     -40.016  20.481 -29.977  1.00  0.00     0.053 C 
BRANCH   2   3
ATOM      3  C   UNL     1     -40.135  19.032 -30.328  1.00  0.00     0.041 C 
ATOM      4  O   UNL     1     -41.063  18.638 -31.082  1.00  0.00    -0.550 OA
ATOM      5  O   UNL     1     -39.192  18.124 -29.863  1.00  0.00    -0.550 OA
ENDBRANCH   2   3
ENDBRANCH   1   2
BRANCH   1   6
ATOM      6  C   UNL     1     -41.719  21.605 -28.485  1.00  0.00     0.000 C 
BRANCH   6   7
ATOM      7  C   UNL     1     -41.576  22.885 -29.324  1.00  0.00    -0.000 C 
BRANCH   7   8
ATOM      8  C   UNL     1     -41.055  24.074 -28.504  1.00  0.00    -0.003 C 
ATOM      9  C   UNL     1     -39.570  24.313 -28.765  1.00  0.00     0.004 C 
ENDBRANCH   7   8
ENDBRANCH   6   7
ENDBRANCH   1   6
TORSDOF 5
ENDMDL
MODEL 5
REMARK VINA RESULT:    -3.767      2.602      4.362
REMARK INTER + INTRA:          -5.184
REMARK INTER:                  -4.913
REMARK INTRA:                  -0.271
REMARK UNBOUND:                -0.316
REMARK SMILES CCCCCCC(=O)[O-]
REMARK SMILES IDX 5 1 6 2 7 3 8 4 9 5 4 6 3 7 2 8 1 9
REMARK H PARENT
REMARK Flexibility Score: inf
ROOT
ATOM      1  C   UNL     1     -40.402  20.547 -30.276  1.00  0.00     0.006 C 
ENDROOT
BRANCH   1   2
ATOM      2  C   UNL     1     -40.467  20.944 -28.798  1.00  0.00     0.053 C 
BRANCH   2   3
ATOM      3  C   UNL     1     -41.728  21.694 -28.510  1.00  0.00     0.041 C 
ATOM      4  O   UNL     1     -41.862  22.882 -28.904  1.00  0.00    -0.550 OA
ATOM      5  O   UNL     1     -42.777  21.064 -27.851  1.00  0.00    -0.550 OA
ENDBRANCH   2   3
ENDBRANCH   1   2
BRANCH   1   6
ATOM      6  C   UNL     1     -40.167  19.037 -30.430  1.00  0.00     0.000 C 
BRANCH   6   7
ATOM      7  C   UNL     1     -39.061  18.512 -29.499  1.00  0.00    -0.000 C 
BRANCH   7   8
ATOM      8  C   UNL     1     -37.663  18.617 -30.123  1.00  0.00    -0.003 C 
ATOM      9  C   UNL     1     -36.804  19.636 -29.380  1.00  0.00     0.004 C 
ENDBRANCH   7   8
ENDBRANCH   6   7
ENDBRANCH   1   6
TORSDOF 5
ENDMDL
MODEL 6
REMARK VINA RESULT:    -3.570      2.935      4.636
REMARK INTER + INTRA:          -4.930
REMARK INTER:                  -4.716
REMARK INTRA:                  -0.214
REMARK UNBOUND:                -0.316
REMARK SMILES CCCCCCC(=O)[O-]
REMARK SMILES IDX 5 1 6 2 7 3 8 4 9 5 4 6 3 7 2 8 1 9
REMARK H PARENT
REMARK Flexibility Score: inf
ROOT
ATOM      1  C   UNL     1     -40.649  20.717 -28.721  1.00  0.00     0.006 C 
ENDROOT
BRANCH   1   2
ATOM      2  C   UNL     1     -41.874  21.580 -28.404  1.00  0.00     0.053 C 
BRANCH   2   3
ATOM      3  C   UNL     1     -41.673  22.978 -28.897  1.00  0.00     0.041 C 
ATOM      4  O   UNL     1     -42.597  23.571 -29.513  1.00  0.00    -0.550 OA
ATOM      5  O   UNL     1     -40.484  23.645 -28.632  1.00  0.00    -0.550 OA
ENDBRANCH   2   3
ENDBRANCH   1   2
BRANCH   1   6
ATOM      6  C   UNL     1     -40.679  20.235 -30.179  1.00  0.00     0.000 C 
BRANCH   6   7
ATOM      7  C   UNL     1     -40.041  18.847 -30.358  1.00  0.00    -0.000 C 
BRANCH   7   8
ATOM      8  C   UNL     1     -38.888  18.596 -29.376  1.00  0.00    -0.003 C 
ATOM      9  C   UNL     1     -37.540  18.913 -30.019  1.00  0.00     0.004 C 
ENDBRANCH   7   8
ENDBRANCH   6   7
ENDBRANCH   1   6
TORSDOF 5
ENDMDL
MODEL 7
REMARK VINA RESULT:    -3.525      1.567      2.606
REMARK INTER + INTRA:          -4.872
REMARK INTER:                  -4.445
REMARK INTRA:                  -0.426
REMARK UNBOUND:                -0.316
REMARK SMILES CCCCCCC(=O)[O-]
REMARK SMILES IDX 5 1 6 2 7 3 8 4 9 5 4 6 3 7 2 8 1 9
REMARK H PARENT
REMARK Flexibility Score: inf
ROOT
ATOM      1  C   UNL     1     -39.579  20.901 -27.785  1.00  0.00     0.006 C 
ENDROOT
BRANCH   1   2
ATOM      2  C   UNL     1     -39.044  19.476 -27.952  1.00  0.00     0.053 C 
BRANCH   2   3
ATOM      3  C   UNL     1     -38.857  19.153 -29.401  1.00  0.00     0.041 C 
ATOM      4  O   UNL     1     -39.599  18.303 -29.960  1.00  0.00    -0.550 OA
ATOM      5  O   UNL     1     -37.897  19.826 -30.146  1.00  0.00    -0.550 OA
ENDBRANCH   2   3
ENDBRANCH   1   2
BRANCH   1   6
ATOM      6  C   UNL     1     -41.077  20.968 -28.120  1.00  0.00     0.000 C 
BRANCH   6   7
ATOM      7  C   UNL     1     -41.433  22.176 -29.001  1.00  0.00    -0.000 C 
BRANCH   7   8
ATOM      8  C   UNL     1     -40.225  22.721 -29.774  1.00  0.00    -0.003 C 
ATOM      9  C   UNL     1     -40.257  22.272 -31.233  1.00  0.00     0.004 C 
ENDBRANCH   7   8
ENDBRANCH   6   7
ENDBRANCH   1   6
TORSDOF 5
ENDMDL
MODEL 8
REMARK VINA RESULT:    -3.511      1.758      2.131
REMARK INTER + INTRA:          -4.853
REMARK INTER:                  -4.489
REMARK INTRA:                  -0.364
REMARK UNBOUND:                -0.316
REMARK SMILES CCCCCCC(=O)[O-]
REMARK SMILES IDX 5 1 6 2 7 3 8 4 9 5 4 6 3 7 2 8 1 9
REMARK H PARENT
REMARK Flexibility Score: inf
ROOT
ATOM      1  C   UNL     1     -40.650  19.838 -30.220  1.00  0.00     0.006 C 
ENDROOT
BRANCH   1   2
ATOM      2  C   UNL     1     -39.701  18.639 -30.143  1.00  0.00     0.053 C 
BRANCH   2   3
ATOM      3  C   UNL     1     -38.429  19.019 -29.453  1.00  0.00     0.041 C 
ATOM      4  O   UNL     1     -37.322  18.856 -30.030  1.00  0.00    -0.550 OA
ATOM      5  O   UNL     1     -38.469  19.602 -28.192  1.00  0.00    -0.550 OA
ENDBRANCH   2   3
ENDBRANCH   1   2
BRANCH   1   6
ATOM      6  C   UNL     1     -40.062  20.948 -31.103  1.00  0.00     0.000 C 
BRANCH   6   7
ATOM      7  C   UNL     1     -39.934  22.290 -30.363  1.00  0.00    -0.000 C 
BRANCH   7   8
ATOM      8  C   UNL     1     -40.708  22.309 -29.038  1.00  0.00    -0.003 C 
ATOM      9  C   UNL     1     -41.938  23.208 -29.132  1.00  0.00     0.004 C 
ENDBRANCH   7   8
ENDBRANCH   6   7
ENDBRANCH   1   6
TORSDOF 5
ENDMDL
MODEL 9
REMARK VINA RESULT:    -3.451      2.897      4.234
REMARK INTER + INTRA:          -4.777
REMARK INTER:                  -4.371
REMARK INTRA:                  -0.406
REMARK UNBOUND:                -0.316
REMARK SMILES CCCCCCC(=O)[O-]
REMARK SMILES IDX 5 1 6 2 7 3 8 4 9 5 4 6 3 7 2 8 1 9
REMARK H PARENT
REMARK Flexibility Score: inf
ROOT
ATOM      1  C   UNL     1     -40.538  20.849 -28.289  1.00  0.00     0.006 C 
ENDROOT
BRANCH   1   2
ATOM      2  C   UNL     1     -41.885  21.568 -28.413  1.00  0.00     0.053 C 
BRANCH   2   3
ATOM      3  C   UNL     1     -41.683  22.992 -28.825  1.00  0.00     0.041 C 
ATOM      4  O   UNL     1     -40.631  23.602 -28.499  1.00  0.00    -0.550 OA
ATOM      5  O   UNL     1     -42.634  23.631 -29.611  1.00  0.00    -0.550 OA
ENDBRANCH   2   3
ENDBRANCH   1   2
BRANCH   1   6
ATOM      6  C   UNL     1     -40.098  20.270 -29.642  1.00  0.00     0.000 C 
BRANCH   6   7
ATOM      7  C   UNL     1     -38.600  20.483 -29.919  1.00  0.00    -0.000 C 
BRANCH   7   8
ATOM      8  C   UNL     1     -38.294  21.885 -30.464  1.00  0.00    -0.003 C 
ATOM      9  C   UNL     1     -39.318  22.301 -31.516  1.00  0.00     0.004 C 
ENDBRANCH   7   8
ENDBRANCH   6   7
ENDBRANCH   1   6
TORSDOF 5
ENDMDL
