MODEL 1
REMARK VINA RESULT:    -4.807      0.000      0.000
REMARK INTER + INTRA:          -9.281
REMARK INTER:                  -8.320
REMARK INTRA:                  -0.960
REMARK UNBOUND:                -0.960
REMARK SMILES CCCCCCCCCCCCCCO
REMARK SMILES IDX 8 1 7 2 6 3 5 4 4 5 3 6 2 7 1 8 9 9 10 10 11 11 12 12 13 13
REMARK SMILES IDX 14 14 15 15
REMARK H PARENT 15 16
REMARK Flexibility Score: inf
ROOT
ATOM      1  C   UNL     1     -41.735  41.284 -49.979  1.00  0.00     0.000 C 
ENDROOT
BRANCH   1   2
ATOM      2  C   UNL     1     -40.962  40.026 -49.549  1.00  0.00    -0.000 C 
BRANCH   2   3
ATOM      3  C   UNL     1     -40.297  39.307 -50.736  1.00  0.00    -0.000 C 
BRANCH   3   4
ATOM      4  C   UNL     1     -41.181  38.194 -51.321  1.00  0.00    -0.000 C 
BRANCH   4   5
ATOM      5  C   UNL     1     -42.136  37.585 -50.279  1.00  0.00    -0.000 C 
BRANCH   5   6
ATOM      6  C   UNL     1     -43.429  37.044 -50.909  1.00  0.00    -0.000 C 
BRANCH   6   7
ATOM      7  C   UNL     1     -43.998  37.981 -51.984  1.00  0.00    -0.003 C 
ATOM      8  C   UNL     1     -44.779  39.130 -51.352  1.00  0.00     0.004 C 
ENDBRANCH   6   7
ENDBRANCH   5   6
ENDBRANCH   4   5
ENDBRANCH   3   4
ENDBRANCH   2   3
ENDBRANCH   1   2
BRANCH   1   9
ATOM      9  C   UNL     1     -40.915  42.190 -50.915  1.00  0.00     0.000 C 
BRANCH   9  10
ATOM     10  C   UNL     1     -41.802  43.070 -51.812  1.00  0.00     0.000 C 
BRANCH  10  11
ATOM     11  C   UNL     1     -41.010  44.176 -52.527  1.00  0.00     0.000 C 
BRANCH  11  12
ATOM     12  C   UNL     1     -41.951  45.124 -53.279  1.00  0.00     0.002 C 
BRANCH  12  13
ATOM     13  C   UNL     1     -43.385  44.579 -53.296  1.00  0.00     0.028 C 
BRANCH  13  14
ATOM     14  C   UNL     1     -44.419  45.703 -53.418  1.00  0.00     0.156 C 
BRANCH  14  15
ATOM     15  O   UNL     1     -45.266  45.730 -52.300  1.00  0.00    -0.396 OA
ATOM     16  H   UNL     1     -45.821  46.549 -52.384  1.00  0.00     0.210 HD
ENDBRANCH  14  15
ENDBRANCH  13  14
ENDBRANCH  12  13
ENDBRANCH  11  12
ENDBRANCH  10  11
ENDBRANCH   9  10
ENDBRANCH   1   9
TORSDOF 13
ENDMDL
MODEL 2
REMARK VINA RESULT:    -4.696      1.860      3.768
REMARK INTER + INTRA:          -9.088
REMARK INTER:                  -7.422
REMARK INTRA:                  -1.666
REMARK UNBOUND:                -0.960
REMARK SMILES CCCCCCCCCCCCCCO
REMARK SMILES IDX 8 1 7 2 6 3 5 4 4 5 3 6 2 7 1 8 9 9 10 10 11 11 12 12 13 13
REMARK SMILES IDX 14 14 15 15
REMARK H PARENT 15 16
REMARK Flexibility Score: inf
ROOT
ATOM      1  C   UNL     1     -44.553  39.460 -51.951  1.00  0.00     0.000 C 
ENDROOT
BRANCH   1   2
ATOM      2  C   UNL     1     -44.357  38.253 -51.018  1.00  0.00    -0.000 C 
BRANCH   2   3
ATOM      3  C   UNL     1     -43.213  37.332 -51.476  1.00  0.00    -0.000 C 
BRANCH   3   4
ATOM      4  C   UNL     1     -41.925  37.543 -50.664  1.00  0.00    -0.000 C 
BRANCH   4   5
ATOM      5  C   UNL     1     -40.881  38.390 -51.417  1.00  0.00    -0.000 C 
BRANCH   5   6
ATOM      6  C   UNL     1     -40.436  39.624 -50.617  1.00  0.00    -0.000 C 
BRANCH   6   7
ATOM      7  C   UNL     1     -41.443  40.014 -49.525  1.00  0.00    -0.003 C 
ATOM      8  C   UNL     1     -40.728  40.440 -48.245  1.00  0.00     0.004 C 
ENDBRANCH   6   7
ENDBRANCH   5   6
ENDBRANCH   4   5
ENDBRANCH   3   4
ENDBRANCH   2   3
ENDBRANCH   1   2
BRANCH   1   9
ATOM      9  C   UNL     1     -43.979  39.218 -53.358  1.00  0.00     0.000 C 
BRANCH   9  10
ATOM     10  C   UNL     1     -43.063  40.361 -53.827  1.00  0.00     0.000 C 
BRANCH  10  11
ATOM     11  C   UNL     1     -42.857  41.437 -52.750  1.00  0.00     0.000 C 
BRANCH  11  12
ATOM     12  C   UNL     1     -42.899  42.841 -53.364  1.00  0.00     0.002 C 
BRANCH  12  13
ATOM     13  C   UNL     1     -42.000  43.810 -52.585  1.00  0.00     0.028 C 
BRANCH  13  14
ATOM     14  C   UNL     1     -41.086  43.070 -51.600  1.00  0.00     0.156 C 
BRANCH  14  15
ATOM     15  O   UNL     1     -41.490  43.294 -50.276  1.00  0.00    -0.396 OA
ATOM     16  H   UNL     1     -41.622  42.400 -49.864  1.00  0.00     0.210 HD
ENDBRANCH  14  15
ENDBRANCH  13  14
ENDBRANCH  12  13
ENDBRANCH  11  12
ENDBRANCH  10  11
ENDBRANCH   9  10
ENDBRANCH   1   9
TORSDOF 13
ENDMDL
MODEL 3
REMARK VINA RESULT:    -4.616      8.349     12.194
REMARK INTER + INTRA:          -8.949
REMARK INTER:                  -8.290
REMARK INTRA:                  -0.660
REMARK UNBOUND:                -0.960
REMARK SMILES CCCCCCCCCCCCCCO
REMARK SMILES IDX 8 1 7 2 6 3 5 4 4 5 3 6 2 7 1 8 9 9 10 10 11 11 12 12 13 13
REMARK SMILES IDX 14 14 15 15
REMARK H PARENT 15 16
REMARK Flexibility Score: inf
ROOT
ATOM      1  C   UNL     1     -36.289  49.455 -52.145  1.00  0.00     0.000 C 
ENDROOT
BRANCH   1   2
ATOM      2  C   UNL     1     -35.440  49.341 -53.422  1.00  0.00    -0.000 C 
BRANCH   2   3
ATOM      3  C   UNL     1     -34.172  50.211 -53.368  1.00  0.00    -0.000 C 
BRANCH   3   4
ATOM      4  C   UNL     1     -34.124  51.107 -52.120  1.00  0.00    -0.000 C 
BRANCH   4   5
ATOM      5  C   UNL     1     -32.922  50.792 -51.210  1.00  0.00    -0.000 C 
BRANCH   5   6
ATOM      6  C   UNL     1     -32.415  52.030 -50.453  1.00  0.00    -0.000 C 
BRANCH   6   7
ATOM      7  C   UNL     1     -31.966  53.155 -51.398  1.00  0.00    -0.003 C 
ATOM      8  C   UNL     1     -31.330  54.303 -50.619  1.00  0.00     0.004 C 
ENDBRANCH   6   7
ENDBRANCH   5   6
ENDBRANCH   4   5
ENDBRANCH   3   4
ENDBRANCH   2   3
ENDBRANCH   1   2
BRANCH   1   9
ATOM      9  C   UNL     1     -37.714  48.906 -52.334  1.00  0.00     0.000 C 
BRANCH   9  10
ATOM     10  C   UNL     1     -38.318  49.287 -53.696  1.00  0.00     0.000 C 
BRANCH  10  11
ATOM     11  C   UNL     1     -39.116  48.139 -54.333  1.00  0.00     0.000 C 
BRANCH  11  12
ATOM     12  C   UNL     1     -39.201  46.938 -53.384  1.00  0.00     0.002 C 
BRANCH  12  13
ATOM     13  C   UNL     1     -39.914  45.756 -54.054  1.00  0.00     0.028 C 
BRANCH  13  14
ATOM     14  C   UNL     1     -40.006  44.545 -53.119  1.00  0.00     0.156 C 
BRANCH  14  15
ATOM     15  O   UNL     1     -38.821  44.386 -52.386  1.00  0.00    -0.396 OA
ATOM     16  H   UNL     1     -39.026  43.756 -51.645  1.00  0.00     0.210 HD
ENDBRANCH  14  15
ENDBRANCH  13  14
ENDBRANCH  12  13
ENDBRANCH  11  12
ENDBRANCH  10  11
ENDBRANCH   9  10
ENDBRANCH   1   9
TORSDOF 13
ENDMDL
MODEL 4
REMARK VINA RESULT:    -4.561      1.252      3.275
REMARK INTER + INTRA:          -8.855
REMARK INTER:                  -7.445
REMARK INTRA:                  -1.410
REMARK UNBOUND:                -0.960
REMARK SMILES CCCCCCCCCCCCCCO
REMARK SMILES IDX 8 1 7 2 6 3 5 4 4 5 3 6 2 7 1 8 9 9 10 10 11 11 12 12 13 13
REMARK SMILES IDX 14 14 15 15
REMARK H PARENT 15 16
REMARK Flexibility Score: inf
ROOT
ATOM      1  C   UNL     1     -44.587  39.064 -51.379  1.00  0.00     0.000 C 
ENDROOT
BRANCH   1   2
ATOM      2  C   UNL     1     -43.875  37.704 -51.475  1.00  0.00    -0.000 C 
BRANCH   2   3
ATOM      3  C   UNL     1     -42.810  37.516 -50.380  1.00  0.00    -0.000 C 
BRANCH   3   4
ATOM      4  C   UNL     1     -41.378  37.543 -50.940  1.00  0.00    -0.000 C 
BRANCH   4   5
ATOM      5  C   UNL     1     -40.841  38.975 -51.125  1.00  0.00    -0.000 C 
BRANCH   5   6
ATOM      6  C   UNL     1     -40.773  39.755 -49.802  1.00  0.00    -0.000 C 
BRANCH   6   7
ATOM      7  C   UNL     1     -41.652  41.014 -49.815  1.00  0.00    -0.003 C 
ATOM      8  C   UNL     1     -41.002  42.129 -50.629  1.00  0.00     0.004 C 
ENDBRANCH   6   7
ENDBRANCH   5   6
ENDBRANCH   4   5
ENDBRANCH   3   4
ENDBRANCH   2   3
ENDBRANCH   1   2
BRANCH   1   9
ATOM      9  C   UNL     1     -44.683  39.777 -52.739  1.00  0.00     0.000 C 
BRANCH   9  10
ATOM     10  C   UNL     1     -43.515  40.748 -52.980  1.00  0.00     0.000 C 
BRANCH  10  11
ATOM     11  C   UNL     1     -43.937  42.001 -53.763  1.00  0.00     0.000 C 
BRANCH  11  12
ATOM     12  C   UNL     1     -42.754  42.962 -53.939  1.00  0.00     0.002 C 
BRANCH  12  13
ATOM     13  C   UNL     1     -42.888  44.175 -53.009  1.00  0.00     0.028 C 
BRANCH  13  14
ATOM     14  C   UNL     1     -43.941  45.167 -53.518  1.00  0.00     0.156 C 
BRANCH  14  15
ATOM     15  O   UNL     1     -44.845  45.504 -52.500  1.00  0.00    -0.396 OA
ATOM     16  H   UNL     1     -44.777  46.487 -52.373  1.00  0.00     0.210 HD
ENDBRANCH  14  15
ENDBRANCH  13  14
ENDBRANCH  12  13
ENDBRANCH  11  12
ENDBRANCH  10  11
ENDBRANCH   9  10
ENDBRANCH   1   9
TORSDOF 13
ENDMDL
MODEL 5
REMARK VINA RESULT:    -4.529     10.648     13.364
REMARK INTER + INTRA:          -8.799
REMARK INTER:                  -7.687
REMARK INTRA:                  -1.112
REMARK UNBOUND:                -0.960
REMARK SMILES CCCCCCCCCCCCCCO
REMARK SMILES IDX 8 1 7 2 6 3 5 4 4 5 3 6 2 7 1 8 9 9 10 10 11 11 12 12 13 13
REMARK SMILES IDX 14 14 15 15
REMARK H PARENT 15 16
REMARK Flexibility Score: inf
ROOT
ATOM      1  C   UNL     1     -33.344  51.356 -53.018  1.00  0.00     0.000 C 
ENDROOT
BRANCH   1   2
ATOM      2  C   UNL     1     -34.305  50.290 -53.569  1.00  0.00    -0.000 C 
BRANCH   2   3
ATOM      3  C   UNL     1     -35.363  49.858 -52.538  1.00  0.00    -0.000 C 
BRANCH   3   4
ATOM      4  C   UNL     1     -35.405  48.335 -52.339  1.00  0.00    -0.000 C 
BRANCH   4   5
ATOM      5  C   UNL     1     -36.842  47.789 -52.245  1.00  0.00    -0.000 C 
BRANCH   5   6
ATOM      6  C   UNL     1     -37.903  48.883 -52.441  1.00  0.00    -0.000 C 
BRANCH   6   7
ATOM      7  C   UNL     1     -38.767  48.650 -53.690  1.00  0.00    -0.003 C 
ATOM      8  C   UNL     1     -38.309  49.535 -54.846  1.00  0.00     0.004 C 
ENDBRANCH   6   7
ENDBRANCH   5   6
ENDBRANCH   4   5
ENDBRANCH   3   4
ENDBRANCH   2   3
ENDBRANCH   1   2
BRANCH   1   9
ATOM      9  C   UNL     1     -32.110  50.741 -52.334  1.00  0.00     0.000 C 
BRANCH   9  10
ATOM     10  C   UNL     1     -32.204  50.782 -50.799  1.00  0.00     0.000 C 
BRANCH  10  11
ATOM     11  C   UNL     1     -32.804  52.097 -50.276  1.00  0.00     0.000 C 
BRANCH  11  12
ATOM     12  C   UNL     1     -31.702  53.115 -49.963  1.00  0.00     0.002 C 
BRANCH  12  13
ATOM     13  C   UNL     1     -31.716  54.270 -50.973  1.00  0.00     0.028 C 
BRANCH  13  14
ATOM     14  C   UNL     1     -30.646  54.090 -52.056  1.00  0.00     0.156 C 
BRANCH  14  15
ATOM     15  O   UNL     1     -29.363  54.050 -51.492  1.00  0.00    -0.396 OA
ATOM     16  H   UNL     1     -29.419  53.454 -50.699  1.00  0.00     0.210 HD
ENDBRANCH  14  15
ENDBRANCH  13  14
ENDBRANCH  12  13
ENDBRANCH  11  12
ENDBRANCH  10  11
ENDBRANCH   9  10
ENDBRANCH   1   9
TORSDOF 13
ENDMDL
MODEL 6
REMARK VINA RESULT:    -4.488      9.699     12.381
REMARK INTER + INTRA:          -8.728
REMARK INTER:                  -8.160
REMARK INTRA:                  -0.568
REMARK UNBOUND:                -0.960
REMARK SMILES CCCCCCCCCCCCCCO
REMARK SMILES IDX 8 1 7 2 6 3 5 4 4 5 3 6 2 7 1 8 9 9 10 10 11 11 12 12 13 13
REMARK SMILES IDX 14 14 15 15
REMARK H PARENT 15 16
REMARK Flexibility Score: inf
ROOT
ATOM      1  C   UNL     1     -34.691  50.046 -52.115  1.00  0.00     0.000 C 
ENDROOT
BRANCH   1   2
ATOM      2  C   UNL     1     -35.534  49.246 -53.123  1.00  0.00    -0.000 C 
BRANCH   2   3
ATOM      3  C   UNL     1     -36.476  48.241 -52.438  1.00  0.00    -0.000 C 
BRANCH   3   4
ATOM      4  C   UNL     1     -37.930  48.737 -52.385  1.00  0.00    -0.000 C 
BRANCH   4   5
ATOM      5  C   UNL     1     -38.393  49.361 -53.715  1.00  0.00    -0.000 C 
BRANCH   5   6
ATOM      6  C   UNL     1     -39.197  48.377 -54.580  1.00  0.00    -0.000 C 
BRANCH   6   7
ATOM      7  C   UNL     1     -39.463  47.044 -53.863  1.00  0.00    -0.003 C 
ATOM      8  C   UNL     1     -40.469  46.196 -54.637  1.00  0.00     0.004 C 
ENDBRANCH   6   7
ENDBRANCH   5   6
ENDBRANCH   4   5
ENDBRANCH   3   4
ENDBRANCH   2   3
ENDBRANCH   1   2
BRANCH   1   9
ATOM      9  C   UNL     1     -33.201  49.665 -52.159  1.00  0.00     0.000 C 
BRANCH   9  10
ATOM     10  C   UNL     1     -32.459  50.317 -53.339  1.00  0.00     0.000 C 
BRANCH  10  11
ATOM     11  C   UNL     1     -32.552  51.851 -53.323  1.00  0.00     0.000 C 
BRANCH  11  12
ATOM     12  C   UNL     1     -31.970  52.421 -52.024  1.00  0.00     0.002 C 
BRANCH  12  13
ATOM     13  C   UNL     1     -30.899  53.479 -52.319  1.00  0.00     0.028 C 
BRANCH  13  14
ATOM     14  C   UNL     1     -30.744  54.469 -51.158  1.00  0.00     0.156 C 
BRANCH  14  15
ATOM     15  O   UNL     1     -31.993  54.815 -50.624  1.00  0.00    -0.396 OA
ATOM     16  H   UNL     1     -32.591  54.999 -51.396  1.00  0.00     0.210 HD
ENDBRANCH  14  15
ENDBRANCH  13  14
ENDBRANCH  12  13
ENDBRANCH  11  12
ENDBRANCH  10  11
ENDBRANCH   9  10
ENDBRANCH   1   9
TORSDOF 13
ENDMDL
MODEL 7
REMARK VINA RESULT:    -4.477      8.405     10.970
REMARK INTER + INTRA:          -8.709
REMARK INTER:                  -8.100
REMARK INTRA:                  -0.609
REMARK UNBOUND:                -0.960
REMARK SMILES CCCCCCCCCCCCCCO
REMARK SMILES IDX 8 1 7 2 6 3 5 4 4 5 3 6 2 7 1 8 9 9 10 10 11 11 12 12 13 13
REMARK SMILES IDX 14 14 15 15
REMARK H PARENT 15 16
REMARK Flexibility Score: inf
ROOT
ATOM      1  C   UNL     1     -35.985  48.163 -52.540  1.00  0.00     0.000 C 
ENDROOT
BRANCH   1   2
ATOM      2  C   UNL     1     -37.451  48.393 -52.136  1.00  0.00    -0.000 C 
BRANCH   2   3
ATOM      3  C   UNL     1     -38.227  49.220 -53.176  1.00  0.00    -0.000 C 
BRANCH   3   4
ATOM      4  C   UNL     1     -38.946  48.340 -54.212  1.00  0.00    -0.000 C 
BRANCH   4   5
ATOM      5  C   UNL     1     -39.297  46.945 -53.663  1.00  0.00    -0.000 C 
BRANCH   5   6
ATOM      6  C   UNL     1     -40.128  46.114 -54.653  1.00  0.00    -0.000 C 
BRANCH   6   7
ATOM      7  C   UNL     1     -40.542  44.752 -54.076  1.00  0.00    -0.003 C 
ATOM      8  C   UNL     1     -39.742  44.422 -52.819  1.00  0.00     0.004 C 
ENDBRANCH   6   7
ENDBRANCH   5   6
ENDBRANCH   4   5
ENDBRANCH   3   4
ENDBRANCH   2   3
ENDBRANCH   1   2
BRANCH   1   9
ATOM      9  C   UNL     1     -35.351  49.403 -53.194  1.00  0.00     0.000 C 
BRANCH   9  10
ATOM     10  C   UNL     1     -34.883  50.442 -52.160  1.00  0.00     0.000 C 
BRANCH  10  11
ATOM     11  C   UNL     1     -33.539  51.087 -52.532  1.00  0.00     0.000 C 
BRANCH  11  12
ATOM     12  C   UNL     1     -32.481  50.807 -51.458  1.00  0.00     0.002 C 
BRANCH  12  13
ATOM     13  C   UNL     1     -32.482  51.904 -50.385  1.00  0.00     0.028 C 
BRANCH  13  14
ATOM     14  C   UNL     1     -31.976  53.241 -50.940  1.00  0.00     0.156 C 
BRANCH  14  15
ATOM     15  O   UNL     1     -31.979  54.229 -49.945  1.00  0.00    -0.396 OA
ATOM     16  H   UNL     1     -31.525  53.837 -49.153  1.00  0.00     0.210 HD
ENDBRANCH  14  15
ENDBRANCH  13  14
ENDBRANCH  12  13
ENDBRANCH  11  12
ENDBRANCH  10  11
ENDBRANCH   9  10
ENDBRANCH   1   9
TORSDOF 13
ENDMDL
MODEL 8
REMARK VINA RESULT:    -4.472     10.363     14.087
REMARK INTER + INTRA:          -8.700
REMARK INTER:                  -8.125
REMARK INTRA:                  -0.575
REMARK UNBOUND:                -0.960
REMARK SMILES CCCCCCCCCCCCCCO
REMARK SMILES IDX 8 1 7 2 6 3 5 4 4 5 3 6 2 7 1 8 9 9 10 10 11 11 12 12 13 13
REMARK SMILES IDX 14 14 15 15
REMARK H PARENT 15 16
REMARK Flexibility Score: inf
ROOT
ATOM      1  C   UNL     1     -35.079  50.268 -52.143  1.00  0.00     0.000 C 
ENDROOT
BRANCH   1   2
ATOM      2  C   UNL     1     -33.930  51.113 -52.719  1.00  0.00    -0.000 C 
BRANCH   2   3
ATOM      3  C   UNL     1     -32.943  51.584 -51.637  1.00  0.00    -0.000 C 
BRANCH   3   4
ATOM      4  C   UNL     1     -31.902  52.577 -52.179  1.00  0.00    -0.000 C 
BRANCH   4   5
ATOM      5  C   UNL     1     -31.643  53.749 -51.215  1.00  0.00    -0.000 C 
BRANCH   5   6
ATOM      6  C   UNL     1     -30.354  54.516 -51.552  1.00  0.00    -0.000 C 
BRANCH   6   7
ATOM      7  C   UNL     1     -29.788  54.140 -52.930  1.00  0.00    -0.003 C 
ATOM      8  C   UNL     1     -28.335  54.588 -53.067  1.00  0.00     0.004 C 
ENDBRANCH   6   7
ENDBRANCH   5   6
ENDBRANCH   4   5
ENDBRANCH   3   4
ENDBRANCH   2   3
ENDBRANCH   1   2
BRANCH   1   9
ATOM      9  C   UNL     1     -34.968  48.782 -52.526  1.00  0.00     0.000 C 
BRANCH   9  10
ATOM     10  C   UNL     1     -36.325  48.058 -52.484  1.00  0.00     0.000 C 
BRANCH  10  11
ATOM     11  C   UNL     1     -37.488  48.998 -52.128  1.00  0.00     0.000 C 
BRANCH  11  12
ATOM     12  C   UNL     1     -38.643  48.840 -53.124  1.00  0.00     0.002 C 
BRANCH  12  13
ATOM     13  C   UNL     1     -38.296  49.478 -54.475  1.00  0.00     0.028 C 
BRANCH  13  14
ATOM     14  C   UNL     1     -39.469  50.290 -55.038  1.00  0.00     0.156 C 
BRANCH  14  15
ATOM     15  O   UNL     1     -40.663  49.972 -54.374  1.00  0.00    -0.396 OA
ATOM     16  H   UNL     1     -41.086  49.235 -54.889  1.00  0.00     0.210 HD
ENDBRANCH  14  15
ENDBRANCH  13  14
ENDBRANCH  12  13
ENDBRANCH  11  12
ENDBRANCH  10  11
ENDBRANCH   9  10
ENDBRANCH   1   9
TORSDOF 13
ENDMDL
MODEL 9
REMARK VINA RESULT:    -4.455      2.263      5.840
REMARK INTER + INTRA:          -8.671
REMARK INTER:                  -7.070
REMARK INTRA:                  -1.600
REMARK UNBOUND:                -0.960
REMARK SMILES CCCCCCCCCCCCCCO
REMARK SMILES IDX 8 1 7 2 6 3 5 4 4 5 3 6 2 7 1 8 9 9 10 10 11 11 12 12 13 13
REMARK SMILES IDX 14 14 15 15
REMARK H PARENT 15 16
REMARK Flexibility Score: inf
ROOT
ATOM      1  C   UNL     1     -44.340  38.434 -51.620  1.00  0.00     0.000 C 
ENDROOT
BRANCH   1   2
ATOM      2  C   UNL     1     -44.144  38.540 -53.141  1.00  0.00    -0.000 C 
BRANCH   2   3
ATOM      3  C   UNL     1     -43.095  39.595 -53.530  1.00  0.00    -0.000 C 
BRANCH   3   4
ATOM      4  C   UNL     1     -43.312  40.937 -52.812  1.00  0.00    -0.000 C 
BRANCH   4   5
ATOM      5  C   UNL     1     -43.426  42.121 -53.788  1.00  0.00    -0.000 C 
BRANCH   5   6
ATOM      6  C   UNL     1     -42.372  43.208 -53.524  1.00  0.00    -0.000 C 
BRANCH   6   7
ATOM      7  C   UNL     1     -41.955  43.277 -52.047  1.00  0.00    -0.003 C 
ATOM      8  C   UNL     1     -40.441  43.412 -51.911  1.00  0.00     0.004 C 
ENDBRANCH   6   7
ENDBRANCH   5   6
ENDBRANCH   4   5
ENDBRANCH   3   4
ENDBRANCH   2   3
ENDBRANCH   1   2
BRANCH   1   9
ATOM      9  C   UNL     1     -43.557  37.261 -51.004  1.00  0.00     0.000 C 
BRANCH   9  10
ATOM     10  C   UNL     1     -42.381  37.729 -50.131  1.00  0.00     0.000 C 
BRANCH  10  11
ATOM     11  C   UNL     1     -41.131  38.076 -50.955  1.00  0.00     0.000 C 
BRANCH  11  12
ATOM     12  C   UNL     1     -40.634  39.489 -50.627  1.00  0.00     0.002 C 
BRANCH  12  13
ATOM     13  C   UNL     1     -41.591  40.199 -49.661  1.00  0.00     0.028 C 
BRANCH  13  14
ATOM     14  C   UNL     1     -40.851  40.778 -48.450  1.00  0.00     0.156 C 
BRANCH  14  15
ATOM     15  O   UNL     1     -40.617  42.151 -48.614  1.00  0.00    -0.396 OA
ATOM     16  H   UNL     1     -41.505  42.595 -48.593  1.00  0.00     0.210 HD
ENDBRANCH  14  15
ENDBRANCH  13  14
ENDBRANCH  12  13
ENDBRANCH  11  12
ENDBRANCH  10  11
ENDBRANCH   9  10
ENDBRANCH   1   9
TORSDOF 13
ENDMDL
