MODEL 1
REMARK VINA RESULT:    -4.358      0.000      0.000
REMARK INTER + INTRA:          -4.358
REMARK INTER:                  -4.358
REMARK INTRA:                   0.000
REMARK UNBOUND:                 0.000
REMARK SMILES CC1=CC(=O)[C@H]2C[C@@H]1C2(C)C
REMARK SMILES IDX 1 1 2 2 3 3 4 4 5 5 6 6 7 7 8 8 9 9 10 10 11 11
REMARK H PARENT
REMARK Flexibility Score: inf
ROOT
ATOM      1  C   UNL     1     185.630 183.283 210.110  1.00  0.00     0.040 C 
ATOM      2  C   UNL     1     186.172 183.755 208.799  1.00  0.00    -0.066 C 
ATOM      3  C   UNL     1     186.489 182.879 207.805  1.00  0.00     0.047 C 
ATOM      4  C   UNL     1     187.054 183.475 206.551  1.00  0.00     0.159 C 
ATOM      5  O   UNL     1     187.422 182.767 205.578  1.00  0.00    -0.295 OA
ATOM      6  C   UNL     1     187.152 185.001 206.539  1.00  0.00     0.067 C 
ATOM      7  C   UNL     1     185.790 185.472 207.089  1.00  0.00     0.021 C 
ATOM      8  C   UNL     1     186.383 185.255 208.500  1.00  0.00     0.022 C 
ATOM      9  C   UNL     1     187.793 185.467 207.877  1.00  0.00    -0.019 C 
ATOM     10  C   UNL     1     188.981 184.645 208.452  1.00  0.00     0.012 C 
ATOM     11  C   UNL     1     188.205 186.960 207.845  1.00  0.00     0.012 C 
ENDROOT
TORSDOF 0
ENDMDL
MODEL 2
REMARK VINA RESULT:    -4.096      9.841     11.408
REMARK INTER + INTRA:          -4.096
REMARK INTER:                  -4.096
REMARK INTRA:                   0.000
REMARK UNBOUND:                 0.000
REMARK SMILES CC1=CC(=O)[C@H]2C[C@@H]1C2(C)C
REMARK SMILES IDX 1 1 2 2 3 3 4 4 5 5 6 6 7 7 8 8 9 9 10 10 11 11
REMARK H PARENT
REMARK Flexibility Score: inf
ROOT
ATOM      1  C   UNL     1     183.866 177.286 196.689  1.00  0.00     0.040 C 
ATOM      2  C   UNL     1     184.456 177.692 198.002  1.00  0.00    -0.066 C 
ATOM      3  C   UNL     1     185.516 178.545 198.070  1.00  0.00     0.047 C 
ATOM      4  C   UNL     1     186.035 178.849 199.443  1.00  0.00     0.159 C 
ATOM      5  O   UNL     1     187.034 179.590 199.635  1.00  0.00    -0.295 OA
ATOM      6  C   UNL     1     185.267 178.194 200.592  1.00  0.00     0.067 C 
ATOM      7  C   UNL     1     183.783 178.434 200.241  1.00  0.00     0.021 C 
ATOM      8  C   UNL     1     183.884 177.182 199.342  1.00  0.00     0.022 C 
ATOM      9  C   UNL     1     185.049 176.693 200.251  1.00  0.00    -0.019 C 
ATOM     10  C   UNL     1     186.217 175.909 199.589  1.00  0.00     0.012 C 
ATOM     11  C   UNL     1     184.545 175.878 201.468  1.00  0.00     0.012 C 
ENDROOT
TORSDOF 0
ENDMDL
MODEL 3
REMARK VINA RESULT:    -4.007      1.707      3.004
REMARK INTER + INTRA:          -4.007
REMARK INTER:                  -4.007
REMARK INTRA:                   0.000
REMARK UNBOUND:                 0.000
REMARK SMILES CC1=CC(=O)[C@H]2C[C@@H]1C2(C)C
REMARK SMILES IDX 1 1 2 2 3 3 4 4 5 5 6 6 7 7 8 8 9 9 10 10 11 11
REMARK H PARENT
REMARK Flexibility Score: inf
ROOT
ATOM      1  C   UNL     1     187.491 182.264 205.698  1.00  0.00     0.040 C 
ATOM      2  C   UNL     1     187.299 183.000 206.986  1.00  0.00    -0.066 C 
ATOM      3  C   UNL     1     186.373 182.598 207.901  1.00  0.00     0.047 C 
ATOM      4  C   UNL     1     186.255 183.437 209.137  1.00  0.00     0.159 C 
ATOM      5  O   UNL     1     185.410 183.192 210.037  1.00  0.00    -0.295 OA
ATOM      6  C   UNL     1     187.231 184.611 209.226  1.00  0.00     0.067 C 
ATOM      7  C   UNL     1     188.590 184.005 208.813  1.00  0.00     0.021 C 
ATOM      8  C   UNL     1     188.148 184.236 207.350  1.00  0.00     0.022 C 
ATOM      9  C   UNL     1     187.218 185.370 207.869  1.00  0.00    -0.019 C 
ATOM     10  C   UNL     1     185.853 185.585 207.157  1.00  0.00     0.012 C 
ATOM     11  C   UNL     1     187.944 186.737 207.951  1.00  0.00     0.012 C 
ENDROOT
TORSDOF 0
ENDMDL
MODEL 4
REMARK VINA RESULT:    -3.943      2.020      3.434
REMARK INTER + INTRA:          -3.943
REMARK INTER:                  -3.943
REMARK INTRA:                   0.000
REMARK UNBOUND:                 0.000
REMARK SMILES CC1=CC(=O)[C@H]2C[C@@H]1C2(C)C
REMARK SMILES IDX 1 1 2 2 3 3 4 4 5 5 6 6 7 7 8 8 9 9 10 10 11 11
REMARK H PARENT
REMARK Flexibility Score: inf
ROOT
ATOM      1  C   UNL     1     187.067 185.952 206.586  1.00  0.00     0.040 C 
ATOM      2  C   UNL     1     186.921 184.690 207.375  1.00  0.00    -0.066 C 
ATOM      3  C   UNL     1     186.030 184.594 208.401  1.00  0.00     0.047 C 
ATOM      4  C   UNL     1     186.002 183.287 209.135  1.00  0.00     0.159 C 
ATOM      5  O   UNL     1     185.251 183.088 210.125  1.00  0.00    -0.295 OA
ATOM      6  C   UNL     1     186.951 182.215 208.597  1.00  0.00     0.067 C 
ATOM      7  C   UNL     1     186.747 182.263 207.067  1.00  0.00     0.021 C 
ATOM      8  C   UNL     1     187.758 183.433 207.058  1.00  0.00     0.022 C 
ATOM      9  C   UNL     1     188.350 182.856 208.376  1.00  0.00    -0.019 C 
ATOM     10  C   UNL     1     188.880 183.856 209.442  1.00  0.00     0.012 C 
ATOM     11  C   UNL     1     189.450 181.797 208.115  1.00  0.00     0.012 C 
ENDROOT
TORSDOF 0
ENDMDL
MODEL 5
REMARK VINA RESULT:    -3.888      1.365      3.242
REMARK INTER + INTRA:          -3.888
REMARK INTER:                  -3.888
REMARK INTRA:                   0.000
REMARK UNBOUND:                 0.000
REMARK SMILES CC1=CC(=O)[C@H]2C[C@@H]1C2(C)C
REMARK SMILES IDX 1 1 2 2 3 3 4 4 5 5 6 6 7 7 8 8 9 9 10 10 11 11
REMARK H PARENT
REMARK Flexibility Score: inf
ROOT
ATOM      1  C   UNL     1     189.960 184.711 208.923  1.00  0.00     0.040 C 
ATOM      2  C   UNL     1     188.852 183.863 208.386  1.00  0.00    -0.066 C 
ATOM      3  C   UNL     1     188.730 183.617 207.051  1.00  0.00     0.047 C 
ATOM      4  C   UNL     1     187.559 182.779 206.636  1.00  0.00     0.159 C 
ATOM      5  O   UNL     1     187.316 182.515 205.430  1.00  0.00    -0.295 OA
ATOM      6  C   UNL     1     186.681 182.270 207.780  1.00  0.00     0.067 C 
ATOM      7  C   UNL     1     187.688 181.749 208.827  1.00  0.00     0.021 C 
ATOM      8  C   UNL     1     187.804 183.212 209.314  1.00  0.00     0.022 C 
ATOM      9  C   UNL     1     186.379 183.456 208.739  1.00  0.00    -0.019 C 
ATOM     10  C   UNL     1     186.066 184.846 208.117  1.00  0.00     0.012 C 
ATOM     11  C   UNL     1     185.265 183.119 209.761  1.00  0.00     0.012 C 
ENDROOT
TORSDOF 0
ENDMDL
MODEL 6
REMARK VINA RESULT:    -3.836      1.968      3.260
REMARK INTER + INTRA:          -3.836
REMARK INTER:                  -3.836
REMARK INTRA:                   0.000
REMARK UNBOUND:                 0.000
REMARK SMILES CC1=CC(=O)[C@H]2C[C@@H]1C2(C)C
REMARK SMILES IDX 1 1 2 2 3 3 4 4 5 5 6 6 7 7 8 8 9 9 10 10 11 11
REMARK H PARENT
REMARK Flexibility Score: inf
ROOT
ATOM      1  C   UNL     1     185.288 183.123 209.738  1.00  0.00     0.040 C 
ATOM      2  C   UNL     1     186.600 183.121 209.020  1.00  0.00    -0.066 C 
ATOM      3  C   UNL     1     187.643 183.886 209.446  1.00  0.00     0.047 C 
ATOM      4  C   UNL     1     188.894 183.820 208.622  1.00  0.00     0.159 C 
ATOM      5  O   UNL     1     189.912 184.510 208.889  1.00  0.00    -0.295 OA
ATOM      6  C   UNL     1     188.844 182.859 207.434  1.00  0.00     0.067 C 
ATOM      7  C   UNL     1     188.216 181.573 208.013  1.00  0.00     0.021 C 
ATOM      8  C   UNL     1     186.843 182.242 207.774  1.00  0.00     0.022 C 
ATOM      9  C   UNL     1     187.516 183.094 206.660  1.00  0.00    -0.019 C 
ATOM     10  C   UNL     1     187.029 184.557 206.459  1.00  0.00     0.012 C 
ATOM     11  C   UNL     1     187.501 182.384 205.283  1.00  0.00     0.012 C 
ENDROOT
TORSDOF 0
ENDMDL
MODEL 7
REMARK VINA RESULT:    -3.798      1.803      2.460
REMARK INTER + INTRA:          -3.798
REMARK INTER:                  -3.798
REMARK INTRA:                   0.000
REMARK UNBOUND:                 0.000
REMARK SMILES CC1=CC(=O)[C@H]2C[C@@H]1C2(C)C
REMARK SMILES IDX 1 1 2 2 3 3 4 4 5 5 6 6 7 7 8 8 9 9 10 10 11 11
REMARK H PARENT
REMARK Flexibility Score: inf
ROOT
ATOM      1  C   UNL     1     187.465 181.158 210.090  1.00  0.00     0.040 C 
ATOM      2  C   UNL     1     187.728 182.120 208.976  1.00  0.00    -0.066 C 
ATOM      3  C   UNL     1     188.994 182.375 208.542  1.00  0.00     0.047 C 
ATOM      4  C   UNL     1     189.127 183.383 207.441  1.00  0.00     0.159 C 
ATOM      5  O   UNL     1     190.246 183.732 206.982  1.00  0.00    -0.295 OA
ATOM      6  C   UNL     1     187.810 183.957 206.917  1.00  0.00     0.067 C 
ATOM      7  C   UNL     1     186.900 182.722 206.746  1.00  0.00     0.021 C 
ATOM      8  C   UNL     1     186.581 182.858 208.252  1.00  0.00     0.022 C 
ATOM      9  C   UNL     1     186.931 184.369 208.131  1.00  0.00    -0.019 C 
ATOM     10  C   UNL     1     187.621 185.063 209.340  1.00  0.00     0.012 C 
ATOM     11  C   UNL     1     185.710 185.226 207.712  1.00  0.00     0.012 C 
ENDROOT
TORSDOF 0
ENDMDL
MODEL 8
REMARK VINA RESULT:    -3.748      2.154      3.808
REMARK INTER + INTRA:          -3.748
REMARK INTER:                  -3.748
REMARK INTRA:                   0.000
REMARK UNBOUND:                 0.000
REMARK SMILES CC1=CC(=O)[C@H]2C[C@@H]1C2(C)C
REMARK SMILES IDX 1 1 2 2 3 3 4 4 5 5 6 6 7 7 8 8 9 9 10 10 11 11
REMARK H PARENT
REMARK Flexibility Score: inf
ROOT
ATOM      1  C   UNL     1     187.499 182.683 205.180  1.00  0.00     0.040 C 
ATOM      2  C   UNL     1     187.432 183.016 206.636  1.00  0.00    -0.066 C 
ATOM      3  C   UNL     1     187.710 184.269 207.091  1.00  0.00     0.047 C 
ATOM      4  C   UNL     1     187.639 184.467 208.575  1.00  0.00     0.159 C 
ATOM      5  O   UNL     1     187.912 185.568 209.120  1.00  0.00    -0.295 OA
ATOM      6  C   UNL     1     187.213 183.238 209.379  1.00  0.00     0.067 C 
ATOM      7  C   UNL     1     186.003 182.678 208.601  1.00  0.00     0.021 C 
ATOM      8  C   UNL     1     187.030 181.964 207.692  1.00  0.00     0.022 C 
ATOM      9  C   UNL     1     188.032 182.013 208.881  1.00  0.00    -0.019 C 
ATOM     10  C   UNL     1     189.540 182.213 208.563  1.00  0.00     0.012 C 
ATOM     11  C   UNL     1     187.892 180.789 209.821  1.00  0.00     0.012 C 
ENDROOT
TORSDOF 0
ENDMDL
MODEL 9
REMARK VINA RESULT:    -3.733      1.859      2.335
REMARK INTER + INTRA:          -3.733
REMARK INTER:                  -3.733
REMARK INTRA:                   0.000
REMARK UNBOUND:                 0.000
REMARK SMILES CC1=CC(=O)[C@H]2C[C@@H]1C2(C)C
REMARK SMILES IDX 1 1 2 2 3 3 4 4 5 5 6 6 7 7 8 8 9 9 10 10 11 11
REMARK H PARENT
REMARK Flexibility Score: inf
ROOT
ATOM      1  C   UNL     1     185.554 183.027 209.734  1.00  0.00     0.040 C 
ATOM      2  C   UNL     1     186.638 182.729 208.747  1.00  0.00    -0.066 C 
ATOM      3  C   UNL     1     187.503 181.694 208.935  1.00  0.00     0.047 C 
ATOM      4  C   UNL     1     188.564 181.520 207.891  1.00  0.00     0.159 C 
ATOM      5  O   UNL     1     189.446 180.625 207.971  1.00  0.00    -0.295 OA
ATOM      6  C   UNL     1     188.501 182.505 206.723  1.00  0.00     0.067 C 
ATOM      7  C   UNL     1     187.008 182.531 206.331  1.00  0.00     0.021 C 
ATOM      8  C   UNL     1     186.819 183.566 207.463  1.00  0.00     0.022 C 
ATOM      9  C   UNL     1     188.320 183.940 207.294  1.00  0.00    -0.019 C 
ATOM     10  C   UNL     1     189.126 184.336 208.564  1.00  0.00     0.012 C 
ATOM     11  C   UNL     1     188.538 185.035 206.220  1.00  0.00     0.012 C 
ENDROOT
TORSDOF 0
ENDMDL
