MODEL 1
REMARK VINA RESULT:    -4.194      0.000      0.000
REMARK INTER + INTRA:          -4.194
REMARK INTER:                  -4.194
REMARK INTRA:                   0.000
REMARK UNBOUND:                 0.000
REMARK SMILES CC1=CC[C@@H]2C[C@H]1C2(C)C
REMARK SMILES IDX 1 1 2 2 3 3 4 4 5 5 6 6 7 7 8 8 9 9 10 10
REMARK H PARENT
REMARK Flexibility Score: inf
ROOT
ATOM      1  C   UNL     1      29.055  10.766  33.646  1.00  0.00     0.039 C 
ATOM      2  C   UNL     1      30.472  10.402  33.318  1.00  0.00    -0.074 C 
ATOM      3  C   UNL     1      30.903   9.107  33.359  1.00  0.00    -0.027 C 
ATOM      4  C   UNL     1      32.365   8.800  32.981  1.00  0.00     0.031 C 
ATOM      5  C   UNL     1      33.125  10.130  32.644  1.00  0.00    -0.000 C 
ATOM      6  C   UNL     1      32.761  11.116  33.773  1.00  0.00     0.013 C 
ATOM      7  C   UNL     1      31.513  11.465  32.938  1.00  0.00     0.021 C 
ATOM      8  C   UNL     1      32.283  11.002  31.673  1.00  0.00    -0.026 C 
ATOM      9  C   UNL     1      33.115  12.144  31.039  1.00  0.00     0.012 C 
ATOM     10  C   UNL     1      31.483  10.296  30.540  1.00  0.00     0.012 C 
ENDROOT
TORSDOF 0
ENDMDL
MODEL 2
REMARK VINA RESULT:    -4.135      1.736      3.794
REMARK INTER + INTRA:          -4.135
REMARK INTER:                  -4.135
REMARK INTRA:                   0.000
REMARK UNBOUND:                 0.000
REMARK SMILES CC1=CC[C@@H]2C[C@H]1C2(C)C
REMARK SMILES IDX 1 1 2 2 3 3 4 4 5 5 6 6 7 7 8 8 9 9 10 10
REMARK H PARENT
REMARK Flexibility Score: inf
ROOT
ATOM      1  C   UNL     1      32.375  11.135  27.752  1.00  0.00     0.039 C 
ATOM      2  C   UNL     1      31.917  11.481  29.137  1.00  0.00    -0.074 C 
ATOM      3  C   UNL     1      30.641  11.904  29.380  1.00  0.00    -0.027 C 
ATOM      4  C   UNL     1      30.227  12.214  30.831  1.00  0.00     0.031 C 
ATOM      5  C   UNL     1      31.447  12.009  31.795  1.00  0.00    -0.000 C 
ATOM      6  C   UNL     1      32.639  12.714  31.115  1.00  0.00     0.013 C 
ATOM      7  C   UNL     1      32.858  11.396  30.346  1.00  0.00     0.021 C 
ATOM      8  C   UNL     1      32.142  10.651  31.505  1.00  0.00    -0.026 C 
ATOM      9  C   UNL     1      33.121  10.241  32.634  1.00  0.00     0.012 C 
ATOM     10  C   UNL     1      31.258   9.421  31.155  1.00  0.00     0.012 C 
ENDROOT
TORSDOF 0
ENDMDL
MODEL 3
REMARK VINA RESULT:    -4.127      0.876      2.701
REMARK INTER + INTRA:          -4.127
REMARK INTER:                  -4.127
REMARK INTRA:                   0.000
REMARK UNBOUND:                 0.000
REMARK SMILES CC1=CC[C@@H]2C[C@H]1C2(C)C
REMARK SMILES IDX 1 1 2 2 3 3 4 4 5 5 6 6 7 7 8 8 9 9 10 10
REMARK H PARENT
REMARK Flexibility Score: inf
ROOT
ATOM      1  C   UNL     1      32.294   7.308  33.010  1.00  0.00     0.039 C 
ATOM      2  C   UNL     1      31.685   8.672  32.876  1.00  0.00    -0.074 C 
ATOM      3  C   UNL     1      30.753   9.125  33.765  1.00  0.00    -0.027 C 
ATOM      4  C   UNL     1      30.189  10.548  33.587  1.00  0.00     0.031 C 
ATOM      5  C   UNL     1      30.808  11.216  32.310  1.00  0.00    -0.000 C 
ATOM      6  C   UNL     1      30.716  10.154  31.196  1.00  0.00     0.013 C 
ATOM      7  C   UNL     1      32.060   9.617  31.726  1.00  0.00     0.021 C 
ATOM      8  C   UNL     1      32.350  11.031  32.297  1.00  0.00    -0.026 C 
ATOM      9  C   UNL     1      33.043  11.953  31.263  1.00  0.00     0.012 C 
ATOM     10  C   UNL     1      33.125  11.139  33.642  1.00  0.00     0.012 C 
ENDROOT
TORSDOF 0
ENDMDL
MODEL 4
REMARK VINA RESULT:    -4.036      1.075      3.099
REMARK INTER + INTRA:          -4.036
REMARK INTER:                  -4.036
REMARK INTRA:                   0.000
REMARK UNBOUND:                 0.000
REMARK SMILES CC1=CC[C@@H]2C[C@H]1C2(C)C
REMARK SMILES IDX 1 1 2 2 3 3 4 4 5 5 6 6 7 7 8 8 9 9 10 10
REMARK H PARENT
REMARK Flexibility Score: inf
ROOT
ATOM      1  C   UNL     1      30.865   8.725  29.911  1.00  0.00     0.039 C 
ATOM      2  C   UNL     1      31.547   9.624  30.899  1.00  0.00    -0.074 C 
ATOM      3  C   UNL     1      32.117  10.803  30.512  1.00  0.00    -0.027 C 
ATOM      4  C   UNL     1      32.775  11.694  31.584  1.00  0.00     0.031 C 
ATOM      5  C   UNL     1      32.689  11.001  32.987  1.00  0.00    -0.000 C 
ATOM      6  C   UNL     1      33.125   9.539  32.758  1.00  0.00     0.013 C 
ATOM      7  C   UNL     1      31.656   9.259  32.386  1.00  0.00     0.021 C 
ATOM      8  C   UNL     1      31.248  10.484  33.248  1.00  0.00    -0.026 C 
ATOM      9  C   UNL     1      31.019  10.108  34.733  1.00  0.00     0.012 C 
ATOM     10  C   UNL     1      30.048  11.352  32.774  1.00  0.00     0.012 C 
ENDROOT
TORSDOF 0
ENDMDL
MODEL 5
REMARK VINA RESULT:    -4.020      1.133      2.882
REMARK INTER + INTRA:          -4.020
REMARK INTER:                  -4.020
REMARK INTRA:                   0.000
REMARK UNBOUND:                 0.000
REMARK SMILES CC1=CC[C@@H]2C[C@H]1C2(C)C
REMARK SMILES IDX 1 1 2 2 3 3 4 4 5 5 6 6 7 7 8 8 9 9 10 10
REMARK H PARENT
REMARK Flexibility Score: inf
ROOT
ATOM      1  C   UNL     1      28.987  11.495  32.599  1.00  0.00     0.039 C 
ATOM      2  C   UNL     1      30.409  11.025  32.687  1.00  0.00    -0.074 C 
ATOM      3  C   UNL     1      31.397  11.833  33.172  1.00  0.00    -0.027 C 
ATOM      4  C   UNL     1      32.831  11.276  33.263  1.00  0.00     0.031 C 
ATOM      5  C   UNL     1      32.877   9.812  32.704  1.00  0.00    -0.000 C 
ATOM      6  C   UNL     1      32.096   9.848  31.374  1.00  0.00     0.013 C 
ATOM      7  C   UNL     1      30.828   9.624  32.222  1.00  0.00     0.021 C 
ATOM      8  C   UNL     1      31.722   8.967  33.307  1.00  0.00    -0.026 C 
ATOM      9  C   UNL     1      31.919   7.449  33.068  1.00  0.00     0.012 C 
ATOM     10  C   UNL     1      31.345   9.180  34.801  1.00  0.00     0.012 C 
ENDROOT
TORSDOF 0
ENDMDL
MODEL 6
REMARK VINA RESULT:    -3.985      1.753      3.145
REMARK INTER + INTRA:          -3.985
REMARK INTER:                  -3.985
REMARK INTRA:                   0.000
REMARK UNBOUND:                 0.000
REMARK SMILES CC1=CC[C@@H]2C[C@H]1C2(C)C
REMARK SMILES IDX 1 1 2 2 3 3 4 4 5 5 6 6 7 7 8 8 9 9 10 10
REMARK H PARENT
REMARK Flexibility Score: inf
ROOT
ATOM      1  C   UNL     1      32.983  11.129  33.535  1.00  0.00     0.039 C 
ATOM      2  C   UNL     1      32.129   9.897  33.511  1.00  0.00    -0.074 C 
ATOM      3  C   UNL     1      31.249   9.621  34.518  1.00  0.00    -0.027 C 
ATOM      4  C   UNL     1      30.379   8.352  34.415  1.00  0.00     0.031 C 
ATOM      5  C   UNL     1      30.734   7.560  33.109  1.00  0.00    -0.000 C 
ATOM      6  C   UNL     1      32.275   7.502  33.061  1.00  0.00     0.013 C 
ATOM      7  C   UNL     1      32.212   8.877  32.367  1.00  0.00     0.021 C 
ATOM      8  C   UNL     1      30.778   8.521  31.890  1.00  0.00    -0.026 C 
ATOM      9  C   UNL     1      30.779   7.758  30.541  1.00  0.00     0.012 C 
ATOM     10  C   UNL     1      29.725   9.663  31.802  1.00  0.00     0.012 C 
ENDROOT
TORSDOF 0
ENDMDL
MODEL 7
REMARK VINA RESULT:    -3.968      1.147      2.984
REMARK INTER + INTRA:          -3.968
REMARK INTER:                  -3.968
REMARK INTRA:                   0.000
REMARK UNBOUND:                 0.000
REMARK SMILES CC1=CC[C@@H]2C[C@H]1C2(C)C
REMARK SMILES IDX 1 1 2 2 3 3 4 4 5 5 6 6 7 7 8 8 9 9 10 10
REMARK H PARENT
REMARK Flexibility Score: inf
ROOT
ATOM      1  C   UNL     1      32.103   7.373  33.073  1.00  0.00     0.039 C 
ATOM      2  C   UNL     1      32.022   8.863  33.218  1.00  0.00    -0.074 C 
ATOM      3  C   UNL     1      32.862   9.692  32.529  1.00  0.00    -0.027 C 
ATOM      4  C   UNL     1      32.705  11.215  32.702  1.00  0.00     0.031 C 
ATOM      5  C   UNL     1      31.567  11.526  33.735  1.00  0.00    -0.000 C 
ATOM      6  C   UNL     1      31.823  10.588  34.933  1.00  0.00     0.013 C 
ATOM      7  C   UNL     1      31.010   9.532  34.159  1.00  0.00     0.021 C 
ATOM      8  C   UNL     1      30.299  10.690  33.410  1.00  0.00    -0.026 C 
ATOM      9  C   UNL     1      29.049  11.202  34.168  1.00  0.00     0.012 C 
ATOM     10  C   UNL     1      29.910  10.476  31.919  1.00  0.00     0.012 C 
ENDROOT
TORSDOF 0
ENDMDL
MODEL 8
REMARK VINA RESULT:    -3.939      1.320      3.654
REMARK INTER + INTRA:          -3.939
REMARK INTER:                  -3.939
REMARK INTRA:                   0.000
REMARK UNBOUND:                 0.000
REMARK SMILES CC1=CC[C@@H]2C[C@H]1C2(C)C
REMARK SMILES IDX 1 1 2 2 3 3 4 4 5 5 6 6 7 7 8 8 9 9 10 10
REMARK H PARENT
REMARK Flexibility Score: inf
ROOT
ATOM      1  C   UNL     1      33.118  11.125  33.642  1.00  0.00     0.039 C 
ATOM      2  C   UNL     1      32.121  10.209  32.997  1.00  0.00    -0.074 C 
ATOM      3  C   UNL     1      32.077  10.048  31.641  1.00  0.00    -0.027 C 
ATOM      4  C   UNL     1      31.047   9.068  31.045  1.00  0.00     0.031 C 
ATOM      5  C   UNL     1      30.172   8.445  32.188  1.00  0.00    -0.000 C 
ATOM      6  C   UNL     1      29.752   9.628  33.084  1.00  0.00     0.013 C 
ATOM      7  C   UNL     1      31.091   9.424  33.820  1.00  0.00     0.021 C 
ATOM      8  C   UNL     1      31.075   7.945  33.348  1.00  0.00    -0.026 C 
ATOM      9  C   UNL     1      30.311   7.022  34.330  1.00  0.00     0.012 C 
ATOM     10  C   UNL     1      32.431   7.268  32.999  1.00  0.00     0.012 C 
ENDROOT
TORSDOF 0
ENDMDL
