MODEL 1
REMARK VINA RESULT:    -6.390      0.000      0.000
REMARK INTER + INTRA:          -6.693
REMARK INTER:                  -6.951
REMARK INTRA:                   0.258
REMARK UNBOUND:                 0.258
REMARK SMILES C[C@@H]1[C@@H](C)CC[C@@]2(C(=O)[O-])CC[C@@]3(C)C(=CC[C@@H]4[C@]5(C)CC[C@@H](O)C(C)(C)[C@@H]5CC[C@]43C)[C@@H]12
REMARK SMILES IDX 7 1 6 2 11 3 33 4 5 5 12 6 15 7 2 8 3 9 13 10 16 11 1 12
REMARK SMILES IDX 4 13 14 14 31 15 17 16 18 17 30 18 32 19 19 20 29 21 28 22
REMARK SMILES IDX 21 23 20 24 25 25 22 26 23 27 26 28 27 29 8 30 9 31 10 32
REMARK SMILES IDX 24 33
REMARK H PARENT 24 34
REMARK Flexibility Score: inf
ROOT
ATOM      1  C   UNL     1      -6.626  64.298   4.994  1.00  0.00     0.017 C 
ATOM      2  C   UNL     1      -7.379  64.938   3.779  1.00  0.00     0.014 C 
ATOM      3  C   UNL     1      -5.127  64.714   4.884  1.00  0.00     0.014 C 
ATOM      4  C   UNL     1      -7.305  64.749   6.348  1.00  0.00     0.030 C 
ATOM      5  C   UNL     1      -8.886  65.037   4.031  1.00  0.00     0.004 C 
ATOM      6  C   UNL     1      -4.291  64.489   6.159  1.00  0.00     0.013 C 
ATOM      7  C   UNL     1      -6.352  64.616   7.549  1.00  0.00    -0.063 C 
ATOM      8  C   UNL     1      -8.067  66.109   6.256  1.00  0.00    -0.003 C 
ATOM      9  C   UNL     1      -9.200  66.041   5.171  1.00  0.00    -0.011 C 
ATOM     10  C   UNL     1      -4.895  65.138   7.449  1.00  0.00    -0.006 C 
ATOM     11  C   UNL     1      -6.779  63.824   8.572  1.00  0.00    -0.027 C 
ATOM     12  C   UNL     1      -8.670  66.509   7.619  1.00  0.00     0.008 C 
ATOM     13  C   UNL     1      -9.489  67.436   4.590  1.00  0.00     0.008 C 
ATOM     14  C   UNL     1      -4.909  66.689   7.242  1.00  0.00     0.017 C 
ATOM     15  C   UNL     1      -4.051  64.774   8.788  1.00  0.00    -0.020 C 
ATOM     16  C   UNL     1      -5.889  63.217   9.624  1.00  0.00     0.032 C 
ATOM     17  C   UNL     1      -4.412  63.278   9.192  1.00  0.00     0.006 C 
ATOM     18  C   UNL     1      -2.505  64.929   8.606  1.00  0.00     0.008 C 
ATOM     19  C   UNL     1      -4.435  65.798   9.920  1.00  0.00     0.012 C 
ATOM     20  C   UNL     1      -3.388  62.460  10.103  1.00  0.00    -0.025 C 
ATOM     21  C   UNL     1      -1.794  63.610   8.349  1.00  0.00     0.005 C 
ATOM     22  C   UNL     1      -1.875  62.650   9.572  1.00  0.00     0.003 C 
ATOM     23  C   UNL     1      -3.639  62.804  11.612  1.00  0.00     0.010 C 
ATOM     24  C   UNL     1      -3.717  60.937   9.959  1.00  0.00     0.012 C 
ATOM     25  C   UNL     1      -0.708  62.778  10.667  1.00  0.00    -0.006 C 
ATOM     26  C   UNL     1      -2.453  62.603  12.531  1.00  0.00     0.033 C 
ATOM     27  C   UNL     1      -1.247  63.378  11.999  1.00  0.00     0.120 C 
ATOM     28  C   UNL     1       0.473  63.675  10.203  1.00  0.00     0.014 C 
ATOM     29  C   UNL     1      -0.084  61.371  10.916  1.00  0.00     0.014 C 
ENDROOT
BRANCH   1  30
ATOM     30  C   UNL     1      -6.694  62.771   4.902  1.00  0.00     0.048 C 
ATOM     31  O   UNL     1      -7.521  62.218   4.129  1.00  0.00    -0.550 OA
ATOM     32  O   UNL     1      -5.879  61.961   5.687  1.00  0.00    -0.550 OA
ENDBRANCH   1  30
BRANCH  27  33
ATOM     33  O   UNL     1      -0.241  63.475  12.983  1.00  0.00    -0.393 OA
ATOM     34  H   UNL     1      -0.175  64.420  13.278  1.00  0.00     0.210 HD
ENDBRANCH  27  33
TORSDOF 2
ENDMDL
MODEL 2
REMARK VINA RESULT:    -5.687      2.059      7.824
REMARK INTER + INTRA:          -5.928
REMARK INTER:                  -5.665
REMARK INTRA:                  -0.263
REMARK UNBOUND:                 0.258
REMARK SMILES C[C@@H]1[C@@H](C)CC[C@@]2(C(=O)[O-])CC[C@@]3(C)C(=CC[C@@H]4[C@]5(C)CC[C@@H](O)C(C)(C)[C@@H]5CC[C@]43C)[C@@H]12
REMARK SMILES IDX 7 1 6 2 11 3 33 4 5 5 12 6 15 7 2 8 3 9 13 10 16 11 1 12
REMARK SMILES IDX 4 13 14 14 31 15 17 16 18 17 30 18 32 19 19 20 29 21 28 22
REMARK SMILES IDX 21 23 20 24 25 25 22 26 23 27 26 28 27 29 8 30 9 31 10 32
REMARK SMILES IDX 24 33
REMARK H PARENT 24 34
REMARK Flexibility Score: inf
ROOT
ATOM      1  C   UNL     1      -4.181  61.835  10.165  1.00  0.00     0.017 C 
ATOM      2  C   UNL     1      -3.348  61.365  11.405  1.00  0.00     0.014 C 
ATOM      3  C   UNL     1      -5.251  62.845  10.679  1.00  0.00     0.014 C 
ATOM      4  C   UNL     1      -3.218  62.444   9.069  1.00  0.00     0.030 C 
ATOM      5  C   UNL     1      -1.989  60.793  10.994  1.00  0.00     0.004 C 
ATOM      6  C   UNL     1      -5.935  63.688   9.584  1.00  0.00     0.013 C 
ATOM      7  C   UNL     1      -3.962  63.379   8.098  1.00  0.00    -0.063 C 
ATOM      8  C   UNL     1      -1.880  63.012   9.640  1.00  0.00    -0.003 C 
ATOM      9  C   UNL     1      -1.076  61.892  10.390  1.00  0.00    -0.011 C 
ATOM     10  C   UNL     1      -4.942  64.450   8.645  1.00  0.00    -0.006 C 
ATOM     11  C   UNL     1      -3.891  63.055   6.777  1.00  0.00    -0.027 C 
ATOM     12  C   UNL     1      -1.009  63.626   8.524  1.00  0.00     0.008 C 
ATOM     13  C   UNL     1      -0.177  62.499  11.481  1.00  0.00     0.008 C 
ATOM     14  C   UNL     1      -4.154  65.482   9.518  1.00  0.00     0.017 C 
ATOM     15  C   UNL     1      -5.695  65.225   7.432  1.00  0.00    -0.020 C 
ATOM     16  C   UNL     1      -4.842  63.543   5.716  1.00  0.00     0.032 C 
ATOM     17  C   UNL     1      -6.114  64.135   6.352  1.00  0.00     0.006 C 
ATOM     18  C   UNL     1      -6.949  66.035   7.901  1.00  0.00     0.008 C 
ATOM     19  C   UNL     1      -4.714  66.300   6.833  1.00  0.00     0.012 C 
ATOM     20  C   UNL     1      -7.303  64.472   5.341  1.00  0.00    -0.025 C 
ATOM     21  C   UNL     1      -8.262  65.312   7.648  1.00  0.00     0.005 C 
ATOM     22  C   UNL     1      -8.550  65.131   6.128  1.00  0.00     0.003 C 
ATOM     23  C   UNL     1      -6.743  65.290   4.127  1.00  0.00     0.010 C 
ATOM     24  C   UNL     1      -7.824  63.127   4.737  1.00  0.00     0.012 C 
ATOM     25  C   UNL     1      -9.353  66.316   5.400  1.00  0.00    -0.006 C 
ATOM     26  C   UNL     1      -7.750  66.164   3.410  1.00  0.00     0.033 C 
ATOM     27  C   UNL     1      -8.435  67.095   4.412  1.00  0.00     0.120 C 
ATOM     28  C   UNL     1      -9.946  67.354   6.392  1.00  0.00     0.014 C 
ATOM     29  C   UNL     1     -10.580  65.717   4.648  1.00  0.00     0.014 C 
ENDROOT
BRANCH   1  30
ATOM     30  C   UNL     1      -4.921  60.643   9.553  1.00  0.00     0.048 C 
ATOM     31  O   UNL     1      -4.392  59.978   8.622  1.00  0.00    -0.550 OA
ATOM     32  O   UNL     1      -6.197  60.287   9.976  1.00  0.00    -0.550 OA
ENDBRANCH   1  30
BRANCH  27  33
ATOM     33  O   UNL     1      -9.128  68.125   3.744  1.00  0.00    -0.393 OA
ATOM     34  H   UNL     1      -8.678  68.987   3.936  1.00  0.00     0.210 HD
ENDBRANCH  27  33
TORSDOF 2
ENDMDL
MODEL 3
REMARK VINA RESULT:    -5.646      7.590     12.955
REMARK INTER + INTRA:          -5.884
REMARK INTER:                  -5.638
REMARK INTRA:                  -0.246
REMARK UNBOUND:                 0.258
REMARK SMILES C[C@@H]1[C@@H](C)CC[C@@]2(C(=O)[O-])CC[C@@]3(C)C(=CC[C@@H]4[C@]5(C)CC[C@@H](O)C(C)(C)[C@@H]5CC[C@]43C)[C@@H]12
REMARK SMILES IDX 7 1 6 2 11 3 33 4 5 5 12 6 15 7 2 8 3 9 13 10 16 11 1 12
REMARK SMILES IDX 4 13 14 14 31 15 17 16 18 17 30 18 32 19 19 20 29 21 28 22
REMARK SMILES IDX 21 23 20 24 25 25 22 26 23 27 26 28 27 29 8 30 9 31 10 32
REMARK SMILES IDX 24 33
REMARK H PARENT 24 34
REMARK Flexibility Score: inf
ROOT
ATOM      1  C   UNL     1       3.251  52.986   8.889  1.00  0.00     0.017 C 
ATOM      2  C   UNL     1       3.737  51.584   8.388  1.00  0.00     0.014 C 
ATOM      3  C   UNL     1       1.759  53.140   8.465  1.00  0.00     0.014 C 
ATOM      4  C   UNL     1       3.477  53.108  10.449  1.00  0.00     0.030 C 
ATOM      5  C   UNL     1       4.974  51.104   9.150  1.00  0.00     0.004 C 
ATOM      6  C   UNL     1       0.996  54.284   9.164  1.00  0.00     0.013 C 
ATOM      7  C   UNL     1       2.577  54.183  11.084  1.00  0.00    -0.063 C 
ATOM      8  C   UNL     1       3.501  51.738  11.199  1.00  0.00    -0.003 C 
ATOM      9  C   UNL     1       4.641  50.817  10.637  1.00  0.00    -0.011 C 
ATOM     10  C   UNL     1       1.068  54.246  10.727  1.00  0.00    -0.006 C 
ATOM     11  C   UNL     1       3.213  55.180  11.759  1.00  0.00    -0.027 C 
ATOM     12  C   UNL     1       3.684  51.932  12.718  1.00  0.00     0.008 C 
ATOM     13  C   UNL     1       4.291  49.331  10.830  1.00  0.00     0.008 C 
ATOM     14  C   UNL     1       0.362  52.935  11.207  1.00  0.00     0.017 C 
ATOM     15  C   UNL     1       0.358  55.532  11.419  1.00  0.00    -0.020 C 
ATOM     16  C   UNL     1       2.611  56.520  12.090  1.00  0.00     0.032 C 
ATOM     17  C   UNL     1       1.343  56.771  11.254  1.00  0.00     0.006 C 
ATOM     18  C   UNL     1      -1.044  55.867  10.808  1.00  0.00     0.008 C 
ATOM     19  C   UNL     1       0.078  55.201  12.931  1.00  0.00     0.012 C 
ATOM     20  C   UNL     1       0.740  58.248  11.334  1.00  0.00    -0.025 C 
ATOM     21  C   UNL     1      -1.004  57.004   9.799  1.00  0.00     0.005 C 
ATOM     22  C   UNL     1      -0.610  58.360  10.455  1.00  0.00     0.003 C 
ATOM     23  C   UNL     1       0.626  58.686  12.834  1.00  0.00     0.010 C 
ATOM     24  C   UNL     1       1.770  59.230  10.685  1.00  0.00     0.012 C 
ATOM     25  C   UNL     1      -1.810  59.254  11.038  1.00  0.00    -0.006 C 
ATOM     26  C   UNL     1      -0.413  59.748  13.125  1.00  0.00     0.033 C 
ATOM     27  C   UNL     1      -1.776  59.299  12.594  1.00  0.00     0.120 C 
ATOM     28  C   UNL     1      -3.216  58.738  10.624  1.00  0.00     0.014 C 
ATOM     29  C   UNL     1      -1.710  60.693  10.448  1.00  0.00     0.014 C 
ENDROOT
BRANCH   1  30
ATOM     30  C   UNL     1       4.050  54.092   8.195  1.00  0.00     0.048 C 
ATOM     31  O   UNL     1       4.970  54.692   8.812  1.00  0.00    -0.550 OA
ATOM     32  O   UNL     1       3.762  54.486   6.893  1.00  0.00    -0.550 OA
ENDBRANCH   1  30
BRANCH  27  33
ATOM     33  O   UNL     1      -2.808  60.100  13.125  1.00  0.00    -0.393 OA
ATOM     34  H   UNL     1      -3.442  59.517  13.617  1.00  0.00     0.210 HD
ENDBRANCH  27  33
TORSDOF 2
ENDMDL
MODEL 4
REMARK VINA RESULT:    -5.568      9.108     14.087
REMARK INTER + INTRA:          -5.798
REMARK INTER:                  -5.530
REMARK INTRA:                  -0.268
REMARK UNBOUND:                 0.258
REMARK SMILES C[C@@H]1[C@@H](C)CC[C@@]2(C(=O)[O-])CC[C@@]3(C)C(=CC[C@@H]4[C@]5(C)CC[C@@H](O)C(C)(C)[C@@H]5CC[C@]43C)[C@@H]12
REMARK SMILES IDX 7 1 6 2 11 3 33 4 5 5 12 6 15 7 2 8 3 9 13 10 16 11 1 12
REMARK SMILES IDX 4 13 14 14 31 15 17 16 18 17 30 18 32 19 19 20 29 21 28 22
REMARK SMILES IDX 21 23 20 24 25 25 22 26 23 27 26 28 27 29 8 30 9 31 10 32
REMARK SMILES IDX 24 33
REMARK H PARENT 24 34
REMARK Flexibility Score: inf
ROOT
ATOM      1  C   UNL     1       3.599  50.673  10.168  1.00  0.00     0.017 C 
ATOM      2  C   UNL     1       4.722  49.594  10.007  1.00  0.00     0.014 C 
ATOM      3  C   UNL     1       4.085  51.693  11.244  1.00  0.00     0.014 C 
ATOM      4  C   UNL     1       3.287  51.339   8.769  1.00  0.00     0.030 C 
ATOM      5  C   UNL     1       4.613  48.853   8.673  1.00  0.00     0.004 C 
ATOM      6  C   UNL     1       3.295  53.016  11.294  1.00  0.00     0.013 C 
ATOM      7  C   UNL     1       2.619  52.717   8.918  1.00  0.00    -0.063 C 
ATOM      8  C   UNL     1       4.475  51.285   7.758  1.00  0.00    -0.003 C 
ATOM      9  C   UNL     1       4.902  49.800   7.479  1.00  0.00    -0.011 C 
ATOM     10  C   UNL     1       3.189  53.755   9.919  1.00  0.00    -0.006 C 
ATOM     11  C   UNL     1       1.405  52.867   8.318  1.00  0.00    -0.027 C 
ATOM     12  C   UNL     1       4.117  51.986   6.431  1.00  0.00     0.008 C 
ATOM     13  C   UNL     1       6.386  49.721   7.081  1.00  0.00     0.008 C 
ATOM     14  C   UNL     1       4.635  54.163   9.483  1.00  0.00     0.017 C 
ATOM     15  C   UNL     1       2.248  55.077   9.989  1.00  0.00    -0.020 C 
ATOM     16  C   UNL     1       0.397  53.932   8.660  1.00  0.00     0.032 C 
ATOM     17  C   UNL     1       0.734  54.589  10.012  1.00  0.00     0.006 C 
ATOM     18  C   UNL     1       2.545  55.983  11.230  1.00  0.00     0.008 C 
ATOM     19  C   UNL     1       2.555  55.982   8.739  1.00  0.00     0.012 C 
ATOM     20  C   UNL     1      -0.380  55.567  10.605  1.00  0.00    -0.025 C 
ATOM     21  C   UNL     1       1.563  55.779  12.373  1.00  0.00     0.005 C 
ATOM     22  C   UNL     1       0.119  56.224  11.993  1.00  0.00     0.003 C 
ATOM     23  C   UNL     1      -0.843  56.569   9.493  1.00  0.00     0.010 C 
ATOM     24  C   UNL     1      -1.643  54.711  10.952  1.00  0.00     0.012 C 
ATOM     25  C   UNL     1      -0.260  57.759  12.273  1.00  0.00    -0.006 C 
ATOM     26  C   UNL     1      -1.419  57.877   9.994  1.00  0.00     0.033 C 
ATOM     27  C   UNL     1      -0.426  58.551  10.943  1.00  0.00     0.120 C 
ATOM     28  C   UNL     1       0.803  58.507  13.125  1.00  0.00     0.014 C 
ATOM     29  C   UNL     1      -1.573  57.817  13.111  1.00  0.00     0.014 C 
ENDROOT
BRANCH   1  30
ATOM     30  C   UNL     1       2.319  50.018  10.691  1.00  0.00     0.048 C 
ATOM     31  O   UNL     1       2.228  49.679  11.902  1.00  0.00    -0.550 OA
ATOM     32  O   UNL     1       1.246  49.749   9.848  1.00  0.00    -0.550 OA
ENDBRANCH   1  30
BRANCH  27  33
ATOM     33  O   UNL     1      -0.784  59.896  11.168  1.00  0.00    -0.393 OA
ATOM     34  H   UNL     1      -1.269  60.233  10.371  1.00  0.00     0.210 HD
ENDBRANCH  27  33
TORSDOF 2
ENDMDL
MODEL 5
REMARK VINA RESULT:    -5.391      2.202      3.740
REMARK INTER + INTRA:          -5.606
REMARK INTER:                  -5.333
REMARK INTRA:                  -0.273
REMARK UNBOUND:                 0.258
REMARK SMILES C[C@@H]1[C@@H](C)CC[C@@]2(C(=O)[O-])CC[C@@]3(C)C(=CC[C@@H]4[C@]5(C)CC[C@@H](O)C(C)(C)[C@@H]5CC[C@]43C)[C@@H]12
REMARK SMILES IDX 7 1 6 2 11 3 33 4 5 5 12 6 15 7 2 8 3 9 13 10 16 11 1 12
REMARK SMILES IDX 4 13 14 14 31 15 17 16 18 17 30 18 32 19 19 20 29 21 28 22
REMARK SMILES IDX 21 23 20 24 25 25 22 26 23 27 26 28 27 29 8 30 9 31 10 32
REMARK SMILES IDX 24 33
REMARK H PARENT 24 34
REMARK Flexibility Score: inf
ROOT
ATOM      1  C   UNL     1      -7.617  66.013   8.151  1.00  0.00     0.017 C 
ATOM      2  C   UNL     1      -9.061  66.248   7.592  1.00  0.00     0.014 C 
ATOM      3  C   UNL     1      -7.681  64.778   9.101  1.00  0.00     0.014 C 
ATOM      4  C   UNL     1      -6.599  65.834   6.956  1.00  0.00     0.030 C 
ATOM      5  C   UNL     1      -9.045  67.072   6.303  1.00  0.00     0.004 C 
ATOM      6  C   UNL     1      -6.314  64.168   9.473  1.00  0.00     0.013 C 
ATOM      7  C   UNL     1      -5.319  65.096   7.389  1.00  0.00    -0.063 C 
ATOM      8  C   UNL     1      -7.250  65.311   5.637  1.00  0.00    -0.003 C 
ATOM      9  C   UNL     1      -8.373  66.291   5.144  1.00  0.00    -0.011 C 
ATOM     10  C   UNL     1      -5.415  63.806   8.244  1.00  0.00    -0.006 C 
ATOM     11  C   UNL     1      -4.145  65.757   7.187  1.00  0.00    -0.027 C 
ATOM     12  C   UNL     1      -6.195  65.121   4.526  1.00  0.00     0.008 C 
ATOM     13  C   UNL     1      -9.433  65.540   4.319  1.00  0.00     0.008 C 
ATOM     14  C   UNL     1      -6.148  62.691   7.427  1.00  0.00     0.017 C 
ATOM     15  C   UNL     1      -3.940  63.282   8.679  1.00  0.00    -0.020 C 
ATOM     16  C   UNL     1      -2.847  65.445   7.884  1.00  0.00     0.032 C 
ATOM     17  C   UNL     1      -3.089  64.553   9.117  1.00  0.00     0.006 C 
ATOM     18  C   UNL     1      -3.975  62.227   9.835  1.00  0.00     0.008 C 
ATOM     19  C   UNL     1      -3.291  62.532   7.458  1.00  0.00     0.012 C 
ATOM     20  C   UNL     1      -1.832  64.342  10.079  1.00  0.00    -0.025 C 
ATOM     21  C   UNL     1      -3.668  62.821  11.200  1.00  0.00     0.005 C 
ATOM     22  C   UNL     1      -2.207  63.351  11.297  1.00  0.00     0.003 C 
ATOM     23  C   UNL     1      -0.580  63.943   9.224  1.00  0.00     0.010 C 
ATOM     24  C   UNL     1      -1.478  65.721  10.725  1.00  0.00     0.012 C 
ATOM     25  C   UNL     1      -1.090  62.303  11.780  1.00  0.00    -0.006 C 
ATOM     26  C   UNL     1       0.490  63.165   9.960  1.00  0.00     0.033 C 
ATOM     27  C   UNL     1      -0.127  61.928  10.615  1.00  0.00     0.120 C 
ATOM     28  C   UNL     1      -1.690  60.977  12.326  1.00  0.00     0.014 C 
ATOM     29  C   UNL     1      -0.294  62.917  12.971  1.00  0.00     0.014 C 
ENDROOT
BRANCH   1  30
ATOM     30  C   UNL     1      -7.180  67.220   8.985  1.00  0.00     0.048 C 
ATOM     31  O   UNL     1      -6.471  68.125   8.469  1.00  0.00    -0.550 OA
ATOM     32  O   UNL     1      -7.518  67.333  10.330  1.00  0.00    -0.550 OA
ENDBRANCH   1  30
BRANCH  27  33
ATOM     33  O   UNL     1       0.877  61.027  11.026  1.00  0.00    -0.393 OA
ATOM     34  H   UNL     1       0.476  60.367  11.649  1.00  0.00     0.210 HD
ENDBRANCH  27  33
TORSDOF 2
ENDMDL
MODEL 6
REMARK VINA RESULT:    -5.287      7.873     12.463
REMARK INTER + INTRA:          -5.493
REMARK INTER:                  -5.228
REMARK INTRA:                  -0.265
REMARK UNBOUND:                 0.258
REMARK SMILES C[C@@H]1[C@@H](C)CC[C@@]2(C(=O)[O-])CC[C@@]3(C)C(=CC[C@@H]4[C@]5(C)CC[C@@H](O)C(C)(C)[C@@H]5CC[C@]43C)[C@@H]12
REMARK SMILES IDX 7 1 6 2 11 3 33 4 5 5 12 6 15 7 2 8 3 9 13 10 16 11 1 12
REMARK SMILES IDX 4 13 14 14 31 15 17 16 18 17 30 18 32 19 19 20 29 21 28 22
REMARK SMILES IDX 21 23 20 24 25 25 22 26 23 27 26 28 27 29 8 30 9 31 10 32
REMARK SMILES IDX 24 33
REMARK H PARENT 24 34
REMARK Flexibility Score: inf
ROOT
ATOM      1  C   UNL     1       2.023  58.545  11.881  1.00  0.00     0.017 C 
ATOM      2  C   UNL     1       1.819  59.996  12.435  1.00  0.00     0.014 C 
ATOM      3  C   UNL     1       2.260  57.610  13.106  1.00  0.00     0.014 C 
ATOM      4  C   UNL     1       0.780  58.124  11.001  1.00  0.00     0.030 C 
ATOM      5  C   UNL     1       1.095  60.892  11.427  1.00  0.00     0.004 C 
ATOM      6  C   UNL     1       2.130  56.101  12.812  1.00  0.00     0.013 C 
ATOM      7  C   UNL     1       0.651  56.596  10.871  1.00  0.00    -0.063 C 
ATOM      8  C   UNL     1      -0.542  58.871  11.366  1.00  0.00    -0.003 C 
ATOM      9  C   UNL     1      -0.367  60.422  11.206  1.00  0.00    -0.011 C 
ATOM     10  C   UNL     1       0.784  55.693  12.126  1.00  0.00    -0.006 C 
ATOM     11  C   UNL     1       0.657  56.095   9.604  1.00  0.00    -0.027 C 
ATOM     12  C   UNL     1      -1.721  58.383  10.498  1.00  0.00     0.008 C 
ATOM     13  C   UNL     1      -1.321  61.182  12.144  1.00  0.00     0.008 C 
ATOM     14  C   UNL     1      -0.377  56.013  13.125  1.00  0.00     0.017 C 
ATOM     15  C   UNL     1       0.737  54.121  11.722  1.00  0.00    -0.020 C 
ATOM     16  C   UNL     1       0.961  54.666   9.242  1.00  0.00     0.032 C 
ATOM     17  C   UNL     1       1.630  53.933  10.419  1.00  0.00     0.006 C 
ATOM     18  C   UNL     1       1.237  53.174  12.864  1.00  0.00     0.008 C 
ATOM     19  C   UNL     1      -0.760  53.708  11.474  1.00  0.00     0.012 C 
ATOM     20  C   UNL     1       2.217  52.484  10.092  1.00  0.00    -0.025 C 
ATOM     21  C   UNL     1       2.673  52.712  12.678  1.00  0.00     0.005 C 
ATOM     22  C   UNL     1       2.842  51.810  11.419  1.00  0.00     0.003 C 
ATOM     23  C   UNL     1       1.137  51.641   9.332  1.00  0.00     0.010 C 
ATOM     24  C   UNL     1       3.402  52.656   9.085  1.00  0.00     0.012 C 
ATOM     25  C   UNL     1       2.626  50.232  11.630  1.00  0.00    -0.006 C 
ATOM     26  C   UNL     1       1.277  50.139   9.457  1.00  0.00     0.033 C 
ATOM     27  C   UNL     1       1.322  49.743  10.934  1.00  0.00     0.120 C 
ATOM     28  C   UNL     1       2.532  49.821  13.125  1.00  0.00     0.014 C 
ATOM     29  C   UNL     1       3.863  49.468  11.069  1.00  0.00     0.014 C 
ENDROOT
BRANCH   1  30
ATOM     30  C   UNL     1       3.278  58.494  11.006  1.00  0.00     0.048 C 
ATOM     31  O   UNL     1       3.177  58.534   9.750  1.00  0.00    -0.550 OA
ATOM     32  O   UNL     1       4.546  58.367  11.563  1.00  0.00    -0.550 OA
ENDBRANCH   1  30
BRANCH  27  33
ATOM     33  O   UNL     1       1.128  48.355  11.086  1.00  0.00    -0.393 OA
ATOM     34  H   UNL     1       0.265  48.107  10.663  1.00  0.00     0.210 HD
ENDBRANCH  27  33
TORSDOF 2
ENDMDL
MODEL 7
REMARK VINA RESULT:    -5.261      7.890     13.086
REMARK INTER + INTRA:          -5.465
REMARK INTER:                  -5.182
REMARK INTRA:                  -0.283
REMARK UNBOUND:                 0.258
REMARK SMILES C[C@@H]1[C@@H](C)CC[C@@]2(C(=O)[O-])CC[C@@]3(C)C(=CC[C@@H]4[C@]5(C)CC[C@@H](O)C(C)(C)[C@@H]5CC[C@]43C)[C@@H]12
REMARK SMILES IDX 7 1 6 2 11 3 33 4 5 5 12 6 15 7 2 8 3 9 13 10 16 11 1 12
REMARK SMILES IDX 4 13 14 14 31 15 17 16 18 17 30 18 32 19 19 20 29 21 28 22
REMARK SMILES IDX 21 23 20 24 25 25 22 26 23 27 26 28 27 29 8 30 9 31 10 32
REMARK SMILES IDX 24 33
REMARK H PARENT 24 34
REMARK Flexibility Score: inf
ROOT
ATOM      1  C   UNL     1       4.002  53.604   9.175  1.00  0.00     0.017 C 
ATOM      2  C   UNL     1       5.009  52.738   8.345  1.00  0.00     0.014 C 
ATOM      3  C   UNL     1       3.201  54.481   8.165  1.00  0.00     0.014 C 
ATOM      4  C   UNL     1       3.085  52.666  10.057  1.00  0.00     0.030 C 
ATOM      5  C   UNL     1       5.480  51.508   9.124  1.00  0.00     0.004 C 
ATOM      6  C   UNL     1       1.927  55.137   8.736  1.00  0.00     0.013 C 
ATOM      7  C   UNL     1       1.774  53.358  10.470  1.00  0.00    -0.063 C 
ATOM      8  C   UNL     1       2.920  51.220   9.491  1.00  0.00    -0.003 C 
ATOM      9  C   UNL     1       4.314  50.511   9.359  1.00  0.00    -0.011 C 
ATOM     10  C   UNL     1       0.938  54.135   9.419  1.00  0.00    -0.006 C 
ATOM     11  C   UNL     1       1.534  53.445  11.808  1.00  0.00    -0.027 C 
ATOM     12  C   UNL     1       1.983  50.373  10.377  1.00  0.00     0.008 C 
ATOM     13  C   UNL     1       4.288  49.449   8.247  1.00  0.00     0.008 C 
ATOM     14  C   UNL     1       0.427  53.144   8.321  1.00  0.00     0.017 C 
ATOM     15  C   UNL     1      -0.328  54.879  10.114  1.00  0.00    -0.020 C 
ATOM     16  C   UNL     1       0.574  54.410  12.452  1.00  0.00     0.032 C 
ATOM     17  C   UNL     1       0.185  55.532  11.472  1.00  0.00     0.006 C 
ATOM     18  C   UNL     1      -0.982  55.969   9.201  1.00  0.00     0.008 C 
ATOM     19  C   UNL     1      -1.462  53.818  10.363  1.00  0.00     0.012 C 
ATOM     20  C   UNL     1      -0.639  56.748  12.099  1.00  0.00    -0.025 C 
ATOM     21  C   UNL     1      -0.543  57.384   9.543  1.00  0.00     0.005 C 
ATOM     22  C   UNL     1      -1.025  57.823  10.958  1.00  0.00     0.003 C 
ATOM     23  C   UNL     1      -1.829  56.189  12.952  1.00  0.00     0.010 C 
ATOM     24  C   UNL     1       0.291  57.494  13.111  1.00  0.00     0.012 C 
ATOM     25  C   UNL     1      -2.469  58.519  11.043  1.00  0.00    -0.006 C 
ATOM     26  C   UNL     1      -3.004  57.128  13.124  1.00  0.00     0.033 C 
ATOM     27  C   UNL     1      -3.500  57.594  11.754  1.00  0.00     0.120 C 
ATOM     28  C   UNL     1      -3.059  58.880   9.651  1.00  0.00     0.014 C 
ATOM     29  C   UNL     1      -2.340  59.875  11.800  1.00  0.00     0.014 C 
ENDROOT
BRANCH   1  30
ATOM     30  C   UNL     1       4.770  54.546  10.105  1.00  0.00     0.048 C 
ATOM     31  O   UNL     1       5.292  55.600   9.650  1.00  0.00    -0.550 OA
ATOM     32  O   UNL     1       4.942  54.252  11.453  1.00  0.00    -0.550 OA
ENDBRANCH   1  30
BRANCH  27  33
ATOM     33  O   UNL     1      -4.770  58.198  11.861  1.00  0.00    -0.393 OA
ATOM     34  H   UNL     1      -5.450  57.576  11.493  1.00  0.00     0.210 HD
ENDBRANCH  27  33
TORSDOF 2
ENDMDL
MODEL 8
REMARK VINA RESULT:    -4.983      9.474     12.778
REMARK INTER + INTRA:          -5.162
REMARK INTER:                  -4.913
REMARK INTRA:                  -0.249
REMARK UNBOUND:                 0.258
REMARK SMILES C[C@@H]1[C@@H](C)CC[C@@]2(C(=O)[O-])CC[C@@]3(C)C(=CC[C@@H]4[C@]5(C)CC[C@@H](O)C(C)(C)[C@@H]5CC[C@]43C)[C@@H]12
REMARK SMILES IDX 7 1 6 2 11 3 33 4 5 5 12 6 15 7 2 8 3 9 13 10 16 11 1 12
REMARK SMILES IDX 4 13 14 14 31 15 17 16 18 17 30 18 32 19 19 20 29 21 28 22
REMARK SMILES IDX 21 23 20 24 25 25 22 26 23 27 26 28 27 29 8 30 9 31 10 32
REMARK SMILES IDX 24 33
REMARK H PARENT 24 34
REMARK Flexibility Score: inf
ROOT
ATOM      1  C   UNL     1      -3.050  53.703  11.328  1.00  0.00     0.017 C 
ATOM      2  C   UNL     1      -4.489  54.301  11.486  1.00  0.00     0.014 C 
ATOM      3  C   UNL     1      -2.741  53.633   9.801  1.00  0.00     0.014 C 
ATOM      4  C   UNL     1      -2.012  54.576  12.140  1.00  0.00     0.030 C 
ATOM      5  C   UNL     1      -4.713  54.883  12.884  1.00  0.00     0.004 C 
ATOM      6  C   UNL     1      -1.257  53.411   9.445  1.00  0.00     0.013 C 
ATOM      7  C   UNL     1      -0.572  54.391  11.628  1.00  0.00    -0.063 C 
ATOM      8  C   UNL     1      -2.453  56.058  12.353  1.00  0.00    -0.003 C 
ATOM      9  C   UNL     1      -3.818  56.127  13.125  1.00  0.00    -0.011 C 
ATOM     10  C   UNL     1      -0.275  54.434  10.105  1.00  0.00    -0.006 C 
ATOM     11  C   UNL     1       0.343  53.963  12.541  1.00  0.00    -0.027 C 
ATOM     12  C   UNL     1      -1.378  56.861  13.115  1.00  0.00     0.008 C 
ATOM     13  C   UNL     1      -4.585  57.413  12.772  1.00  0.00     0.008 C 
ATOM     14  C   UNL     1      -0.618  55.855   9.547  1.00  0.00     0.017 C 
ATOM     15  C   UNL     1       1.284  54.092   9.805  1.00  0.00    -0.020 C 
ATOM     16  C   UNL     1       1.665  53.325  12.206  1.00  0.00     0.032 C 
ATOM     17  C   UNL     1       1.695  52.869  10.736  1.00  0.00     0.006 C 
ATOM     18  C   UNL     1       1.563  53.749   8.303  1.00  0.00     0.008 C 
ATOM     19  C   UNL     1       2.148  55.373  10.100  1.00  0.00     0.012 C 
ATOM     20  C   UNL     1       2.944  51.968  10.313  1.00  0.00    -0.025 C 
ATOM     21  C   UNL     1       1.654  52.256   8.034  1.00  0.00     0.005 C 
ATOM     22  C   UNL     1       2.879  51.605   8.742  1.00  0.00     0.003 C 
ATOM     23  C   UNL     1       4.268  52.642  10.812  1.00  0.00     0.010 C 
ATOM     24  C   UNL     1       2.847  50.610  11.084  1.00  0.00     0.012 C 
ATOM     25  C   UNL     1       4.259  51.583   7.921  1.00  0.00    -0.006 C 
ATOM     26  C   UNL     1       5.517  52.274  10.039  1.00  0.00     0.033 C 
ATOM     27  C   UNL     1       5.305  52.549   8.550  1.00  0.00     0.120 C 
ATOM     28  C   UNL     1       4.092  51.992   6.431  1.00  0.00     0.014 C 
ATOM     29  C   UNL     1       4.812  50.126   7.888  1.00  0.00     0.014 C 
ENDROOT
BRANCH   1  30
ATOM     30  C   UNL     1      -3.018  52.274  11.876  1.00  0.00     0.048 C 
ATOM     31  O   UNL     1      -2.743  52.066  13.089  1.00  0.00    -0.550 OA
ATOM     32  O   UNL     1      -3.252  51.177  11.054  1.00  0.00    -0.550 OA
ENDBRANCH   1  30
BRANCH  27  33
ATOM     33  O   UNL     1       6.533  52.526   7.857  1.00  0.00    -0.393 OA
ATOM     34  H   UNL     1       6.658  51.624   7.463  1.00  0.00     0.210 HD
ENDBRANCH  27  33
TORSDOF 2
ENDMDL
MODEL 9
REMARK VINA RESULT:    -4.791      3.191      7.696
REMARK INTER + INTRA:          -4.954
REMARK INTER:                  -4.664
REMARK INTRA:                  -0.290
REMARK UNBOUND:                 0.258
REMARK SMILES C[C@@H]1[C@@H](C)CC[C@@]2(C(=O)[O-])CC[C@@]3(C)C(=CC[C@@H]4[C@]5(C)CC[C@@H](O)C(C)(C)[C@@H]5CC[C@]43C)[C@@H]12
REMARK SMILES IDX 7 1 6 2 11 3 33 4 5 5 12 6 15 7 2 8 3 9 13 10 16 11 1 12
REMARK SMILES IDX 4 13 14 14 31 15 17 16 18 17 30 18 32 19 19 20 29 21 28 22
REMARK SMILES IDX 21 23 20 24 25 25 22 26 23 27 26 28 27 29 8 30 9 31 10 32
REMARK SMILES IDX 24 33
REMARK H PARENT 24 34
REMARK Flexibility Score: inf
ROOT
ATOM      1  C   UNL     1      -5.395  59.026  12.105  1.00  0.00     0.017 C 
ATOM      2  C   UNL     1      -5.326  57.840  13.125  1.00  0.00     0.014 C 
ATOM      3  C   UNL     1      -5.382  60.350  12.930  1.00  0.00     0.014 C 
ATOM      4  C   UNL     1      -4.203  58.919  11.073  1.00  0.00     0.030 C 
ATOM      5  C   UNL     1      -4.831  56.550  12.466  1.00  0.00     0.004 C 
ATOM      6  C   UNL     1      -5.087  61.625  12.114  1.00  0.00     0.013 C 
ATOM      7  C   UNL     1      -3.890  60.269  10.404  1.00  0.00    -0.063 C 
ATOM      8  C   UNL     1      -2.960  58.144  11.612  1.00  0.00    -0.003 C 
ATOM      9  C   UNL     1      -3.351  56.679  12.021  1.00  0.00    -0.011 C 
ATOM     10  C   UNL     1      -3.776  61.556  11.263  1.00  0.00    -0.006 C 
ATOM     11  C   UNL     1      -3.959  60.299   9.044  1.00  0.00    -0.027 C 
ATOM     12  C   UNL     1      -1.822  58.111  10.571  1.00  0.00     0.008 C 
ATOM     13  C   UNL     1      -2.414  56.146  13.119  1.00  0.00     0.008 C 
ATOM     14  C   UNL     1      -2.571  61.418  12.252  1.00  0.00     0.017 C 
ATOM     15  C   UNL     1      -3.565  62.866  10.327  1.00  0.00    -0.020 C 
ATOM     16  C   UNL     1      -4.109  61.547   8.214  1.00  0.00     0.032 C 
ATOM     17  C   UNL     1      -4.554  62.734   9.088  1.00  0.00     0.006 C 
ATOM     18  C   UNL     1      -3.819  64.213  11.083  1.00  0.00     0.008 C 
ATOM     19  C   UNL     1      -2.060  62.927   9.875  1.00  0.00     0.012 C 
ATOM     20  C   UNL     1      -4.977  64.057   8.298  1.00  0.00    -0.025 C 
ATOM     21  C   UNL     1      -5.194  64.803  10.816  1.00  0.00     0.005 C 
ATOM     22  C   UNL     1      -5.370  65.234   9.330  1.00  0.00     0.003 C 
ATOM     23  C   UNL     1      -3.879  64.406   7.236  1.00  0.00     0.010 C 
ATOM     24  C   UNL     1      -6.270  63.740   7.477  1.00  0.00     0.012 C 
ATOM     25  C   UNL     1      -4.931  66.734   8.957  1.00  0.00    -0.006 C 
ATOM     26  C   UNL     1      -3.808  65.863   6.828  1.00  0.00     0.033 C 
ATOM     27  C   UNL     1      -3.651  66.742   8.070  1.00  0.00     0.120 C 
ATOM     28  C   UNL     1      -4.633  67.613  10.203  1.00  0.00     0.014 C 
ATOM     29  C   UNL     1      -6.108  67.445   8.224  1.00  0.00     0.014 C 
ENDROOT
BRANCH   1  30
ATOM     30  C   UNL     1      -6.714  58.971  11.331  1.00  0.00     0.048 C 
ATOM     31  O   UNL     1      -7.768  59.439  11.840  1.00  0.00    -0.550 OA
ATOM     32  O   UNL     1      -6.794  58.379  10.075  1.00  0.00    -0.550 OA
ENDBRANCH   1  30
BRANCH  27  33
ATOM     33  O   UNL     1      -3.263  68.049   7.711  1.00  0.00    -0.393 OA
ATOM     34  H   UNL     1      -3.582  68.234   6.790  1.00  0.00     0.210 HD
ENDBRANCH  27  33
TORSDOF 2
ENDMDL
