MODEL 1
REMARK VINA RESULT:    -4.402      0.000      0.000
REMARK INTER + INTRA:          -7.534
REMARK INTER:                  -6.975
REMARK INTRA:                  -0.558
REMARK UNBOUND:                -0.558
REMARK SMILES CCCCCCCCCCCC(=O)[O-]
REMARK SMILES IDX 7 1 8 2 9 3 10 4 11 5 12 6 13 7 14 8 6 9 5 10 4 11 3 12 2 13
REMARK SMILES IDX 1 14
REMARK H PARENT
REMARK Flexibility Score: inf
ROOT
ATOM      1  C   UNL     1      -5.211  -4.094   3.377  1.00  0.00     0.000 C 
ENDROOT
BRANCH   1   2
ATOM      2  C   UNL     1      -5.118  -2.962   2.343  1.00  0.00     0.000 C 
BRANCH   2   3
ATOM      3  C   UNL     1      -4.678  -3.473   0.954  1.00  0.00     0.000 C 
BRANCH   3   4
ATOM      4  C   UNL     1      -4.914  -4.981   0.749  1.00  0.00     0.006 C 
BRANCH   4   5
ATOM      5  C   UNL     1      -5.521  -5.342  -0.614  1.00  0.00     0.053 C 
BRANCH   5   6
ATOM      6  C   UNL     1      -6.994  -5.602  -0.517  1.00  0.00     0.041 C 
ATOM      7  O   UNL     1      -7.589  -5.488   0.586  1.00  0.00    -0.550 OA
ATOM      8  O   UNL     1      -7.707  -5.985  -1.647  1.00  0.00    -0.550 OA
ENDBRANCH   5   6
ENDBRANCH   4   5
ENDBRANCH   3   4
ENDBRANCH   2   3
ENDBRANCH   1   2
BRANCH   1   9
ATOM      9  C   UNL     1      -4.981  -3.564   4.799  1.00  0.00     0.000 C 
BRANCH   9  10
ATOM     10  C   UNL     1      -4.300  -2.186   4.812  1.00  0.00    -0.000 C 
BRANCH  10  11
ATOM     11  C   UNL     1      -4.023  -1.676   6.238  1.00  0.00    -0.000 C 
BRANCH  11  12
ATOM     12  C   UNL     1      -3.357  -0.291   6.251  1.00  0.00    -0.000 C 
BRANCH  12  13
ATOM     13  C   UNL     1      -2.295  -0.138   5.153  1.00  0.00    -0.003 C 
ATOM     14  C   UNL     1      -1.547   1.185   5.292  1.00  0.00     0.004 C 
ENDBRANCH  12  13
ENDBRANCH  11  12
ENDBRANCH  10  11
ENDBRANCH   9  10
ENDBRANCH   1   9
TORSDOF 10
ENDMDL
MODEL 2
REMARK VINA RESULT:    -4.396      4.185      7.580
REMARK INTER + INTRA:          -7.524
REMARK INTER:                  -7.058
REMARK INTRA:                  -0.466
REMARK UNBOUND:                -0.558
REMARK SMILES CCCCCCCCCCCC(=O)[O-]
REMARK SMILES IDX 7 1 8 2 9 3 10 4 11 5 12 6 13 7 14 8 6 9 5 10 4 11 3 12 2 13
REMARK SMILES IDX 1 14
REMARK H PARENT
REMARK Flexibility Score: inf
ROOT
ATOM      1  C   UNL     1      -4.940  -3.883   4.907  1.00  0.00     0.000 C 
ENDROOT
BRANCH   1   2
ATOM      2  C   UNL     1      -4.734  -2.364   4.991  1.00  0.00     0.000 C 
BRANCH   2   3
ATOM      3  C   UNL     1      -3.840  -1.959   6.184  1.00  0.00     0.000 C 
BRANCH   3   4
ATOM      4  C   UNL     1      -3.508  -0.455   6.220  1.00  0.00     0.006 C 
BRANCH   4   5
ATOM      5  C   UNL     1      -2.071  -0.141   6.663  1.00  0.00     0.053 C 
BRANCH   5   6
ATOM      6  C   UNL     1      -1.264   0.461   5.553  1.00  0.00     0.041 C 
ATOM      7  O   UNL     1      -1.618   1.548   5.026  1.00  0.00    -0.550 OA
ATOM      8  O   UNL     1      -0.127  -0.190   5.090  1.00  0.00    -0.550 OA
ENDBRANCH   5   6
ENDBRANCH   4   5
ENDBRANCH   3   4
ENDBRANCH   2   3
ENDBRANCH   1   2
BRANCH   1   9
ATOM      9  C   UNL     1      -5.227  -4.323   3.465  1.00  0.00     0.000 C 
BRANCH   9  10
ATOM     10  C   UNL     1      -5.242  -3.144   2.479  1.00  0.00    -0.000 C 
BRANCH  10  11
ATOM     11  C   UNL     1      -4.654  -3.513   1.106  1.00  0.00    -0.000 C 
BRANCH  11  12
ATOM     12  C   UNL     1      -4.817  -5.005   0.776  1.00  0.00    -0.000 C 
BRANCH  12  13
ATOM     13  C   UNL     1      -6.060  -5.286  -0.081  1.00  0.00    -0.003 C 
ATOM     14  C   UNL     1      -5.671  -5.636  -1.515  1.00  0.00     0.004 C 
ENDBRANCH  12  13
ENDBRANCH  11  12
ENDBRANCH  10  11
ENDBRANCH   9  10
ENDBRANCH   1   9
TORSDOF 10
ENDMDL
MODEL 3
REMARK VINA RESULT:    -4.362      1.342      1.616
REMARK INTER + INTRA:          -7.471
REMARK INTER:                  -6.814
REMARK INTRA:                  -0.657
REMARK UNBOUND:                -0.558
REMARK SMILES CCCCCCCCCCCC(=O)[O-]
REMARK SMILES IDX 7 1 8 2 9 3 10 4 11 5 12 6 13 7 14 8 6 9 5 10 4 11 3 12 2 13
REMARK SMILES IDX 1 14
REMARK H PARENT
REMARK Flexibility Score: inf
ROOT
ATOM      1  C   UNL     1      -4.966  -2.775   2.790  1.00  0.00     0.000 C 
ENDROOT
BRANCH   1   2
ATOM      2  C   UNL     1      -5.616  -4.074   3.288  1.00  0.00     0.000 C 
BRANCH   2   3
ATOM      3  C   UNL     1      -5.566  -5.197   2.229  1.00  0.00     0.000 C 
BRANCH   3   4
ATOM      4  C   UNL     1      -4.924  -4.760   0.898  1.00  0.00     0.006 C 
BRANCH   4   5
ATOM      5  C   UNL     1      -5.642  -5.294  -0.350  1.00  0.00     0.053 C 
BRANCH   5   6
ATOM      6  C   UNL     1      -5.958  -4.199  -1.322  1.00  0.00     0.041 C 
ATOM      7  O   UNL     1      -6.110  -3.015  -0.922  1.00  0.00    -0.550 OA
ATOM      8  O   UNL     1      -6.100  -4.490  -2.674  1.00  0.00    -0.550 OA
ENDBRANCH   5   6
ENDBRANCH   4   5
ENDBRANCH   3   4
ENDBRANCH   2   3
ENDBRANCH   1   2
BRANCH   1   9
ATOM      9  C   UNL     1      -4.412  -1.951   3.960  1.00  0.00     0.000 C 
BRANCH   9  10
ATOM     10  C   UNL     1      -4.514  -2.690   5.304  1.00  0.00    -0.000 C 
BRANCH  10  11
ATOM     11  C   UNL     1      -3.849  -1.917   6.457  1.00  0.00    -0.000 C 
BRANCH  11  12
ATOM     12  C   UNL     1      -3.556  -0.453   6.094  1.00  0.00    -0.000 C 
BRANCH  12  13
ATOM     13  C   UNL     1      -2.098  -0.057   6.369  1.00  0.00    -0.003 C 
ATOM     14  C   UNL     1      -1.456   0.568   5.134  1.00  0.00     0.004 C 
ENDBRANCH  12  13
ENDBRANCH  11  12
ENDBRANCH  10  11
ENDBRANCH   9  10
ENDBRANCH   1   9
TORSDOF 10
ENDMDL
MODEL 4
REMARK VINA RESULT:    -4.242      2.085      3.579
REMARK INTER + INTRA:          -7.280
REMARK INTER:                  -6.703
REMARK INTRA:                  -0.577
REMARK UNBOUND:                -0.558
REMARK SMILES CCCCCCCCCCCC(=O)[O-]
REMARK SMILES IDX 7 1 8 2 9 3 10 4 11 5 12 6 13 7 14 8 6 9 5 10 4 11 3 12 2 13
REMARK SMILES IDX 1 14
REMARK H PARENT
REMARK Flexibility Score: inf
ROOT
ATOM      1  C   UNL     1      -3.761  -1.668   6.194  1.00  0.00     0.000 C 
ENDROOT
BRANCH   1   2
ATOM      2  C   UNL     1      -4.139  -1.603   4.707  1.00  0.00     0.000 C 
BRANCH   2   3
ATOM      3  C   UNL     1      -5.358  -2.491   4.374  1.00  0.00     0.000 C 
BRANCH   3   4
ATOM      4  C   UNL     1      -5.095  -3.495   3.236  1.00  0.00     0.006 C 
BRANCH   4   5
ATOM      5  C   UNL     1      -4.862  -2.844   1.865  1.00  0.00     0.053 C 
BRANCH   5   6
ATOM      6  C   UNL     1      -4.803  -3.862   0.767  1.00  0.00     0.041 C 
ATOM      7  O   UNL     1      -4.851  -3.502  -0.438  1.00  0.00    -0.550 OA
ATOM      8  O   UNL     1      -4.711  -5.214   1.077  1.00  0.00    -0.550 OA
ENDBRANCH   5   6
ENDBRANCH   4   5
ENDBRANCH   3   4
ENDBRANCH   2   3
ENDBRANCH   1   2
BRANCH   1   9
ATOM      9  C   UNL     1      -2.994  -0.410   6.624  1.00  0.00     0.000 C 
BRANCH   9  10
ATOM     10  C   UNL     1      -2.336   0.315   5.438  1.00  0.00    -0.000 C 
BRANCH  10  11
ATOM     11  C   UNL     1      -0.799   0.249   5.484  1.00  0.00    -0.000 C 
BRANCH  11  12
ATOM     12  C   UNL     1      -0.262  -0.045   6.894  1.00  0.00    -0.000 C 
BRANCH  12  13
ATOM     13  C   UNL     1       0.686  -1.252   6.923  1.00  0.00    -0.003 C 
ATOM     14  C   UNL     1       1.563  -1.293   5.675  1.00  0.00     0.004 C 
ENDBRANCH  12  13
ENDBRANCH  11  12
ENDBRANCH  10  11
ENDBRANCH   9  10
ENDBRANCH   1   9
TORSDOF 10
ENDMDL
MODEL 5
REMARK VINA RESULT:    -4.234      1.420      1.800
REMARK INTER + INTRA:          -7.268
REMARK INTER:                  -6.853
REMARK INTRA:                  -0.414
REMARK UNBOUND:                -0.558
REMARK SMILES CCCCCCCCCCCC(=O)[O-]
REMARK SMILES IDX 7 1 8 2 9 3 10 4 11 5 12 6 13 7 14 8 6 9 5 10 4 11 3 12 2 13
REMARK SMILES IDX 1 14
REMARK H PARENT
REMARK Flexibility Score: inf
ROOT
ATOM      1  C   UNL     1      -5.058  -3.415   2.648  1.00  0.00     0.000 C 
ENDROOT
BRANCH   1   2
ATOM      2  C   UNL     1      -4.771  -3.492   1.142  1.00  0.00     0.000 C 
BRANCH   2   3
ATOM      3  C   UNL     1      -4.744  -4.947   0.625  1.00  0.00     0.000 C 
BRANCH   3   4
ATOM      4  C   UNL     1      -6.070  -5.396  -0.018  1.00  0.00     0.006 C 
BRANCH   4   5
ATOM      5  C   UNL     1      -6.424  -4.650  -1.312  1.00  0.00     0.053 C 
BRANCH   5   6
ATOM      6  C   UNL     1      -6.263  -5.521  -2.520  1.00  0.00     0.041 C 
ATOM      7  O   UNL     1      -7.170  -5.577  -3.391  1.00  0.00    -0.550 OA
ATOM      8  O   UNL     1      -5.113  -6.285  -2.677  1.00  0.00    -0.550 OA
ENDBRANCH   5   6
ENDBRANCH   4   5
ENDBRANCH   3   4
ENDBRANCH   2   3
ENDBRANCH   1   2
BRANCH   1   9
ATOM      9  C   UNL     1      -4.686  -2.035   3.211  1.00  0.00     0.000 C 
BRANCH   9  10
ATOM     10  C   UNL     1      -4.367  -2.077   4.714  1.00  0.00    -0.000 C 
BRANCH  10  11
ATOM     11  C   UNL     1      -4.919  -0.856   5.470  1.00  0.00    -0.000 C 
BRANCH  11  12
ATOM     12  C   UNL     1      -3.829  -0.099   6.246  1.00  0.00    -0.000 C 
BRANCH  12  13
ATOM     13  C   UNL     1      -2.416  -0.409   5.731  1.00  0.00    -0.003 C 
ATOM     14  C   UNL     1      -1.752   0.842   5.162  1.00  0.00     0.004 C 
ENDBRANCH  12  13
ENDBRANCH  11  12
ENDBRANCH  10  11
ENDBRANCH   9  10
ENDBRANCH   1   9
TORSDOF 10
ENDMDL
MODEL 6
REMARK VINA RESULT:    -4.175      2.593      3.990
REMARK INTER + INTRA:          -7.174
REMARK INTER:                  -5.960
REMARK INTRA:                  -1.215
REMARK UNBOUND:                -0.558
REMARK SMILES CCCCCCCCCCCC(=O)[O-]
REMARK SMILES IDX 7 1 8 2 9 3 10 4 11 5 12 6 13 7 14 8 6 9 5 10 4 11 3 12 2 13
REMARK SMILES IDX 1 14
REMARK H PARENT
REMARK Flexibility Score: inf
ROOT
ATOM      1  C   UNL     1      -4.510  -3.748   0.691  1.00  0.00     0.000 C 
ENDROOT
BRANCH   1   2
ATOM      2  C   UNL     1      -5.096  -5.165   0.617  1.00  0.00     0.000 C 
BRANCH   2   3
ATOM      3  C   UNL     1      -6.638  -5.167   0.704  1.00  0.00     0.000 C 
BRANCH   3   4
ATOM      4  C   UNL     1      -7.328  -5.607  -0.601  1.00  0.00     0.006 C 
BRANCH   4   5
ATOM      5  C   UNL     1      -6.385  -5.693  -1.811  1.00  0.00     0.053 C 
BRANCH   5   6
ATOM      6  C   UNL     1      -6.554  -4.524  -2.733  1.00  0.00     0.041 C 
ATOM      7  O   UNL     1      -6.271  -4.631  -3.955  1.00  0.00    -0.550 OA
ATOM      8  O   UNL     1      -7.011  -3.309  -2.238  1.00  0.00    -0.550 OA
ENDBRANCH   5   6
ENDBRANCH   4   5
ENDBRANCH   3   4
ENDBRANCH   2   3
ENDBRANCH   1   2
BRANCH   1   9
ATOM      9  C   UNL     1      -5.490  -2.780   1.369  1.00  0.00     0.000 C 
BRANCH   9  10
ATOM     10  C   UNL     1      -4.836  -1.976   2.504  1.00  0.00    -0.000 C 
BRANCH  10  11
ATOM     11  C   UNL     1      -5.392  -2.349   3.890  1.00  0.00    -0.000 C 
BRANCH  11  12
ATOM     12  C   UNL     1      -4.962  -3.755   4.339  1.00  0.00    -0.000 C 
BRANCH  12  13
ATOM     13  C   UNL     1      -6.131  -4.751   4.359  1.00  0.00    -0.003 C 
ATOM     14  C   UNL     1      -5.626  -6.189   4.439  1.00  0.00     0.004 C 
ENDBRANCH  12  13
ENDBRANCH  11  12
ENDBRANCH  10  11
ENDBRANCH   9  10
ENDBRANCH   1   9
TORSDOF 10
ENDMDL
MODEL 7
REMARK VINA RESULT:    -4.101      1.885      2.474
REMARK INTER + INTRA:          -7.057
REMARK INTER:                  -6.267
REMARK INTRA:                  -0.790
REMARK UNBOUND:                -0.558
REMARK SMILES CCCCCCCCCCCC(=O)[O-]
REMARK SMILES IDX 7 1 8 2 9 3 10 4 11 5 12 6 13 7 14 8 6 9 5 10 4 11 3 12 2 13
REMARK SMILES IDX 1 14
REMARK H PARENT
REMARK Flexibility Score: inf
ROOT
ATOM      1  C   UNL     1      -5.673  -1.463   4.120  1.00  0.00     0.000 C 
ENDROOT
BRANCH   1   2
ATOM      2  C   UNL     1      -5.980  -1.541   2.618  1.00  0.00     0.000 C 
BRANCH   2   3
ATOM      3  C   UNL     1      -4.897  -2.319   1.838  1.00  0.00     0.000 C 
BRANCH   3   4
ATOM      4  C   UNL     1      -5.462  -3.467   0.980  1.00  0.00     0.006 C 
BRANCH   4   5
ATOM      5  C   UNL     1      -5.099  -4.869   1.490  1.00  0.00     0.053 C 
BRANCH   5   6
ATOM      6  C   UNL     1      -5.931  -5.266   2.671  1.00  0.00     0.041 C 
ATOM      7  O   UNL     1      -5.448  -6.000   3.572  1.00  0.00    -0.550 OA
ATOM      8  O   UNL     1      -7.249  -4.836   2.769  1.00  0.00    -0.550 OA
ENDBRANCH   5   6
ENDBRANCH   4   5
ENDBRANCH   3   4
ENDBRANCH   2   3
ENDBRANCH   1   2
BRANCH   1   9
ATOM      9  C   UNL     1      -4.204  -1.810   4.402  1.00  0.00     0.000 C 
BRANCH   9  10
ATOM     10  C   UNL     1      -3.807  -1.555   5.865  1.00  0.00    -0.000 C 
BRANCH  10  11
ATOM     11  C   UNL     1      -3.143  -0.182   6.068  1.00  0.00    -0.000 C 
BRANCH  11  12
ATOM     12  C   UNL     1      -2.094   0.131   4.989  1.00  0.00    -0.000 C 
BRANCH  12  13
ATOM     13  C   UNL     1      -0.656   0.021   5.516  1.00  0.00    -0.003 C 
ATOM     14  C   UNL     1      -0.583   0.386   6.996  1.00  0.00     0.004 C 
ENDBRANCH  12  13
ENDBRANCH  11  12
ENDBRANCH  10  11
ENDBRANCH   9  10
ENDBRANCH   1   9
TORSDOF 10
ENDMDL
MODEL 8
REMARK VINA RESULT:    -4.099      4.485      6.545
REMARK INTER + INTRA:          -7.053
REMARK INTER:                  -6.016
REMARK INTRA:                  -1.037
REMARK UNBOUND:                -0.558
REMARK SMILES CCCCCCCCCCCC(=O)[O-]
REMARK SMILES IDX 7 1 8 2 9 3 10 4 11 5 12 6 13 7 14 8 6 9 5 10 4 11 3 12 2 13
REMARK SMILES IDX 1 14
REMARK H PARENT
REMARK Flexibility Score: inf
ROOT
ATOM      1  C   UNL     1      -6.512  -1.542   2.034  1.00  0.00     0.000 C 
ENDROOT
BRANCH   1   2
ATOM      2  C   UNL     1      -7.087  -1.384   0.619  1.00  0.00     0.000 C 
BRANCH   2   3
ATOM      3  C   UNL     1      -5.993  -1.079  -0.427  1.00  0.00     0.000 C 
BRANCH   3   4
ATOM      4  C   UNL     1      -6.085   0.340  -1.018  1.00  0.00     0.006 C 
BRANCH   4   5
ATOM      5  C   UNL     1      -5.197   0.566  -2.250  1.00  0.00     0.053 C 
BRANCH   5   6
ATOM      6  C   UNL     1      -4.907   2.020  -2.470  1.00  0.00     0.041 C 
ATOM      7  O   UNL     1      -4.966   2.833  -1.511  1.00  0.00    -0.550 OA
ATOM      8  O   UNL     1      -4.586   2.480  -3.741  1.00  0.00    -0.550 OA
ENDBRANCH   5   6
ENDBRANCH   4   5
ENDBRANCH   3   4
ENDBRANCH   2   3
ENDBRANCH   1   2
BRANCH   1   9
ATOM      9  C   UNL     1      -5.192  -2.324   2.009  1.00  0.00     0.000 C 
BRANCH   9  10
ATOM     10  C   UNL     1      -5.241  -3.594   2.874  1.00  0.00    -0.000 C 
BRANCH  10  11
ATOM     11  C   UNL     1      -5.227  -4.883   2.034  1.00  0.00    -0.000 C 
BRANCH  11  12
ATOM     12  C   UNL     1      -4.715  -4.650   0.604  1.00  0.00    -0.000 C 
BRANCH  12  13
ATOM     13  C   UNL     1      -5.614  -5.301  -0.457  1.00  0.00    -0.003 C 
ATOM     14  C   UNL     1      -7.078  -5.276  -0.028  1.00  0.00     0.004 C 
ENDBRANCH  12  13
ENDBRANCH  11  12
ENDBRANCH  10  11
ENDBRANCH   9  10
ENDBRANCH   1   9
TORSDOF 10
ENDMDL
MODEL 9
REMARK VINA RESULT:    -4.037      6.845      8.577
REMARK INTER + INTRA:          -6.956
REMARK INTER:                  -6.166
REMARK INTRA:                  -0.789
REMARK UNBOUND:                -0.558
REMARK SMILES CCCCCCCCCCCC(=O)[O-]
REMARK SMILES IDX 7 1 8 2 9 3 10 4 11 5 12 6 13 7 14 8 6 9 5 10 4 11 3 12 2 13
REMARK SMILES IDX 1 14
REMARK H PARENT
REMARK Flexibility Score: inf
ROOT
ATOM      1  C   UNL     1       2.620  -1.411   6.715  1.00  0.00     0.000 C 
ENDROOT
BRANCH   1   2
ATOM      2  C   UNL     1       3.196  -1.329   5.295  1.00  0.00     0.000 C 
BRANCH   2   3
ATOM      3  C   UNL     1       2.108  -1.489   4.211  1.00  0.00     0.000 C 
BRANCH   3   4
ATOM      4  C   UNL     1       2.648  -2.024   2.871  1.00  0.00     0.006 C 
BRANCH   4   5
ATOM      5  C   UNL     1       4.111  -1.652   2.591  1.00  0.00     0.053 C 
BRANCH   5   6
ATOM      6  C   UNL     1       4.912  -2.837   2.143  1.00  0.00     0.041 C 
ATOM      7  O   UNL     1       5.453  -3.596   2.989  1.00  0.00    -0.550 OA
ATOM      8  O   UNL     1       5.074  -3.094   0.787  1.00  0.00    -0.550 OA
ENDBRANCH   5   6
ENDBRANCH   4   5
ENDBRANCH   3   4
ENDBRANCH   2   3
ENDBRANCH   1   2
BRANCH   1   9
ATOM      9  C   UNL     1       1.087  -1.482   6.686  1.00  0.00     0.000 C 
BRANCH   9  10
ATOM     10  C   UNL     1       0.431  -0.502   7.672  1.00  0.00    -0.000 C 
BRANCH  10  11
ATOM     11  C   UNL     1      -0.635   0.385   7.005  1.00  0.00    -0.000 C 
BRANCH  11  12
ATOM     12  C   UNL     1      -0.724   0.159   5.487  1.00  0.00    -0.000 C 
BRANCH  12  13
ATOM     13  C   UNL     1      -2.167  -0.053   5.007  1.00  0.00    -0.003 C 
ATOM     14  C   UNL     1      -3.040  -0.620   6.123  1.00  0.00     0.004 C 
ENDBRANCH  12  13
ENDBRANCH  11  12
ENDBRANCH  10  11
ENDBRANCH   9  10
ENDBRANCH   1   9
TORSDOF 10
ENDMDL
