MODEL 1
REMARK VINA RESULT:    -2.778      0.000      0.000
REMARK INTER + INTRA:          -3.641
REMARK INTER:                  -3.427
REMARK INTRA:                  -0.214
REMARK UNBOUND:                -0.214
REMARK SMILES [NH3+][C@H](Cc1ccc(O)cc1)C(=O)[O-]
REMARK SMILES IDX 3 1 2 2 1 3 11 7 12 8 13 9 4 10 5 11 10 12 6 13 9 14 7 15
REMARK SMILES IDX 8 16
REMARK H PARENT 1 4 1 5 1 6 8 17
REMARK Flexibility Score: inf
ROOT
ATOM      1  C   UNL     1      90.360 178.700 175.433  1.00  0.00     0.107 C 
ENDROOT
BRANCH   1   2
ATOM      2  C   UNL     1      90.647 180.064 174.769  1.00  0.00     0.232 C 
BRANCH   2   3
ATOM      3  N   UNL     1      91.815 180.722 175.371  1.00  0.00    -0.350 N 
ATOM      4  H   UNL     1      92.546 180.011 175.604  1.00  0.00     0.345 HD
ATOM      5  H   UNL     1      92.219 181.431 174.717  1.00  0.00     0.345 HD
ATOM      6  H   UNL     1      91.537 181.194 176.261  1.00  0.00     0.345 HD
ENDBRANCH   2   3
BRANCH   2   7
ATOM      7  C   UNL     1      90.859 179.877 173.290  1.00  0.00     0.099 C 
ATOM      8  O   UNL     1      90.640 178.760 172.750  1.00  0.00    -0.544 OA
ATOM      9  O   UNL     1      91.278 180.945 172.508  1.00  0.00    -0.544 OA
ENDBRANCH   2   7
ENDBRANCH   1   2
BRANCH   1  10
ATOM     10  C   UNL     1      89.075 178.719 176.222  1.00  0.00    -0.041 A 
ATOM     11  C   UNL     1      88.917 177.876 177.334  1.00  0.00     0.008 A 
ATOM     12  C   UNL     1      88.012 179.550 175.832  1.00  0.00     0.008 A 
ATOM     13  C   UNL     1      87.718 177.875 178.053  1.00  0.00     0.046 A 
ATOM     14  C   UNL     1      86.814 179.547 176.552  1.00  0.00     0.046 A 
ATOM     15  C   UNL     1      86.665 178.710 177.667  1.00  0.00     0.115 A 
BRANCH  15  16
ATOM     16  O   UNL     1      85.475 178.697 178.392  1.00  0.00    -0.508 OA
ATOM     17  H   UNL     1      85.451 178.417 179.365  1.00  0.00     0.293 HD
ENDBRANCH  15  16
ENDBRANCH   1  10
TORSDOF 5
ENDMDL
MODEL 2
REMARK VINA RESULT:    -2.758      0.245      1.613
REMARK INTER + INTRA:          -3.616
REMARK INTER:                  -3.422
REMARK INTRA:                  -0.194
REMARK UNBOUND:                -0.214
REMARK SMILES [NH3+][C@H](Cc1ccc(O)cc1)C(=O)[O-]
REMARK SMILES IDX 3 1 2 2 1 3 11 7 12 8 13 9 4 10 5 11 10 12 6 13 9 14 7 15
REMARK SMILES IDX 8 16
REMARK H PARENT 1 4 1 5 1 6 8 17
REMARK Flexibility Score: inf
ROOT
ATOM      1  C   UNL     1      90.247 178.626 175.501  1.00  0.00     0.107 C 
ENDROOT
BRANCH   1   2
ATOM      2  C   UNL     1      90.572 179.998 174.871  1.00  0.00     0.232 C 
BRANCH   2   3
ATOM      3  N   UNL     1      91.749 180.614 175.498  1.00  0.00    -0.350 N 
ATOM      4  H   UNL     1      92.230 181.244 174.816  1.00  0.00     0.345 HD
ATOM      5  H   UNL     1      91.473 181.167 176.342  1.00  0.00     0.345 HD
ATOM      6  H   UNL     1      92.430 179.872 175.781  1.00  0.00     0.345 HD
ENDBRANCH   2   3
BRANCH   2   7
ATOM      7  C   UNL     1      90.793 179.839 173.390  1.00  0.00     0.099 C 
ATOM      8  O   UNL     1      90.761 180.842 172.629  1.00  0.00    -0.544 OA
ATOM      9  O   UNL     1      91.055 178.584 172.857  1.00  0.00    -0.544 OA
ENDBRANCH   2   7
ENDBRANCH   1   2
BRANCH   1  10
ATOM     10  C   UNL     1      88.939 178.648 176.251  1.00  0.00    -0.041 A 
ATOM     11  C   UNL     1      87.888 179.471 175.814  1.00  0.00     0.008 A 
ATOM     12  C   UNL     1      88.772 177.875 177.412  1.00  0.00     0.008 A 
ATOM     13  C   UNL     1      86.683 179.510 176.522  1.00  0.00     0.046 A 
ATOM     14  C   UNL     1      87.566 177.916 178.118  1.00  0.00     0.046 A 
ATOM     15  C   UNL     1      86.517 178.734 177.673  1.00  0.00     0.115 A 
BRANCH  15  16
ATOM     16  O   UNL     1      85.311 178.784 178.369  1.00  0.00    -0.508 OA
ATOM     17  H   UNL     1      85.233 178.436 179.317  1.00  0.00     0.293 HD
ENDBRANCH  15  16
ENDBRANCH   1  10
TORSDOF 5
ENDMDL
MODEL 3
REMARK VINA RESULT:    -2.621      2.756      5.600
REMARK INTER + INTRA:          -3.447
REMARK INTER:                  -3.206
REMARK INTRA:                  -0.241
REMARK UNBOUND:                -0.214
REMARK SMILES [NH3+][C@H](Cc1ccc(O)cc1)C(=O)[O-]
REMARK SMILES IDX 3 1 2 2 1 3 11 7 12 8 13 9 4 10 5 11 10 12 6 13 9 14 7 15
REMARK SMILES IDX 8 16
REMARK H PARENT 1 4 1 5 1 6 8 17
REMARK Flexibility Score: inf
ROOT
ATOM      1  C   UNL     1      86.488 178.728 176.550  1.00  0.00     0.107 C 
ENDROOT
BRANCH   1   2
ATOM      2  C   UNL     1      85.765 179.668 177.539  1.00  0.00     0.232 C 
BRANCH   2   3
ATOM      3  N   UNL     1      84.322 179.729 177.267  1.00  0.00    -0.350 N 
ATOM      4  H   UNL     1      83.785 179.474 178.128  1.00  0.00     0.345 HD
ATOM      5  H   UNL     1      84.043 180.689 176.959  1.00  0.00     0.345 HD
ATOM      6  H   UNL     1      84.072 179.042 176.520  1.00  0.00     0.345 HD
ENDBRANCH   2   3
BRANCH   2   7
ATOM      7  C   UNL     1      86.011 179.210 178.951  1.00  0.00     0.099 C 
ATOM      8  O   UNL     1      86.362 178.023 179.186  1.00  0.00    -0.544 OA
ATOM      9  O   UNL     1      85.874 180.104 180.005  1.00  0.00    -0.544 OA
ENDBRANCH   2   7
ENDBRANCH   1   2
BRANCH   1  10
ATOM     10  C   UNL     1      87.883 179.209 176.236  1.00  0.00    -0.041 A 
ATOM     11  C   UNL     1      88.989 178.384 176.499  1.00  0.00     0.008 A 
ATOM     12  C   UNL     1      88.092 180.495 175.713  1.00  0.00     0.008 A 
ATOM     13  C   UNL     1      90.284 178.837 176.230  1.00  0.00     0.046 A 
ATOM     14  C   UNL     1      89.388 180.945 175.445  1.00  0.00     0.046 A 
ATOM     15  C   UNL     1      90.489 180.115 175.702  1.00  0.00     0.115 A 
BRANCH  15  16
ATOM     16  O   UNL     1      91.785 180.553 175.440  1.00  0.00    -0.508 OA
ATOM     17  H   UNL     1      92.528 179.902 175.218  1.00  0.00     0.293 HD
ENDBRANCH  15  16
ENDBRANCH   1  10
TORSDOF 5
ENDMDL
MODEL 4
REMARK VINA RESULT:    -2.597      2.781      5.778
REMARK INTER + INTRA:          -3.418
REMARK INTER:                  -3.174
REMARK INTRA:                  -0.244
REMARK UNBOUND:                -0.214
REMARK SMILES [NH3+][C@H](Cc1ccc(O)cc1)C(=O)[O-]
REMARK SMILES IDX 3 1 2 2 1 3 11 7 12 8 13 9 4 10 5 11 10 12 6 13 9 14 7 15
REMARK SMILES IDX 8 16
REMARK H PARENT 1 4 1 5 1 6 8 17
REMARK Flexibility Score: inf
ROOT
ATOM      1  C   UNL     1      86.453 178.697 176.484  1.00  0.00     0.107 C 
ENDROOT
BRANCH   1   2
ATOM      2  C   UNL     1      85.649 179.678 177.364  1.00  0.00     0.232 C 
BRANCH   2   3
ATOM      3  N   UNL     1      84.206 179.574 177.107  1.00  0.00    -0.350 N 
ATOM      4  H   UNL     1      83.696 180.333 177.616  1.00  0.00     0.345 HD
ATOM      5  H   UNL     1      84.005 179.651 176.083  1.00  0.00     0.345 HD
ATOM      6  H   UNL     1      83.847 178.657 177.460  1.00  0.00     0.345 HD
ENDBRANCH   2   3
BRANCH   2   7
ATOM      7  C   UNL     1      85.940 179.415 178.818  1.00  0.00     0.099 C 
ATOM      8  O   UNL     1      85.773 180.321 179.676  1.00  0.00    -0.544 OA
ATOM      9  O   UNL     1      86.375 178.160 179.223  1.00  0.00    -0.544 OA
ENDBRANCH   2   7
ENDBRANCH   1   2
BRANCH   1  10
ATOM     10  C   UNL     1      87.857 179.188 176.234  1.00  0.00    -0.041 A 
ATOM     11  C   UNL     1      88.071 180.465 175.690  1.00  0.00     0.008 A 
ATOM     12  C   UNL     1      88.959 178.362 176.507  1.00  0.00     0.008 A 
ATOM     13  C   UNL     1      89.371 180.914 175.436  1.00  0.00     0.046 A 
ATOM     14  C   UNL     1      90.258 178.813 176.252  1.00  0.00     0.046 A 
ATOM     15  C   UNL     1      90.467 180.092 175.716  1.00  0.00     0.115 A 
BRANCH  15  16
ATOM     16  O   UNL     1      91.756 180.552 175.457  1.00  0.00    -0.508 OA
ATOM     17  H   UNL     1      92.389 180.039 174.856  1.00  0.00     0.293 HD
ENDBRANCH  15  16
ENDBRANCH   1  10
TORSDOF 5
ENDMDL
MODEL 5
REMARK VINA RESULT:    -2.357      1.684      2.033
REMARK INTER + INTRA:          -3.122
REMARK INTER:                  -2.906
REMARK INTRA:                  -0.216
REMARK UNBOUND:                -0.214
REMARK SMILES [NH3+][C@H](Cc1ccc(O)cc1)C(=O)[O-]
REMARK SMILES IDX 3 1 2 2 1 3 11 7 12 8 13 9 4 10 5 11 10 12 6 13 9 14 7 15
REMARK SMILES IDX 8 16
REMARK H PARENT 1 4 1 5 1 6 8 17
REMARK Flexibility Score: inf
ROOT
ATOM      1  C   UNL     1      89.320 180.097 174.913  1.00  0.00     0.107 C 
ENDROOT
BRANCH   1   2
ATOM      2  C   UNL     1      90.340 181.091 175.510  1.00  0.00     0.232 C 
BRANCH   2   3
ATOM      3  N   UNL     1      91.714 180.582 175.406  1.00  0.00    -0.350 N 
ATOM      4  H   UNL     1      92.309 181.002 176.156  1.00  0.00     0.345 HD
ATOM      5  H   UNL     1      91.732 179.540 175.494  1.00  0.00     0.345 HD
ATOM      6  H   UNL     1      92.125 180.856 174.484  1.00  0.00     0.345 HD
ENDBRANCH   2   3
BRANCH   2   7
ATOM      7  C   UNL     1      90.221 182.422 174.816  1.00  0.00     0.099 C 
ATOM      8  O   UNL     1      91.103 182.797 173.999  1.00  0.00    -0.544 OA
ATOM      9  O   UNL     1      89.122 183.236 175.059  1.00  0.00    -0.544 OA
ENDBRANCH   2   7
ENDBRANCH   1   2
BRANCH   1  10
ATOM     10  C   UNL     1      88.381 179.556 175.961  1.00  0.00    -0.041 A 
ATOM     11  C   UNL     1      88.713 178.392 176.673  1.00  0.00     0.008 A 
ATOM     12  C   UNL     1      87.153 180.189 176.211  1.00  0.00     0.008 A 
ATOM     13  C   UNL     1      87.833 177.876 177.630  1.00  0.00     0.046 A 
ATOM     14  C   UNL     1      86.275 179.671 177.168  1.00  0.00     0.046 A 
ATOM     15  C   UNL     1      86.614 178.513 177.881  1.00  0.00     0.115 A 
BRANCH  15  16
ATOM     16  O   UNL     1      85.747 177.987 178.836  1.00  0.00    -0.508 OA
ATOM     17  H   UNL     1      84.779 178.280 178.890  1.00  0.00     0.293 HD
ENDBRANCH  15  16
ENDBRANCH   1  10
TORSDOF 5
ENDMDL
MODEL 6
REMARK VINA RESULT:    -2.318      2.283      5.356
REMARK INTER + INTRA:          -3.073
REMARK INTER:                  -2.806
REMARK INTRA:                  -0.268
REMARK UNBOUND:                -0.214
REMARK SMILES [NH3+][C@H](Cc1ccc(O)cc1)C(=O)[O-]
REMARK SMILES IDX 3 1 2 2 1 3 11 7 12 8 13 9 4 10 5 11 10 12 6 13 9 14 7 15
REMARK SMILES IDX 8 16
REMARK H PARENT 1 4 1 5 1 6 8 17
REMARK Flexibility Score: inf
ROOT
ATOM      1  C   UNL     1      90.232 179.143 176.006  1.00  0.00     0.107 C 
ENDROOT
BRANCH   1   2
ATOM      2  C   UNL     1      89.025 178.222 176.286  1.00  0.00     0.232 C 
BRANCH   2   3
ATOM      3  N   UNL     1      88.913 177.898 177.715  1.00  0.00    -0.350 N 
ATOM      4  H   UNL     1      89.611 178.451 178.263  1.00  0.00     0.345 HD
ATOM      5  H   UNL     1      87.951 178.109 178.069  1.00  0.00     0.345 HD
ATOM      6  H   UNL     1      89.120 176.884 177.866  1.00  0.00     0.345 HD
ENDBRANCH   2   3
BRANCH   2   7
ATOM      7  C   UNL     1      87.760 178.878 175.799  1.00  0.00     0.099 C 
ATOM      8  O   UNL     1      87.287 179.878 176.402  1.00  0.00    -0.544 OA
ATOM      9  O   UNL     1      87.118 178.395 174.666  1.00  0.00    -0.544 OA
ENDBRANCH   2   7
ENDBRANCH   1   2
BRANCH   1  10
ATOM     10  C   UNL     1      90.628 179.124 174.551  1.00  0.00    -0.041 A 
ATOM     11  C   UNL     1      90.804 177.901 173.883  1.00  0.00     0.008 A 
ATOM     12  C   UNL     1      90.857 180.325 173.860  1.00  0.00     0.008 A 
ATOM     13  C   UNL     1      91.193 177.882 172.540  1.00  0.00     0.046 A 
ATOM     14  C   UNL     1      91.246 180.303 172.518  1.00  0.00     0.046 A 
ATOM     15  C   UNL     1      91.414 179.079 171.854  1.00  0.00     0.115 A 
BRANCH  15  16
ATOM     16  O   UNL     1      91.802 179.045 170.516  1.00  0.00    -0.508 OA
ATOM     17  H   UNL     1      91.986 178.169 170.041  1.00  0.00     0.293 HD
ENDBRANCH  15  16
ENDBRANCH   1  10
TORSDOF 5
ENDMDL
MODEL 7
REMARK VINA RESULT:    -2.240      3.256      3.954
REMARK INTER + INTRA:          -2.978
REMARK INTER:                  -2.798
REMARK INTRA:                  -0.180
REMARK UNBOUND:                -0.214
REMARK SMILES [NH3+][C@H](Cc1ccc(O)cc1)C(=O)[O-]
REMARK SMILES IDX 3 1 2 2 1 3 11 7 12 8 13 9 4 10 5 11 10 12 6 13 9 14 7 15
REMARK SMILES IDX 8 16
REMARK H PARENT 1 4 1 5 1 6 8 17
REMARK Flexibility Score: inf
ROOT
ATOM      1  C   UNL     1      89.488 181.339 174.704  1.00  0.00     0.107 C 
ENDROOT
BRANCH   1   2
ATOM      2  C   UNL     1      91.014 181.558 174.618  1.00  0.00     0.232 C 
BRANCH   2   3
ATOM      3  N   UNL     1      91.747 180.573 175.425  1.00  0.00    -0.350 N 
ATOM      4  H   UNL     1      91.255 179.651 175.398  1.00  0.00     0.345 HD
ATOM      5  H   UNL     1      92.723 180.453 175.067  1.00  0.00     0.345 HD
ATOM      6  H   UNL     1      91.783 180.886 176.421  1.00  0.00     0.345 HD
ENDBRANCH   2   3
BRANCH   2   7
ATOM      7  C   UNL     1      91.458 181.490 173.181  1.00  0.00     0.099 C 
ATOM      8  O   UNL     1      91.755 182.541 172.553  1.00  0.00    -0.544 OA
ATOM      9  O   UNL     1      91.565 180.260 172.544  1.00  0.00    -0.544 OA
ENDBRANCH   2   7
ENDBRANCH   1   2
BRANCH   1  10
ATOM     10  C   UNL     1      88.846 182.256 175.714  1.00  0.00    -0.041 A 
ATOM     11  C   UNL     1      87.506 182.062 176.091  1.00  0.00     0.008 A 
ATOM     12  C   UNL     1      89.566 183.330 176.261  1.00  0.00     0.008 A 
ATOM     13  C   UNL     1      86.902 182.925 177.011  1.00  0.00     0.046 A 
ATOM     14  C   UNL     1      88.959 184.191 177.180  1.00  0.00     0.046 A 
ATOM     15  C   UNL     1      87.624 183.989 177.558  1.00  0.00     0.115 A 
BRANCH  15  16
ATOM     16  O   UNL     1      87.008 184.841 178.472  1.00  0.00    -0.508 OA
ATOM     17  H   UNL     1      87.483 185.147 179.313  1.00  0.00     0.293 HD
ENDBRANCH  15  16
ENDBRANCH   1  10
TORSDOF 5
ENDMDL
MODEL 8
REMARK VINA RESULT:    -2.223      3.487      5.076
REMARK INTER + INTRA:          -2.957
REMARK INTER:                  -2.784
REMARK INTRA:                  -0.172
REMARK UNBOUND:                -0.214
REMARK SMILES [NH3+][C@H](Cc1ccc(O)cc1)C(=O)[O-]
REMARK SMILES IDX 3 1 2 2 1 3 11 7 12 8 13 9 4 10 5 11 10 12 6 13 9 14 7 15
REMARK SMILES IDX 8 16
REMARK H PARENT 1 4 1 5 1 6 8 17
REMARK Flexibility Score: inf
ROOT
ATOM      1  C   UNL     1      89.328 180.813 175.353  1.00  0.00     0.107 C 
ENDROOT
BRANCH   1   2
ATOM      2  C   UNL     1      90.601 180.193 174.736  1.00  0.00     0.232 C 
BRANCH   2   3
ATOM      3  N   UNL     1      91.819 180.731 175.358  1.00  0.00    -0.350 N 
ATOM      4  H   UNL     1      91.778 181.776 175.379  1.00  0.00     0.345 HD
ATOM      5  H   UNL     1      91.927 180.370 176.334  1.00  0.00     0.345 HD
ATOM      6  H   UNL     1      92.656 180.455 174.795  1.00  0.00     0.345 HD
ENDBRANCH   2   3
BRANCH   2   7
ATOM      7  C   UNL     1      90.559 178.695 174.879  1.00  0.00     0.099 C 
ATOM      8  O   UNL     1      90.077 178.165 175.915  1.00  0.00    -0.544 OA
ATOM      9  O   UNL     1      91.035 177.886 173.855  1.00  0.00    -0.544 OA
ENDBRANCH   2   7
ENDBRANCH   1   2
BRANCH   1  10
ATOM     10  C   UNL     1      89.289 182.309 175.177  1.00  0.00    -0.041 A 
ATOM     11  C   UNL     1      89.247 182.868 173.889  1.00  0.00     0.008 A 
ATOM     12  C   UNL     1      89.331 183.159 176.295  1.00  0.00     0.008 A 
ATOM     13  C   UNL     1      89.234 184.256 173.724  1.00  0.00     0.046 A 
ATOM     14  C   UNL     1      89.319 184.547 176.126  1.00  0.00     0.046 A 
ATOM     15  C   UNL     1      89.269 185.099 174.839  1.00  0.00     0.115 A 
BRANCH  15  16
ATOM     16  O   UNL     1      89.257 186.480 174.658  1.00  0.00    -0.508 OA
ATOM     17  H   UNL     1      88.716 187.088 175.262  1.00  0.00     0.293 HD
ENDBRANCH  15  16
ENDBRANCH   1  10
TORSDOF 5
ENDMDL
MODEL 9
REMARK VINA RESULT:    -2.147      2.733      6.171
REMARK INTER + INTRA:          -2.863
REMARK INTER:                  -2.688
REMARK INTRA:                  -0.175
REMARK UNBOUND:                -0.214
REMARK SMILES [NH3+][C@H](Cc1ccc(O)cc1)C(=O)[O-]
REMARK SMILES IDX 3 1 2 2 1 3 11 7 12 8 13 9 4 10 5 11 10 12 6 13 9 14 7 15
REMARK SMILES IDX 8 16
REMARK H PARENT 1 4 1 5 1 6 8 17
REMARK Flexibility Score: inf
ROOT
ATOM      1  C   UNL     1      90.238 180.399 173.512  1.00  0.00     0.107 C 
ENDROOT
BRANCH   1   2
ATOM      2  C   UNL     1      90.856 179.711 174.749  1.00  0.00     0.232 C 
BRANCH   2   3
ATOM      3  N   UNL     1      91.751 180.618 175.480  1.00  0.00    -0.350 N 
ATOM      4  H   UNL     1      91.645 181.594 175.120  1.00  0.00     0.345 HD
ATOM      5  H   UNL     1      91.538 180.603 176.504  1.00  0.00     0.345 HD
ATOM      6  H   UNL     1      92.746 180.330 175.332  1.00  0.00     0.345 HD
ENDBRANCH   2   3
BRANCH   2   7
ATOM      7  C   UNL     1      89.761 179.214 175.656  1.00  0.00     0.099 C 
ATOM      8  O   UNL     1      88.744 179.923 175.877  1.00  0.00    -0.544 OA
ATOM      9  O   UNL     1      89.859 177.957 176.238  1.00  0.00    -0.544 OA
ENDBRANCH   2   7
ENDBRANCH   1   2
BRANCH   1  10
ATOM     10  C   UNL     1      90.720 179.780 172.225  1.00  0.00    -0.041 A 
ATOM     11  C   UNL     1      90.367 178.460 171.901  1.00  0.00     0.008 A 
ATOM     12  C   UNL     1      91.553 180.503 171.356  1.00  0.00     0.008 A 
ATOM     13  C   UNL     1      90.831 177.876 170.719  1.00  0.00     0.046 A 
ATOM     14  C   UNL     1      92.017 179.916 170.174  1.00  0.00     0.046 A 
ATOM     15  C   UNL     1      91.655 178.600 169.852  1.00  0.00     0.115 A 
BRANCH  15  16
ATOM     16  O   UNL     1      92.111 178.006 168.678  1.00  0.00    -0.508 OA
ATOM     17  H   UNL     1      93.091 178.026 168.420  1.00  0.00     0.293 HD
ENDBRANCH  15  16
ENDBRANCH   1  10
TORSDOF 5
ENDMDL
