MODEL 1
REMARK VINA RESULT:    -4.916      0.000      0.000
REMARK INTER + INTRA:          -7.361
REMARK INTER:                  -7.502
REMARK INTRA:                   0.142
REMARK UNBOUND:                 0.142
REMARK SMILES CC1=CCC[C@@H](C)C(=O)C[C@@H](C(C)C)C(=O)C1
REMARK SMILES IDX 8 1 9 2 6 3 7 4 5 5 4 6 3 7 2 8 1 9 10 11 11 12 15 13 16 14
REMARK SMILES IDX 17 15 12 17 13 18 14 19
REMARK H PARENT
REMARK Flexibility Score: 70.00
ROOT
ATOM      1  C   UNL     1     -12.217 -16.039  31.143  1.00  0.00     0.136 C 
ATOM      2  O   UNL     1     -11.380 -15.932  32.027  1.00  0.00    -0.299 OA
ENDROOT
BRANCH   1   3
ATOM      3  C   UNL     1     -13.641 -16.405  31.514  1.00  0.00     0.053 C 
ATOM      4  C   UNL     1     -14.315 -15.261  32.281  1.00  0.00     0.016 C 
BRANCH   3   5
ATOM      5  C   UNL     1     -13.638 -17.720  32.342  1.00  0.00     0.015 C 
BRANCH   5   6
ATOM      6  C   UNL     1     -12.899 -18.901  31.687  1.00  0.00     0.028 C 
BRANCH   6   7
ATOM      7  C   UNL     1     -13.605 -19.565  30.521  1.00  0.00    -0.028 C 
ATOM      8  C   UNL     1     -13.135 -19.687  29.255  1.00  0.00    -0.070 CG0
ATOM      9  C   UNL     1     -13.967 -20.459  28.262  1.00  0.00     0.039 C 
ATOM     10  G   UNL     1     -11.855 -19.034  28.769  1.00  0.00     0.000 G0
ENDBRANCH   6   7
ENDBRANCH   5   6
ENDBRANCH   3   5
ENDBRANCH   1   3
BRANCH   1  11
ATOM     11  C   UNL     1     -11.796 -15.802  29.708  1.00  0.00     0.087 C 
BRANCH  11  12
ATOM     12  C   UNL     1     -12.707 -16.500  28.658  1.00  0.00     0.066 C 
BRANCH  12  13
ATOM     13  C   UNL     1     -12.039 -17.726  28.036  1.00  0.00     0.140 C 
ATOM     14  O   UNL     1     -11.653 -17.663  26.878  1.00  0.00    -0.299 OA
BRANCH  13  15
ATOM     15  C   UNL     1     -11.847 -19.045  28.771  1.00  0.00     0.106 CG0
ATOM     16  G   UNL     1     -13.132 -19.681  29.264  1.00  0.00     0.000 G0
ENDBRANCH  13  15
ENDBRANCH  12  13
BRANCH  12  17
ATOM     17  C   UNL     1     -13.246 -15.541  27.551  1.00  0.00    -0.006 C 
ATOM     18  C   UNL     1     -14.065 -16.297  26.493  1.00  0.00     0.008 C 
ATOM     19  C   UNL     1     -14.057 -14.346  28.084  1.00  0.00     0.008 C 
ENDBRANCH  12  17
ENDBRANCH  11  12
ENDBRANCH   1  11
TORSDOF 1
ENDMDL
MODEL 2
REMARK VINA RESULT:    -4.732      1.700      2.168
REMARK INTER + INTRA:          -7.080
REMARK INTER:                  -7.534
REMARK INTRA:                   0.454
REMARK UNBOUND:                 0.142
REMARK SMILES CC1=CCC[C@@H](C)C(=O)C[C@@H](C(C)C)C(=O)C1
REMARK SMILES IDX 8 1 9 2 6 3 7 4 5 5 4 6 3 7 2 8 1 9 10 11 11 12 15 13 16 14
REMARK SMILES IDX 17 15 12 17 13 18 14 19
REMARK H PARENT
REMARK Flexibility Score: 70.00
ROOT
ATOM      1  C   UNL     1     -13.963 -15.169  30.560  1.00  0.00     0.136 C 
ATOM      2  O   UNL     1     -14.844 -14.323  30.520  1.00  0.00    -0.299 OA
ENDROOT
BRANCH   1   3
ATOM      3  C   UNL     1     -13.848 -16.059  31.782  1.00  0.00     0.053 C 
ATOM      4  C   UNL     1     -14.990 -15.781  32.767  1.00  0.00     0.016 C 
BRANCH   3   5
ATOM      5  C   UNL     1     -12.460 -15.848  32.447  1.00  0.00     0.015 C 
BRANCH   5   6
ATOM      6  C   UNL     1     -11.504 -17.053  32.357  1.00  0.00     0.028 C 
BRANCH   6   7
ATOM      7  C   UNL     1     -12.137 -18.380  31.987  1.00  0.00    -0.028 C 
ATOM      8  C   UNL     1     -11.884 -19.114  30.876  1.00  0.00    -0.070 CG0
ATOM      9  C   UNL     1     -12.567 -20.452  30.739  1.00  0.00     0.039 C 
ATOM     10  G   UNL     1     -11.007 -18.634  29.736  1.00  0.00     0.000 G0
ENDBRANCH   6   7
ENDBRANCH   5   6
ENDBRANCH   3   5
ENDBRANCH   1   3
BRANCH   1  11
ATOM     11  C   UNL     1     -13.018 -15.293  29.383  1.00  0.00     0.087 C 
BRANCH  11  12
ATOM     12  C   UNL     1     -12.773 -16.757  28.920  1.00  0.00     0.066 C 
BRANCH  12  13
ATOM     13  C   UNL     1     -11.350 -17.229  29.223  1.00  0.00     0.140 C 
ATOM     14  O   UNL     1     -10.422 -16.456  29.044  1.00  0.00    -0.299 OA
BRANCH  13  15
ATOM     15  C   UNL     1     -11.015 -18.630  29.714  1.00  0.00     0.106 CG0
ATOM     16  G   UNL     1     -11.867 -19.109  30.874  1.00  0.00     0.000 G0
ENDBRANCH  13  15
ENDBRANCH  12  13
BRANCH  12  17
ATOM     17  C   UNL     1     -13.136 -17.017  27.425  1.00  0.00    -0.006 C 
ATOM     18  C   UNL     1     -13.979 -15.875  26.836  1.00  0.00     0.008 C 
ATOM     19  C   UNL     1     -11.926 -17.296  26.515  1.00  0.00     0.008 C 
ENDBRANCH  12  17
ENDBRANCH  11  12
ENDBRANCH   1  11
TORSDOF 1
ENDMDL
MODEL 3
REMARK VINA RESULT:    -4.682      2.097      3.857
REMARK INTER + INTRA:          -7.004
REMARK INTER:                  -7.318
REMARK INTRA:                   0.314
REMARK UNBOUND:                 0.142
REMARK SMILES CC1=CCC[C@@H](C)C(=O)C[C@@H](C(C)C)C(=O)C1
REMARK SMILES IDX 8 1 9 2 6 3 7 4 5 5 4 6 3 7 2 8 1 9 10 11 11 12 15 13 16 14
REMARK SMILES IDX 17 15 12 17 13 18 14 19
REMARK H PARENT
REMARK Flexibility Score: 70.00
ROOT
ATOM      1  C   UNL     1     -13.097 -19.512  29.525  1.00  0.00     0.136 C 
ATOM      2  O   UNL     1     -13.369 -20.570  28.977  1.00  0.00    -0.299 OA
ENDROOT
BRANCH   1   3
ATOM      3  C   UNL     1     -12.659 -19.524  30.977  1.00  0.00     0.053 C 
ATOM      4  C   UNL     1     -12.607 -20.958  31.518  1.00  0.00     0.016 C 
BRANCH   3   5
ATOM      5  C   UNL     1     -13.619 -18.634  31.814  1.00  0.00     0.015 C 
BRANCH   5   6
ATOM      6  C   UNL     1     -13.409 -17.117  31.652  1.00  0.00     0.028 C 
BRANCH   6   7
ATOM      7  C   UNL     1     -12.081 -16.572  32.139  1.00  0.00    -0.028 C 
ATOM      8  C   UNL     1     -11.140 -15.949  31.388  1.00  0.00    -0.070 CG0
ATOM      9  C   UNL     1      -9.918 -15.409  32.088  1.00  0.00     0.039 C 
ATOM     10  G   UNL     1     -11.217 -15.826  29.878  1.00  0.00     0.000 G0
ENDBRANCH   6   7
ENDBRANCH   5   6
ENDBRANCH   3   5
ENDBRANCH   1   3
BRANCH   1  11
ATOM     11  C   UNL     1     -13.211 -18.228  28.730  1.00  0.00     0.087 C 
BRANCH  11  12
ATOM     12  C   UNL     1     -11.872 -17.757  28.095  1.00  0.00     0.066 C 
BRANCH  12  13
ATOM     13  C   UNL     1     -10.923 -17.149  29.128  1.00  0.00     0.140 C 
ATOM     14  O   UNL     1      -9.895 -17.747  29.407  1.00  0.00    -0.299 OA
BRANCH  13  15
ATOM     15  C   UNL     1     -11.198 -15.843  29.858  1.00  0.00     0.106 CG0
ATOM     16  G   UNL     1     -11.143 -15.945  31.370  1.00  0.00     0.000 G0
ENDBRANCH  13  15
ENDBRANCH  12  13
BRANCH  12  17
ATOM     17  C   UNL     1     -12.052 -16.798  26.877  1.00  0.00    -0.006 C 
ATOM     18  C   UNL     1     -11.527 -17.425  25.575  1.00  0.00     0.008 C 
ATOM     19  C   UNL     1     -13.492 -16.295  26.671  1.00  0.00     0.008 C 
ENDBRANCH  12  17
ENDBRANCH  11  12
ENDBRANCH   1  11
TORSDOF 1
ENDMDL
MODEL 4
REMARK VINA RESULT:    -4.497      2.334      4.156
REMARK INTER + INTRA:          -6.721
REMARK INTER:                  -6.446
REMARK INTRA:                  -0.275
REMARK UNBOUND:                 0.142
REMARK SMILES CC1=CCC[C@@H](C)C(=O)C[C@@H](C(C)C)C(=O)C1
REMARK SMILES IDX 8 1 9 2 6 3 7 4 5 5 4 6 3 7 2 8 1 9 10 11 11 12 15 13 16 14
REMARK SMILES IDX 17 15 12 17 13 18 14 19
REMARK H PARENT
REMARK Flexibility Score: 70.00
ROOT
ATOM      1  C   UNL     1     -13.661 -16.742  32.135  1.00  0.00     0.136 C 
ATOM      2  O   UNL     1     -14.601 -17.143  32.805  1.00  0.00    -0.299 OA
ENDROOT
BRANCH   1   3
ATOM      3  C   UNL     1     -13.720 -15.349  31.538  1.00  0.00     0.053 C 
ATOM      4  C   UNL     1     -14.706 -14.467  32.314  1.00  0.00     0.016 C 
BRANCH   3   5
ATOM      5  C   UNL     1     -14.103 -15.445  30.036  1.00  0.00     0.015 C 
BRANCH   5   6
ATOM      6  C   UNL     1     -13.012 -14.978  29.054  1.00  0.00     0.028 C 
BRANCH   6   7
ATOM      7  C   UNL     1     -12.651 -15.950  27.948  1.00  0.00    -0.028 C 
ATOM      8  C   UNL     1     -11.553 -16.743  27.895  1.00  0.00    -0.070 CG0
ATOM      9  C   UNL     1     -11.424 -17.702  26.738  1.00  0.00     0.039 C 
ATOM     10  G   UNL     1     -10.418 -16.672  28.899  1.00  0.00     0.000 G0
ENDBRANCH   6   7
ENDBRANCH   5   6
ENDBRANCH   3   5
ENDBRANCH   1   3
BRANCH   1  11
ATOM     11  C   UNL     1     -12.472 -17.657  31.924  1.00  0.00     0.087 C 
BRANCH  11  12
ATOM     12  C   UNL     1     -11.185 -16.924  31.454  1.00  0.00     0.066 C 
BRANCH  12  13
ATOM     13  C   UNL     1     -10.627 -17.508  30.155  1.00  0.00     0.140 C 
ATOM     14  O   UNL     1     -10.320 -18.690  30.126  1.00  0.00    -0.299 OA
BRANCH  13  15
ATOM     15  C   UNL     1     -10.405 -16.690  28.891  1.00  0.00     0.106 CG0
ATOM     16  G   UNL     1     -11.552 -16.743  27.900  1.00  0.00     0.000 G0
ENDBRANCH  13  15
ENDBRANCH  12  13
BRANCH  12  17
ATOM     17  C   UNL     1     -10.072 -16.836  32.544  1.00  0.00    -0.006 C 
ATOM     18  C   UNL     1     -10.296 -15.647  33.493  1.00  0.00     0.008 C 
ATOM     19  C   UNL     1      -9.878 -18.126  33.361  1.00  0.00     0.008 C 
ENDBRANCH  12  17
ENDBRANCH  11  12
ENDBRANCH   1  11
TORSDOF 1
ENDMDL
MODEL 5
REMARK VINA RESULT:    -4.471      2.130      3.964
REMARK INTER + INTRA:          -6.683
REMARK INTER:                  -6.406
REMARK INTRA:                  -0.276
REMARK UNBOUND:                 0.142
REMARK SMILES CC1=CCC[C@@H](C)C(=O)C[C@@H](C(C)C)C(=O)C1
REMARK SMILES IDX 8 1 9 2 6 3 7 4 5 5 4 6 3 7 2 8 1 9 10 11 11 12 15 13 16 14
REMARK SMILES IDX 17 15 12 17 13 18 14 19
REMARK H PARENT
REMARK Flexibility Score: 70.00
ROOT
ATOM      1  C   UNL     1     -11.524 -17.460  32.043  1.00  0.00     0.136 C 
ATOM      2  O   UNL     1     -10.548 -17.685  32.744  1.00  0.00    -0.299 OA
ENDROOT
BRANCH   1   3
ATOM      3  C   UNL     1     -11.968 -18.504  31.038  1.00  0.00     0.053 C 
ATOM      4  C   UNL     1     -12.566 -19.724  31.749  1.00  0.00     0.016 C 
BRANCH   3   5
ATOM      5  C   UNL     1     -10.765 -18.902  30.140  1.00  0.00     0.015 C 
BRANCH   5   6
ATOM      6  C   UNL     1     -10.517 -17.977  28.933  1.00  0.00     0.028 C 
BRANCH   6   7
ATOM      7  C   UNL     1     -11.725 -17.672  28.068  1.00  0.00    -0.028 C 
ATOM      8  C   UNL     1     -12.495 -16.559  28.121  1.00  0.00    -0.070 CG0
ATOM      9  C   UNL     1     -13.607 -16.417  27.111  1.00  0.00     0.039 C 
ATOM     10  G   UNL     1     -12.342 -15.482  29.178  1.00  0.00     0.000 G0
ENDBRANCH   6   7
ENDBRANCH   5   6
ENDBRANCH   3   5
ENDBRANCH   1   3
BRANCH   1  11
ATOM     11  C   UNL     1     -12.251 -16.140  32.207  1.00  0.00     0.087 C 
BRANCH  11  12
ATOM     12  C   UNL     1     -13.608 -16.068  31.453  1.00  0.00     0.066 C 
BRANCH  12  13
ATOM     13  C   UNL     1     -13.497 -15.304  30.133  1.00  0.00     0.140 C 
ATOM     14  O   UNL     1     -14.398 -14.541  29.818  1.00  0.00    -0.299 OA
BRANCH  13  15
ATOM     15  C   UNL     1     -12.333 -15.458  29.167  1.00  0.00     0.106 CG0
ATOM     16  G   UNL     1     -12.504 -16.569  28.149  1.00  0.00     0.000 G0
ENDBRANCH  13  15
ENDBRANCH  12  13
BRANCH  12  17
ATOM     17  C   UNL     1     -14.784 -15.515  32.317  1.00  0.00    -0.006 C 
ATOM     18  C   UNL     1     -15.467 -16.626  33.129  1.00  0.00     0.008 C 
ATOM     19  C   UNL     1     -14.397 -14.351  33.247  1.00  0.00     0.008 C 
ENDBRANCH  12  17
ENDBRANCH  11  12
ENDBRANCH   1  11
TORSDOF 1
ENDMDL
MODEL 6
REMARK VINA RESULT:    -4.371      1.799      4.332
REMARK INTER + INTRA:          -6.529
REMARK INTER:                  -6.823
REMARK INTRA:                   0.293
REMARK UNBOUND:                 0.142
REMARK SMILES CC1=CCC[C@@H](C)C(=O)C[C@@H](C(C)C)C(=O)C1
REMARK SMILES IDX 8 1 9 2 6 3 7 4 5 5 4 6 3 7 2 8 1 9 10 11 11 12 15 13 16 14
REMARK SMILES IDX 17 15 12 17 13 18 14 19
REMARK H PARENT
REMARK Flexibility Score: 70.00
ROOT
ATOM      1  C   UNL     1     -13.050 -19.120  30.820  1.00  0.00     0.136 C 
ATOM      2  O   UNL     1     -12.680 -20.206  31.243  1.00  0.00    -0.299 OA
ENDROOT
BRANCH   1   3
ATOM      3  C   UNL     1     -13.236 -18.934  29.327  1.00  0.00     0.053 C 
ATOM      4  C   UNL     1     -14.159 -20.017  28.755  1.00  0.00     0.016 C 
BRANCH   3   5
ATOM      5  C   UNL     1     -11.849 -18.943  28.627  1.00  0.00     0.015 C 
BRANCH   5   6
ATOM      6  C   UNL     1     -11.620 -17.799  27.620  1.00  0.00     0.028 C 
BRANCH   6   7
ATOM      7  C   UNL     1     -12.734 -16.777  27.508  1.00  0.00    -0.028 C 
ATOM      8  C   UNL     1     -12.851 -15.629  28.217  1.00  0.00    -0.070 CG0
ATOM      9  C   UNL     1     -14.000 -14.708  27.891  1.00  0.00     0.039 C 
ATOM     10  G   UNL     1     -11.930 -15.253  29.363  1.00  0.00     0.000 G0
ENDBRANCH   6   7
ENDBRANCH   5   6
ENDBRANCH   3   5
ENDBRANCH   1   3
BRANCH   1  11
ATOM     11  C   UNL     1     -13.306 -18.001  31.808  1.00  0.00     0.087 C 
BRANCH  11  12
ATOM     12  C   UNL     1     -13.417 -16.594  31.154  1.00  0.00     0.066 C 
BRANCH  12  13
ATOM     13  C   UNL     1     -12.073 -16.094  30.625  1.00  0.00     0.140 C 
ATOM     14  O   UNL     1     -11.057 -16.361  31.249  1.00  0.00    -0.299 OA
BRANCH  13  15
ATOM     15  C   UNL     1     -11.925 -15.252  29.366  1.00  0.00     0.106 CG0
ATOM     16  G   UNL     1     -12.855 -15.645  28.235  1.00  0.00     0.000 G0
ENDBRANCH  13  15
ENDBRANCH  12  13
BRANCH  12  17
ATOM     17  C   UNL     1     -14.085 -15.522  32.070  1.00  0.00    -0.006 C 
ATOM     18  C   UNL     1     -14.816 -14.447  31.250  1.00  0.00     0.008 C 
ATOM     19  C   UNL     1     -15.032 -16.098  33.138  1.00  0.00     0.008 C 
ENDBRANCH  12  17
ENDBRANCH  11  12
ENDBRANCH   1  11
TORSDOF 1
ENDMDL
MODEL 7
REMARK VINA RESULT:    -4.318      1.623      3.868
REMARK INTER + INTRA:          -6.448
REMARK INTER:                  -6.657
REMARK INTRA:                   0.209
REMARK UNBOUND:                 0.142
REMARK SMILES CC1=CCC[C@@H](C)C(=O)C[C@@H](C(C)C)C(=O)C1
REMARK SMILES IDX 8 1 9 2 6 3 7 4 5 5 4 6 3 7 2 8 1 9 10 11 11 12 15 13 16 14
REMARK SMILES IDX 17 15 12 17 13 18 14 19
REMARK H PARENT
REMARK Flexibility Score: 70.00
ROOT
ATOM      1  C   UNL     1     -12.289 -16.273  28.752  1.00  0.00     0.136 C 
ATOM      2  O   UNL     1     -11.371 -15.497  28.532  1.00  0.00    -0.299 OA
ENDROOT
BRANCH   1   3
ATOM      3  C   UNL     1     -12.927 -17.011  27.591  1.00  0.00     0.053 C 
ATOM      4  C   UNL     1     -13.571 -16.026  26.608  1.00  0.00     0.016 C 
BRANCH   3   5
ATOM      5  C   UNL     1     -13.965 -18.032  28.134  1.00  0.00     0.015 C 
BRANCH   5   6
ATOM      6  C   UNL     1     -13.455 -19.481  28.251  1.00  0.00     0.028 C 
BRANCH   6   7
ATOM      7  C   UNL     1     -13.348 -20.038  29.657  1.00  0.00    -0.028 C 
ATOM      8  C   UNL     1     -12.376 -19.767  30.562  1.00  0.00    -0.070 CG0
ATOM      9  C   UNL     1     -12.503 -20.368  31.940  1.00  0.00     0.039 C 
ATOM     10  G   UNL     1     -11.139 -18.950  30.244  1.00  0.00     0.000 G0
ENDBRANCH   6   7
ENDBRANCH   5   6
ENDBRANCH   3   5
ENDBRANCH   1   3
BRANCH   1  11
ATOM     11  C   UNL     1     -12.755 -16.465  30.180  1.00  0.00     0.087 C 
BRANCH  11  12
ATOM     12  C   UNL     1     -11.603 -16.483  31.224  1.00  0.00     0.066 C 
BRANCH  12  13
ATOM     13  C   UNL     1     -10.842 -17.809  31.224  1.00  0.00     0.140 C 
ATOM     14  O   UNL     1      -9.936 -17.968  32.028  1.00  0.00    -0.299 OA
BRANCH  13  15
ATOM     15  C   UNL     1     -11.131 -18.945  30.254  1.00  0.00     0.106 CG0
ATOM     16  G   UNL     1     -12.374 -19.749  30.582  1.00  0.00     0.000 G0
ENDBRANCH  13  15
ENDBRANCH  12  13
BRANCH  12  17
ATOM     17  C   UNL     1     -12.052 -16.102  32.669  1.00  0.00    -0.006 C 
ATOM     18  C   UNL     1     -11.054 -15.149  33.344  1.00  0.00     0.008 C 
ATOM     19  C   UNL     1     -13.474 -15.519  32.761  1.00  0.00     0.008 C 
ENDBRANCH  12  17
ENDBRANCH  11  12
ENDBRANCH   1  11
TORSDOF 1
ENDMDL
MODEL 8
REMARK VINA RESULT:    -4.272      2.201      5.258
REMARK INTER + INTRA:          -6.378
REMARK INTER:                  -6.522
REMARK INTRA:                   0.144
REMARK UNBOUND:                 0.142
REMARK SMILES CC1=CCC[C@@H](C)C(=O)C[C@@H](C(C)C)C(=O)C1
REMARK SMILES IDX 8 1 9 2 6 3 7 4 5 5 4 6 3 7 2 8 1 9 10 11 11 12 15 13 16 14
REMARK SMILES IDX 17 15 12 17 13 18 14 19
REMARK H PARENT
REMARK Flexibility Score: 70.00
ROOT
ATOM      1  C   UNL     1     -13.233 -18.163  28.295  1.00  0.00     0.136 C 
ATOM      2  O   UNL     1     -14.140 -18.981  28.268  1.00  0.00    -0.299 OA
ENDROOT
BRANCH   1   3
ATOM      3  C   UNL     1     -12.959 -17.322  27.063  1.00  0.00     0.053 C 
ATOM      4  C   UNL     1     -11.455 -17.264  26.769  1.00  0.00     0.016 C 
BRANCH   3   5
ATOM      5  C   UNL     1     -13.555 -15.902  27.263  1.00  0.00     0.015 C 
BRANCH   5   6
ATOM      6  C   UNL     1     -13.020 -15.137  28.489  1.00  0.00     0.028 C 
BRANCH   6   7
ATOM      7  C   UNL     1     -14.058 -14.689  29.499  1.00  0.00    -0.028 C 
ATOM      8  C   UNL     1     -14.056 -14.949  30.829  1.00  0.00    -0.070 CG0
ATOM      9  C   UNL     1     -15.146 -14.337  31.673  1.00  0.00     0.039 C 
ATOM     10  G   UNL     1     -13.058 -15.873  31.501  1.00  0.00     0.000 G0
ENDBRANCH   6   7
ENDBRANCH   5   6
ENDBRANCH   3   5
ENDBRANCH   1   3
BRANCH   1  11
ATOM     11  C   UNL     1     -12.415 -18.023  29.562  1.00  0.00     0.087 C 
BRANCH  11  12
ATOM     12  C   UNL     1     -13.161 -18.473  30.849  1.00  0.00     0.066 C 
BRANCH  12  13
ATOM     13  C   UNL     1     -13.565 -17.290  31.729  1.00  0.00     0.140 C 
ATOM     14  O   UNL     1     -14.348 -17.479  32.648  1.00  0.00    -0.299 OA
BRANCH  13  15
ATOM     15  C   UNL     1     -13.067 -15.869  31.510  1.00  0.00     0.106 CG0
ATOM     16  G   UNL     1     -14.076 -14.943  30.859  1.00  0.00     0.000 G0
ENDBRANCH  13  15
ENDBRANCH  12  13
BRANCH  12  17
ATOM     17  C   UNL     1     -12.394 -19.546  31.684  1.00  0.00    -0.006 C 
ATOM     18  C   UNL     1     -12.510 -20.945  31.057  1.00  0.00     0.008 C 
ATOM     19  C   UNL     1     -10.914 -19.211  31.943  1.00  0.00     0.008 C 
ENDBRANCH  12  17
ENDBRANCH  11  12
ENDBRANCH   1  11
TORSDOF 1
ENDMDL
MODEL 9
REMARK VINA RESULT:    -4.254      1.869      3.937
REMARK INTER + INTRA:          -6.350
REMARK INTER:                  -6.774
REMARK INTRA:                   0.424
REMARK UNBOUND:                 0.142
REMARK SMILES CC1=CCC[C@@H](C)C(=O)C[C@@H](C(C)C)C(=O)C1
REMARK SMILES IDX 8 1 9 2 6 3 7 4 5 5 4 6 3 7 2 8 1 9 10 11 11 12 15 13 16 14
REMARK SMILES IDX 17 15 12 17 13 18 14 19
REMARK H PARENT
REMARK Flexibility Score: 70.00
ROOT
ATOM      1  C   UNL     1     -12.062 -16.706  31.860  1.00  0.00     0.136 C 
ATOM      2  O   UNL     1     -12.247 -15.917  32.775  1.00  0.00    -0.299 OA
ENDROOT
BRANCH   1   3
ATOM      3  C   UNL     1     -10.647 -17.148  31.541  1.00  0.00     0.053 C 
ATOM      4  C   UNL     1      -9.907 -17.567  32.817  1.00  0.00     0.016 C 
BRANCH   3   5
ATOM      5  C   UNL     1      -9.901 -16.003  30.801  1.00  0.00     0.015 C 
BRANCH   5   6
ATOM      6  C   UNL     1     -10.618 -15.461  29.550  1.00  0.00     0.028 C 
BRANCH   6   7
ATOM      7  C   UNL     1     -10.445 -16.271  28.280  1.00  0.00    -0.028 C 
ATOM      8  C   UNL     1     -11.434 -16.755  27.490  1.00  0.00    -0.070 CG0
ATOM      9  C   UNL     1     -11.043 -17.470  26.221  1.00  0.00     0.039 C 
ATOM     10  G   UNL     1     -12.907 -16.675  27.846  1.00  0.00     0.000 G0
ENDBRANCH   6   7
ENDBRANCH   5   6
ENDBRANCH   3   5
ENDBRANCH   1   3
BRANCH   1  11
ATOM     11  C   UNL     1     -13.257 -17.210  31.078  1.00  0.00     0.087 C 
BRANCH  11  12
ATOM     12  C   UNL     1     -12.904 -18.267  29.994  1.00  0.00     0.066 C 
BRANCH  12  13
ATOM     13  C   UNL     1     -13.423 -17.873  28.610  1.00  0.00     0.140 C 
ATOM     14  O   UNL     1     -14.291 -18.558  28.090  1.00  0.00    -0.299 OA
BRANCH  13  15
ATOM     15  C   UNL     1     -12.899 -16.681  27.823  1.00  0.00     0.106 CG0
ATOM     16  G   UNL     1     -11.426 -16.759  27.473  1.00  0.00     0.000 G0
ENDBRANCH  13  15
ENDBRANCH  12  13
BRANCH  12  17
ATOM     17  C   UNL     1     -13.345 -19.719  30.357  1.00  0.00    -0.006 C 
ATOM     18  C   UNL     1     -13.130 -20.690  29.186  1.00  0.00     0.008 C 
ATOM     19  C   UNL     1     -12.688 -20.283  31.630  1.00  0.00     0.008 C 
ENDBRANCH  12  17
ENDBRANCH  11  12
ENDBRANCH   1  11
TORSDOF 1
ENDMDL
