MODEL 1
REMARK VINA RESULT:    -4.082      0.000      0.000
REMARK INTER + INTRA:          -9.023
REMARK INTER:                  -7.423
REMARK INTRA:                  -1.600
REMARK UNBOUND:                -1.600
REMARK SMILES CCCCCCCCCCCCCC[C@H](C)C(=O)[O-]
REMARK SMILES IDX 9 1 10 2 11 3 12 4 13 5 14 6 15 7 16 8 17 9 18 10 19 11 8 12
REMARK SMILES IDX 7 13 6 14 5 15 4 16 3 17 2 18 1 19
REMARK H PARENT
REMARK Flexibility Score: inf
ROOT
ATOM      1  C   UNL     1     120.665  53.328  56.098  1.00  0.00     0.000 C 
ENDROOT
BRANCH   1   2
ATOM      2  C   UNL     1     122.074  53.903  55.909  1.00  0.00     0.000 C 
BRANCH   2   3
ATOM      3  C   UNL     1     122.738  53.331  54.652  1.00  0.00     0.000 C 
BRANCH   3   4
ATOM      4  C   UNL     1     123.182  54.457  53.705  1.00  0.00     0.000 C 
BRANCH   4   5
ATOM      5  C   UNL     1     122.719  54.245  52.255  1.00  0.00     0.001 C 
BRANCH   5   6
ATOM      6  C   UNL     1     122.086  55.470  51.556  1.00  0.00     0.009 C 
BRANCH   6   7
ATOM      7  C   UNL     1     123.035  56.417  50.773  1.00  0.00     0.032 C 
ATOM      8  C   UNL     1     124.191  55.681  50.078  1.00  0.00     0.014 C 
BRANCH   7   9
ATOM      9  C   UNL     1     123.511  57.584  51.599  1.00  0.00     0.044 C 
ATOM     10  O   UNL     1     122.988  58.723  51.473  1.00  0.00    -0.550 OA
ATOM     11  O   UNL     1     124.576  57.416  52.475  1.00  0.00    -0.550 OA
ENDBRANCH   7   9
ENDBRANCH   6   7
ENDBRANCH   5   6
ENDBRANCH   4   5
ENDBRANCH   3   4
ENDBRANCH   2   3
ENDBRANCH   1   2
BRANCH   1  12
ATOM     12  C   UNL     1     119.595  54.336  55.662  1.00  0.00     0.000 C 
BRANCH  12  13
ATOM     13  C   UNL     1     119.039  53.983  54.275  1.00  0.00    -0.000 C 
BRANCH  13  14
ATOM     14  C   UNL     1     119.114  52.477  53.962  1.00  0.00    -0.000 C 
BRANCH  14  15
ATOM     15  C   UNL     1     117.753  51.793  53.738  1.00  0.00    -0.000 C 
BRANCH  15  16
ATOM     16  C   UNL     1     116.632  52.389  54.601  1.00  0.00    -0.000 C 
BRANCH  16  17
ATOM     17  C   UNL     1     115.513  52.969  53.722  1.00  0.00    -0.000 C 
BRANCH  17  18
ATOM     18  C   UNL     1     115.622  52.525  52.256  1.00  0.00    -0.003 C 
ATOM     19  C   UNL     1     115.614  53.701  51.279  1.00  0.00     0.004 C 
ENDBRANCH  17  18
ENDBRANCH  16  17
ENDBRANCH  15  16
ENDBRANCH  14  15
ENDBRANCH  13  14
ENDBRANCH  12  13
ENDBRANCH   1  12
TORSDOF 14
ENDMDL
MODEL 2
REMARK VINA RESULT:    -3.975      9.066     10.544
REMARK INTER + INTRA:          -8.827
REMARK INTER:                  -6.516
REMARK INTRA:                  -2.312
REMARK UNBOUND:                -1.600
REMARK SMILES CCCCCCCCCCCCCC[C@H](C)C(=O)[O-]
REMARK SMILES IDX 9 1 10 2 11 3 12 4 13 5 14 6 15 7 16 8 17 9 18 10 19 11 8 12
REMARK SMILES IDX 7 13 6 14 5 15 4 16 3 17 2 18 1 19
REMARK H PARENT
REMARK Flexibility Score: inf
ROOT
ATOM      1  C   UNL     1     124.286  51.981  45.587  1.00  0.00     0.000 C 
ENDROOT
BRANCH   1   2
ATOM      2  C   UNL     1     125.782  52.034  45.253  1.00  0.00     0.000 C 
BRANCH   2   3
ATOM      3  C   UNL     1     126.230  53.471  44.962  1.00  0.00     0.000 C 
BRANCH   3   4
ATOM      4  C   UNL     1     126.159  53.773  43.457  1.00  0.00     0.000 C 
BRANCH   4   5
ATOM      5  C   UNL     1     126.033  55.273  43.147  1.00  0.00     0.001 C 
BRANCH   5   6
ATOM      6  C   UNL     1     124.651  55.912  43.415  1.00  0.00     0.009 C 
BRANCH   6   7
ATOM      7  C   UNL     1     124.437  56.603  44.787  1.00  0.00     0.032 C 
ATOM      8  C   UNL     1     123.092  56.250  45.443  1.00  0.00     0.014 C 
BRANCH   7   9
ATOM      9  C   UNL     1     124.679  58.090  44.740  1.00  0.00     0.044 C 
ATOM     10  O   UNL     1     123.869  58.895  45.271  1.00  0.00    -0.550 OA
ATOM     11  O   UNL     1     125.783  58.583  44.057  1.00  0.00    -0.550 OA
ENDBRANCH   7   9
ENDBRANCH   6   7
ENDBRANCH   5   6
ENDBRANCH   4   5
ENDBRANCH   3   4
ENDBRANCH   2   3
ENDBRANCH   1   2
BRANCH   1  12
ATOM     12  C   UNL     1     123.827  50.539  45.831  1.00  0.00     0.000 C 
BRANCH  12  13
ATOM     13  C   UNL     1     124.765  49.539  45.142  1.00  0.00    -0.000 C 
BRANCH  13  14
ATOM     14  C   UNL     1     124.019  48.531  44.248  1.00  0.00    -0.000 C 
BRANCH  14  15
ATOM     15  C   UNL     1     123.233  49.156  43.081  1.00  0.00    -0.000 C 
BRANCH  15  16
ATOM     16  C   UNL     1     124.140  49.813  42.030  1.00  0.00    -0.000 C 
BRANCH  16  17
ATOM     17  C   UNL     1     123.895  51.328  41.964  1.00  0.00    -0.000 C 
BRANCH  17  18
ATOM     18  C   UNL     1     122.427  51.701  42.217  1.00  0.00    -0.003 C 
ATOM     19  C   UNL     1     122.269  53.083  42.854  1.00  0.00     0.004 C 
ENDBRANCH  17  18
ENDBRANCH  16  17
ENDBRANCH  15  16
ENDBRANCH  14  15
ENDBRANCH  13  14
ENDBRANCH  12  13
ENDBRANCH   1  12
TORSDOF 14
ENDMDL
MODEL 3
REMARK VINA RESULT:    -3.971      2.659      4.430
REMARK INTER + INTRA:          -8.821
REMARK INTER:                  -6.575
REMARK INTRA:                  -2.246
REMARK UNBOUND:                -1.600
REMARK SMILES CCCCCCCCCCCCCC[C@H](C)C(=O)[O-]
REMARK SMILES IDX 9 1 10 2 11 3 12 4 13 5 14 6 15 7 16 8 17 9 18 10 19 11 8 12
REMARK SMILES IDX 7 13 6 14 5 15 4 16 3 17 2 18 1 19
REMARK H PARENT
REMARK Flexibility Score: inf
ROOT
ATOM      1  C   UNL     1     117.704  51.874  54.046  1.00  0.00     0.000 C 
ENDROOT
BRANCH   1   2
ATOM      2  C   UNL     1     119.008  52.681  54.034  1.00  0.00     0.000 C 
BRANCH   2   3
ATOM      3  C   UNL     1     118.893  53.927  54.919  1.00  0.00     0.000 C 
BRANCH   3   4
ATOM      4  C   UNL     1     120.021  53.966  55.961  1.00  0.00     0.000 C 
BRANCH   4   5
ATOM      5  C   UNL     1     121.103  52.901  55.721  1.00  0.00     0.001 C 
BRANCH   5   6
ATOM      6  C   UNL     1     122.510  53.429  55.355  1.00  0.00     0.009 C 
BRANCH   6   7
ATOM      7  C   UNL     1     122.950  53.323  53.871  1.00  0.00     0.032 C 
ATOM      8  C   UNL     1     122.333  54.407  52.974  1.00  0.00     0.014 C 
BRANCH   7   9
ATOM      9  C   UNL     1     122.771  51.938  53.304  1.00  0.00     0.044 C 
ATOM     10  O   UNL     1     122.012  51.735  52.319  1.00  0.00    -0.550 OA
ATOM     11  O   UNL     1     123.410  50.862  53.905  1.00  0.00    -0.550 OA
ENDBRANCH   7   9
ENDBRANCH   6   7
ENDBRANCH   5   6
ENDBRANCH   4   5
ENDBRANCH   3   4
ENDBRANCH   2   3
ENDBRANCH   1   2
BRANCH   1  12
ATOM     12  C   UNL     1     116.556  52.690  54.651  1.00  0.00     0.000 C 
BRANCH  12  13
ATOM     13  C   UNL     1     115.386  52.810  53.664  1.00  0.00    -0.000 C 
BRANCH  13  14
ATOM     14  C   UNL     1     115.508  51.849  52.467  1.00  0.00    -0.000 C 
BRANCH  14  15
ATOM     15  C   UNL     1     115.616  52.534  51.093  1.00  0.00    -0.000 C 
BRANCH  15  16
ATOM     16  C   UNL     1     115.691  54.065  51.189  1.00  0.00    -0.000 C 
BRANCH  16  17
ATOM     17  C   UNL     1     116.803  54.618  50.284  1.00  0.00    -0.000 C 
BRANCH  17  18
ATOM     18  C   UNL     1     118.178  54.616  50.968  1.00  0.00    -0.003 C 
ATOM     19  C   UNL     1     118.417  55.863  51.819  1.00  0.00     0.004 C 
ENDBRANCH  17  18
ENDBRANCH  16  17
ENDBRANCH  15  16
ENDBRANCH  14  15
ENDBRANCH  13  14
ENDBRANCH  12  13
ENDBRANCH   1  12
TORSDOF 14
ENDMDL
MODEL 4
REMARK VINA RESULT:    -3.969      1.888      3.565
REMARK INTER + INTRA:          -8.818
REMARK INTER:                  -6.891
REMARK INTRA:                  -1.926
REMARK UNBOUND:                -1.600
REMARK SMILES CCCCCCCCCCCCCC[C@H](C)C(=O)[O-]
REMARK SMILES IDX 9 1 10 2 11 3 12 4 13 5 14 6 15 7 16 8 17 9 18 10 19 11 8 12
REMARK SMILES IDX 7 13 6 14 5 15 4 16 3 17 2 18 1 19
REMARK H PARENT
REMARK Flexibility Score: inf
ROOT
ATOM      1  C   UNL     1     119.069  53.989  52.857  1.00  0.00     0.000 C 
ENDROOT
BRANCH   1   2
ATOM      2  C   UNL     1     118.957  53.926  54.385  1.00  0.00     0.000 C 
BRANCH   2   3
ATOM      3  C   UNL     1     120.085  53.080  54.986  1.00  0.00     0.000 C 
BRANCH   3   4
ATOM      4  C   UNL     1     120.970  53.925  55.914  1.00  0.00     0.000 C 
BRANCH   4   5
ATOM      5  C   UNL     1     122.472  53.776  55.619  1.00  0.00     0.001 C 
BRANCH   5   6
ATOM      6  C   UNL     1     122.843  53.324  54.188  1.00  0.00     0.009 C 
BRANCH   6   7
ATOM      7  C   UNL     1     123.524  54.367  53.262  1.00  0.00     0.032 C 
ATOM      8  C   UNL     1     122.547  55.043  52.287  1.00  0.00     0.014 C 
BRANCH   7   9
ATOM      9  C   UNL     1     124.746  53.825  52.566  1.00  0.00     0.044 C 
ATOM     10  O   UNL     1     125.051  52.605  52.649  1.00  0.00    -0.550 OA
ATOM     11  O   UNL     1     125.576  54.690  51.865  1.00  0.00    -0.550 OA
ENDBRANCH   7   9
ENDBRANCH   6   7
ENDBRANCH   5   6
ENDBRANCH   4   5
ENDBRANCH   3   4
ENDBRANCH   2   3
ENDBRANCH   1   2
BRANCH   1  12
ATOM     12  C   UNL     1     117.923  54.810  52.254  1.00  0.00     0.000 C 
BRANCH  12  13
ATOM     13  C   UNL     1     117.121  53.976  51.244  1.00  0.00    -0.000 C 
BRANCH  13  14
ATOM     14  C   UNL     1     115.651  53.781  51.658  1.00  0.00    -0.000 C 
BRANCH  14  15
ATOM     15  C   UNL     1     115.442  53.324  53.114  1.00  0.00    -0.000 C 
BRANCH  15  16
ATOM     16  C   UNL     1     115.849  51.861  53.348  1.00  0.00    -0.000 C 
BRANCH  16  17
ATOM     17  C   UNL     1     115.494  50.992  52.132  1.00  0.00    -0.000 C 
BRANCH  17  18
ATOM     18  C   UNL     1     116.668  50.118  51.667  1.00  0.00    -0.003 C 
ATOM     19  C   UNL     1     117.982  50.475  52.363  1.00  0.00     0.004 C 
ENDBRANCH  17  18
ENDBRANCH  16  17
ENDBRANCH  15  16
ENDBRANCH  14  15
ENDBRANCH  13  14
ENDBRANCH  12  13
ENDBRANCH   1  12
TORSDOF 14
ENDMDL
MODEL 5
REMARK VINA RESULT:    -3.829      3.391      6.813
REMARK INTER + INTRA:          -8.563
REMARK INTER:                  -6.671
REMARK INTRA:                  -1.892
REMARK UNBOUND:                -1.600
REMARK SMILES CCCCCCCCCCCCCC[C@H](C)C(=O)[O-]
REMARK SMILES IDX 9 1 10 2 11 3 12 4 13 5 14 6 15 7 16 8 17 9 18 10 19 11 8 12
REMARK SMILES IDX 7 13 6 14 5 15 4 16 3 17 2 18 1 19
REMARK H PARENT
REMARK Flexibility Score: inf
ROOT
ATOM      1  C   UNL     1     119.065  53.903  54.356  1.00  0.00     0.000 C 
ENDROOT
BRANCH   1   2
ATOM      2  C   UNL     1     119.118  52.471  53.811  1.00  0.00     0.000 C 
BRANCH   2   3
ATOM      3  C   UNL     1     117.830  51.708  54.140  1.00  0.00     0.000 C 
BRANCH   3   4
ATOM      4  C   UNL     1     116.720  52.673  54.584  1.00  0.00     0.000 C 
BRANCH   4   5
ATOM      5  C   UNL     1     115.534  52.723  53.607  1.00  0.00     0.001 C 
BRANCH   5   6
ATOM      6  C   UNL     1     115.655  53.729  52.439  1.00  0.00     0.009 C 
BRANCH   6   7
ATOM      7  C   UNL     1     115.902  53.152  51.020  1.00  0.00     0.032 C 
ATOM      8  C   UNL     1     117.376  53.205  50.590  1.00  0.00     0.014 C 
BRANCH   7   9
ATOM      9  C   UNL     1     114.979  53.735  49.981  1.00  0.00     0.044 C 
ATOM     10  O   UNL     1     114.646  53.070  48.964  1.00  0.00    -0.550 OA
ATOM     11  O   UNL     1     114.529  55.042  50.119  1.00  0.00    -0.550 OA
ENDBRANCH   7   9
ENDBRANCH   6   7
ENDBRANCH   5   6
ENDBRANCH   4   5
ENDBRANCH   3   4
ENDBRANCH   2   3
ENDBRANCH   1   2
BRANCH   1  12
ATOM     12  C   UNL     1     119.816  54.014  55.688  1.00  0.00     0.000 C 
BRANCH  12  13
ATOM     13  C   UNL     1     120.941  52.972  55.774  1.00  0.00    -0.000 C 
BRANCH  13  14
ATOM     14  C   UNL     1     122.288  53.498  55.245  1.00  0.00    -0.000 C 
BRANCH  14  15
ATOM     15  C   UNL     1     122.954  52.617  54.173  1.00  0.00    -0.000 C 
BRANCH  15  16
ATOM     16  C   UNL     1     123.750  53.428  53.139  1.00  0.00    -0.000 C 
BRANCH  16  17
ATOM     17  C   UNL     1     123.382  54.917  53.209  1.00  0.00    -0.000 C 
BRANCH  17  18
ATOM     18  C   UNL     1     122.798  55.445  51.890  1.00  0.00    -0.003 C 
ATOM     19  C   UNL     1     121.380  54.937  51.625  1.00  0.00     0.004 C 
ENDBRANCH  17  18
ENDBRANCH  16  17
ENDBRANCH  15  16
ENDBRANCH  14  15
ENDBRANCH  13  14
ENDBRANCH  12  13
ENDBRANCH   1  12
TORSDOF 14
ENDMDL
MODEL 6
REMARK VINA RESULT:    -3.816      1.487      3.364
REMARK INTER + INTRA:          -8.539
REMARK INTER:                  -6.796
REMARK INTRA:                  -1.743
REMARK UNBOUND:                -1.600
REMARK SMILES CCCCCCCCCCCCCC[C@H](C)C(=O)[O-]
REMARK SMILES IDX 9 1 10 2 11 3 12 4 13 5 14 6 15 7 16 8 17 9 18 10 19 11 8 12
REMARK SMILES IDX 7 13 6 14 5 15 4 16 3 17 2 18 1 19
REMARK H PARENT
REMARK Flexibility Score: inf
ROOT
ATOM      1  C   UNL     1     119.080  52.633  54.030  1.00  0.00     0.000 C 
ENDROOT
BRANCH   1   2
ATOM      2  C   UNL     1     118.780  53.863  54.896  1.00  0.00     0.000 C 
BRANCH   2   3
ATOM      3  C   UNL     1     119.938  54.156  55.856  1.00  0.00     0.000 C 
BRANCH   3   4
ATOM      4  C   UNL     1     120.854  52.930  56.002  1.00  0.00     0.000 C 
BRANCH   4   5
ATOM      5  C   UNL     1     122.344  53.265  55.835  1.00  0.00     0.001 C 
BRANCH   5   6
ATOM      6  C   UNL     1     122.685  54.357  54.794  1.00  0.00     0.009 C 
BRANCH   6   7
ATOM      7  C   UNL     1     122.942  53.899  53.334  1.00  0.00     0.032 C 
ATOM      8  C   UNL     1     123.808  52.633  53.238  1.00  0.00     0.014 C 
BRANCH   7   9
ATOM      9  C   UNL     1     123.449  55.010  52.451  1.00  0.00     0.044 C 
ATOM     10  O   UNL     1     122.677  55.607  51.654  1.00  0.00    -0.550 OA
ATOM     11  O   UNL     1     124.796  55.347  52.477  1.00  0.00    -0.550 OA
ENDBRANCH   7   9
ENDBRANCH   6   7
ENDBRANCH   5   6
ENDBRANCH   4   5
ENDBRANCH   3   4
ENDBRANCH   2   3
ENDBRANCH   1   2
BRANCH   1  12
ATOM     12  C   UNL     1     117.850  51.724  53.921  1.00  0.00     0.000 C 
BRANCH  12  13
ATOM     13  C   UNL     1     116.625  52.374  54.580  1.00  0.00    -0.000 C 
BRANCH  13  14
ATOM     14  C   UNL     1     115.501  52.695  53.578  1.00  0.00    -0.000 C 
BRANCH  14  15
ATOM     15  C   UNL     1     115.916  53.604  52.406  1.00  0.00    -0.000 C 
BRANCH  15  16
ATOM     16  C   UNL     1     115.493  53.049  51.038  1.00  0.00    -0.000 C 
BRANCH  16  17
ATOM     17  C   UNL     1     116.543  52.067  50.496  1.00  0.00    -0.000 C 
BRANCH  17  18
ATOM     18  C   UNL     1     115.939  50.707  50.113  1.00  0.00    -0.003 C 
ATOM     19  C   UNL     1     115.721  49.796  51.322  1.00  0.00     0.004 C 
ENDBRANCH  17  18
ENDBRANCH  16  17
ENDBRANCH  15  16
ENDBRANCH  14  15
ENDBRANCH  13  14
ENDBRANCH  12  13
ENDBRANCH   1  12
TORSDOF 14
ENDMDL
MODEL 7
REMARK VINA RESULT:    -3.813      4.821      9.196
REMARK INTER + INTRA:          -8.533
REMARK INTER:                  -6.655
REMARK INTRA:                  -1.878
REMARK UNBOUND:                -1.600
REMARK SMILES CCCCCCCCCCCCCC[C@H](C)C(=O)[O-]
REMARK SMILES IDX 9 1 10 2 11 3 12 4 13 5 14 6 15 7 16 8 17 9 18 10 19 11 8 12
REMARK SMILES IDX 7 13 6 14 5 15 4 16 3 17 2 18 1 19
REMARK H PARENT
REMARK Flexibility Score: inf
ROOT
ATOM      1  C   UNL     1     123.977  55.975  46.517  1.00  0.00     0.000 C 
ENDROOT
BRANCH   1   2
ATOM      2  C   UNL     1     125.217  56.050  47.417  1.00  0.00     0.000 C 
BRANCH   2   3
ATOM      3  C   UNL     1     125.312  54.821  48.327  1.00  0.00     0.000 C 
BRANCH   3   4
ATOM      4  C   UNL     1     123.932  54.446  48.889  1.00  0.00     0.000 C 
BRANCH   4   5
ATOM      5  C   UNL     1     123.988  53.928  50.335  1.00  0.00     0.001 C 
BRANCH   5   6
ATOM      6  C   UNL     1     125.154  54.454  51.203  1.00  0.00     0.009 C 
BRANCH   6   7
ATOM      7  C   UNL     1     124.809  55.467  52.327  1.00  0.00     0.032 C 
ATOM      8  C   UNL     1     123.549  55.088  53.121  1.00  0.00     0.014 C 
BRANCH   7   9
ATOM      9  C   UNL     1     124.773  56.893  51.841  1.00  0.00     0.044 C 
ATOM     10  O   UNL     1     125.781  57.641  51.954  1.00  0.00    -0.550 OA
ATOM     11  O   UNL     1     123.598  57.408  51.308  1.00  0.00    -0.550 OA
ENDBRANCH   7   9
ENDBRANCH   6   7
ENDBRANCH   5   6
ENDBRANCH   4   5
ENDBRANCH   3   4
ENDBRANCH   2   3
ENDBRANCH   1   2
BRANCH   1  12
ATOM     12  C   UNL     1     123.800  57.269  45.715  1.00  0.00     0.000 C 
BRANCH  12  13
ATOM     13  C   UNL     1     124.758  57.310  44.516  1.00  0.00    -0.000 C 
BRANCH  13  14
ATOM     14  C   UNL     1     124.630  56.077  43.602  1.00  0.00    -0.000 C 
BRANCH  14  15
ATOM     15  C   UNL     1     125.966  55.469  43.140  1.00  0.00    -0.000 C 
BRANCH  15  16
ATOM     16  C   UNL     1     126.003  53.938  43.263  1.00  0.00    -0.000 C 
BRANCH  16  17
ATOM     17  C   UNL     1     124.669  53.399  43.803  1.00  0.00    -0.000 C 
BRANCH  17  18
ATOM     18  C   UNL     1     124.823  52.691  45.157  1.00  0.00    -0.003 C 
ATOM     19  C   UNL     1     126.279  52.598  45.615  1.00  0.00     0.004 C 
ENDBRANCH  17  18
ENDBRANCH  16  17
ENDBRANCH  15  16
ENDBRANCH  14  15
ENDBRANCH  13  14
ENDBRANCH  12  13
ENDBRANCH   1  12
TORSDOF 14
ENDMDL
MODEL 8
REMARK VINA RESULT:    -3.779      1.745      3.614
REMARK INTER + INTRA:          -8.472
REMARK INTER:                  -5.995
REMARK INTRA:                  -2.476
REMARK UNBOUND:                -1.600
REMARK SMILES CCCCCCCCCCCCCC[C@H](C)C(=O)[O-]
REMARK SMILES IDX 9 1 10 2 11 3 12 4 13 5 14 6 15 7 16 8 17 9 18 10 19 11 8 12
REMARK SMILES IDX 7 13 6 14 5 15 4 16 3 17 2 18 1 19
REMARK H PARENT
REMARK Flexibility Score: inf
ROOT
ATOM      1  C   UNL     1     119.350  52.018  52.791  1.00  0.00     0.000 C 
ENDROOT
BRANCH   1   2
ATOM      2  C   UNL     1     119.223  52.171  54.312  1.00  0.00     0.000 C 
BRANCH   2   3
ATOM      3  C   UNL     1     119.015  53.638  54.703  1.00  0.00     0.000 C 
BRANCH   3   4
ATOM      4  C   UNL     1     119.828  53.993  55.957  1.00  0.00     0.000 C 
BRANCH   4   5
ATOM      5  C   UNL     1     121.242  53.390  55.952  1.00  0.00     0.001 C 
BRANCH   5   6
ATOM      6  C   UNL     1     122.303  54.145  55.120  1.00  0.00     0.009 C 
BRANCH   6   7
ATOM      7  C   UNL     1     122.582  53.633  53.683  1.00  0.00     0.032 C 
ATOM      8  C   UNL     1     123.409  52.338  53.648  1.00  0.00     0.014 C 
BRANCH   7   9
ATOM      9  C   UNL     1     123.147  54.698  52.779  1.00  0.00     0.044 C 
ATOM     10  O   UNL     1     122.415  55.297  51.946  1.00  0.00    -0.550 OA
ATOM     11  O   UNL     1     124.505  54.990  52.827  1.00  0.00    -0.550 OA
ENDBRANCH   7   9
ENDBRANCH   6   7
ENDBRANCH   5   6
ENDBRANCH   4   5
ENDBRANCH   3   4
ENDBRANCH   2   3
ENDBRANCH   1   2
BRANCH   1  12
ATOM     12  C   UNL     1     119.336  53.385  52.097  1.00  0.00     0.000 C 
BRANCH  12  13
ATOM     13  C   UNL     1     119.156  53.230  50.580  1.00  0.00    -0.000 C 
BRANCH  13  14
ATOM     14  C   UNL     1     117.746  53.620  50.099  1.00  0.00    -0.000 C 
BRANCH  14  15
ATOM     15  C   UNL     1     116.951  54.511  51.072  1.00  0.00    -0.000 C 
BRANCH  15  16
ATOM     16  C   UNL     1     115.633  53.869  51.531  1.00  0.00    -0.000 C 
BRANCH  16  17
ATOM     17  C   UNL     1     115.640  52.355  51.271  1.00  0.00    -0.000 C 
BRANCH  17  18
ATOM     18  C   UNL     1     115.616  51.533  52.568  1.00  0.00    -0.003 C 
ATOM     19  C   UNL     1     115.639  52.407  53.823  1.00  0.00     0.004 C 
ENDBRANCH  17  18
ENDBRANCH  16  17
ENDBRANCH  15  16
ENDBRANCH  14  15
ENDBRANCH  13  14
ENDBRANCH  12  13
ENDBRANCH   1  12
TORSDOF 14
ENDMDL
MODEL 9
REMARK VINA RESULT:    -3.595      1.550      3.354
REMARK INTER + INTRA:          -8.136
REMARK INTER:                  -5.961
REMARK INTRA:                  -2.176
REMARK UNBOUND:                -1.600
REMARK SMILES CCCCCCCCCCCCCC[C@H](C)C(=O)[O-]
REMARK SMILES IDX 9 1 10 2 11 3 12 4 13 5 14 6 15 7 16 8 17 9 18 10 19 11 8 12
REMARK SMILES IDX 7 13 6 14 5 15 4 16 3 17 2 18 1 19
REMARK H PARENT
REMARK Flexibility Score: inf
ROOT
ATOM      1  C   UNL     1     119.309  52.261  54.292  1.00  0.00     0.000 C 
ENDROOT
BRANCH   1   2
ATOM      2  C   UNL     1     118.848  53.550  54.984  1.00  0.00     0.000 C 
BRANCH   2   3
ATOM      3  C   UNL     1     120.004  54.211  55.743  1.00  0.00     0.000 C 
BRANCH   3   4
ATOM      4  C   UNL     1     121.073  53.175  56.125  1.00  0.00     0.000 C 
BRANCH   4   5
ATOM      5  C   UNL     1     122.429  53.427  55.446  1.00  0.00     0.001 C 
BRANCH   5   6
ATOM      6  C   UNL     1     122.474  54.583  54.420  1.00  0.00     0.009 C 
BRANCH   6   7
ATOM      7  C   UNL     1     122.800  54.219  52.947  1.00  0.00     0.032 C 
ATOM      8  C   UNL     1     122.707  52.712  52.658  1.00  0.00     0.014 C 
BRANCH   7   9
ATOM      9  C   UNL     1     124.098  54.817  52.468  1.00  0.00     0.044 C 
ATOM     10  O   UNL     1     124.406  56.006  52.749  1.00  0.00    -0.550 OA
ATOM     11  O   UNL     1     124.944  54.065  51.663  1.00  0.00    -0.550 OA
ENDBRANCH   7   9
ENDBRANCH   6   7
ENDBRANCH   5   6
ENDBRANCH   4   5
ENDBRANCH   3   4
ENDBRANCH   2   3
ENDBRANCH   1   2
BRANCH   1  12
ATOM     12  C   UNL     1     118.117  51.490  53.714  1.00  0.00     0.000 C 
BRANCH  12  13
ATOM     13  C   UNL     1     116.798  51.964  54.342  1.00  0.00    -0.000 C 
BRANCH  13  14
ATOM     14  C   UNL     1     115.650  52.069  53.322  1.00  0.00    -0.000 C 
BRANCH  14  15
ATOM     15  C   UNL     1     115.281  53.505  52.905  1.00  0.00    -0.000 C 
BRANCH  15  16
ATOM     16  C   UNL     1     115.653  53.821  51.449  1.00  0.00    -0.000 C 
BRANCH  16  17
ATOM     17  C   UNL     1     117.175  53.780  51.251  1.00  0.00    -0.000 C 
BRANCH  17  18
ATOM     18  C   UNL     1     117.879  55.021  51.820  1.00  0.00    -0.003 C 
ATOM     19  C   UNL     1     119.391  55.000  51.594  1.00  0.00     0.004 C 
ENDBRANCH  17  18
ENDBRANCH  16  17
ENDBRANCH  15  16
ENDBRANCH  14  15
ENDBRANCH  13  14
ENDBRANCH  12  13
ENDBRANCH   1  12
TORSDOF 14
ENDMDL
