MODEL 1
REMARK VINA RESULT:     7.190      0.000      0.000
REMARK INTER + INTRA:          10.559
REMARK INTER:                   9.502
REMARK INTRA:                   1.057
REMARK UNBOUND:                 1.057
REMARK SMILES CC[C@@H](C=C[C@H](C)[C@@H]1CC[C@@H]2C3=CC[C@H]4C[C@@H](O)CC[C@]4(C)[C@H]3CC[C@]21C)C(C)C
REMARK SMILES IDX 6 1 7 2 5 3 4 4 3 5 2 6 1 7 28 8 29 9 30 10 8 11 9 12 26 13
REMARK SMILES IDX 10 14 11 15 25 16 27 17 12 18 24 19 23 20 13 21 21 22 14 23
REMARK SMILES IDX 15 24 20 25 22 26 16 27 19 28 17 29 18 30
REMARK H PARENT 18 31
REMARK Flexibility Score: inf
ROOT
ATOM      1  C   UNL     1     135.425 121.798 139.526  1.00  0.00     0.012 C 
ATOM      2  C   UNL     1     135.369 120.264 139.689  1.00  0.00     0.012 C 
ENDROOT
BRANCH   1   3
ATOM      3  C   UNL     1     134.845 122.180 138.178  1.00  0.00    -0.028 C 
ATOM      4  C   UNL     1     135.406 123.027 137.292  1.00  0.00    -0.027 C 
BRANCH   4   5
ATOM      5  C   UNL     1     136.758 123.709 137.439  1.00  0.00     0.014 C 
BRANCH   5   6
ATOM      6  C   UNL     1     137.822 122.624 137.738  1.00  0.00     0.004 C 
ATOM      7  C   UNL     1     138.758 122.990 138.889  1.00  0.00     0.004 C 
ENDBRANCH   5   6
BRANCH   5   8
ATOM      8  C   UNL     1     136.711 124.856 138.499  1.00  0.00    -0.011 C 
ATOM      9  C   UNL     1     138.005 125.685 138.479  1.00  0.00     0.008 C 
ATOM     10  C   UNL     1     135.493 125.784 138.358  1.00  0.00     0.008 C 
ENDBRANCH   5   8
ENDBRANCH   4   5
ENDBRANCH   1   3
BRANCH   1  11
ATOM     11  C   UNL     1     134.807 122.671 140.674  1.00  0.00     0.002 C 
ATOM     12  C   UNL     1     133.852 123.795 140.201  1.00  0.00     0.005 C 
ATOM     13  C   UNL     1     135.718 123.334 141.751  1.00  0.00    -0.023 C 
ATOM     14  C   UNL     1     133.934 124.910 141.254  1.00  0.00     0.009 C 
ATOM     15  C   UNL     1     134.698 124.276 142.413  1.00  0.00     0.021 C 
ATOM     16  C   UNL     1     136.278 122.355 142.835  1.00  0.00     0.008 C 
ATOM     17  C   UNL     1     136.886 124.132 141.091  1.00  0.00     0.012 C 
ATOM     18  C   UNL     1     135.347 125.150 143.468  1.00  0.00    -0.067 C 
ATOM     19  C   UNL     1     136.260 122.921 144.286  1.00  0.00     0.009 C 
ATOM     20  C   UNL     1     136.393 124.472 144.364  1.00  0.00     0.021 C 
ATOM     21  C   UNL     1     134.940 126.421 143.684  1.00  0.00    -0.027 C 
ATOM     22  C   UNL     1     136.382 125.063 145.818  1.00  0.00    -0.023 C 
ATOM     23  C   UNL     1     135.363 127.234 144.882  1.00  0.00     0.031 C 
ATOM     24  C   UNL     1     136.542 126.612 145.654  1.00  0.00     0.002 C 
ATOM     25  C   UNL     1     137.601 124.521 146.627  1.00  0.00     0.010 C 
ATOM     26  C   UNL     1     135.064 124.685 146.556  1.00  0.00     0.012 C 
ATOM     27  C   UNL     1     136.774 127.348 146.989  1.00  0.00     0.036 C 
ATOM     28  C   UNL     1     137.824 125.267 147.954  1.00  0.00     0.032 C 
ATOM     29  C   UNL     1     137.992 126.773 147.728  1.00  0.00     0.114 C 
BRANCH  29  30
ATOM     30  O   UNL     1     138.139 127.409 148.970  1.00  0.00    -0.393 OA
ATOM     31  H   UNL     1     137.682 126.835 149.641  1.00  0.00     0.210 HD
ENDBRANCH  29  30
ENDBRANCH   1  11
TORSDOF 6
ENDMDL
MODEL 2
REMARK VINA RESULT:     7.413      1.293      2.328
REMARK INTER + INTRA:          10.853
REMARK INTER:                   8.708
REMARK INTRA:                   2.145
REMARK UNBOUND:                 1.057
REMARK SMILES CC[C@@H](C=C[C@H](C)[C@@H]1CC[C@@H]2C3=CC[C@H]4C[C@@H](O)CC[C@]4(C)[C@H]3CC[C@]21C)C(C)C
REMARK SMILES IDX 6 1 7 2 5 3 4 4 3 5 2 6 1 7 28 8 29 9 30 10 8 11 9 12 26 13
REMARK SMILES IDX 10 14 11 15 25 16 27 17 12 18 24 19 23 20 13 21 21 22 14 23
REMARK SMILES IDX 15 24 20 25 22 26 16 27 19 28 17 29 18 30
REMARK H PARENT 18 31
REMARK Flexibility Score: inf
ROOT
ATOM      1  C   UNL     1     134.629 123.143 138.651  1.00  0.00     0.012 C 
ATOM      2  C   UNL     1     134.875 124.602 138.212  1.00  0.00     0.012 C 
ENDROOT
BRANCH   1   3
ATOM      3  C   UNL     1     135.596 122.231 137.922  1.00  0.00    -0.028 C 
ATOM      4  C   UNL     1     136.941 122.302 137.981  1.00  0.00    -0.027 C 
BRANCH   4   5
ATOM      5  C   UNL     1     137.749 123.263 138.841  1.00  0.00     0.014 C 
BRANCH   5   6
ATOM      6  C   UNL     1     138.031 124.540 138.013  1.00  0.00     0.004 C 
ATOM      7  C   UNL     1     137.685 125.833 138.751  1.00  0.00     0.004 C 
ENDBRANCH   5   6
BRANCH   5   8
ATOM      8  C   UNL     1     139.036 122.581 139.408  1.00  0.00    -0.011 C 
ATOM      9  C   UNL     1     140.062 122.316 138.295  1.00  0.00     0.008 C 
ATOM     10  C   UNL     1     139.700 123.360 140.557  1.00  0.00     0.008 C 
ENDBRANCH   5   8
ENDBRANCH   4   5
ENDBRANCH   1   3
BRANCH   1  11
ATOM     11  C   UNL     1     134.621 122.842 140.190  1.00  0.00     0.002 C 
ATOM     12  C   UNL     1     133.231 122.498 140.783  1.00  0.00     0.005 C 
ATOM     13  C   UNL     1     135.263 123.838 141.203  1.00  0.00    -0.023 C 
ATOM     14  C   UNL     1     133.263 122.938 142.254  1.00  0.00     0.009 C 
ATOM     15  C   UNL     1     134.733 123.249 142.522  1.00  0.00     0.021 C 
ATOM     16  C   UNL     1     136.827 123.826 141.239  1.00  0.00     0.008 C 
ATOM     17  C   UNL     1     134.740 125.290 140.976  1.00  0.00     0.012 C 
ATOM     18  C   UNL     1     135.129 124.099 143.713  1.00  0.00    -0.067 C 
ATOM     19  C   UNL     1     137.440 123.906 142.668  1.00  0.00     0.009 C 
ATOM     20  C   UNL     1     136.553 124.670 143.697  1.00  0.00     0.021 C 
ATOM     21  C   UNL     1     134.314 124.245 144.781  1.00  0.00    -0.027 C 
ATOM     22  C   UNL     1     137.156 124.768 145.143  1.00  0.00    -0.023 C 
ATOM     23  C   UNL     1     134.763 124.852 146.088  1.00  0.00     0.031 C 
ATOM     24  C   UNL     1     136.117 125.579 145.988  1.00  0.00     0.002 C 
ATOM     25  C   UNL     1     138.500 125.560 145.113  1.00  0.00     0.010 C 
ATOM     26  C   UNL     1     137.408 123.348 145.731  1.00  0.00     0.012 C 
ATOM     27  C   UNL     1     136.637 125.968 147.387  1.00  0.00     0.036 C 
ATOM     28  C   UNL     1     139.003 125.946 146.514  1.00  0.00     0.032 C 
ATOM     29  C   UNL     1     137.953 126.753 147.285  1.00  0.00     0.114 C 
BRANCH  29  30
ATOM     30  O   UNL     1     138.442 127.032 148.570  1.00  0.00    -0.393 OA
ATOM     31  H   UNL     1     139.355 126.644 148.619  1.00  0.00     0.210 HD
ENDBRANCH  29  30
ENDBRANCH   1  11
TORSDOF 6
ENDMDL
MODEL 3
REMARK VINA RESULT:     9.519      1.158      2.856
REMARK INTER + INTRA:          13.636
REMARK INTER:                  13.625
REMARK INTRA:                   0.011
REMARK UNBOUND:                 1.057
REMARK SMILES CC[C@@H](C=C[C@H](C)[C@@H]1CC[C@@H]2C3=CC[C@H]4C[C@@H](O)CC[C@]4(C)[C@H]3CC[C@]21C)C(C)C
REMARK SMILES IDX 6 1 7 2 5 3 4 4 3 5 2 6 1 7 28 8 29 9 30 10 8 11 9 12 26 13
REMARK SMILES IDX 10 14 11 15 25 16 27 17 12 18 24 19 23 20 13 21 21 22 14 23
REMARK SMILES IDX 15 24 20 25 22 26 16 27 19 28 17 29 18 30
REMARK H PARENT 18 31
REMARK Flexibility Score: inf
ROOT
ATOM      1  C   UNL     1     133.631 123.390 139.852  1.00  0.00     0.012 C 
ATOM      2  C   UNL     1     132.450 124.230 140.383  1.00  0.00     0.012 C 
ENDROOT
BRANCH   1   3
ATOM      3  C   UNL     1     133.879 123.736 138.397  1.00  0.00    -0.028 C 
ATOM      4  C   UNL     1     135.036 124.201 137.886  1.00  0.00    -0.027 C 
BRANCH   4   5
ATOM      5  C   UNL     1     136.336 124.402 138.651  1.00  0.00     0.014 C 
BRANCH   5   6
ATOM      6  C   UNL     1     136.574 125.923 138.818  1.00  0.00     0.004 C 
ATOM      7  C   UNL     1     138.053 126.304 138.884  1.00  0.00     0.004 C 
ENDBRANCH   5   6
BRANCH   5   8
ATOM      8  C   UNL     1     137.524 123.648 137.973  1.00  0.00    -0.011 C 
ATOM      9  C   UNL     1     138.515 123.114 139.020  1.00  0.00     0.008 C 
ATOM     10  C   UNL     1     137.085 122.506 137.039  1.00  0.00     0.008 C 
ENDBRANCH   5   8
ENDBRANCH   4   5
ENDBRANCH   1   3
BRANCH   1  11
ATOM     11  C   UNL     1     134.966 123.417 140.674  1.00  0.00     0.002 C 
ATOM     12  C   UNL     1     135.746 122.078 140.703  1.00  0.00     0.005 C 
ATOM     13  C   UNL     1     134.989 123.935 142.144  1.00  0.00    -0.023 C 
ATOM     14  C   UNL     1     136.529 122.057 142.024  1.00  0.00     0.009 C 
ATOM     15  C   UNL     1     136.398 123.479 142.561  1.00  0.00     0.021 C 
ATOM     16  C   UNL     1     134.897 125.490 142.298  1.00  0.00     0.008 C 
ATOM     17  C   UNL     1     133.887 123.243 143.005  1.00  0.00     0.012 C 
ATOM     18  C   UNL     1     136.670 123.771 144.024  1.00  0.00    -0.067 C 
ATOM     19  C   UNL     1     135.844 126.088 143.378  1.00  0.00     0.009 C 
ATOM     20  C   UNL     1     136.158 125.116 144.556  1.00  0.00     0.021 C 
ATOM     21  C   UNL     1     137.423 122.944 144.783  1.00  0.00    -0.027 C 
ATOM     22  C   UNL     1     137.107 125.703 145.660  1.00  0.00    -0.023 C 
ATOM     23  C   UNL     1     137.939 123.317 146.151  1.00  0.00     0.031 C 
ATOM     24  C   UNL     1     137.267 124.575 146.733  1.00  0.00     0.002 C 
ATOM     25  C   UNL     1     136.444 126.942 146.336  1.00  0.00     0.010 C 
ATOM     26  C   UNL     1     138.475 126.123 145.044  1.00  0.00     0.012 C 
ATOM     27  C   UNL     1     137.992 125.044 148.011  1.00  0.00     0.036 C 
ATOM     28  C   UNL     1     137.174 127.396 147.612  1.00  0.00     0.032 C 
ATOM     29  C   UNL     1     137.282 126.256 148.631  1.00  0.00     0.114 C 
BRANCH  29  30
ATOM     30  O   UNL     1     138.001 126.708 149.748  1.00  0.00    -0.393 OA
ATOM     31  H   UNL     1     138.804 127.179 149.401  1.00  0.00     0.210 HD
ENDBRANCH  29  30
ENDBRANCH   1  11
TORSDOF 6
ENDMDL
