MODEL 1
REMARK VINA RESULT:    -3.999      0.000      0.000
REMARK INTER + INTRA:          -6.101
REMARK INTER:                  -5.401
REMARK INTRA:                  -0.699
REMARK UNBOUND:                -0.699
REMARK SMILES O=C[C@H](O)[C@@H](O)[C@@H](O)CO
REMARK SMILES IDX 7 1 9 2 10 3 5 5 3 6 2 7 1 8 4 9 6 11 8 13
REMARK H PARENT 10 4 4 10 6 12 8 14
REMARK Flexibility Score: inf
ROOT
ATOM      1  C   UNL     1       4.781   6.139   1.616  1.00  0.00     0.171 C 
ENDROOT
BRANCH   1   2
ATOM      2  C   UNL     1       3.580   7.111   1.662  1.00  0.00     0.190 C 
BRANCH   2   3
ATOM      3  O   UNL     1       3.613   8.008   0.585  1.00  0.00    -0.394 OA
ATOM      4  H   UNL     1       3.294   8.881   0.932  1.00  0.00     0.210 HD
ENDBRANCH   2   3
ENDBRANCH   1   2
BRANCH   1   5
ATOM      5  C   UNL     1       6.110   6.746   2.139  1.00  0.00     0.181 C 
BRANCH   5   6
ATOM      6  C   UNL     1       7.330   5.798   2.019  1.00  0.00     0.209 C 
BRANCH   6   7
ATOM      7  C   UNL     1       8.597   6.587   1.818  1.00  0.00     0.258 C 
ATOM      8  O   UNL     1       8.925   6.958   0.702  1.00  0.00    -0.300 OA
ENDBRANCH   6   7
BRANCH   6   9
ATOM      9  O   UNL     1       7.152   4.924   0.933  1.00  0.00    -0.383 OA
ATOM     10  H   UNL     1       6.217   4.589   0.982  1.00  0.00     0.211 HD
ENDBRANCH   6   9
ENDBRANCH   5   6
BRANCH   5  11
ATOM     11  O   UNL     1       6.363   7.938   1.436  1.00  0.00    -0.387 OA
ATOM     12  H   UNL     1       5.523   8.467   1.443  1.00  0.00     0.211 HD
ENDBRANCH   5  11
ENDBRANCH   1   5
BRANCH   1  13
ATOM     13  O   UNL     1       4.483   4.925   2.263  1.00  0.00    -0.388 OA
ATOM     14  H   UNL     1       4.654   4.185   1.625  1.00  0.00     0.211 HD
ENDBRANCH   1  13
TORSDOF 8
ENDMDL
MODEL 2
REMARK VINA RESULT:    -3.859      1.731      4.144
REMARK INTER + INTRA:          -5.911
REMARK INTER:                  -5.195
REMARK INTRA:                  -0.716
REMARK UNBOUND:                -0.699
REMARK SMILES O=C[C@H](O)[C@@H](O)[C@@H](O)CO
REMARK SMILES IDX 7 1 9 2 10 3 5 5 3 6 2 7 1 8 4 9 6 11 8 13
REMARK H PARENT 10 4 4 10 6 12 8 14
REMARK Flexibility Score: inf
ROOT
ATOM      1  C   UNL     1       6.432   5.716   2.232  1.00  0.00     0.171 C 
ENDROOT
BRANCH   1   2
ATOM      2  C   UNL     1       6.630   4.406   1.435  1.00  0.00     0.190 C 
BRANCH   2   3
ATOM      3  O   UNL     1       6.038   4.491   0.167  1.00  0.00    -0.394 OA
ATOM      4  H   UNL     1       6.601   3.953  -0.447  1.00  0.00     0.210 HD
ENDBRANCH   2   3
ENDBRANCH   1   2
BRANCH   1   5
ATOM      5  C   UNL     1       4.965   5.975   2.672  1.00  0.00     0.181 C 
BRANCH   5   6
ATOM      6  C   UNL     1       4.323   7.226   2.021  1.00  0.00     0.209 C 
BRANCH   6   7
ATOM      7  C   UNL     1       2.968   7.497   2.621  1.00  0.00     0.258 C 
ATOM      8  O   UNL     1       2.598   6.892   3.615  1.00  0.00    -0.300 OA
ENDBRANCH   6   7
BRANCH   6   9
ATOM      9  O   UNL     1       4.186   7.029   0.637  1.00  0.00    -0.383 OA
ATOM     10  H   UNL     1       4.969   7.462   0.205  1.00  0.00     0.211 HD
ENDBRANCH   6   9
ENDBRANCH   5   6
BRANCH   5  11
ATOM     11  O   UNL     1       4.201   4.835   2.369  1.00  0.00    -0.387 OA
ATOM     12  H   UNL     1       4.729   4.288   1.731  1.00  0.00     0.211 HD
ENDBRANCH   5  11
ENDBRANCH   1   5
BRANCH   1  13
ATOM     13  O   UNL     1       7.315   5.788   3.325  1.00  0.00    -0.388 OA
ATOM     14  H   UNL     1       7.371   6.736   3.614  1.00  0.00     0.211 HD
ENDBRANCH   1  13
TORSDOF 8
ENDMDL
MODEL 3
REMARK VINA RESULT:    -3.853      1.669      3.749
REMARK INTER + INTRA:          -5.904
REMARK INTER:                  -5.385
REMARK INTRA:                  -0.519
REMARK UNBOUND:                -0.699
REMARK SMILES O=C[C@H](O)[C@@H](O)[C@@H](O)CO
REMARK SMILES IDX 7 1 9 2 10 3 5 5 3 6 2 7 1 8 4 9 6 11 8 13
REMARK H PARENT 10 4 4 10 6 12 8 14
REMARK Flexibility Score: inf
ROOT
ATOM      1  C   UNL     1       5.267   5.411   2.141  1.00  0.00     0.171 C 
ENDROOT
BRANCH   1   2
ATOM      2  C   UNL     1       6.480   4.736   1.460  1.00  0.00     0.190 C 
BRANCH   2   3
ATOM      3  O   UNL     1       6.142   4.254   0.188  1.00  0.00    -0.394 OA
ATOM      4  H   UNL     1       6.986   3.942  -0.231  1.00  0.00     0.210 HD
ENDBRANCH   2   3
ENDBRANCH   1   2
BRANCH   1   5
ATOM      5  C   UNL     1       4.828   6.745   1.478  1.00  0.00     0.181 C 
BRANCH   5   6
ATOM      6  C   UNL     1       3.655   7.454   2.201  1.00  0.00     0.209 C 
BRANCH   6   7
ATOM      7  C   UNL     1       3.783   8.949   2.077  1.00  0.00     0.258 C 
ATOM      8  O   UNL     1       3.763   9.484   0.980  1.00  0.00    -0.300 OA
ENDBRANCH   6   7
BRANCH   6   9
ATOM      9  O   UNL     1       3.646   7.101   3.561  1.00  0.00    -0.383 OA
ATOM     10  H   UNL     1       2.745   7.327   3.913  1.00  0.00     0.211 HD
ENDBRANCH   6   9
ENDBRANCH   5   6
BRANCH   5  11
ATOM     11  O   UNL     1       5.941   7.602   1.422  1.00  0.00    -0.387 OA
ATOM     12  H   UNL     1       5.970   7.986   0.507  1.00  0.00     0.211 HD
ENDBRANCH   5  11
ENDBRANCH   1   5
BRANCH   1  13
ATOM     13  O   UNL     1       4.186   4.519   2.262  1.00  0.00    -0.388 OA
ATOM     14  H   UNL     1       3.488   4.789   1.610  1.00  0.00     0.211 HD
ENDBRANCH   1  13
TORSDOF 8
ENDMDL
MODEL 4
REMARK VINA RESULT:    -3.774      1.334      3.983
REMARK INTER + INTRA:          -5.797
REMARK INTER:                  -5.265
REMARK INTRA:                  -0.532
REMARK UNBOUND:                -0.699
REMARK SMILES O=C[C@H](O)[C@@H](O)[C@@H](O)CO
REMARK SMILES IDX 7 1 9 2 10 3 5 5 3 6 2 7 1 8 4 9 6 11 8 13
REMARK H PARENT 10 4 4 10 6 12 8 14
REMARK Flexibility Score: inf
ROOT
ATOM      1  C   UNL     1       6.438   5.066   1.749  1.00  0.00     0.171 C 
ENDROOT
BRANCH   1   2
ATOM      2  C   UNL     1       7.709   5.933   1.892  1.00  0.00     0.190 C 
BRANCH   2   3
ATOM      3  O   UNL     1       7.895   6.748   0.766  1.00  0.00    -0.394 OA
ATOM      4  H   UNL     1       7.864   7.687   1.085  1.00  0.00     0.210 HD
ENDBRANCH   2   3
ENDBRANCH   1   2
BRANCH   1   5
ATOM      5  C   UNL     1       5.203   5.619   2.510  1.00  0.00     0.181 C 
BRANCH   5   6
ATOM      6  C   UNL     1       4.805   7.061   2.106  1.00  0.00     0.209 C 
BRANCH   6   7
ATOM      7  C   UNL     1       3.743   7.597   3.030  1.00  0.00     0.258 C 
ATOM      8  O   UNL     1       2.620   7.120   3.024  1.00  0.00    -0.300 OA
ENDBRANCH   6   7
BRANCH   6   9
ATOM      9  O   UNL     1       4.321   7.073   0.787  1.00  0.00    -0.383 OA
ATOM     10  H   UNL     1       5.108   6.978   0.189  1.00  0.00     0.211 HD
ENDBRANCH   6   9
ENDBRANCH   5   6
BRANCH   5  11
ATOM     11  O   UNL     1       4.119   4.749   2.294  1.00  0.00    -0.387 OA
ATOM     12  H   UNL     1       4.293   3.927   2.824  1.00  0.00     0.211 HD
ENDBRANCH   5  11
ENDBRANCH   1   5
BRANCH   1  13
ATOM     13  O   UNL     1       6.137   4.816   0.398  1.00  0.00    -0.388 OA
ATOM     14  H   UNL     1       6.008   5.689  -0.056  1.00  0.00     0.211 HD
ENDBRANCH   1  13
TORSDOF 8
ENDMDL
MODEL 5
REMARK VINA RESULT:    -3.741      5.931      7.440
REMARK INTER + INTRA:          -5.752
REMARK INTER:                  -4.751
REMARK INTRA:                  -1.001
REMARK UNBOUND:                -0.699
REMARK SMILES O=C[C@H](O)[C@@H](O)[C@@H](O)CO
REMARK SMILES IDX 7 1 9 2 10 3 5 5 3 6 2 7 1 8 4 9 6 11 8 13
REMARK H PARENT 10 4 4 10 6 12 8 14
REMARK Flexibility Score: inf
ROOT
ATOM      1  C   UNL     1      -1.239   7.960   5.199  1.00  0.00     0.171 C 
ENDROOT
BRANCH   1   2
ATOM      2  C   UNL     1      -1.455   6.812   4.187  1.00  0.00     0.190 C 
BRANCH   2   3
ATOM      3  O   UNL     1      -0.753   5.660   4.571  1.00  0.00    -0.394 OA
ATOM      4  H   UNL     1       0.036   5.595   3.973  1.00  0.00     0.210 HD
ENDBRANCH   2   3
ENDBRANCH   1   2
BRANCH   1   5
ATOM      5  C   UNL     1       0.191   8.564   5.179  1.00  0.00     0.181 C 
BRANCH   5   6
ATOM      6  C   UNL     1       1.127   8.007   6.281  1.00  0.00     0.209 C 
BRANCH   6   7
ATOM      7  C   UNL     1       2.259   7.224   5.669  1.00  0.00     0.258 C 
ATOM      8  O   UNL     1       2.073   6.093   5.249  1.00  0.00    -0.300 OA
ENDBRANCH   6   7
BRANCH   6   9
ATOM      9  O   UNL     1       0.403   7.173   7.149  1.00  0.00    -0.383 OA
ATOM     10  H   UNL     1       0.058   6.418   6.603  1.00  0.00     0.211 HD
ENDBRANCH   6   9
ENDBRANCH   5   6
BRANCH   5  11
ATOM     11  O   UNL     1       0.756   8.332   3.913  1.00  0.00    -0.387 OA
ATOM     12  H   UNL     1       0.411   9.036   3.303  1.00  0.00     0.211 HD
ENDBRANCH   5  11
ENDBRANCH   1   5
BRANCH   1  13
ATOM     13  O   UNL     1      -2.219   8.960   5.056  1.00  0.00    -0.388 OA
ATOM     14  H   UNL     1      -2.615   9.134   5.949  1.00  0.00     0.211 HD
ENDBRANCH   1  13
TORSDOF 8
ENDMDL
MODEL 6
REMARK VINA RESULT:    -3.690      5.128      6.802
REMARK INTER + INTRA:          -5.683
REMARK INTER:                  -5.170
REMARK INTRA:                  -0.513
REMARK UNBOUND:                -0.699
REMARK SMILES O=C[C@H](O)[C@@H](O)[C@@H](O)CO
REMARK SMILES IDX 7 1 9 2 10 3 5 5 3 6 2 7 1 8 4 9 6 11 8 13
REMARK H PARENT 10 4 4 10 6 12 8 14
REMARK Flexibility Score: inf
ROOT
ATOM      1  C   UNL     1      -0.976   6.880   4.200  1.00  0.00     0.171 C 
ENDROOT
BRANCH   1   2
ATOM      2  C   UNL     1      -1.722   7.758   5.231  1.00  0.00     0.190 C 
BRANCH   2   3
ATOM      3  O   UNL     1      -2.159   6.996   6.323  1.00  0.00    -0.394 OA
ATOM      4  H   UNL     1      -2.604   7.623   6.949  1.00  0.00     0.210 HD
ENDBRANCH   2   3
ENDBRANCH   1   2
BRANCH   1   5
ATOM      5  C   UNL     1       0.520   6.636   4.538  1.00  0.00     0.181 C 
BRANCH   5   6
ATOM      6  C   UNL     1       1.506   7.472   3.684  1.00  0.00     0.209 C 
BRANCH   6   7
ATOM      7  C   UNL     1       2.919   6.989   3.881  1.00  0.00     0.258 C 
ATOM      8  O   UNL     1       3.140   5.960   4.501  1.00  0.00    -0.300 OA
ENDBRANCH   6   7
BRANCH   6   9
ATOM      9  O   UNL     1       1.425   8.827   4.048  1.00  0.00    -0.383 OA
ATOM     10  H   UNL     1       1.507   9.356   3.211  1.00  0.00     0.211 HD
ENDBRANCH   6   9
ENDBRANCH   5   6
BRANCH   5  11
ATOM     11  O   UNL     1       0.719   6.912   5.902  1.00  0.00    -0.387 OA
ATOM     12  H   UNL     1       0.708   6.043   6.383  1.00  0.00     0.211 HD
ENDBRANCH   5  11
ENDBRANCH   1   5
BRANCH   1  13
ATOM     13  O   UNL     1      -1.654   5.669   3.973  1.00  0.00    -0.388 OA
ATOM     14  H   UNL     1      -2.543   5.726   4.411  1.00  0.00     0.211 HD
ENDBRANCH   1  13
TORSDOF 8
ENDMDL
MODEL 7
REMARK VINA RESULT:    -3.687      1.680      2.808
REMARK INTER + INTRA:          -5.680
REMARK INTER:                  -5.173
REMARK INTRA:                  -0.507
REMARK UNBOUND:                -0.699
REMARK SMILES O=C[C@H](O)[C@@H](O)[C@@H](O)CO
REMARK SMILES IDX 7 1 9 2 10 3 5 5 3 6 2 7 1 8 4 9 6 11 8 13
REMARK H PARENT 10 4 4 10 6 12 8 14
REMARK Flexibility Score: inf
ROOT
ATOM      1  C   UNL     1       5.532   5.331   1.997  1.00  0.00     0.171 C 
ENDROOT
BRANCH   1   2
ATOM      2  C   UNL     1       6.319   4.174   1.340  1.00  0.00     0.190 C 
BRANCH   2   3
ATOM      3  O   UNL     1       6.197   4.207  -0.057  1.00  0.00    -0.394 OA
ATOM      4  H   UNL     1       5.309   4.602  -0.256  1.00  0.00     0.210 HD
ENDBRANCH   2   3
ENDBRANCH   1   2
BRANCH   1   5
ATOM      5  C   UNL     1       6.376   6.203   2.965  1.00  0.00     0.181 C 
BRANCH   5   6
ATOM      6  C   UNL     1       7.322   7.203   2.253  1.00  0.00     0.209 C 
BRANCH   6   7
ATOM      7  C   UNL     1       6.740   8.592   2.278  1.00  0.00     0.258 C 
ATOM      8  O   UNL     1       5.728   8.851   1.645  1.00  0.00    -0.300 OA
ENDBRANCH   6   7
BRANCH   6   9
ATOM      9  O   UNL     1       7.521   6.808   0.919  1.00  0.00    -0.383 OA
ATOM     10  H   UNL     1       6.850   6.101   0.724  1.00  0.00     0.211 HD
ENDBRANCH   6   9
ENDBRANCH   5   6
BRANCH   5  11
ATOM     11  O   UNL     1       5.500   6.900   3.815  1.00  0.00    -0.387 OA
ATOM     12  H   UNL     1       5.498   7.849   3.522  1.00  0.00     0.211 HD
ENDBRANCH   5  11
ENDBRANCH   1   5
BRANCH   1  13
ATOM     13  O   UNL     1       4.882   6.120   1.031  1.00  0.00    -0.388 OA
ATOM     14  H   UNL     1       4.535   5.518   0.322  1.00  0.00     0.211 HD
ENDBRANCH   1  13
TORSDOF 8
ENDMDL
MODEL 8
REMARK VINA RESULT:    -3.679      5.961      7.728
REMARK INTER + INTRA:          -5.669
REMARK INTER:                  -4.759
REMARK INTRA:                  -0.909
REMARK UNBOUND:                -0.699
REMARK SMILES O=C[C@H](O)[C@@H](O)[C@@H](O)CO
REMARK SMILES IDX 7 1 9 2 10 3 5 5 3 6 2 7 1 8 4 9 6 11 8 13
REMARK H PARENT 10 4 4 10 6 12 8 14
REMARK Flexibility Score: inf
ROOT
ATOM      1  C   UNL     1      -1.150   8.275   5.532  1.00  0.00     0.171 C 
ENDROOT
BRANCH   1   2
ATOM      2  C   UNL     1      -1.429   7.536   6.861  1.00  0.00     0.190 C 
BRANCH   2   3
ATOM      3  O   UNL     1      -0.234   7.215   7.522  1.00  0.00    -0.394 OA
ATOM      4  H   UNL     1      -0.287   6.251   7.753  1.00  0.00     0.210 HD
ENDBRANCH   2   3
ENDBRANCH   1   2
BRANCH   1   5
ATOM      5  C   UNL     1      -0.567   7.370   4.413  1.00  0.00     0.181 C 
BRANCH   5   6
ATOM      6  C   UNL     1       0.892   7.713   4.018  1.00  0.00     0.209 C 
BRANCH   6   7
ATOM      7  C   UNL     1       1.853   6.739   4.647  1.00  0.00     0.258 C 
ATOM      8  O   UNL     1       1.992   6.702   5.860  1.00  0.00    -0.300 OA
ENDBRANCH   6   7
BRANCH   6   9
ATOM      9  O   UNL     1       1.209   9.015   4.441  1.00  0.00    -0.383 OA
ATOM     10  H   UNL     1       0.354   9.519   4.493  1.00  0.00     0.211 HD
ENDBRANCH   6   9
ENDBRANCH   5   6
BRANCH   5  11
ATOM     11  O   UNL     1      -0.644   6.032   4.836  1.00  0.00    -0.387 OA
ATOM     12  H   UNL     1      -1.578   5.730   4.689  1.00  0.00     0.211 HD
ENDBRANCH   5  11
ENDBRANCH   1   5
BRANCH   1  13
ATOM     13  O   UNL     1      -2.287   8.973   5.087  1.00  0.00    -0.388 OA
ATOM     14  H   UNL     1      -3.036   8.769   5.704  1.00  0.00     0.211 HD
ENDBRANCH   1  13
TORSDOF 8
ENDMDL
MODEL 9
REMARK VINA RESULT:    -3.621      1.971      2.851
REMARK INTER + INTRA:          -5.590
REMARK INTER:                  -4.995
REMARK INTRA:                  -0.595
REMARK UNBOUND:                -0.699
REMARK SMILES O=C[C@H](O)[C@@H](O)[C@@H](O)CO
REMARK SMILES IDX 7 1 9 2 10 3 5 5 3 6 2 7 1 8 4 9 6 11 8 13
REMARK H PARENT 10 4 4 10 6 12 8 14
REMARK Flexibility Score: inf
ROOT
ATOM      1  C   UNL     1       5.900   5.990   1.876  1.00  0.00     0.171 C 
ENDROOT
BRANCH   1   2
ATOM      2  C   UNL     1       6.061   4.496   1.513  1.00  0.00     0.190 C 
BRANCH   2   3
ATOM      3  O   UNL     1       6.133   4.318   0.124  1.00  0.00    -0.394 OA
ATOM      4  H   UNL     1       5.224   4.061  -0.178  1.00  0.00     0.210 HD
ENDBRANCH   2   3
ENDBRANCH   1   2
BRANCH   1   5
ATOM      5  C   UNL     1       7.236   6.779   1.925  1.00  0.00     0.181 C 
BRANCH   5   6
ATOM      6  C   UNL     1       7.845   6.904   3.345  1.00  0.00     0.209 C 
BRANCH   6   7
ATOM      7  C   UNL     1       8.990   5.941   3.517  1.00  0.00     0.258 C 
ATOM      8  O   UNL     1       8.785   4.738   3.569  1.00  0.00    -0.300 OA
ENDBRANCH   6   7
BRANCH   6   9
ATOM      9  O   UNL     1       6.863   6.633   4.313  1.00  0.00    -0.383 OA
ATOM     10  H   UNL     1       6.830   7.419   4.919  1.00  0.00     0.211 HD
ENDBRANCH   6   9
ENDBRANCH   5   6
BRANCH   5  11
ATOM     11  O   UNL     1       8.156   6.152   1.066  1.00  0.00    -0.387 OA
ATOM     12  H   UNL     1       8.668   5.498   1.611  1.00  0.00     0.211 HD
ENDBRANCH   5  11
ENDBRANCH   1   5
BRANCH   1  13
ATOM     13  O   UNL     1       4.962   6.623   1.039  1.00  0.00    -0.388 OA
ATOM     14  H   UNL     1       4.971   7.594   1.244  1.00  0.00     0.211 HD
ENDBRANCH   1  13
TORSDOF 8
ENDMDL
