MODEL 1
REMARK VINA RESULT:    -4.481      0.000      0.000
REMARK INTER + INTRA:          -4.481
REMARK INTER:                  -4.481
REMARK INTRA:                   0.000
REMARK UNBOUND:                 0.000
REMARK SMILES CC(C)=C1CC[C@H](C)CC1=O
REMARK SMILES IDX 8 1 7 2 6 3 5 4 4 5 2 6 1 7 3 8 10 9 11 10 9 11
REMARK H PARENT
REMARK Flexibility Score: inf
ROOT
ATOM      1  C   UNL     1     -29.734  21.425  29.378  1.00  0.00     0.008 C 
ATOM      2  C   UNL     1     -30.542  22.454  30.178  1.00  0.00    -0.006 C 
ATOM      3  C   UNL     1     -31.160  23.504  29.242  1.00  0.00     0.008 C 
ATOM      4  C   UNL     1     -31.886  24.599  30.033  1.00  0.00     0.039 C 
ATOM      5  C   UNL     1     -32.896  24.032  31.023  1.00  0.00    -0.006 C 
ATOM      6  C   UNL     1     -34.038  24.710  31.339  1.00  0.00    -0.070 C 
ATOM      7  C   UNL     1     -34.340  26.061  30.732  1.00  0.00     0.039 C 
ATOM      8  C   UNL     1     -35.073  24.132  32.276  1.00  0.00     0.039 C 
ATOM      9  C   UNL     1     -32.504  22.762  31.703  1.00  0.00     0.159 C 
ATOM     10  O   UNL     1     -32.874  22.509  32.881  1.00  0.00    -0.295 OA
ATOM     11  C   UNL     1     -31.645  21.759  30.988  1.00  0.00     0.084 C 
ENDROOT
TORSDOF 0
ENDMDL
MODEL 2
REMARK VINA RESULT:    -4.399      1.683      2.574
REMARK INTER + INTRA:          -4.399
REMARK INTER:                  -4.399
REMARK INTRA:                   0.000
REMARK UNBOUND:                 0.000
REMARK SMILES CC(C)=C1CC[C@H](C)CC1=O
REMARK SMILES IDX 8 1 7 2 6 3 5 4 4 5 2 6 1 7 3 8 10 9 11 10 9 11
REMARK H PARENT
REMARK Flexibility Score: inf
ROOT
ATOM      1  C   UNL     1     -30.176  22.754  28.440  1.00  0.00     0.008 C 
ATOM      2  C   UNL     1     -31.433  22.905  29.306  1.00  0.00    -0.006 C 
ATOM      3  C   UNL     1     -31.298  22.093  30.603  1.00  0.00     0.008 C 
ATOM      4  C   UNL     1     -32.587  22.151  31.434  1.00  0.00     0.039 C 
ATOM      5  C   UNL     1     -33.058  23.577  31.683  1.00  0.00    -0.006 C 
ATOM      6  C   UNL     1     -33.718  23.916  32.829  1.00  0.00    -0.070 C 
ATOM      7  C   UNL     1     -34.026  22.885  33.890  1.00  0.00     0.039 C 
ATOM      8  C   UNL     1     -34.141  25.340  33.112  1.00  0.00     0.039 C 
ATOM      9  C   UNL     1     -32.857  24.540  30.559  1.00  0.00     0.159 C 
ATOM     10  O   UNL     1     -33.662  25.488  30.358  1.00  0.00    -0.295 OA
ATOM     11  C   UNL     1     -31.684  24.384  29.635  1.00  0.00     0.084 C 
ENDROOT
TORSDOF 0
ENDMDL
MODEL 3
REMARK VINA RESULT:    -4.257      8.957     10.177
REMARK INTER + INTRA:          -4.257
REMARK INTER:                  -4.257
REMARK INTRA:                   0.000
REMARK UNBOUND:                 0.000
REMARK SMILES CC(C)=C1CC[C@H](C)CC1=O
REMARK SMILES IDX 8 1 7 2 6 3 5 4 4 5 2 6 1 7 3 8 10 9 11 10 9 11
REMARK H PARENT
REMARK Flexibility Score: inf
ROOT
ATOM      1  C   UNL     1     -32.940  13.438  29.753  1.00  0.00     0.008 C 
ATOM      2  C   UNL     1     -33.498  14.009  28.444  1.00  0.00    -0.006 C 
ATOM      3  C   UNL     1     -33.338  15.537  28.408  1.00  0.00     0.008 C 
ATOM      4  C   UNL     1     -33.982  16.136  27.151  1.00  0.00     0.039 C 
ATOM      5  C   UNL     1     -33.498  15.467  25.871  1.00  0.00    -0.006 C 
ATOM      6  C   UNL     1     -33.397  16.162  24.701  1.00  0.00    -0.070 C 
ATOM      7  C   UNL     1     -33.778  17.623  24.623  1.00  0.00     0.039 C 
ATOM      8  C   UNL     1     -32.865  15.524  23.439  1.00  0.00     0.039 C 
ATOM      9  C   UNL     1     -33.258  13.995  25.952  1.00  0.00     0.159 C 
ATOM     10  O   UNL     1     -33.449  13.245  24.957  1.00  0.00    -0.295 OA
ATOM     11  C   UNL     1     -32.788  13.378  27.238  1.00  0.00     0.084 C 
ENDROOT
TORSDOF 0
ENDMDL
MODEL 4
REMARK VINA RESULT:    -4.242      1.559      4.345
REMARK INTER + INTRA:          -4.242
REMARK INTER:                  -4.242
REMARK INTRA:                   0.000
REMARK UNBOUND:                 0.000
REMARK SMILES CC(C)=C1CC[C@H](C)CC1=O
REMARK SMILES IDX 8 1 7 2 6 3 5 4 4 5 2 6 1 7 3 8 10 9 11 10 9 11
REMARK H PARENT
REMARK Flexibility Score: inf
ROOT
ATOM      1  C   UNL     1     -33.966  25.715  30.750  1.00  0.00     0.008 C 
ATOM      2  C   UNL     1     -33.010  24.530  30.929  1.00  0.00    -0.006 C 
ATOM      3  C   UNL     1     -32.189  24.299  29.651  1.00  0.00     0.008 C 
ATOM      4  C   UNL     1     -31.301  23.055  29.776  1.00  0.00     0.039 C 
ATOM      5  C   UNL     1     -30.436  23.078  31.030  1.00  0.00    -0.006 C 
ATOM      6  C   UNL     1     -29.201  22.498  31.051  1.00  0.00    -0.070 C 
ATOM      7  C   UNL     1     -28.646  21.793  29.835  1.00  0.00     0.039 C 
ATOM      8  C   UNL     1     -28.312  22.563  32.272  1.00  0.00     0.039 C 
ATOM      9  C   UNL     1     -31.068  23.663  32.250  1.00  0.00     0.159 C 
ATOM     10  O   UNL     1     -30.782  23.240  33.402  1.00  0.00    -0.295 OA
ATOM     11  C   UNL     1     -32.072  24.772  32.119  1.00  0.00     0.084 C 
ENDROOT
TORSDOF 0
ENDMDL
MODEL 5
REMARK VINA RESULT:    -4.241      2.107      4.492
REMARK INTER + INTRA:          -4.241
REMARK INTER:                  -4.241
REMARK INTRA:                   0.000
REMARK UNBOUND:                 0.000
REMARK SMILES CC(C)=C1CC[C@H](C)CC1=O
REMARK SMILES IDX 8 1 7 2 6 3 5 4 4 5 2 6 1 7 3 8 10 9 11 10 9 11
REMARK H PARENT
REMARK Flexibility Score: inf
ROOT
ATOM      1  C   UNL     1     -34.627  25.737  30.389  1.00  0.00     0.008 C 
ATOM      2  C   UNL     1     -33.170  25.334  30.641  1.00  0.00    -0.006 C 
ATOM      3  C   UNL     1     -32.981  24.863  32.092  1.00  0.00     0.008 C 
ATOM      4  C   UNL     1     -31.509  24.553  32.391  1.00  0.00     0.039 C 
ATOM      5  C   UNL     1     -30.898  23.591  31.380  1.00  0.00    -0.006 C 
ATOM      6  C   UNL     1     -29.919  22.710  31.741  1.00  0.00    -0.070 C 
ATOM      7  C   UNL     1     -29.388  22.664  33.155  1.00  0.00     0.039 C 
ATOM      8  C   UNL     1     -29.345  21.713  30.760  1.00  0.00     0.039 C 
ATOM      9  C   UNL     1     -31.349  23.753  29.966  1.00  0.00     0.159 C 
ATOM     10  O   UNL     1     -30.576  23.509  29.001  1.00  0.00    -0.295 OA
ATOM     11  C   UNL     1     -32.743  24.224  29.670  1.00  0.00     0.084 C 
ENDROOT
TORSDOF 0
ENDMDL
MODEL 6
REMARK VINA RESULT:    -4.229      4.991      7.429
REMARK INTER + INTRA:          -4.229
REMARK INTER:                  -4.229
REMARK INTRA:                   0.000
REMARK UNBOUND:                 0.000
REMARK SMILES CC(C)=C1CC[C@H](C)CC1=O
REMARK SMILES IDX 8 1 7 2 6 3 5 4 4 5 2 6 1 7 3 8 10 9 11 10 9 11
REMARK H PARENT
REMARK Flexibility Score: inf
ROOT
ATOM      1  C   UNL     1     -30.234  22.284  29.237  1.00  0.00     0.008 C 
ATOM      2  C   UNL     1     -29.770  21.664  27.914  1.00  0.00    -0.006 C 
ATOM      3  C   UNL     1     -30.931  20.933  27.221  1.00  0.00     0.008 C 
ATOM      4  C   UNL     1     -30.460  20.221  25.946  1.00  0.00     0.039 C 
ATOM      5  C   UNL     1     -29.707  21.150  25.002  1.00  0.00    -0.006 C 
ATOM      6  C   UNL     1     -29.759  20.980  23.649  1.00  0.00    -0.070 C 
ATOM      7  C   UNL     1     -30.552  19.851  23.031  1.00  0.00     0.039 C 
ATOM      8  C   UNL     1     -29.062  21.929  22.701  1.00  0.00     0.039 C 
ATOM      9  C   UNL     1     -28.829  22.170  25.649  1.00  0.00     0.159 C 
ATOM     10  O   UNL     1     -27.764  22.560  25.099  1.00  0.00    -0.295 OA
ATOM     11  C   UNL     1     -29.202  22.746  26.984  1.00  0.00     0.084 C 
ENDROOT
TORSDOF 0
ENDMDL
MODEL 7
REMARK VINA RESULT:    -4.189      1.913      4.679
REMARK INTER + INTRA:          -4.189
REMARK INTER:                  -4.189
REMARK INTRA:                   0.000
REMARK UNBOUND:                 0.000
REMARK SMILES CC(C)=C1CC[C@H](C)CC1=O
REMARK SMILES IDX 8 1 7 2 6 3 5 4 4 5 2 6 1 7 3 8 10 9 11 10 9 11
REMARK H PARENT
REMARK Flexibility Score: inf
ROOT
ATOM      1  C   UNL     1     -36.687  22.804  33.916  1.00  0.00     0.008 C 
ATOM      2  C   UNL     1     -35.333  23.431  33.565  1.00  0.00    -0.006 C 
ATOM      3  C   UNL     1     -34.217  22.376  33.621  1.00  0.00     0.008 C 
ATOM      4  C   UNL     1     -32.841  23.007  33.372  1.00  0.00     0.039 C 
ATOM      5  C   UNL     1     -32.800  23.835  32.094  1.00  0.00    -0.006 C 
ATOM      6  C   UNL     1     -31.658  23.941  31.353  1.00  0.00    -0.070 C 
ATOM      7  C   UNL     1     -30.381  23.254  31.780  1.00  0.00     0.039 C 
ATOM      8  C   UNL     1     -31.621  24.713  30.055  1.00  0.00     0.039 C 
ATOM      9  C   UNL     1     -34.038  24.607  31.774  1.00  0.00     0.159 C 
ATOM     10  O   UNL     1     -33.981  25.716  31.177  1.00  0.00    -0.295 OA
ATOM     11  C   UNL     1     -35.383  24.070  32.170  1.00  0.00     0.084 C 
ENDROOT
TORSDOF 0
ENDMDL
MODEL 8
REMARK VINA RESULT:    -4.155      4.887      7.100
REMARK INTER + INTRA:          -4.155
REMARK INTER:                  -4.155
REMARK INTRA:                   0.000
REMARK UNBOUND:                 0.000
REMARK SMILES CC(C)=C1CC[C@H](C)CC1=O
REMARK SMILES IDX 8 1 7 2 6 3 5 4 4 5 2 6 1 7 3 8 10 9 11 10 9 11
REMARK H PARENT
REMARK Flexibility Score: inf
ROOT
ATOM      1  C   UNL     1     -29.108  21.851  29.541  1.00  0.00     0.008 C 
ATOM      2  C   UNL     1     -29.478  21.973  28.058  1.00  0.00    -0.006 C 
ATOM      3  C   UNL     1     -28.244  22.344  27.221  1.00  0.00     0.008 C 
ATOM      4  C   UNL     1     -28.615  22.570  25.749  1.00  0.00     0.039 C 
ATOM      5  C   UNL     1     -29.394  21.403  25.157  1.00  0.00    -0.006 C 
ATOM      6  C   UNL     1     -29.279  21.069  23.839  1.00  0.00    -0.070 C 
ATOM      7  C   UNL     1     -28.387  21.856  22.906  1.00  0.00     0.039 C 
ATOM      8  C   UNL     1     -30.003  19.879  23.253  1.00  0.00     0.039 C 
ATOM      9  C   UNL     1     -30.365  20.732  26.073  1.00  0.00     0.159 C 
ATOM     10  O   UNL     1     -31.433  20.224  25.635  1.00  0.00    -0.295 OA
ATOM     11  C   UNL     1     -30.084  20.659  27.545  1.00  0.00     0.084 C 
ENDROOT
TORSDOF 0
ENDMDL
MODEL 9
REMARK VINA RESULT:    -4.145      8.100      9.667
REMARK INTER + INTRA:          -4.145
REMARK INTER:                  -4.145
REMARK INTRA:                   0.000
REMARK UNBOUND:                 0.000
REMARK SMILES CC(C)=C1CC[C@H](C)CC1=O
REMARK SMILES IDX 8 1 7 2 6 3 5 4 4 5 2 6 1 7 3 8 10 9 11 10 9 11
REMARK H PARENT
REMARK Flexibility Score: inf
ROOT
ATOM      1  C   UNL     1     -34.636  16.660  26.263  1.00  0.00     0.008 C 
ATOM      2  C   UNL     1     -33.892  17.294  25.082  1.00  0.00    -0.006 C 
ATOM      3  C   UNL     1     -33.267  18.636  25.492  1.00  0.00     0.008 C 
ATOM      4  C   UNL     1     -32.606  19.333  24.295  1.00  0.00     0.039 C 
ATOM      5  C   UNL     1     -31.622  18.429  23.564  1.00  0.00    -0.006 C 
ATOM      6  C   UNL     1     -30.514  18.937  22.948  1.00  0.00    -0.070 C 
ATOM      7  C   UNL     1     -30.227  20.421  22.952  1.00  0.00     0.039 C 
ATOM      8  C   UNL     1     -29.502  18.044  22.268  1.00  0.00     0.039 C 
ATOM      9  C   UNL     1     -32.005  16.989  23.465  1.00  0.00     0.159 C 
ATOM     10  O   UNL     1     -31.676  16.292  22.467  1.00  0.00    -0.295 OA
ATOM     11  C   UNL     1     -32.803  16.345  24.561  1.00  0.00     0.084 C 
ENDROOT
TORSDOF 0
ENDMDL
