MODEL 1
REMARK VINA RESULT:    -5.538      0.000      0.000
REMARK INTER + INTRA:         -10.041
REMARK INTER:                  -7.643
REMARK INTRA:                  -2.398
REMARK UNBOUND:                -2.398
REMARK SMILES CC[C@H](CC[C@@H](C)[C@@H]1CC[C@@H]2[C@@H]3CC=C4C[C@H](O)CC[C@@]4(C)[C@@H]3CC[C@]21C)C(C)C
REMARK SMILES IDX 5 1 4 2 3 3 2 4 1 5 28 6 29 7 30 8 6 9 7 10 8 11 9 12 26 13
REMARK SMILES IDX 10 14 11 15 25 16 27 17 12 18 24 19 23 20 13 21 21 22 14 23
REMARK SMILES IDX 15 24 20 25 22 26 16 27 19 28 17 29 18 30
REMARK H PARENT 18 31
REMARK Flexibility Score: inf
ROOT
ATOM      1  C   UNL     1      21.449 -14.513  46.380  1.00  0.00     0.004 C 
ENDROOT
BRANCH   1   2
ATOM      2  C   UNL     1      22.396 -13.432  46.944  1.00  0.00     0.004 C 
BRANCH   2   3
ATOM      3  C   UNL     1      23.078 -12.514  45.888  1.00  0.00    -0.009 C 
BRANCH   3   4
ATOM      4  C   UNL     1      22.660 -11.021  46.031  1.00  0.00     0.000 C 
ATOM      5  C   UNL     1      22.897 -10.122  44.809  1.00  0.00     0.004 C 
ENDBRANCH   3   4
BRANCH   3   6
ATOM      6  C   UNL     1      24.617 -12.770  45.714  1.00  0.00    -0.014 C 
ATOM      7  C   UNL     1      24.974 -13.231  44.285  1.00  0.00     0.007 C 
ATOM      8  C   UNL     1      25.119 -13.849  46.697  1.00  0.00     0.007 C 
ENDBRANCH   3   6
ENDBRANCH   2   3
ENDBRANCH   1   2
BRANCH   1   9
ATOM      9  C   UNL     1      21.649 -14.752  44.857  1.00  0.00    -0.011 C 
ATOM     10  C   UNL     1      22.307 -16.136  44.633  1.00  0.00     0.008 C 
BRANCH   9  11
ATOM     11  C   UNL     1      20.301 -14.498  44.089  1.00  0.00    -0.002 C 
ATOM     12  C   UNL     1      19.911 -15.549  43.016  1.00  0.00     0.005 C 
ATOM     13  C   UNL     1      20.031 -13.116  43.422  1.00  0.00    -0.026 C 
ATOM     14  C   UNL     1      19.057 -14.805  41.970  1.00  0.00     0.005 C 
ATOM     15  C   UNL     1      18.767 -13.459  42.624  1.00  0.00    -0.001 C 
ATOM     16  C   UNL     1      19.648 -11.992  44.409  1.00  0.00     0.007 C 
ATOM     17  C   UNL     1      21.219 -12.673  42.527  1.00  0.00     0.012 C 
ATOM     18  C   UNL     1      18.112 -12.313  41.809  1.00  0.00     0.000 C 
ATOM     19  C   UNL     1      19.177 -10.731  43.654  1.00  0.00     0.005 C 
ATOM     20  C   UNL     1      18.021 -10.970  42.620  1.00  0.00     0.003 C 
ATOM     21  C   UNL     1      18.585 -12.102  40.364  1.00  0.00     0.031 C 
ATOM     22  C   UNL     1      17.697  -9.690  41.710  1.00  0.00    -0.008 C 
ATOM     23  C   UNL     1      17.618 -11.171  39.693  1.00  0.00    -0.027 C 
ATOM     24  C   UNL     1      17.121 -10.096  40.339  1.00  0.00    -0.065 C 
ATOM     25  C   UNL     1      16.669  -8.799  42.479  1.00  0.00     0.014 C 
ATOM     26  C   UNL     1      18.959  -8.835  41.412  1.00  0.00     0.016 C 
ATOM     27  C   UNL     1      16.258  -9.131  39.542  1.00  0.00     0.063 C 
ATOM     28  C   UNL     1      16.046  -7.694  41.620  1.00  0.00     0.033 C 
ATOM     29  C   UNL     1      15.305  -8.314  40.429  1.00  0.00     0.118 C 
BRANCH  29  30
ATOM     30  O   UNL     1      14.657  -7.320  39.677  1.00  0.00    -0.393 OA
ATOM     31  H   UNL     1      14.830  -7.509  38.718  1.00  0.00     0.210 HD
ENDBRANCH  29  30
ENDBRANCH   9  11
ENDBRANCH   1   9
TORSDOF 7
ENDMDL
MODEL 2
REMARK VINA RESULT:    -5.438     10.733     13.581
REMARK INTER + INTRA:          -9.902
REMARK INTER:                  -8.862
REMARK INTRA:                  -1.040
REMARK UNBOUND:                -2.398
REMARK SMILES CC[C@H](CC[C@@H](C)[C@@H]1CC[C@@H]2[C@@H]3CC=C4C[C@H](O)CC[C@@]4(C)[C@@H]3CC[C@]21C)C(C)C
REMARK SMILES IDX 5 1 4 2 3 3 2 4 1 5 28 6 29 7 30 8 6 9 7 10 8 11 9 12 26 13
REMARK SMILES IDX 10 14 11 15 25 16 27 17 12 18 24 19 23 20 13 21 21 22 14 23
REMARK SMILES IDX 15 24 20 25 22 26 16 27 19 28 17 29 18 30
REMARK H PARENT 18 31
REMARK Flexibility Score: inf
ROOT
ATOM      1  C   UNL     1       6.765  -9.436  41.298  1.00  0.00     0.004 C 
ENDROOT
BRANCH   1   2
ATOM      2  C   UNL     1       7.997  -8.607  41.719  1.00  0.00     0.004 C 
BRANCH   2   3
ATOM      3  C   UNL     1       7.692  -7.259  42.435  1.00  0.00    -0.009 C 
BRANCH   3   4
ATOM      4  C   UNL     1       8.247  -7.214  43.889  1.00  0.00     0.000 C 
ATOM      5  C   UNL     1       9.296  -8.274  44.256  1.00  0.00     0.004 C 
ENDBRANCH   3   4
BRANCH   3   6
ATOM      6  C   UNL     1       7.983  -5.988  41.561  1.00  0.00    -0.014 C 
ATOM      7  C   UNL     1       9.380  -6.037  40.907  1.00  0.00     0.007 C 
ATOM      8  C   UNL     1       7.903  -4.698  42.405  1.00  0.00     0.007 C 
ENDBRANCH   3   6
ENDBRANCH   2   3
ENDBRANCH   1   2
BRANCH   1   9
ATOM      9  C   UNL     1       6.813 -10.897  41.831  1.00  0.00    -0.011 C 
ATOM     10  C   UNL     1       5.705 -11.095  42.895  1.00  0.00     0.008 C 
BRANCH   9  11
ATOM     11  C   UNL     1       6.804 -11.910  40.629  1.00  0.00    -0.002 C 
ATOM     12  C   UNL     1       5.472 -12.663  40.374  1.00  0.00     0.005 C 
ATOM     13  C   UNL     1       7.914 -12.997  40.516  1.00  0.00    -0.026 C 
ATOM     14  C   UNL     1       5.851 -14.007  39.721  1.00  0.00     0.005 C 
ATOM     15  C   UNL     1       7.328 -13.845  39.381  1.00  0.00    -0.001 C 
ATOM     16  C   UNL     1       9.280 -12.469  40.025  1.00  0.00     0.007 C 
ATOM     17  C   UNL     1       8.080 -13.782  41.845  1.00  0.00     0.012 C 
ATOM     18  C   UNL     1       8.163 -15.062  38.903  1.00  0.00     0.000 C 
ATOM     19  C   UNL     1      10.246 -13.635  39.723  1.00  0.00     0.005 C 
ATOM     20  C   UNL     1       9.688 -14.720  38.735  1.00  0.00     0.003 C 
ATOM     21  C   UNL     1       7.932 -16.408  39.602  1.00  0.00     0.031 C 
ATOM     22  C   UNL     1      10.628 -16.013  38.603  1.00  0.00    -0.008 C 
ATOM     23  C   UNL     1       8.602 -17.474  38.787  1.00  0.00    -0.027 C 
ATOM     24  C   UNL     1       9.816 -17.271  38.234  1.00  0.00    -0.065 C 
ATOM     25  C   UNL     1      11.696 -15.723  37.500  1.00  0.00     0.014 C 
ATOM     26  C   UNL     1      11.368 -16.350  39.927  1.00  0.00     0.016 C 
ATOM     27  C   UNL     1      10.482 -18.449  37.541  1.00  0.00     0.063 C 
ATOM     28  C   UNL     1      12.479 -16.964  37.059  1.00  0.00     0.033 C 
ATOM     29  C   UNL     1      11.517 -18.014  36.491  1.00  0.00     0.118 C 
BRANCH  29  30
ATOM     30  O   UNL     1      12.227 -19.125  36.005  1.00  0.00    -0.393 OA
ATOM     31  H   UNL     1      11.647 -19.585  35.344  1.00  0.00     0.210 HD
ENDBRANCH  29  30
ENDBRANCH   9  11
ENDBRANCH   1   9
TORSDOF 7
ENDMDL
MODEL 3
REMARK VINA RESULT:    -5.239     10.341     13.149
REMARK INTER + INTRA:          -9.627
REMARK INTER:                  -7.284
REMARK INTRA:                  -2.344
REMARK UNBOUND:                -2.398
REMARK SMILES CC[C@H](CC[C@@H](C)[C@@H]1CC[C@@H]2[C@@H]3CC=C4C[C@H](O)CC[C@@]4(C)[C@@H]3CC[C@]21C)C(C)C
REMARK SMILES IDX 5 1 4 2 3 3 2 4 1 5 28 6 29 7 30 8 6 9 7 10 8 11 9 12 26 13
REMARK SMILES IDX 10 14 11 15 25 16 27 17 12 18 24 19 23 20 13 21 21 22 14 23
REMARK SMILES IDX 15 24 20 25 22 26 16 27 19 28 17 29 18 30
REMARK H PARENT 18 31
REMARK Flexibility Score: inf
ROOT
ATOM      1  C   UNL     1       7.485 -13.263  43.120  1.00  0.00     0.004 C 
ENDROOT
BRANCH   1   2
ATOM      2  C   UNL     1       6.206 -13.250  42.254  1.00  0.00     0.004 C 
BRANCH   2   3
ATOM      3  C   UNL     1       6.168 -12.184  41.120  1.00  0.00    -0.009 C 
BRANCH   3   4
ATOM      4  C   UNL     1       7.437 -11.282  41.103  1.00  0.00     0.000 C 
ATOM      5  C   UNL     1       7.210  -9.775  41.289  1.00  0.00     0.004 C 
ENDBRANCH   3   4
BRANCH   3   6
ATOM      6  C   UNL     1       5.720 -12.748  39.726  1.00  0.00    -0.014 C 
ATOM      7  C   UNL     1       5.166 -14.185  39.827  1.00  0.00     0.007 C 
ATOM      8  C   UNL     1       6.896 -12.765  38.726  1.00  0.00     0.007 C 
ENDBRANCH   3   6
ENDBRANCH   2   3
ENDBRANCH   1   2
BRANCH   1   9
ATOM      9  C   UNL     1       8.240 -14.620  43.055  1.00  0.00    -0.011 C 
ATOM     10  C   UNL     1       7.770 -15.528  44.219  1.00  0.00     0.008 C 
BRANCH   9  11
ATOM     11  C   UNL     1       8.125 -15.235  41.613  1.00  0.00    -0.002 C 
ATOM     12  C   UNL     1       7.417 -16.612  41.505  1.00  0.00     0.005 C 
ATOM     13  C   UNL     1       9.390 -15.357  40.713  1.00  0.00    -0.026 C 
ATOM     14  C   UNL     1       8.016 -17.313  40.270  1.00  0.00     0.005 C 
ATOM     15  C   UNL     1       8.817 -16.215  39.579  1.00  0.00    -0.001 C 
ATOM     16  C   UNL     1       9.857 -14.028  40.080  1.00  0.00     0.007 C 
ATOM     17  C   UNL     1      10.562 -16.041  41.467  1.00  0.00     0.012 C 
ATOM     18  C   UNL     1       9.766 -16.557  38.401  1.00  0.00     0.000 C 
ATOM     19  C   UNL     1      10.963 -14.274  39.031  1.00  0.00     0.005 C 
ATOM     20  C   UNL     1      10.600 -15.316  37.916  1.00  0.00     0.003 C 
ATOM     21  C   UNL     1      10.613 -17.832  38.512  1.00  0.00     0.031 C 
ATOM     22  C   UNL     1      11.835 -15.700  36.968  1.00  0.00    -0.008 C 
ATOM     23  C   UNL     1      11.202 -18.116  37.161  1.00  0.00    -0.027 C 
ATOM     24  C   UNL     1      11.688 -17.121  36.389  1.00  0.00    -0.065 C 
ATOM     25  C   UNL     1      11.899 -14.654  35.809  1.00  0.00     0.014 C 
ATOM     26  C   UNL     1      13.194 -15.681  37.721  1.00  0.00     0.016 C 
ATOM     27  C   UNL     1      12.390 -17.510  35.098  1.00  0.00     0.063 C 
ATOM     28  C   UNL     1      12.842 -15.053  34.669  1.00  0.00     0.033 C 
ATOM     29  C   UNL     1      12.385 -16.381  34.054  1.00  0.00     0.118 C 
BRANCH  29  30
ATOM     30  O   UNL     1      13.189 -16.720  32.953  1.00  0.00    -0.393 OA
ATOM     31  H   UNL     1      14.094 -16.347  33.117  1.00  0.00     0.210 HD
ENDBRANCH  29  30
ENDBRANCH   9  11
ENDBRANCH   1   9
TORSDOF 7
ENDMDL
MODEL 4
REMARK VINA RESULT:    -5.189      1.566      2.811
REMARK INTER + INTRA:          -9.559
REMARK INTER:                  -7.223
REMARK INTRA:                  -2.336
REMARK UNBOUND:                -2.398
REMARK SMILES CC[C@H](CC[C@@H](C)[C@@H]1CC[C@@H]2[C@@H]3CC=C4C[C@H](O)CC[C@@]4(C)[C@@H]3CC[C@]21C)C(C)C
REMARK SMILES IDX 5 1 4 2 3 3 2 4 1 5 28 6 29 7 30 8 6 9 7 10 8 11 9 12 26 13
REMARK SMILES IDX 10 14 11 15 25 16 27 17 12 18 24 19 23 20 13 21 21 22 14 23
REMARK SMILES IDX 15 24 20 25 22 26 16 27 19 28 17 29 18 30
REMARK H PARENT 18 31
REMARK Flexibility Score: inf
ROOT
ATOM      1  C   UNL     1      22.911 -13.090  46.846  1.00  0.00     0.004 C 
ENDROOT
BRANCH   1   2
ATOM      2  C   UNL     1      22.015 -14.292  46.475  1.00  0.00     0.004 C 
BRANCH   2   3
ATOM      3  C   UNL     1      22.764 -15.619  46.155  1.00  0.00    -0.009 C 
BRANCH   3   4
ATOM      4  C   UNL     1      22.334 -16.236  44.792  1.00  0.00     0.000 C 
ATOM      5  C   UNL     1      20.886 -15.978  44.348  1.00  0.00     0.004 C 
ENDBRANCH   3   4
BRANCH   3   6
ATOM      6  C   UNL     1      24.311 -15.559  46.412  1.00  0.00    -0.014 C 
ATOM      7  C   UNL     1      25.125 -15.685  45.106  1.00  0.00     0.007 C 
ATOM      8  C   UNL     1      24.765 -16.689  47.360  1.00  0.00     0.007 C 
ENDBRANCH   3   6
ENDBRANCH   2   3
ENDBRANCH   1   2
BRANCH   1   9
ATOM      9  C   UNL     1      23.144 -12.124  45.650  1.00  0.00    -0.011 C 
ATOM     10  C   UNL     1      24.665 -11.986  45.387  1.00  0.00     0.008 C 
BRANCH   9  11
ATOM     11  C   UNL     1      22.270 -12.566  44.420  1.00  0.00    -0.002 C 
ATOM     12  C   UNL     1      23.043 -13.022  43.154  1.00  0.00     0.005 C 
ATOM     13  C   UNL     1      21.138 -11.635  43.893  1.00  0.00    -0.026 C 
ATOM     14  C   UNL     1      22.127 -12.716  41.952  1.00  0.00     0.005 C 
ATOM     15  C   UNL     1      20.787 -12.369  42.593  1.00  0.00    -0.001 C 
ATOM     16  C   UNL     1      19.861 -11.624  44.761  1.00  0.00     0.007 C 
ATOM     17  C   UNL     1      21.650 -10.189  43.661  1.00  0.00     0.012 C 
ATOM     18  C   UNL     1      19.635 -11.781  41.737  1.00  0.00     0.000 C 
ATOM     19  C   UNL     1      18.717 -10.867  44.053  1.00  0.00     0.005 C 
ATOM     20  C   UNL     1      18.390 -11.367  42.601  1.00  0.00     0.003 C 
ATOM     21  C   UNL     1      19.996 -10.733  40.676  1.00  0.00     0.031 C 
ATOM     22  C   UNL     1      17.346 -10.433  41.821  1.00  0.00    -0.008 C 
ATOM     23  C   UNL     1      18.801 -10.546  39.786  1.00  0.00    -0.027 C 
ATOM     24  C   UNL     1      17.552 -10.500  40.295  1.00  0.00    -0.065 C 
ATOM     25  C   UNL     1      15.903 -10.910  42.187  1.00  0.00     0.014 C 
ATOM     26  C   UNL     1      17.479  -8.934  42.208  1.00  0.00     0.016 C 
ATOM     27  C   UNL     1      16.415 -10.170  39.342  1.00  0.00     0.063 C 
ATOM     28  C   UNL     1      14.810 -10.307  41.299  1.00  0.00     0.033 C 
ATOM     29  C   UNL     1      15.055 -10.691  39.835  1.00  0.00     0.118 C 
BRANCH  29  30
ATOM     30  O   UNL     1      14.016 -10.216  39.018  1.00  0.00    -0.393 OA
ATOM     31  H   UNL     1      13.191 -10.182  39.570  1.00  0.00     0.210 HD
ENDBRANCH  29  30
ENDBRANCH   9  11
ENDBRANCH   1   9
TORSDOF 7
ENDMDL
MODEL 5
REMARK VINA RESULT:    -5.177      1.281      2.200
REMARK INTER + INTRA:          -9.542
REMARK INTER:                  -7.246
REMARK INTRA:                  -2.296
REMARK UNBOUND:                -2.398
REMARK SMILES CC[C@H](CC[C@@H](C)[C@@H]1CC[C@@H]2[C@@H]3CC=C4C[C@H](O)CC[C@@]4(C)[C@@H]3CC[C@]21C)C(C)C
REMARK SMILES IDX 5 1 4 2 3 3 2 4 1 5 28 6 29 7 30 8 6 9 7 10 8 11 9 12 26 13
REMARK SMILES IDX 10 14 11 15 25 16 27 17 12 18 24 19 23 20 13 21 21 22 14 23
REMARK SMILES IDX 15 24 20 25 22 26 16 27 19 28 17 29 18 30
REMARK H PARENT 18 31
REMARK Flexibility Score: inf
ROOT
ATOM      1  C   UNL     1      24.490 -13.168  43.792  1.00  0.00     0.004 C 
ENDROOT
BRANCH   1   2
ATOM      2  C   UNL     1      24.865 -13.019  45.282  1.00  0.00     0.004 C 
BRANCH   2   3
ATOM      3  C   UNL     1      24.490 -11.658  45.940  1.00  0.00    -0.009 C 
BRANCH   3   4
ATOM      4  C   UNL     1      24.418 -10.494  44.909  1.00  0.00     0.000 C 
ATOM      5  C   UNL     1      25.086  -9.173  45.318  1.00  0.00     0.004 C 
ENDBRANCH   3   4
BRANCH   3   6
ATOM      6  C   UNL     1      23.290 -11.743  46.949  1.00  0.00    -0.014 C 
ATOM      7  C   UNL     1      22.958 -13.198  47.340  1.00  0.00     0.007 C 
ATOM      8  C   UNL     1      22.014 -11.110  46.354  1.00  0.00     0.007 C 
ENDBRANCH   3   6
ENDBRANCH   2   3
ENDBRANCH   1   2
BRANCH   1   9
ATOM      9  C   UNL     1      23.368 -14.218  43.556  1.00  0.00    -0.011 C 
ATOM     10  C   UNL     1      23.736 -15.537  44.281  1.00  0.00     0.008 C 
BRANCH   9  11
ATOM     11  C   UNL     1      21.967 -13.602  43.916  1.00  0.00    -0.002 C 
ATOM     12  C   UNL     1      20.932 -14.569  44.550  1.00  0.00     0.005 C 
ATOM     13  C   UNL     1      21.171 -12.797  42.847  1.00  0.00    -0.026 C 
ATOM     14  C   UNL     1      19.541 -14.029  44.164  1.00  0.00     0.005 C 
ATOM     15  C   UNL     1      19.833 -12.651  43.580  1.00  0.00    -0.001 C 
ATOM     16  C   UNL     1      21.703 -11.370  42.592  1.00  0.00     0.007 C 
ATOM     17  C   UNL     1      21.056 -13.580  41.512  1.00  0.00     0.012 C 
ATOM     18  C   UNL     1      18.716 -11.849  42.861  1.00  0.00     0.000 C 
ATOM     19  C   UNL     1      20.730 -10.568  41.700  1.00  0.00     0.005 C 
ATOM     20  C   UNL     1      19.247 -10.519  42.214  1.00  0.00     0.003 C 
ATOM     21  C   UNL     1      17.764 -12.619  41.936  1.00  0.00     0.031 C 
ATOM     22  C   UNL     1      18.227  -9.859  41.168  1.00  0.00    -0.008 C 
ATOM     23  C   UNL     1      16.609 -11.719  41.609  1.00  0.00    -0.027 C 
ATOM     24  C   UNL     1      16.797 -10.409  41.342  1.00  0.00    -0.065 C 
ATOM     25  C   UNL     1      18.236  -8.313  41.394  1.00  0.00     0.014 C 
ATOM     26  C   UNL     1      18.620 -10.140  39.691  1.00  0.00     0.016 C 
ATOM     27  C   UNL     1      15.593  -9.602  40.886  1.00  0.00     0.063 C 
ATOM     28  C   UNL     1      17.103  -7.577  40.671  1.00  0.00     0.033 C 
ATOM     29  C   UNL     1      15.746  -8.097  41.161  1.00  0.00     0.118 C 
BRANCH  29  30
ATOM     30  O   UNL     1      14.696  -7.376  40.570  1.00  0.00    -0.393 OA
ATOM     31  H   UNL     1      14.899  -6.410  40.675  1.00  0.00     0.210 HD
ENDBRANCH  29  30
ENDBRANCH   9  11
ENDBRANCH   1   9
TORSDOF 7
ENDMDL
MODEL 6
REMARK VINA RESULT:    -5.153      1.529      2.864
REMARK INTER + INTRA:          -9.509
REMARK INTER:                  -7.260
REMARK INTRA:                  -2.249
REMARK UNBOUND:                -2.398
REMARK SMILES CC[C@H](CC[C@@H](C)[C@@H]1CC[C@@H]2[C@@H]3CC=C4C[C@H](O)CC[C@@]4(C)[C@@H]3CC[C@]21C)C(C)C
REMARK SMILES IDX 5 1 4 2 3 3 2 4 1 5 28 6 29 7 30 8 6 9 7 10 8 11 9 12 26 13
REMARK SMILES IDX 10 14 11 15 25 16 27 17 12 18 24 19 23 20 13 21 21 22 14 23
REMARK SMILES IDX 15 24 20 25 22 26 16 27 19 28 17 29 18 30
REMARK H PARENT 18 31
REMARK Flexibility Score: inf
ROOT
ATOM      1  C   UNL     1      23.060 -15.031  43.445  1.00  0.00     0.004 C 
ENDROOT
BRANCH   1   2
ATOM      2  C   UNL     1      22.550 -15.218  44.891  1.00  0.00     0.004 C 
BRANCH   2   3
ATOM      3  C   UNL     1      22.603 -13.952  45.795  1.00  0.00    -0.009 C 
BRANCH   3   4
ATOM      4  C   UNL     1      21.196 -13.522  46.305  1.00  0.00     0.000 C 
ATOM      5  C   UNL     1      20.033 -14.476  45.997  1.00  0.00     0.004 C 
ENDBRANCH   3   4
BRANCH   3   6
ATOM      6  C   UNL     1      23.734 -13.986  46.882  1.00  0.00    -0.014 C 
ATOM      7  C   UNL     1      24.744 -12.832  46.710  1.00  0.00     0.007 C 
ATOM      8  C   UNL     1      24.521 -15.313  46.828  1.00  0.00     0.007 C 
ENDBRANCH   3   6
ENDBRANCH   2   3
ENDBRANCH   1   2
BRANCH   1   9
ATOM      9  C   UNL     1      23.550 -13.582  43.164  1.00  0.00    -0.011 C 
ATOM     10  C   UNL     1      25.078 -13.593  42.913  1.00  0.00     0.008 C 
BRANCH   9  11
ATOM     11  C   UNL     1      22.671 -12.925  42.038  1.00  0.00    -0.002 C 
ATOM     12  C   UNL     1      23.423 -12.042  41.005  1.00  0.00     0.005 C 
ATOM     13  C   UNL     1      21.397 -12.113  42.416  1.00  0.00    -0.026 C 
ATOM     14  C   UNL     1      22.406 -10.998  40.505  1.00  0.00     0.005 C 
ATOM     15  C   UNL     1      21.072 -11.496  41.051  1.00  0.00    -0.001 C 
ATOM     16  C   UNL     1      20.183 -12.977  42.820  1.00  0.00     0.007 C 
ATOM     17  C   UNL     1      21.699 -11.055  43.511  1.00  0.00     0.012 C 
ATOM     18  C   UNL     1      19.804 -10.606  40.960  1.00  0.00     0.000 C 
ATOM     19  C   UNL     1      18.910 -12.114  42.953  1.00  0.00     0.005 C 
ATOM     20  C   UNL     1      18.568 -11.239  41.696  1.00  0.00     0.003 C 
ATOM     21  C   UNL     1      19.960  -9.107  41.247  1.00  0.00     0.031 C 
ATOM     22  C   UNL     1      17.365 -10.206  41.940  1.00  0.00    -0.008 C 
ATOM     23  C   UNL     1      18.702  -8.418  40.805  1.00  0.00    -0.027 C 
ATOM     24  C   UNL     1      17.489  -8.964  41.036  1.00  0.00    -0.065 C 
ATOM     25  C   UNL     1      16.022 -10.949  41.646  1.00  0.00     0.014 C 
ATOM     26  C   UNL     1      17.321  -9.675  43.399  1.00  0.00     0.016 C 
ATOM     27  C   UNL     1      16.265  -8.137  40.680  1.00  0.00     0.063 C 
ATOM     28  C   UNL     1      14.809 -10.018  41.554  1.00  0.00     0.033 C 
ATOM     29  C   UNL     1      15.017  -8.998  40.429  1.00  0.00     0.118 C 
BRANCH  29  30
ATOM     30  O   UNL     1      13.878  -8.190  40.276  1.00  0.00    -0.393 OA
ATOM     31  H   UNL     1      13.577  -7.922  41.183  1.00  0.00     0.210 HD
ENDBRANCH  29  30
ENDBRANCH   9  11
ENDBRANCH   1   9
TORSDOF 7
ENDMDL
MODEL 7
REMARK VINA RESULT:    -5.085      1.555      4.020
REMARK INTER + INTRA:          -9.416
REMARK INTER:                  -7.324
REMARK INTRA:                  -2.092
REMARK UNBOUND:                -2.398
REMARK SMILES CC[C@H](CC[C@@H](C)[C@@H]1CC[C@@H]2[C@@H]3CC=C4C[C@H](O)CC[C@@]4(C)[C@@H]3CC[C@]21C)C(C)C
REMARK SMILES IDX 5 1 4 2 3 3 2 4 1 5 28 6 29 7 30 8 6 9 7 10 8 11 9 12 26 13
REMARK SMILES IDX 10 14 11 15 25 16 27 17 12 18 24 19 23 20 13 21 21 22 14 23
REMARK SMILES IDX 15 24 20 25 22 26 16 27 19 28 17 29 18 30
REMARK H PARENT 18 31
REMARK Flexibility Score: inf
ROOT
ATOM      1  C   UNL     1      25.005 -14.026  44.771  1.00  0.00     0.004 C 
ENDROOT
BRANCH   1   2
ATOM      2  C   UNL     1      24.633 -15.353  44.076  1.00  0.00     0.004 C 
BRANCH   2   3
ATOM      3  C   UNL     1      23.677 -16.288  44.875  1.00  0.00    -0.009 C 
BRANCH   3   4
ATOM      4  C   UNL     1      22.417 -16.698  44.056  1.00  0.00     0.000 C 
ATOM      5  C   UNL     1      22.512 -16.546  42.530  1.00  0.00     0.004 C 
ENDBRANCH   3   4
BRANCH   3   6
ATOM      6  C   UNL     1      24.405 -17.458  45.626  1.00  0.00    -0.014 C 
ATOM      7  C   UNL     1      23.745 -18.826  45.354  1.00  0.00     0.007 C 
ATOM      8  C   UNL     1      24.403 -17.229  47.152  1.00  0.00     0.007 C 
ENDBRANCH   3   6
ENDBRANCH   2   3
ENDBRANCH   1   2
BRANCH   1   9
ATOM      9  C   UNL     1      23.951 -13.582  45.824  1.00  0.00    -0.011 C 
ATOM     10  C   UNL     1      24.633 -13.436  47.207  1.00  0.00     0.008 C 
BRANCH   9  11
ATOM     11  C   UNL     1      23.167 -12.321  45.306  1.00  0.00    -0.002 C 
ATOM     12  C   UNL     1      22.786 -11.260  46.373  1.00  0.00     0.005 C 
ATOM     13  C   UNL     1      21.887 -12.501  44.436  1.00  0.00    -0.026 C 
ATOM     14  C   UNL     1      21.511 -10.565  45.858  1.00  0.00     0.005 C 
ATOM     15  C   UNL     1      21.384 -11.053  44.419  1.00  0.00    -0.001 C 
ATOM     16  C   UNL     1      22.161 -12.901  42.969  1.00  0.00     0.007 C 
ATOM     17  C   UNL     1      20.887 -13.490  45.091  1.00  0.00     0.012 C 
ATOM     18  C   UNL     1      20.099 -10.761  43.600  1.00  0.00     0.000 C 
ATOM     19  C   UNL     1      20.868 -12.832  42.128  1.00  0.00     0.005 C 
ATOM     20  C   UNL     1      20.107 -11.460  42.192  1.00  0.00     0.003 C 
ATOM     21  C   UNL     1      18.749 -10.888  44.317  1.00  0.00     0.031 C 
ATOM     22  C   UNL     1      18.671 -11.488  41.479  1.00  0.00    -0.008 C 
ATOM     23  C   UNL     1      17.699 -10.271  43.440  1.00  0.00    -0.027 C 
ATOM     24  C   UNL     1      17.705 -10.463  42.104  1.00  0.00    -0.065 C 
ATOM     25  C   UNL     1      18.879 -11.172  39.962  1.00  0.00     0.014 C 
ATOM     26  C   UNL     1      17.971 -12.870  41.599  1.00  0.00     0.016 C 
ATOM     27  C   UNL     1      16.530  -9.918  41.309  1.00  0.00     0.063 C 
ATOM     28  C   UNL     1      17.577 -10.878  39.209  1.00  0.00     0.033 C 
ATOM     29  C   UNL     1      16.876  -9.665  39.832  1.00  0.00     0.118 C 
BRANCH  29  30
ATOM     30  O   UNL     1      15.723  -9.330  39.102  1.00  0.00    -0.393 OA
ATOM     31  H   UNL     1      15.306  -8.546  39.544  1.00  0.00     0.210 HD
ENDBRANCH  29  30
ENDBRANCH   9  11
ENDBRANCH   1   9
TORSDOF 7
ENDMDL
MODEL 8
REMARK VINA RESULT:    -5.053      3.326      8.499
REMARK INTER + INTRA:          -9.372
REMARK INTER:                  -7.153
REMARK INTRA:                  -2.218
REMARK UNBOUND:                -2.398
REMARK SMILES CC[C@H](CC[C@@H](C)[C@@H]1CC[C@@H]2[C@@H]3CC=C4C[C@H](O)CC[C@@]4(C)[C@@H]3CC[C@]21C)C(C)C
REMARK SMILES IDX 5 1 4 2 3 3 2 4 1 5 28 6 29 7 30 8 6 9 7 10 8 11 9 12 26 13
REMARK SMILES IDX 10 14 11 15 25 16 27 17 12 18 24 19 23 20 13 21 21 22 14 23
REMARK SMILES IDX 15 24 20 25 22 26 16 27 19 28 17 29 18 30
REMARK H PARENT 18 31
REMARK Flexibility Score: inf
ROOT
ATOM      1  C   UNL     1      17.315 -10.459  39.526  1.00  0.00     0.004 C 
ENDROOT
BRANCH   1   2
ATOM      2  C   UNL     1      17.191 -11.992  39.672  1.00  0.00     0.004 C 
BRANCH   2   3
ATOM      3  C   UNL     1      15.813 -12.513  40.174  1.00  0.00    -0.009 C 
BRANCH   3   4
ATOM      4  C   UNL     1      15.950 -13.607  41.273  1.00  0.00     0.000 C 
ATOM      5  C   UNL     1      17.291 -14.354  41.334  1.00  0.00     0.004 C 
ENDBRANCH   3   4
BRANCH   3   6
ATOM      6  C   UNL     1      14.770 -11.379  40.476  1.00  0.00    -0.014 C 
ATOM      7  C   UNL     1      14.582 -11.147  41.990  1.00  0.00     0.007 C 
ATOM      8  C   UNL     1      13.389 -11.715  39.875  1.00  0.00     0.007 C 
ENDBRANCH   3   6
ENDBRANCH   2   3
ENDBRANCH   1   2
BRANCH   1   9
ATOM      9  C   UNL     1      18.373  -9.848  40.489  1.00  0.00    -0.011 C 
ATOM     10  C   UNL     1      18.092  -8.336  40.671  1.00  0.00     0.008 C 
BRANCH   9  11
ATOM     11  C   UNL     1      18.455 -10.697  41.810  1.00  0.00    -0.002 C 
ATOM     12  C   UNL     1      17.791 -10.078  43.069  1.00  0.00     0.005 C 
ATOM     13  C   UNL     1      19.828 -11.245  42.301  1.00  0.00    -0.026 C 
ATOM     14  C   UNL     1      18.557 -10.639  44.284  1.00  0.00     0.005 C 
ATOM     15  C   UNL     1      19.420 -11.748  43.691  1.00  0.00    -0.001 C 
ATOM     16  C   UNL     1      20.348 -12.468  41.515  1.00  0.00     0.007 C 
ATOM     17  C   UNL     1      20.905 -10.129  42.345  1.00  0.00     0.012 C 
ATOM     18  C   UNL     1      20.519 -12.430  44.548  1.00  0.00     0.000 C 
ATOM     19  C   UNL     1      21.584 -13.084  42.206  1.00  0.00     0.005 C 
ATOM     20  C   UNL     1      21.386 -13.447  43.720  1.00  0.00     0.003 C 
ATOM     21  C   UNL     1      21.367 -11.539  45.465  1.00  0.00     0.031 C 
ATOM     22  C   UNL     1      22.740 -13.889  44.457  1.00  0.00    -0.008 C 
ATOM     23  C   UNL     1      22.130 -12.432  46.400  1.00  0.00    -0.027 C 
ATOM     24  C   UNL     1      22.693 -13.579  45.966  1.00  0.00    -0.065 C 
ATOM     25  C   UNL     1      22.933 -15.424  44.232  1.00  0.00     0.014 C 
ATOM     26  C   UNL     1      23.989 -13.152  43.903  1.00  0.00     0.016 C 
ATOM     27  C   UNL     1      23.562 -14.352  46.945  1.00  0.00     0.063 C 
ATOM     28  C   UNL     1      24.022 -16.044  45.114  1.00  0.00     0.033 C 
ATOM     29  C   UNL     1      23.672 -15.844  46.594  1.00  0.00     0.118 C 
BRANCH  29  30
ATOM     30  O   UNL     1      24.617 -16.480  47.417  1.00  0.00    -0.393 OA
ATOM     31  H   UNL     1      24.509 -17.459  47.296  1.00  0.00     0.210 HD
ENDBRANCH  29  30
ENDBRANCH   9  11
ENDBRANCH   1   9
TORSDOF 7
ENDMDL
MODEL 9
REMARK VINA RESULT:    -5.030      1.804      3.924
REMARK INTER + INTRA:          -9.339
REMARK INTER:                  -7.550
REMARK INTRA:                  -1.789
REMARK UNBOUND:                -2.398
REMARK SMILES CC[C@H](CC[C@@H](C)[C@@H]1CC[C@@H]2[C@@H]3CC=C4C[C@H](O)CC[C@@]4(C)[C@@H]3CC[C@]21C)C(C)C
REMARK SMILES IDX 5 1 4 2 3 3 2 4 1 5 28 6 29 7 30 8 6 9 7 10 8 11 9 12 26 13
REMARK SMILES IDX 10 14 11 15 25 16 27 17 12 18 24 19 23 20 13 21 21 22 14 23
REMARK SMILES IDX 15 24 20 25 22 26 16 27 19 28 17 29 18 30
REMARK H PARENT 18 31
REMARK Flexibility Score: inf
ROOT
ATOM      1  C   UNL     1      24.281 -13.958  47.138  1.00  0.00     0.004 C 
ENDROOT
BRANCH   1   2
ATOM      2  C   UNL     1      23.283 -15.093  46.824  1.00  0.00     0.004 C 
BRANCH   2   3
ATOM      3  C   UNL     1      23.690 -16.050  45.665  1.00  0.00    -0.009 C 
BRANCH   3   4
ATOM      4  C   UNL     1      24.347 -17.366  46.176  1.00  0.00     0.000 C 
ATOM      5  C   UNL     1      24.716 -17.414  47.666  1.00  0.00     0.004 C 
ENDBRANCH   3   4
BRANCH   3   6
ATOM      6  C   UNL     1      22.586 -16.229  44.564  1.00  0.00    -0.014 C 
ATOM      7  C   UNL     1      22.276 -17.715  44.284  1.00  0.00     0.007 C 
ATOM      8  C   UNL     1      23.014 -15.577  43.232  1.00  0.00     0.007 C 
ENDBRANCH   3   6
ENDBRANCH   2   3
ENDBRANCH   1   2
BRANCH   1   9
ATOM      9  C   UNL     1      23.744 -12.556  46.729  1.00  0.00    -0.011 C 
ATOM     10  C   UNL     1      24.770 -11.471  47.140  1.00  0.00     0.008 C 
BRANCH   9  11
ATOM     11  C   UNL     1      23.317 -12.563  45.216  1.00  0.00    -0.002 C 
ATOM     12  C   UNL     1      24.370 -12.044  44.201  1.00  0.00     0.005 C 
ATOM     13  C   UNL     1      21.974 -11.903  44.782  1.00  0.00    -0.026 C 
ATOM     14  C   UNL     1      23.578 -11.477  43.006  1.00  0.00     0.005 C 
ATOM     15  C   UNL     1      22.149 -11.943  43.260  1.00  0.00    -0.001 C 
ATOM     16  C   UNL     1      20.715 -12.734  45.113  1.00  0.00     0.007 C 
ATOM     17  C   UNL     1      21.837 -10.463  45.346  1.00  0.00     0.012 C 
ATOM     18  C   UNL     1      20.980 -11.398  42.398  1.00  0.00     0.000 C 
ATOM     19  C   UNL     1      19.461 -12.125  44.450  1.00  0.00     0.005 C 
ATOM     20  C   UNL     1      19.576 -11.894  42.901  1.00  0.00     0.003 C 
ATOM     21  C   UNL     1      20.988  -9.905  42.042  1.00  0.00     0.031 C 
ATOM     22  C   UNL     1      18.343 -11.076  42.282  1.00  0.00    -0.008 C 
ATOM     23  C   UNL     1      19.959  -9.679  40.974  1.00  0.00    -0.027 C 
ATOM     24  C   UNL     1      18.758 -10.291  41.021  1.00  0.00    -0.065 C 
ATOM     25  C   UNL     1      17.214 -12.097  41.929  1.00  0.00     0.014 C 
ATOM     26  C   UNL     1      17.765 -10.027  43.271  1.00  0.00     0.016 C 
ATOM     27  C   UNL     1      17.726  -9.900  39.976  1.00  0.00     0.063 C 
ATOM     28  C   UNL     1      16.095 -11.505  41.066  1.00  0.00     0.033 C 
ATOM     29  C   UNL     1      16.672 -10.994  39.741  1.00  0.00     0.118 C 
BRANCH  29  30
ATOM     30  O   UNL     1      15.647 -10.524  38.902  1.00  0.00    -0.393 OA
ATOM     31  H   UNL     1      15.008 -11.271  38.762  1.00  0.00     0.210 HD
ENDBRANCH  29  30
ENDBRANCH   9  11
ENDBRANCH   1   9
TORSDOF 7
ENDMDL
