MODEL 1
REMARK VINA RESULT:    -6.204      0.000      0.000
REMARK INTER + INTRA:          -7.787
REMARK INTER:                  -7.292
REMARK INTRA:                  -0.495
REMARK UNBOUND:                -0.495
REMARK SMILES C=C(C)[C@@H]1CC[C@]2(C(=O)[O-])CC[C@]3(C)[C@H](CC[C@H]4[C@]5(C)C[C@@H](O)[C@H](O)C(C)(C)[C@H]5CC[C@]43C)[C@H]12
REMARK SMILES IDX 7 1 6 2 34 3 11 4 5 5 15 6 4 7 12 8 16 9 13 10 17 11 32 12
REMARK SMILES IDX 14 13 18 14 31 15 33 16 19 17 30 18 29 19 21 20 20 21 26 22
REMARK SMILES IDX 22 23 24 24 27 25 28 26 8 27 9 28 10 29 2 30 3 31 1 32 23 33
REMARK SMILES IDX 25 35
REMARK H PARENT 23 34 25 36
REMARK Flexibility Score: inf
ROOT
ATOM      1  C   UNL     1     131.026  -3.694  80.423  1.00  0.00     0.014 C 
ATOM      2  C   UNL     1     129.575  -4.197  80.286  1.00  0.00     0.014 C 
ATOM      3  C   UNL     1     131.320  -2.971  79.059  1.00  0.00     0.012 C 
ATOM      4  C   UNL     1     131.071  -2.720  81.640  1.00  0.00     0.014 C 
ATOM      5  C   UNL     1     128.875  -3.168  79.416  1.00  0.00     0.009 C 
ATOM      6  C   UNL     1     132.443  -1.848  79.145  1.00  0.00     0.000 C 
ATOM      7  C   UNL     1     129.916  -2.807  78.361  1.00  0.00     0.018 C 
ATOM      8  C   UNL     1     132.324  -1.848  81.648  1.00  0.00     0.008 C 
ATOM      9  C   UNL     1     132.601  -1.031  77.866  1.00  0.00     0.005 C 
ATOM     10  C   UNL     1     132.444  -0.917  80.397  1.00  0.00    -0.024 C 
ATOM     11  C   UNL     1     133.952  -0.345  77.800  1.00  0.00     0.005 C 
ATOM     12  C   UNL     1     133.811  -0.020  80.470  1.00  0.00    -0.024 C 
ATOM     13  C   UNL     1     131.163  -0.025  80.363  1.00  0.00     0.012 C 
ATOM     14  C   UNL     1     134.361   0.501  79.047  1.00  0.00     0.002 C 
ATOM     15  C   UNL     1     133.586   1.181  81.453  1.00  0.00     0.008 C 
ATOM     16  C   UNL     1     134.979  -0.856  81.104  1.00  0.00     0.012 C 
ATOM     17  C   UNL     1     134.458   2.083  78.838  1.00  0.00    -0.023 C 
ATOM     18  C   UNL     1     134.676   2.251  81.475  1.00  0.00     0.005 C 
ATOM     19  C   UNL     1     135.251   2.647  80.083  1.00  0.00     0.004 C 
ATOM     20  C   UNL     1     135.313   2.403  77.551  1.00  0.00     0.042 C 
ATOM     21  C   UNL     1     133.037   2.685  78.649  1.00  0.00     0.012 C 
ATOM     22  C   UNL     1     135.743   4.145  79.995  1.00  0.00    -0.003 C 
ATOM     23  C   UNL     1     135.850   3.848  77.416  1.00  0.00     0.144 C 
ATOM     24  C   UNL     1     136.576   4.339  78.686  1.00  0.00     0.149 C 
ATOM     25  C   UNL     1     134.588   5.180  80.062  1.00  0.00     0.014 C 
ATOM     26  C   UNL     1     136.679   4.461  81.198  1.00  0.00     0.014 C 
ENDROOT
BRANCH   1  27
ATOM     27  C   UNL     1     131.952  -4.890  80.637  1.00  0.00     0.048 C 
ATOM     28  O   UNL     1     132.961  -5.065  79.901  1.00  0.00    -0.550 OA
ATOM     29  O   UNL     1     131.775  -5.728  81.731  1.00  0.00    -0.550 OA
ENDBRANCH   1  27
BRANCH   7  30
ATOM     30  C   UNL     1     129.590  -1.600  77.481  1.00  0.00    -0.077 C 
ATOM     31  C   UNL     1     128.895  -0.358  77.995  1.00  0.00     0.039 C 
ATOM     32  C   UNL     1     129.662  -1.744  76.145  1.00  0.00     0.008 C 
ENDBRANCH   7  30
BRANCH  23  33
ATOM     33  O   UNL     1     134.829   4.729  77.025  1.00  0.00    -0.390 OA
ATOM     34  H   UNL     1     134.752   5.424  77.732  1.00  0.00     0.211 HD
ENDBRANCH  23  33
BRANCH  24  35
ATOM     35  O   UNL     1     137.802   3.656  78.796  1.00  0.00    -0.390 OA
ATOM     36  H   UNL     1     137.710   3.003  79.537  1.00  0.00     0.211 HD
ENDBRANCH  24  35
TORSDOF 4
ENDMDL
MODEL 2
REMARK VINA RESULT:    -6.099      1.924      7.719
REMARK INTER + INTRA:          -7.663
REMARK INTER:                  -7.117
REMARK INTRA:                  -0.546
REMARK UNBOUND:                -0.495
REMARK SMILES C=C(C)[C@@H]1CC[C@]2(C(=O)[O-])CC[C@]3(C)[C@H](CC[C@H]4[C@]5(C)C[C@@H](O)[C@H](O)C(C)(C)[C@H]5CC[C@]43C)[C@H]12
REMARK SMILES IDX 7 1 6 2 34 3 11 4 5 5 15 6 4 7 12 8 16 9 13 10 17 11 32 12
REMARK SMILES IDX 14 13 18 14 31 15 33 16 19 17 30 18 29 19 21 20 20 21 26 22
REMARK SMILES IDX 22 23 24 24 27 25 28 26 8 27 9 28 10 29 2 30 3 31 1 32 23 33
REMARK SMILES IDX 25 35
REMARK H PARENT 23 34 25 36
REMARK Flexibility Score: inf
ROOT
ATOM      1  C   UNL     1     136.163   3.756  80.266  1.00  0.00     0.014 C 
ATOM      2  C   UNL     1     137.143   4.418  79.278  1.00  0.00     0.014 C 
ATOM      3  C   UNL     1     134.837   3.577  79.442  1.00  0.00     0.012 C 
ATOM      4  C   UNL     1     136.787   2.394  80.703  1.00  0.00     0.014 C 
ATOM      5  C   UNL     1     136.764   3.871  77.912  1.00  0.00     0.009 C 
ATOM      6  C   UNL     1     133.904   2.396  79.957  1.00  0.00     0.000 C 
ATOM      7  C   UNL     1     135.239   3.833  77.940  1.00  0.00     0.018 C 
ATOM      8  C   UNL     1     135.766   1.461  81.349  1.00  0.00     0.008 C 
ATOM      9  C   UNL     1     132.708   2.113  79.053  1.00  0.00     0.005 C 
ATOM     10  C   UNL     1     134.590   1.066  80.396  1.00  0.00    -0.024 C 
ATOM     11  C   UNL     1     131.610   1.369  79.789  1.00  0.00     0.005 C 
ATOM     12  C   UNL     1     133.535   0.073  81.157  1.00  0.00    -0.024 C 
ATOM     13  C   UNL     1     135.225   0.389  79.140  1.00  0.00     0.012 C 
ATOM     14  C   UNL     1     132.040   0.076  80.552  1.00  0.00     0.002 C 
ATOM     15  C   UNL     1     134.122  -1.381  81.181  1.00  0.00     0.008 C 
ATOM     16  C   UNL     1     133.391   0.484  82.665  1.00  0.00     0.012 C 
ATOM     17  C   UNL     1     131.480  -1.310  79.986  1.00  0.00    -0.023 C 
ATOM     18  C   UNL     1     133.176  -2.484  81.652  1.00  0.00     0.005 C 
ATOM     19  C   UNL     1     131.715  -2.381  81.124  1.00  0.00     0.004 C 
ATOM     20  C   UNL     1     129.923  -1.204  79.753  1.00  0.00     0.042 C 
ATOM     21  C   UNL     1     132.161  -1.647  78.630  1.00  0.00     0.012 C 
ATOM     22  C   UNL     1     130.995  -3.776  80.949  1.00  0.00    -0.003 C 
ATOM     23  C   UNL     1     129.152  -2.537  79.601  1.00  0.00     0.144 C 
ATOM     24  C   UNL     1     129.465  -3.543  80.727  1.00  0.00     0.149 C 
ATOM     25  C   UNL     1     131.586  -4.635  79.800  1.00  0.00     0.014 C 
ATOM     26  C   UNL     1     131.159  -4.617  82.249  1.00  0.00     0.014 C 
ENDROOT
BRANCH   1  27
ATOM     27  C   UNL     1     135.960   4.680  81.465  1.00  0.00     0.048 C 
ATOM     28  O   UNL     1     136.889   4.876  82.294  1.00  0.00    -0.550 OA
ATOM     29  O   UNL     1     134.794   5.428  81.586  1.00  0.00    -0.550 OA
ENDBRANCH   1  27
BRANCH   7  30
ATOM     30  C   UNL     1     134.566   3.088  76.787  1.00  0.00    -0.077 C 
ATOM     31  C   UNL     1     135.161   1.866  76.124  1.00  0.00     0.039 C 
ATOM     32  C   UNL     1     133.549   3.691  76.143  1.00  0.00     0.008 C 
ENDBRANCH   7  30
BRANCH  23  33
ATOM     33  O   UNL     1     129.361  -3.096  78.329  1.00  0.00    -0.390 OA
ATOM     34  H   UNL     1     130.342  -3.207  78.213  1.00  0.00     0.211 HD
ENDBRANCH  23  33
BRANCH  24  35
ATOM     35  O   UNL     1     128.875  -3.081  81.920  1.00  0.00    -0.390 OA
ATOM     36  H   UNL     1     128.172  -2.429  81.666  1.00  0.00     0.211 HD
ENDBRANCH  24  35
TORSDOF 4
ENDMDL
MODEL 3
REMARK VINA RESULT:    -5.900      1.646      7.896
REMARK INTER + INTRA:          -7.429
REMARK INTER:                  -7.121
REMARK INTRA:                  -0.308
REMARK UNBOUND:                -0.495
REMARK SMILES C=C(C)[C@@H]1CC[C@]2(C(=O)[O-])CC[C@]3(C)[C@H](CC[C@H]4[C@]5(C)C[C@@H](O)[C@H](O)C(C)(C)[C@H]5CC[C@]43C)[C@H]12
REMARK SMILES IDX 7 1 6 2 34 3 11 4 5 5 15 6 4 7 12 8 16 9 13 10 17 11 32 12
REMARK SMILES IDX 14 13 18 14 31 15 33 16 19 17 30 18 29 19 21 20 20 21 26 22
REMARK SMILES IDX 22 23 24 24 27 25 28 26 8 27 9 28 10 29 2 30 3 31 1 32 23 33
REMARK SMILES IDX 25 35
REMARK H PARENT 23 34 25 36
REMARK Flexibility Score: inf
ROOT
ATOM      1  C   UNL     1     135.024   3.361  76.728  1.00  0.00     0.014 C 
ATOM      2  C   UNL     1     134.937   4.900  76.702  1.00  0.00     0.014 C 
ATOM      3  C   UNL     1     134.964   2.991  78.255  1.00  0.00     0.012 C 
ATOM      4  C   UNL     1     133.804   2.809  75.929  1.00  0.00     0.014 C 
ATOM      5  C   UNL     1     134.064   5.271  77.889  1.00  0.00     0.009 C 
ATOM      6  C   UNL     1     134.406   1.531  78.550  1.00  0.00     0.000 C 
ATOM      7  C   UNL     1     134.506   4.310  78.987  1.00  0.00     0.018 C 
ATOM      8  C   UNL     1     133.539   1.332  76.208  1.00  0.00     0.008 C 
ATOM      9  C   UNL     1     134.186   1.242  80.032  1.00  0.00     0.005 C 
ATOM     10  C   UNL     1     133.195   1.032  77.705  1.00  0.00    -0.024 C 
ATOM     11  C   UNL     1     134.143  -0.248  80.313  1.00  0.00     0.005 C 
ATOM     12  C   UNL     1     132.931  -0.568  77.929  1.00  0.00    -0.024 C 
ATOM     13  C   UNL     1     131.940   1.886  78.068  1.00  0.00     0.012 C 
ATOM     14  C   UNL     1     133.164  -1.092  79.436  1.00  0.00     0.002 C 
ATOM     15  C   UNL     1     131.487  -0.926  77.434  1.00  0.00     0.008 C 
ATOM     16  C   UNL     1     133.897  -1.412  77.025  1.00  0.00     0.012 C 
ATOM     17  C   UNL     1     131.909  -1.740  80.185  1.00  0.00    -0.023 C 
ATOM     18  C   UNL     1     130.984  -2.328  77.771  1.00  0.00     0.005 C 
ATOM     19  C   UNL     1     131.324  -2.832  79.205  1.00  0.00     0.004 C 
ATOM     20  C   UNL     1     132.390  -2.487  81.489  1.00  0.00     0.042 C 
ATOM     21  C   UNL     1     130.901  -0.630  80.594  1.00  0.00     0.012 C 
ATOM     22  C   UNL     1     130.256  -3.829  79.805  1.00  0.00    -0.003 C 
ATOM     23  C   UNL     1     131.400  -3.499  82.114  1.00  0.00     0.144 C 
ATOM     24  C   UNL     1     130.843  -4.505  81.086  1.00  0.00     0.149 C 
ATOM     25  C   UNL     1     128.893  -3.156  80.122  1.00  0.00     0.014 C 
ATOM     26  C   UNL     1     129.953  -4.956  78.775  1.00  0.00     0.014 C 
ENDROOT
BRANCH   1  27
ATOM     27  C   UNL     1     136.343   2.924  76.095  1.00  0.00     0.048 C 
ATOM     28  O   UNL     1     137.262   3.758  75.876  1.00  0.00    -0.550 OA
ATOM     29  O   UNL     1     136.604   1.576  75.875  1.00  0.00    -0.550 OA
ENDBRANCH   1  27
BRANCH   7  30
ATOM     30  C   UNL     1     133.629   4.272  80.239  1.00  0.00    -0.077 C 
ATOM     31  C   UNL     1     132.119   4.348  80.201  1.00  0.00     0.039 C 
ATOM     32  C   UNL     1     134.214   4.463  81.436  1.00  0.00     0.008 C 
ENDBRANCH   7  30
BRANCH  23  33
ATOM     33  O   UNL     1     130.373  -2.837  82.805  1.00  0.00    -0.390 OA
ATOM     34  H   UNL     1     129.731  -3.530  83.115  1.00  0.00     0.211 HD
ENDBRANCH  23  33
BRANCH  24  35
ATOM     35  O   UNL     1     131.873  -5.396  80.725  1.00  0.00    -0.390 OA
ATOM     36  H   UNL     1     132.732  -4.973  80.983  1.00  0.00     0.211 HD
ENDBRANCH  24  35
TORSDOF 4
ENDMDL
MODEL 4
REMARK VINA RESULT:    -5.890      1.939      3.644
REMARK INTER + INTRA:          -7.418
REMARK INTER:                  -7.071
REMARK INTRA:                  -0.348
REMARK UNBOUND:                -0.495
REMARK SMILES C=C(C)[C@@H]1CC[C@]2(C(=O)[O-])CC[C@]3(C)[C@H](CC[C@H]4[C@]5(C)C[C@@H](O)[C@H](O)C(C)(C)[C@H]5CC[C@]43C)[C@H]12
REMARK SMILES IDX 7 1 6 2 34 3 11 4 5 5 15 6 4 7 12 8 16 9 13 10 17 11 32 12
REMARK SMILES IDX 14 13 18 14 31 15 33 16 19 17 30 18 29 19 21 20 20 21 26 22
REMARK SMILES IDX 22 23 24 24 27 25 28 26 8 27 9 28 10 29 2 30 3 31 1 32 23 33
REMARK SMILES IDX 25 35
REMARK H PARENT 23 34 25 36
REMARK Flexibility Score: inf
ROOT
ATOM      1  C   UNL     1     131.292  -3.477  79.825  1.00  0.00     0.014 C 
ATOM      2  C   UNL     1     131.170  -4.380  81.068  1.00  0.00     0.014 C 
ATOM      3  C   UNL     1     130.832  -2.059  80.325  1.00  0.00     0.012 C 
ATOM      4  C   UNL     1     132.786  -3.499  79.375  1.00  0.00     0.014 C 
ATOM      5  C   UNL     1     131.481  -3.479  82.250  1.00  0.00     0.009 C 
ATOM      6  C   UNL     1     131.437  -0.847  79.491  1.00  0.00     0.000 C 
ATOM      7  C   UNL     1     130.801  -2.160  81.897  1.00  0.00     0.018 C 
ATOM      8  C   UNL     1     133.129  -2.355  78.424  1.00  0.00     0.008 C 
ATOM      9  C   UNL     1     131.130   0.525  80.084  1.00  0.00     0.005 C 
ATOM     10  C   UNL     1     132.931  -0.938  79.056  1.00  0.00    -0.024 C 
ATOM     11  C   UNL     1     131.270   1.628  79.052  1.00  0.00     0.005 C 
ATOM     12  C   UNL     1     133.311   0.236  77.980  1.00  0.00    -0.024 C 
ATOM     13  C   UNL     1     133.832  -0.873  80.330  1.00  0.00     0.012 C 
ATOM     14  C   UNL     1     132.611   1.662  78.251  1.00  0.00     0.002 C 
ATOM     15  C   UNL     1     134.871   0.386  77.911  1.00  0.00     0.008 C 
ATOM     16  C   UNL     1     132.875  -0.191  76.533  1.00  0.00     0.012 C 
ATOM     17  C   UNL     1     133.575   2.908  78.522  1.00  0.00    -0.023 C 
ATOM     18  C   UNL     1     135.401   1.585  77.127  1.00  0.00     0.005 C 
ATOM     19  C   UNL     1     134.627   2.919  77.343  1.00  0.00     0.004 C 
ATOM     20  C   UNL     1     132.753   4.252  78.433  1.00  0.00     0.042 C 
ATOM     21  C   UNL     1     134.197   2.802  79.943  1.00  0.00     0.012 C 
ATOM     22  C   UNL     1     135.523   4.211  77.200  1.00  0.00    -0.003 C 
ATOM     23  C   UNL     1     133.570   5.555  78.264  1.00  0.00     0.144 C 
ATOM     24  C   UNL     1     134.601   5.472  77.119  1.00  0.00     0.149 C 
ATOM     25  C   UNL     1     136.563   4.371  78.340  1.00  0.00     0.014 C 
ATOM     26  C   UNL     1     136.337   4.140  75.875  1.00  0.00     0.014 C 
ENDROOT
BRANCH   1  27
ATOM     27  C   UNL     1     130.376  -4.010  78.726  1.00  0.00     0.048 C 
ATOM     28  O   UNL     1     129.624  -5.000  78.937  1.00  0.00    -0.550 OA
ATOM     29  O   UNL     1     130.255  -3.330  77.520  1.00  0.00    -0.550 OA
ENDBRANCH   1  27
BRANCH   7  30
ATOM     30  C   UNL     1     131.147  -0.967  82.788  1.00  0.00    -0.077 C 
ATOM     31  C   UNL     1     132.527  -0.726  83.359  1.00  0.00     0.039 C 
ATOM     32  C   UNL     1     130.139  -0.252  83.322  1.00  0.00     0.008 C 
ENDBRANCH   7  30
BRANCH  23  33
ATOM     33  O   UNL     1     134.166   5.935  79.477  1.00  0.00    -0.390 OA
ATOM     34  H   UNL     1     134.464   6.879  79.377  1.00  0.00     0.211 HD
ENDBRANCH  23  33
BRANCH  24  35
ATOM     35  O   UNL     1     133.912   5.482  75.891  1.00  0.00    -0.390 OA
ATOM     36  H   UNL     1     133.100   6.038  76.014  1.00  0.00     0.211 HD
ENDBRANCH  24  35
TORSDOF 4
ENDMDL
MODEL 5
REMARK VINA RESULT:    -5.578     12.286     16.238
REMARK INTER + INTRA:          -7.051
REMARK INTER:                  -6.766
REMARK INTRA:                  -0.285
REMARK UNBOUND:                -0.495
REMARK SMILES C=C(C)[C@@H]1CC[C@]2(C(=O)[O-])CC[C@]3(C)[C@H](CC[C@H]4[C@]5(C)C[C@@H](O)[C@H](O)C(C)(C)[C@H]5CC[C@]43C)[C@H]12
REMARK SMILES IDX 7 1 6 2 34 3 11 4 5 5 15 6 4 7 12 8 16 9 13 10 17 11 32 12
REMARK SMILES IDX 14 13 18 14 31 15 33 16 19 17 30 18 29 19 21 20 20 21 26 22
REMARK SMILES IDX 22 23 24 24 27 25 28 26 8 27 9 28 10 29 2 30 3 31 1 32 23 33
REMARK SMILES IDX 25 35
REMARK H PARENT 23 34 25 36
REMARK Flexibility Score: inf
ROOT
ATOM      1  C   UNL     1     147.991   5.652  87.778  1.00  0.00     0.014 C 
ATOM      2  C   UNL     1     148.576   5.849  89.191  1.00  0.00     0.014 C 
ATOM      3  C   UNL     1     146.438   5.563  88.007  1.00  0.00     0.012 C 
ATOM      4  C   UNL     1     148.401   6.892  86.925  1.00  0.00     0.014 C 
ATOM      5  C   UNL     1     147.530   6.646  89.950  1.00  0.00     0.009 C 
ATOM      6  C   UNL     1     145.568   5.992  86.746  1.00  0.00     0.000 C 
ATOM      7  C   UNL     1     146.204   6.052  89.487  1.00  0.00     0.018 C 
ATOM      8  C   UNL     1     147.569   7.030  85.652  1.00  0.00     0.008 C 
ATOM      9  C   UNL     1     144.071   6.072  87.026  1.00  0.00     0.005 C 
ATOM     10  C   UNL     1     146.042   7.229  85.924  1.00  0.00    -0.024 C 
ATOM     11  C   UNL     1     143.255   5.987  85.750  1.00  0.00     0.005 C 
ATOM     12  C   UNL     1     145.215   7.362  84.517  1.00  0.00    -0.024 C 
ATOM     13  C   UNL     1     145.896   8.508  86.808  1.00  0.00     0.012 C 
ATOM     14  C   UNL     1     143.653   6.972  84.606  1.00  0.00     0.002 C 
ATOM     15  C   UNL     1     145.395   8.813  83.950  1.00  0.00     0.008 C 
ATOM     16  C   UNL     1     145.835   6.415  83.429  1.00  0.00     0.012 C 
ATOM     17  C   UNL     1     142.595   8.115  84.243  1.00  0.00    -0.023 C 
ATOM     18  C   UNL     1     144.513   9.188  82.761  1.00  0.00     0.005 C 
ATOM     19  C   UNL     1     143.037   8.700  82.844  1.00  0.00     0.004 C 
ATOM     20  C   UNL     1     141.163   7.479  84.058  1.00  0.00     0.042 C 
ATOM     21  C   UNL     1     142.527   9.162  85.390  1.00  0.00     0.012 C 
ATOM     22  C   UNL     1     142.006   9.644  82.109  1.00  0.00    -0.003 C 
ATOM     23  C   UNL     1     140.111   8.342  83.320  1.00  0.00     0.144 C 
ATOM     24  C   UNL     1     140.632   8.909  81.983  1.00  0.00     0.149 C 
ATOM     25  C   UNL     1     141.824  11.020  82.804  1.00  0.00     0.014 C 
ATOM     26  C   UNL     1     142.509   9.949  80.668  1.00  0.00     0.014 C 
ENDROOT
BRANCH   1  27
ATOM     27  C   UNL     1     148.547   4.361  87.181  1.00  0.00     0.048 C 
ATOM     28  O   UNL     1     148.981   4.332  85.998  1.00  0.00    -0.550 OA
ATOM     29  O   UNL     1     148.709   3.233  87.976  1.00  0.00    -0.550 OA
ENDBRANCH   1  27
BRANCH   7  30
ATOM     30  C   UNL     1     144.946   6.820  89.892  1.00  0.00    -0.077 C 
ATOM     31  C   UNL     1     144.879   8.329  89.965  1.00  0.00     0.039 C 
ATOM     32  C   UNL     1     143.942   6.141  90.477  1.00  0.00     0.008 C 
ENDBRANCH   7  30
BRANCH  23  33
ATOM     33  O   UNL     1     139.615   9.355  84.158  1.00  0.00    -0.390 OA
ATOM     34  H   UNL     1     140.267  10.105  84.132  1.00  0.00     0.211 HD
ENDBRANCH  23  33
BRANCH  24  35
ATOM     35  O   UNL     1     140.739   7.852  81.058  1.00  0.00    -0.390 OA
ATOM     36  H   UNL     1     140.212   7.092  81.417  1.00  0.00     0.211 HD
ENDBRANCH  24  35
TORSDOF 4
ENDMDL
MODEL 6
REMARK VINA RESULT:    -5.493     13.601     18.832
REMARK INTER + INTRA:          -6.951
REMARK INTER:                  -6.506
REMARK INTRA:                  -0.445
REMARK UNBOUND:                -0.495
REMARK SMILES C=C(C)[C@@H]1CC[C@]2(C(=O)[O-])CC[C@]3(C)[C@H](CC[C@H]4[C@]5(C)C[C@@H](O)[C@H](O)C(C)(C)[C@H]5CC[C@]43C)[C@H]12
REMARK SMILES IDX 7 1 6 2 34 3 11 4 5 5 15 6 4 7 12 8 16 9 13 10 17 11 32 12
REMARK SMILES IDX 14 13 18 14 31 15 33 16 19 17 30 18 29 19 21 20 20 21 26 22
REMARK SMILES IDX 22 23 24 24 27 25 28 26 8 27 9 28 10 29 2 30 3 31 1 32 23 33
REMARK SMILES IDX 25 35
REMARK H PARENT 23 34 25 36
REMARK Flexibility Score: inf
ROOT
ATOM      1  C   UNL     1     147.655   7.387  93.505  1.00  0.00     0.014 C 
ATOM      2  C   UNL     1     147.460   8.399  94.652  1.00  0.00     0.014 C 
ATOM      3  C   UNL     1     146.195   7.031  93.045  1.00  0.00     0.012 C 
ATOM      4  C   UNL     1     148.479   8.098  92.388  1.00  0.00     0.014 C 
ATOM      5  C   UNL     1     146.202   9.171  94.294  1.00  0.00     0.009 C 
ATOM      6  C   UNL     1     146.088   6.541  91.536  1.00  0.00     0.000 C 
ATOM      7  C   UNL     1     145.267   8.110  93.723  1.00  0.00     0.018 C 
ATOM      8  C   UNL     1     148.402   7.371  91.048  1.00  0.00     0.008 C 
ATOM      9  C   UNL     1     144.655   6.365  91.042  1.00  0.00     0.005 C 
ATOM     10  C   UNL     1     146.951   7.282  90.469  1.00  0.00    -0.024 C 
ATOM     11  C   UNL     1     144.586   5.455  89.831  1.00  0.00     0.005 C 
ATOM     12  C   UNL     1     146.945   6.485  89.039  1.00  0.00    -0.024 C 
ATOM     13  C   UNL     1     146.425   8.745  90.323  1.00  0.00     0.012 C 
ATOM     14  C   UNL     1     145.537   5.808  88.643  1.00  0.00     0.002 C 
ATOM     15  C   UNL     1     147.433   7.455  87.908  1.00  0.00     0.008 C 
ATOM     16  C   UNL     1     147.994   5.318  89.062  1.00  0.00     0.012 C 
ATOM     17  C   UNL     1     144.842   6.307  87.293  1.00  0.00    -0.023 C 
ATOM     18  C   UNL     1     147.279   6.953  86.474  1.00  0.00     0.005 C 
ATOM     19  C   UNL     1     145.945   6.212  86.165  1.00  0.00     0.004 C 
ATOM     20  C   UNL     1     143.674   5.323  86.895  1.00  0.00     0.042 C 
ATOM     21  C   UNL     1     144.243   7.728  87.495  1.00  0.00     0.012 C 
ATOM     22  C   UNL     1     145.452   6.370  84.673  1.00  0.00    -0.003 C 
ATOM     23  C   UNL     1     143.163   5.407  85.436  1.00  0.00     0.144 C 
ATOM     24  C   UNL     1     144.302   5.348  84.398  1.00  0.00     0.149 C 
ATOM     25  C   UNL     1     144.993   7.811  84.323  1.00  0.00     0.014 C 
ATOM     26  C   UNL     1     146.620   6.037  83.698  1.00  0.00     0.014 C 
ENDROOT
BRANCH   1  27
ATOM     27  C   UNL     1     148.391   6.161  94.040  1.00  0.00     0.048 C 
ATOM     28  O   UNL     1     149.125   6.243  95.061  1.00  0.00    -0.550 OA
ATOM     29  O   UNL     1     148.157   4.906  93.490  1.00  0.00    -0.550 OA
ENDBRANCH   1  27
BRANCH   7  30
ATOM     30  C   UNL     1     144.002   8.629  93.039  1.00  0.00    -0.077 C 
ATOM     31  C   UNL     1     143.966   9.881  92.192  1.00  0.00     0.039 C 
ATOM     32  C   UNL     1     142.815   8.124  93.422  1.00  0.00     0.008 C 
ENDBRANCH   7  30
BRANCH  23  33
ATOM     33  O   UNL     1     142.349   6.536  85.254  1.00  0.00    -0.390 OA
ATOM     34  H   UNL     1     142.884   7.209  84.754  1.00  0.00     0.211 HD
ENDBRANCH  23  33
BRANCH  24  35
ATOM     35  O   UNL     1     144.823   4.039  84.375  1.00  0.00    -0.390 OA
ATOM     36  H   UNL     1     145.801   4.114  84.228  1.00  0.00     0.211 HD
ENDBRANCH  24  35
TORSDOF 4
ENDMDL
MODEL 7
REMARK VINA RESULT:    -5.475     14.889     17.935
REMARK INTER + INTRA:          -6.930
REMARK INTER:                  -6.526
REMARK INTRA:                  -0.404
REMARK UNBOUND:                -0.495
REMARK SMILES C=C(C)[C@@H]1CC[C@]2(C(=O)[O-])CC[C@]3(C)[C@H](CC[C@H]4[C@]5(C)C[C@@H](O)[C@H](O)C(C)(C)[C@H]5CC[C@]43C)[C@H]12
REMARK SMILES IDX 7 1 6 2 34 3 11 4 5 5 15 6 4 7 12 8 16 9 13 10 17 11 32 12
REMARK SMILES IDX 14 13 18 14 31 15 33 16 19 17 30 18 29 19 21 20 20 21 26 22
REMARK SMILES IDX 22 23 24 24 27 25 28 26 8 27 9 28 10 29 2 30 3 31 1 32 23 33
REMARK SMILES IDX 25 35
REMARK H PARENT 23 34 25 36
REMARK Flexibility Score: inf
ROOT
ATOM      1  C   UNL     1     147.616   5.213  91.909  1.00  0.00     0.014 C 
ATOM      2  C   UNL     1     147.115   5.180  93.366  1.00  0.00     0.014 C 
ATOM      3  C   UNL     1     146.328   4.953  91.046  1.00  0.00     0.012 C 
ATOM      4  C   UNL     1     148.231   6.625  91.658  1.00  0.00     0.014 C 
ATOM      5  C   UNL     1     145.698   5.725  93.315  1.00  0.00     0.009 C 
ATOM      6  C   UNL     1     146.401   5.545  89.571  1.00  0.00     0.000 C 
ATOM      7  C   UNL     1     145.116   5.123  92.040  1.00  0.00     0.018 C 
ATOM      8  C   UNL     1     148.395   6.938  90.173  1.00  0.00     0.008 C 
ATOM      9  C   UNL     1     145.089   5.444  88.799  1.00  0.00     0.005 C 
ATOM     10  C   UNL     1     147.043   6.954  89.386  1.00  0.00    -0.024 C 
ATOM     11  C   UNL     1     145.309   5.542  87.301  1.00  0.00     0.005 C 
ATOM     12  C   UNL     1     147.297   7.289  87.803  1.00  0.00    -0.024 C 
ATOM     13  C   UNL     1     146.127   8.019  90.066  1.00  0.00     0.012 C 
ATOM     14  C   UNL     1     146.149   6.760  86.803  1.00  0.00     0.002 C 
ATOM     15  C   UNL     1     147.517   8.832  87.633  1.00  0.00     0.008 C 
ATOM     16  C   UNL     1     148.634   6.626  87.314  1.00  0.00     0.012 C 
ATOM     17  C   UNL     1     145.373   7.859  85.939  1.00  0.00    -0.023 C 
ATOM     18  C   UNL     1     147.546   9.356  86.199  1.00  0.00     0.005 C 
ATOM     19  C   UNL     1     146.484   8.740  85.241  1.00  0.00     0.004 C 
ATOM     20  C   UNL     1     144.543   7.156  84.796  1.00  0.00     0.042 C 
ATOM     21  C   UNL     1     144.391   8.654  86.845  1.00  0.00     0.012 C 
ATOM     22  C   UNL     1     146.003   9.720  84.100  1.00  0.00    -0.003 C 
ATOM     23  C   UNL     1     144.064   8.055  83.632  1.00  0.00     0.144 C 
ATOM     24  C   UNL     1     145.197   8.912  83.031  1.00  0.00     0.149 C 
ATOM     25  C   UNL     1     145.162  10.915  84.625  1.00  0.00     0.014 C 
ATOM     26  C   UNL     1     147.239  10.340  83.386  1.00  0.00     0.014 C 
ENDROOT
BRANCH   1  27
ATOM     27  C   UNL     1     148.657   4.114  91.712  1.00  0.00     0.048 C 
ATOM     28  O   UNL     1     149.124   3.482  92.698  1.00  0.00    -0.550 OA
ATOM     29  O   UNL     1     149.007   3.699  90.432  1.00  0.00    -0.550 OA
ENDBRANCH   1  27
BRANCH   7  30
ATOM     30  C   UNL     1     143.773   5.691  91.582  1.00  0.00    -0.077 C 
ATOM     31  C   UNL     1     143.372   7.137  91.771  1.00  0.00     0.039 C 
ATOM     32  C   UNL     1     142.793   4.829  91.254  1.00  0.00     0.008 C 
ENDBRANCH   7  30
BRANCH  23  33
ATOM     33  O   UNL     1     142.967   8.840  84.022  1.00  0.00    -0.390 OA
ATOM     34  H   UNL     1     142.234   8.667  83.373  1.00  0.00     0.211 HD
ENDBRANCH  23  33
BRANCH  24  35
ATOM     35  O   UNL     1     146.068   8.068  82.315  1.00  0.00    -0.390 OA
ATOM     36  H   UNL     1     146.759   8.645  81.898  1.00  0.00     0.211 HD
ENDBRANCH  24  35
TORSDOF 4
ENDMDL
MODEL 8
REMARK VINA RESULT:    -5.472      1.821      7.950
REMARK INTER + INTRA:          -6.927
REMARK INTER:                  -6.385
REMARK INTRA:                  -0.541
REMARK UNBOUND:                -0.495
REMARK SMILES C=C(C)[C@@H]1CC[C@]2(C(=O)[O-])CC[C@]3(C)[C@H](CC[C@H]4[C@]5(C)C[C@@H](O)[C@H](O)C(C)(C)[C@H]5CC[C@]43C)[C@H]12
REMARK SMILES IDX 7 1 6 2 34 3 11 4 5 5 15 6 4 7 12 8 16 9 13 10 17 11 32 12
REMARK SMILES IDX 14 13 18 14 31 15 33 16 19 17 30 18 29 19 21 20 20 21 26 22
REMARK SMILES IDX 22 23 24 24 27 25 28 26 8 27 9 28 10 29 2 30 3 31 1 32 23 33
REMARK SMILES IDX 25 35
REMARK H PARENT 23 34 25 36
REMARK Flexibility Score: inf
ROOT
ATOM      1  C   UNL     1     135.869   4.594  77.271  1.00  0.00     0.014 C 
ATOM      2  C   UNL     1     135.657   5.983  76.636  1.00  0.00     0.014 C 
ATOM      3  C   UNL     1     135.015   4.633  78.590  1.00  0.00     0.012 C 
ATOM      4  C   UNL     1     135.353   3.530  76.253  1.00  0.00     0.014 C 
ATOM      5  C   UNL     1     134.243   6.386  77.017  1.00  0.00     0.009 C 
ATOM      6  C   UNL     1     134.536   3.203  79.098  1.00  0.00     0.000 C 
ATOM      7  C   UNL     1     134.100   5.909  78.459  1.00  0.00     0.018 C 
ATOM      8  C   UNL     1     135.127   2.164  76.896  1.00  0.00     0.008 C 
ATOM      9  C   UNL     1     133.566   3.258  80.274  1.00  0.00     0.005 C 
ATOM     10  C   UNL     1     134.048   2.178  78.028  1.00  0.00    -0.024 C 
ATOM     11  C   UNL     1     133.524   1.944  81.030  1.00  0.00     0.005 C 
ATOM     12  C   UNL     1     133.865   0.685  78.674  1.00  0.00    -0.024 C 
ATOM     13  C   UNL     1     132.723   2.705  77.393  1.00  0.00     0.012 C 
ATOM     14  C   UNL     1     133.281   0.660  80.176  1.00  0.00     0.002 C 
ATOM     15  C   UNL     1     132.978  -0.184  77.717  1.00  0.00     0.008 C 
ATOM     16  C   UNL     1     135.249  -0.054  78.737  1.00  0.00     0.012 C 
ATOM     17  C   UNL     1     131.893  -0.100  80.405  1.00  0.00    -0.023 C 
ATOM     18  C   UNL     1     132.515  -1.533  78.263  1.00  0.00     0.005 C 
ATOM     19  C   UNL     1     132.057  -1.529  79.751  1.00  0.00     0.004 C 
ATOM     20  C   UNL     1     131.647  -0.314  81.949  1.00  0.00     0.042 C 
ATOM     21  C   UNL     1     130.721   0.744  79.830  1.00  0.00     0.012 C 
ATOM     22  C   UNL     1     130.941  -2.597  80.082  1.00  0.00    -0.003 C 
ATOM     23  C   UNL     1     130.584  -1.367  82.343  1.00  0.00     0.144 C 
ATOM     24  C   UNL     1     130.789  -2.721  81.633  1.00  0.00     0.149 C 
ATOM     25  C   UNL     1     129.570  -2.280  79.426  1.00  0.00     0.014 C 
ATOM     26  C   UNL     1     131.371  -3.990  79.538  1.00  0.00     0.014 C 
ENDROOT
BRANCH   1  27
ATOM     27  C   UNL     1     137.354   4.401  77.568  1.00  0.00     0.048 C 
ATOM     28  O   UNL     1     138.199   4.354  76.633  1.00  0.00    -0.550 OA
ATOM     29  O   UNL     1     137.816   4.410  78.879  1.00  0.00    -0.550 OA
ENDBRANCH   1  27
BRANCH   7  30
ATOM     30  C   UNL     1     132.688   5.951  79.042  1.00  0.00    -0.077 C 
ATOM     31  C   UNL     1     131.441   5.686  78.227  1.00  0.00     0.039 C 
ATOM     32  C   UNL     1     132.511   6.516  80.251  1.00  0.00     0.008 C 
ENDBRANCH   7  30
BRANCH  23  33
ATOM     33  O   UNL     1     129.286  -0.868  82.148  1.00  0.00    -0.390 OA
ATOM     34  H   UNL     1     129.358   0.120  82.069  1.00  0.00     0.211 HD
ENDBRANCH  23  33
BRANCH  24  35
ATOM     35  O   UNL     1     131.930  -3.345  82.175  1.00  0.00    -0.390 OA
ATOM     36  H   UNL     1     132.433  -3.745  81.419  1.00  0.00     0.211 HD
ENDBRANCH  24  35
TORSDOF 4
ENDMDL
MODEL 9
REMARK VINA RESULT:    -5.339     14.662     18.383
REMARK INTER + INTRA:          -6.770
REMARK INTER:                  -6.280
REMARK INTRA:                  -0.490
REMARK UNBOUND:                -0.495
REMARK SMILES C=C(C)[C@@H]1CC[C@]2(C(=O)[O-])CC[C@]3(C)[C@H](CC[C@H]4[C@]5(C)C[C@@H](O)[C@H](O)C(C)(C)[C@H]5CC[C@]43C)[C@H]12
REMARK SMILES IDX 7 1 6 2 34 3 11 4 5 5 15 6 4 7 12 8 16 9 13 10 17 11 32 12
REMARK SMILES IDX 14 13 18 14 31 15 33 16 19 17 30 18 29 19 21 20 20 21 26 22
REMARK SMILES IDX 22 23 24 24 27 25 28 26 8 27 9 28 10 29 2 30 3 31 1 32 23 33
REMARK SMILES IDX 25 35
REMARK H PARENT 23 34 25 36
REMARK Flexibility Score: inf
ROOT
ATOM      1  C   UNL     1     145.444   6.283  85.026  1.00  0.00     0.014 C 
ATOM      2  C   UNL     1     144.975   6.999  83.744  1.00  0.00     0.014 C 
ATOM      3  C   UNL     1     146.239   7.382  85.820  1.00  0.00     0.012 C 
ATOM      4  C   UNL     1     144.170   5.798  85.784  1.00  0.00     0.014 C 
ATOM      5  C   UNL     1     144.740   8.442  84.155  1.00  0.00     0.009 C 
ATOM      6  C   UNL     1     146.283   7.146  87.392  1.00  0.00     0.000 C 
ATOM      7  C   UNL     1     145.889   8.746  85.111  1.00  0.00     0.018 C 
ATOM      8  C   UNL     1     144.455   5.439  87.240  1.00  0.00     0.008 C 
ATOM      9  C   UNL     1     146.902   8.300  88.174  1.00  0.00     0.005 C 
ATOM     10  C   UNL     1     144.982   6.644  88.088  1.00  0.00    -0.024 C 
ATOM     11  C   UNL     1     147.377   7.860  89.546  1.00  0.00     0.005 C 
ATOM     12  C   UNL     1     145.271   6.184  89.632  1.00  0.00    -0.024 C 
ATOM     13  C   UNL     1     143.902   7.769  88.008  1.00  0.00     0.012 C 
ATOM     14  C   UNL     1     146.339   7.094  90.425  1.00  0.00     0.002 C 
ATOM     15  C   UNL     1     143.912   6.114  90.411  1.00  0.00     0.008 C 
ATOM     16  C   UNL     1     145.841   4.721  89.667  1.00  0.00     0.012 C 
ATOM     17  C   UNL     1     145.823   7.843  91.741  1.00  0.00    -0.023 C 
ATOM     18  C   UNL     1     144.008   5.919  91.923  1.00  0.00     0.005 C 
ATOM     19  C   UNL     1     145.124   6.742  92.632  1.00  0.00     0.004 C 
ATOM     20  C   UNL     1     147.053   8.400  92.558  1.00  0.00     0.042 C 
ATOM     21  C   UNL     1     144.908   9.037  91.350  1.00  0.00     0.012 C 
ATOM     22  C   UNL     1     144.778   7.145  94.120  1.00  0.00    -0.003 C 
ATOM     23  C   UNL     1     146.788   8.788  94.032  1.00  0.00     0.144 C 
ATOM     24  C   UNL     1     146.068   7.678  94.824  1.00  0.00     0.149 C 
ATOM     25  C   UNL     1     143.631   8.186  94.227  1.00  0.00     0.014 C 
ATOM     26  C   UNL     1     144.299   5.889  94.905  1.00  0.00     0.014 C 
ENDROOT
BRANCH   1  27
ATOM     27  C   UNL     1     146.340   5.107  84.642  1.00  0.00     0.048 C 
ATOM     28  O   UNL     1     146.035   4.349  83.683  1.00  0.00    -0.550 OA
ATOM     29  O   UNL     1     147.576   4.936  85.257  1.00  0.00    -0.550 OA
ENDBRANCH   1  27
BRANCH   7  30
ATOM     30  C   UNL     1     145.785  10.056  85.892  1.00  0.00    -0.077 C 
ATOM     31  C   UNL     1     144.475  10.634  86.377  1.00  0.00     0.039 C 
ATOM     32  C   UNL     1     146.852  10.876  85.911  1.00  0.00     0.008 C 
ENDBRANCH   7  30
BRANCH  23  33
ATOM     33  O   UNL     1     146.107  10.013  94.114  1.00  0.00    -0.390 OA
ATOM     34  H   UNL     1     146.394  10.564  93.337  1.00  0.00     0.211 HD
ENDBRANCH  23  33
BRANCH  24  35
ATOM     35  O   UNL     1     146.970   6.617  95.033  1.00  0.00    -0.390 OA
ATOM     36  H   UNL     1     147.730   6.976  95.559  1.00  0.00     0.211 HD
ENDBRANCH  24  35
TORSDOF 4
ENDMDL
