MODEL 1
REMARK VINA RESULT:    -5.433      0.000      0.000
REMARK INTER + INTRA:          -9.441
REMARK INTER:                  -8.450
REMARK INTRA:                  -0.990
REMARK UNBOUND:                -0.990
REMARK SMILES COc1cc(CNC(=O)CCCCC=CC(C)C)ccc1O
REMARK SMILES IDX 11 1 12 2 13 3 14 4 15 5 16 6 17 7 18 8 10 9 8 10 9 11 7 12
REMARK SMILES IDX 6 14 5 15 4 16 19 17 3 18 20 19 21 20 2 21 1 22 22 23
REMARK H PARENT 7 13 22 24
REMARK Flexibility Score: inf
ROOT
ATOM      1  C   UNL     1      16.171  -6.293  34.001  1.00  0.00     0.010 C 
ENDROOT
BRANCH   1   2
ATOM      2  C   UNL     1      17.125  -5.100  33.777  1.00  0.00     0.005 C 
BRANCH   2   3
ATOM      3  C   UNL     1      16.473  -3.884  33.103  1.00  0.00     0.027 C 
BRANCH   3   4
ATOM      4  C   UNL     1      14.978  -4.033  33.019  1.00  0.00    -0.031 C 
ATOM      5  C   UNL     1      14.369  -4.388  31.876  1.00  0.00    -0.028 C 
BRANCH   5   6
ATOM      6  C   UNL     1      12.866  -4.508  31.755  1.00  0.00     0.005 C 
ATOM      7  C   UNL     1      12.183  -4.299  33.110  1.00  0.00     0.012 C 
ATOM      8  C   UNL     1      12.458  -5.846  31.126  1.00  0.00     0.012 C 
ENDBRANCH   5   6
ENDBRANCH   3   4
ENDBRANCH   2   3
ENDBRANCH   1   2
BRANCH   1   9
ATOM      9  C   UNL     1      16.864  -7.662  34.109  1.00  0.00     0.100 C 
BRANCH   9  10
ATOM     10  C   UNL     1      15.954  -8.790  33.721  1.00  0.00     0.220 C 
ATOM     11  O   UNL     1      16.350  -9.981  33.848  1.00  0.00    -0.275 OA
ATOM     12  N   UNL     1      14.634  -8.515  33.234  1.00  0.00    -0.352 N 
ATOM     13  H   UNL     1      14.385  -7.539  32.957  1.00  0.00     0.163 HD
BRANCH  12  14
ATOM     14  C   UNL     1      13.565  -9.507  33.288  1.00  0.00     0.151 C 
BRANCH  14  15
ATOM     15  C   UNL     1      13.156  -9.886  31.891  1.00  0.00    -0.025 A 
ATOM     16  C   UNL     1      14.121 -10.249  30.939  1.00  0.00     0.056 A 
ATOM     17  C   UNL     1      11.796  -9.962  31.559  1.00  0.00     0.009 A 
ATOM     18  C   UNL     1      13.732 -10.675  29.653  1.00  0.00     0.160 A 
ATOM     19  C   UNL     1      11.405 -10.380  30.286  1.00  0.00     0.050 A 
ATOM     20  C   UNL     1      12.368 -10.736  29.332  1.00  0.00     0.157 A 
BRANCH  18  21
ATOM     21  O   UNL     1      14.666 -11.051  28.676  1.00  0.00    -0.493 OA
ATOM     22  C   UNL     1      15.907 -10.390  28.450  1.00  0.00     0.278 C 
ENDBRANCH  18  21
BRANCH  20  23
ATOM     23  O   UNL     1      11.977 -11.158  28.063  1.00  0.00    -0.504 OA
ATOM     24  H   UNL     1      11.207 -11.803  27.932  1.00  0.00     0.293 HD
ENDBRANCH  20  23
ENDBRANCH  14  15
ENDBRANCH  12  14
ENDBRANCH   9  10
ENDBRANCH   1   9
TORSDOF 10
ENDMDL
MODEL 2
REMARK VINA RESULT:    -4.881     20.138     23.298
REMARK INTER + INTRA:          -8.582
REMARK INTER:                  -7.195
REMARK INTRA:                  -1.387
REMARK UNBOUND:                -0.990
REMARK SMILES COc1cc(CNC(=O)CCCCC=CC(C)C)ccc1O
REMARK SMILES IDX 11 1 12 2 13 3 14 4 15 5 16 6 17 7 18 8 10 9 8 10 9 11 7 12
REMARK SMILES IDX 6 14 5 15 4 16 19 17 3 18 20 19 21 20 2 21 1 22 22 23
REMARK H PARENT 7 13 22 24
REMARK Flexibility Score: inf
ROOT
ATOM      1  C   UNL     1       1.482 -17.203  14.048  1.00  0.00     0.010 C 
ENDROOT
BRANCH   1   2
ATOM      2  C   UNL     1       0.926 -18.641  14.126  1.00  0.00     0.005 C 
BRANCH   2   3
ATOM      3  C   UNL     1       1.796 -19.616  14.933  1.00  0.00     0.027 C 
BRANCH   3   4
ATOM      4  C   UNL     1       0.980 -20.746  15.501  1.00  0.00    -0.031 C 
ATOM      5  C   UNL     1      -0.181 -20.526  16.139  1.00  0.00    -0.028 C 
BRANCH   5   6
ATOM      6  C   UNL     1      -1.000 -21.640  16.750  1.00  0.00     0.005 C 
ATOM      7  C   UNL     1      -1.657 -21.191  18.060  1.00  0.00     0.012 C 
ATOM      8  C   UNL     1      -0.161 -22.908  16.954  1.00  0.00     0.012 C 
ENDBRANCH   5   6
ENDBRANCH   3   4
ENDBRANCH   2   3
ENDBRANCH   1   2
BRANCH   1   9
ATOM      9  C   UNL     1       2.910 -17.032  14.594  1.00  0.00     0.100 C 
BRANCH   9  10
ATOM     10  C   UNL     1       2.937 -16.245  15.871  1.00  0.00     0.220 C 
ATOM     11  O   UNL     1       2.911 -14.985  15.826  1.00  0.00    -0.275 OA
ATOM     12  N   UNL     1       2.968 -16.922  17.134  1.00  0.00    -0.352 N 
ATOM     13  H   UNL     1       3.178 -17.945  17.160  1.00  0.00     0.163 HD
BRANCH  12  14
ATOM     14  C   UNL     1       2.530 -16.280  18.370  1.00  0.00     0.151 C 
BRANCH  14  15
ATOM     15  C   UNL     1       1.140 -16.742  18.714  1.00  0.00    -0.025 A 
ATOM     16  C   UNL     1       0.089 -16.587  17.797  1.00  0.00     0.056 A 
ATOM     17  C   UNL     1       0.907 -17.410  19.925  1.00  0.00     0.009 A 
ATOM     18  C   UNL     1      -1.195 -17.086  18.091  1.00  0.00     0.160 A 
ATOM     19  C   UNL     1      -0.364 -17.903  20.222  1.00  0.00     0.050 A 
ATOM     20  C   UNL     1      -1.415 -17.743  19.310  1.00  0.00     0.157 A 
BRANCH  18  21
ATOM     21  O   UNL     1      -2.270 -16.957  17.198  1.00  0.00    -0.493 OA
ATOM     22  C   UNL     1      -2.710 -15.723  16.639  1.00  0.00     0.278 C 
ENDBRANCH  18  21
BRANCH  20  23
ATOM     23  O   UNL     1      -2.683 -18.240  19.606  1.00  0.00    -0.504 OA
ATOM     24  H   UNL     1      -2.968 -19.170  19.321  1.00  0.00     0.293 HD
ENDBRANCH  20  23
ENDBRANCH  14  15
ENDBRANCH  12  14
ENDBRANCH   9  10
ENDBRANCH   1   9
TORSDOF 10
ENDMDL
MODEL 3
REMARK VINA RESULT:    -4.656     20.251     23.285
REMARK INTER + INTRA:          -8.233
REMARK INTER:                  -6.906
REMARK INTRA:                  -1.326
REMARK UNBOUND:                -0.990
REMARK SMILES COc1cc(CNC(=O)CCCCC=CC(C)C)ccc1O
REMARK SMILES IDX 11 1 12 2 13 3 14 4 15 5 16 6 17 7 18 8 10 9 8 10 9 11 7 12
REMARK SMILES IDX 6 14 5 15 4 16 19 17 3 18 20 19 21 20 2 21 1 22 22 23
REMARK H PARENT 7 13 22 24
REMARK Flexibility Score: inf
ROOT
ATOM      1  C   UNL     1       2.011 -17.953  14.148  1.00  0.00     0.010 C 
ENDROOT
BRANCH   1   2
ATOM      2  C   UNL     1       0.677 -18.180  14.891  1.00  0.00     0.005 C 
BRANCH   2   3
ATOM      3  C   UNL     1       0.312 -19.656  15.103  1.00  0.00     0.027 C 
BRANCH   3   4
ATOM      4  C   UNL     1       1.467 -20.564  14.778  1.00  0.00    -0.031 C 
ATOM      5  C   UNL     1       1.980 -21.406  15.690  1.00  0.00    -0.028 C 
BRANCH   5   6
ATOM      6  C   UNL     1       3.164 -22.301  15.401  1.00  0.00     0.005 C 
ATOM      7  C   UNL     1       3.551 -23.125  16.633  1.00  0.00     0.012 C 
ATOM      8  C   UNL     1       4.359 -21.498  14.870  1.00  0.00     0.012 C 
ENDBRANCH   5   6
ENDBRANCH   3   4
ENDBRANCH   2   3
ENDBRANCH   1   2
BRANCH   1   9
ATOM      9  C   UNL     1       3.206 -17.616  15.056  1.00  0.00     0.100 C 
BRANCH   9  10
ATOM     10  C   UNL     1       2.886 -16.520  16.030  1.00  0.00     0.220 C 
ATOM     11  O   UNL     1       2.606 -15.369  15.600  1.00  0.00    -0.275 OA
ATOM     12  N   UNL     1       2.876 -16.789  17.438  1.00  0.00    -0.352 N 
ATOM     13  H   UNL     1       3.288 -17.682  17.791  1.00  0.00     0.163 HD
BRANCH  12  14
ATOM     14  C   UNL     1       2.142 -15.951  18.381  1.00  0.00     0.151 C 
BRANCH  14  15
ATOM     15  C   UNL     1       0.830 -16.604  18.722  1.00  0.00    -0.025 A 
ATOM     16  C   UNL     1      -0.265 -16.501  17.851  1.00  0.00     0.056 A 
ATOM     17  C   UNL     1       0.722 -17.394  19.876  1.00  0.00     0.009 A 
ATOM     18  C   UNL     1      -1.470 -17.174  18.134  1.00  0.00     0.160 A 
ATOM     19  C   UNL     1      -0.470 -18.060  20.164  1.00  0.00     0.050 A 
ATOM     20  C   UNL     1      -1.566 -17.952  19.298  1.00  0.00     0.157 A 
BRANCH  18  21
ATOM     21  O   UNL     1      -2.586 -17.102  17.286  1.00  0.00    -0.493 OA
ATOM     22  C   UNL     1      -2.828 -17.986  16.196  1.00  0.00     0.278 C 
ENDBRANCH  18  21
BRANCH  20  23
ATOM     23  O   UNL     1      -2.754 -18.621  19.583  1.00  0.00    -0.504 OA
ATOM     24  H   UNL     1      -3.508 -18.172  20.089  1.00  0.00     0.293 HD
ENDBRANCH  20  23
ENDBRANCH  14  15
ENDBRANCH  12  14
ENDBRANCH   9  10
ENDBRANCH   1   9
TORSDOF 10
ENDMDL
MODEL 4
REMARK VINA RESULT:    -4.546     13.784     16.842
REMARK INTER + INTRA:          -8.062
REMARK INTER:                  -7.252
REMARK INTRA:                  -0.810
REMARK UNBOUND:                -0.990
REMARK SMILES COc1cc(CNC(=O)CCCCC=CC(C)C)ccc1O
REMARK SMILES IDX 11 1 12 2 13 3 14 4 15 5 16 6 17 7 18 8 10 9 8 10 9 11 7 12
REMARK SMILES IDX 6 14 5 15 4 16 19 17 3 18 20 19 21 20 2 21 1 22 22 23
REMARK H PARENT 7 13 22 24
REMARK Flexibility Score: inf
ROOT
ATOM      1  C   UNL     1      12.551 -10.260  17.016  1.00  0.00     0.010 C 
ENDROOT
BRANCH   1   2
ATOM      2  C   UNL     1      13.839 -10.759  17.707  1.00  0.00     0.005 C 
BRANCH   2   3
ATOM      3  C   UNL     1      15.130 -10.469  16.929  1.00  0.00     0.027 C 
BRANCH   3   4
ATOM      4  C   UNL     1      16.069  -9.597  17.719  1.00  0.00    -0.031 C 
ATOM      5  C   UNL     1      15.638  -8.852  18.750  1.00  0.00    -0.028 C 
BRANCH   5   6
ATOM      6  C   UNL     1      16.552  -7.939  19.536  1.00  0.00     0.005 C 
ATOM      7  C   UNL     1      16.012  -7.696  20.949  1.00  0.00     0.012 C 
ATOM      8  C   UNL     1      16.795  -6.617  18.797  1.00  0.00     0.012 C 
ENDBRANCH   5   6
ENDBRANCH   3   4
ENDBRANCH   2   3
ENDBRANCH   1   2
BRANCH   1   9
ATOM      9  C   UNL     1      12.595  -8.794  16.551  1.00  0.00     0.100 C 
BRANCH   9  10
ATOM     10  C   UNL     1      11.792  -8.572  15.303  1.00  0.00     0.220 C 
ATOM     11  O   UNL     1      11.424  -9.563  14.615  1.00  0.00    -0.275 OA
ATOM     12  N   UNL     1      11.424  -7.244  14.910  1.00  0.00    -0.352 N 
ATOM     13  H   UNL     1      11.886  -6.428  15.372  1.00  0.00     0.163 HD
BRANCH  12  14
ATOM     14  C   UNL     1      10.294  -6.981  14.024  1.00  0.00     0.151 C 
BRANCH  14  15
ATOM     15  C   UNL     1       9.313  -6.072  14.713  1.00  0.00    -0.025 A 
ATOM     16  C   UNL     1       7.949  -6.118  14.388  1.00  0.00     0.056 A 
ATOM     17  C   UNL     1       9.748  -5.233  15.749  1.00  0.00     0.009 A 
ATOM     18  C   UNL     1       7.021  -5.319  15.085  1.00  0.00     0.160 A 
ATOM     19  C   UNL     1       8.834  -4.437  16.440  1.00  0.00     0.050 A 
ATOM     20  C   UNL     1       7.473  -4.477  16.112  1.00  0.00     0.157 A 
BRANCH  18  21
ATOM     21  O   UNL     1       5.648  -5.340  14.794  1.00  0.00    -0.493 OA
ATOM     22  C   UNL     1       4.728  -6.294  15.315  1.00  0.00     0.278 C 
ENDBRANCH  18  21
BRANCH  20  23
ATOM     23  O   UNL     1       6.559  -3.686  16.806  1.00  0.00    -0.504 OA
ATOM     24  H   UNL     1       6.122  -4.007  17.662  1.00  0.00     0.293 HD
ENDBRANCH  20  23
ENDBRANCH  14  15
ENDBRANCH  12  14
ENDBRANCH   9  10
ENDBRANCH   1   9
TORSDOF 10
ENDMDL
MODEL 5
REMARK VINA RESULT:    -4.499     19.833     22.303
REMARK INTER + INTRA:          -7.989
REMARK INTER:                  -7.328
REMARK INTRA:                  -0.661
REMARK UNBOUND:                -0.990
REMARK SMILES COc1cc(CNC(=O)CCCCC=CC(C)C)ccc1O
REMARK SMILES IDX 11 1 12 2 13 3 14 4 15 5 16 6 17 7 18 8 10 9 8 10 9 11 7 12
REMARK SMILES IDX 6 14 5 15 4 16 19 17 3 18 20 19 21 20 2 21 1 22 22 23
REMARK H PARENT 7 13 22 24
REMARK Flexibility Score: inf
ROOT
ATOM      1  C   UNL     1       4.827 -18.993  14.253  1.00  0.00     0.010 C 
ENDROOT
BRANCH   1   2
ATOM      2  C   UNL     1       4.836 -20.439  14.795  1.00  0.00     0.005 C 
BRANCH   2   3
ATOM      3  C   UNL     1       6.227 -21.088  14.850  1.00  0.00     0.027 C 
BRANCH   3   4
ATOM      4  C   UNL     1       7.318 -20.053  14.907  1.00  0.00    -0.031 C 
ATOM      5  C   UNL     1       8.573 -20.372  15.263  1.00  0.00    -0.028 C 
BRANCH   5   6
ATOM      6  C   UNL     1       9.678 -19.345  15.364  1.00  0.00     0.005 C 
ATOM      7  C   UNL     1      11.019 -19.926  14.904  1.00  0.00     0.012 C 
ATOM      8  C   UNL     1       9.779 -18.767  16.782  1.00  0.00     0.012 C 
ENDBRANCH   5   6
ENDBRANCH   3   4
ENDBRANCH   2   3
ENDBRANCH   1   2
BRANCH   1   9
ATOM      9  C   UNL     1       3.439 -18.330  14.210  1.00  0.00     0.100 C 
BRANCH   9  10
ATOM     10  C   UNL     1       3.390 -17.067  15.019  1.00  0.00     0.220 C 
ATOM     11  O   UNL     1       3.468 -15.952  14.437  1.00  0.00    -0.275 OA
ATOM     12  N   UNL     1       3.230 -17.130  16.442  1.00  0.00    -0.352 N 
ATOM     13  H   UNL     1       3.355 -18.045  16.930  1.00  0.00     0.163 HD
BRANCH  12  14
ATOM     14  C   UNL     1       2.713 -16.005  17.215  1.00  0.00     0.151 C 
BRANCH  14  15
ATOM     15  C   UNL     1       1.469 -16.426  17.950  1.00  0.00    -0.025 A 
ATOM     16  C   UNL     1       0.219 -16.387  17.315  1.00  0.00     0.056 A 
ATOM     17  C   UNL     1       1.569 -16.943  19.250  1.00  0.00     0.009 A 
ATOM     18  C   UNL     1      -0.935 -16.851  17.979  1.00  0.00     0.160 A 
ATOM     19  C   UNL     1       0.429 -17.400  19.913  1.00  0.00     0.050 A 
ATOM     20  C   UNL     1      -0.821 -17.356  19.283  1.00  0.00     0.157 A 
BRANCH  18  21
ATOM     21  O   UNL     1      -2.202 -16.835  17.377  1.00  0.00    -0.493 OA
ATOM     22  C   UNL     1      -2.460 -17.222  16.031  1.00  0.00     0.278 C 
ENDBRANCH  18  21
BRANCH  20  23
ATOM     23  O   UNL     1      -1.957 -17.818  19.944  1.00  0.00    -0.504 OA
ATOM     24  H   UNL     1      -2.887 -17.519  19.673  1.00  0.00     0.293 HD
ENDBRANCH  20  23
ENDBRANCH  14  15
ENDBRANCH  12  14
ENDBRANCH   9  10
ENDBRANCH   1   9
TORSDOF 10
ENDMDL
MODEL 6
REMARK VINA RESULT:    -4.480     20.359     23.862
REMARK INTER + INTRA:          -7.958
REMARK INTER:                  -5.890
REMARK INTRA:                  -2.068
REMARK UNBOUND:                -0.990
REMARK SMILES COc1cc(CNC(=O)CCCCC=CC(C)C)ccc1O
REMARK SMILES IDX 11 1 12 2 13 3 14 4 15 5 16 6 17 7 18 8 10 9 8 10 9 11 7 12
REMARK SMILES IDX 6 14 5 15 4 16 19 17 3 18 20 19 21 20 2 21 1 22 22 23
REMARK H PARENT 7 13 22 24
REMARK Flexibility Score: inf
ROOT
ATOM      1  C   UNL     1      -1.897 -20.664  19.054  1.00  0.00     0.010 C 
ENDROOT
BRANCH   1   2
ATOM      2  C   UNL     1      -2.939 -19.533  18.910  1.00  0.00     0.005 C 
BRANCH   2   3
ATOM      3  C   UNL     1      -2.345 -18.118  18.910  1.00  0.00     0.027 C 
BRANCH   3   4
ATOM      4  C   UNL     1      -0.864 -18.139  19.181  1.00  0.00    -0.031 C 
ATOM      5  C   UNL     1      -0.073 -17.104  18.854  1.00  0.00    -0.028 C 
BRANCH   5   6
ATOM      6  C   UNL     1       1.421 -17.116  19.081  1.00  0.00     0.005 C 
ATOM      7  C   UNL     1       1.759 -17.459  20.536  1.00  0.00     0.012 C 
ATOM      8  C   UNL     1       2.065 -15.789  18.658  1.00  0.00     0.012 C 
ENDBRANCH   5   6
ENDBRANCH   3   4
ENDBRANCH   2   3
ENDBRANCH   1   2
BRANCH   1   9
ATOM      9  C   UNL     1      -2.150 -21.891  18.162  1.00  0.00     0.100 C 
BRANCH   9  10
ATOM     10  C   UNL     1      -1.484 -21.765  16.824  1.00  0.00     0.220 C 
ATOM     11  O   UNL     1      -1.802 -22.556  15.894  1.00  0.00    -0.275 OA
ATOM     12  N   UNL     1      -0.512 -20.736  16.597  1.00  0.00    -0.352 N 
ATOM     13  H   UNL     1      -0.121 -20.215  17.413  1.00  0.00     0.163 HD
BRANCH  12  14
ATOM     14  C   UNL     1      -0.186 -20.259  15.257  1.00  0.00     0.151 C 
BRANCH  14  15
ATOM     15  C   UNL     1      -0.175 -18.754  15.246  1.00  0.00    -0.025 A 
ATOM     16  C   UNL     1      -1.376 -18.032  15.321  1.00  0.00     0.056 A 
ATOM     17  C   UNL     1       1.046 -18.066  15.246  1.00  0.00     0.009 A 
ATOM     18  C   UNL     1      -1.360 -16.624  15.385  1.00  0.00     0.160 A 
ATOM     19  C   UNL     1       1.067 -16.671  15.305  1.00  0.00     0.050 A 
ATOM     20  C   UNL     1      -0.131 -15.949  15.374  1.00  0.00     0.157 A 
BRANCH  18  21
ATOM     21  O   UNL     1      -2.539 -15.866  15.468  1.00  0.00    -0.493 OA
ATOM     22  C   UNL     1      -3.060 -15.316  16.674  1.00  0.00     0.278 C 
ENDBRANCH  18  21
BRANCH  20  23
ATOM     23  O   UNL     1      -0.109 -14.557  15.439  1.00  0.00    -0.504 OA
ATOM     24  H   UNL     1       0.535 -14.064  16.046  1.00  0.00     0.293 HD
ENDBRANCH  20  23
ENDBRANCH  14  15
ENDBRANCH  12  14
ENDBRANCH   9  10
ENDBRANCH   1   9
TORSDOF 10
ENDMDL
MODEL 7
REMARK VINA RESULT:    -4.469     20.176     23.529
REMARK INTER + INTRA:          -7.941
REMARK INTER:                  -5.822
REMARK INTRA:                  -2.119
REMARK UNBOUND:                -0.990
REMARK SMILES COc1cc(CNC(=O)CCCCC=CC(C)C)ccc1O
REMARK SMILES IDX 11 1 12 2 13 3 14 4 15 5 16 6 17 7 18 8 10 9 8 10 9 11 7 12
REMARK SMILES IDX 6 14 5 15 4 16 19 17 3 18 20 19 21 20 2 21 1 22 22 23
REMARK H PARENT 7 13 22 24
REMARK Flexibility Score: inf
ROOT
ATOM      1  C   UNL     1      -1.909 -20.720  19.120  1.00  0.00     0.010 C 
ENDROOT
BRANCH   1   2
ATOM      2  C   UNL     1      -2.955 -19.595  18.963  1.00  0.00     0.005 C 
BRANCH   2   3
ATOM      3  C   UNL     1      -2.364 -18.179  18.927  1.00  0.00     0.027 C 
BRANCH   3   4
ATOM      4  C   UNL     1      -0.880 -18.192  19.177  1.00  0.00    -0.031 C 
ATOM      5  C   UNL     1      -0.117 -17.112  18.942  1.00  0.00    -0.028 C 
BRANCH   5   6
ATOM      6  C   UNL     1       1.381 -17.112  19.148  1.00  0.00     0.005 C 
ATOM      7  C   UNL     1       1.743 -17.488  20.588  1.00  0.00     0.012 C 
ATOM      8  C   UNL     1       2.003 -15.766  18.751  1.00  0.00     0.012 C 
ENDBRANCH   5   6
ENDBRANCH   3   4
ENDBRANCH   2   3
ENDBRANCH   1   2
BRANCH   1   9
ATOM      9  C   UNL     1      -2.126 -21.935  18.201  1.00  0.00     0.100 C 
BRANCH   9  10
ATOM     10  C   UNL     1      -1.577 -21.708  16.823  1.00  0.00     0.220 C 
ATOM     11  O   UNL     1      -1.944 -22.455  15.876  1.00  0.00    -0.275 OA
ATOM     12  N   UNL     1      -0.660 -20.632  16.582  1.00  0.00    -0.352 N 
ATOM     13  H   UNL     1      -0.221 -20.143  17.394  1.00  0.00     0.163 HD
BRANCH  12  14
ATOM     14  C   UNL     1      -0.461 -20.067  15.251  1.00  0.00     0.151 C 
BRANCH  14  15
ATOM     15  C   UNL     1      -0.224 -18.585  15.362  1.00  0.00    -0.025 A 
ATOM     16  C   UNL     1       1.078 -18.066  15.316  1.00  0.00     0.056 A 
ATOM     17  C   UNL     1      -1.316 -17.707  15.425  1.00  0.00     0.009 A 
ATOM     18  C   UNL     1       1.294 -16.674  15.346  1.00  0.00     0.160 A 
ATOM     19  C   UNL     1      -1.108 -16.327  15.458  1.00  0.00     0.050 A 
ATOM     20  C   UNL     1       0.193 -15.808  15.419  1.00  0.00     0.157 A 
BRANCH  18  21
ATOM     21  O   UNL     1       2.581 -16.115  15.296  1.00  0.00    -0.493 OA
ATOM     22  C   UNL     1       3.518 -16.342  14.249  1.00  0.00     0.278 C 
ENDBRANCH  18  21
BRANCH  20  23
ATOM     23  O   UNL     1       0.400 -14.431  15.447  1.00  0.00    -0.504 OA
ATOM     24  H   UNL     1      -0.307 -13.781  15.123  1.00  0.00     0.293 HD
ENDBRANCH  20  23
ENDBRANCH  14  15
ENDBRANCH  12  14
ENDBRANCH   9  10
ENDBRANCH   1   9
TORSDOF 10
ENDMDL
MODEL 8
REMARK VINA RESULT:    -4.466     20.391     23.771
REMARK INTER + INTRA:          -7.936
REMARK INTER:                  -6.971
REMARK INTRA:                  -0.965
REMARK UNBOUND:                -0.990
REMARK SMILES COc1cc(CNC(=O)CCCCC=CC(C)C)ccc1O
REMARK SMILES IDX 11 1 12 2 13 3 14 4 15 5 16 6 17 7 18 8 10 9 8 10 9 11 7 12
REMARK SMILES IDX 6 14 5 15 4 16 19 17 3 18 20 19 21 20 2 21 1 22 22 23
REMARK H PARENT 7 13 22 24
REMARK Flexibility Score: inf
ROOT
ATOM      1  C   UNL     1      -1.526 -21.834  16.608  1.00  0.00     0.010 C 
ENDROOT
BRANCH   1   2
ATOM      2  C   UNL     1      -0.021 -21.914  16.273  1.00  0.00     0.005 C 
BRANCH   2   3
ATOM      3  C   UNL     1       0.702 -23.124  16.880  1.00  0.00     0.027 C 
BRANCH   3   4
ATOM      4  C   UNL     1       2.167 -23.125  16.534  1.00  0.00    -0.031 C 
ATOM      5  C   UNL     1       2.699 -22.197  15.723  1.00  0.00    -0.028 C 
BRANCH   5   6
ATOM      6  C   UNL     1       4.159 -22.198  15.329  1.00  0.00     0.005 C 
ATOM      7  C   UNL     1       5.045 -22.674  16.485  1.00  0.00     0.012 C 
ATOM      8  C   UNL     1       4.604 -20.821  14.817  1.00  0.00     0.012 C 
ENDBRANCH   5   6
ENDBRANCH   3   4
ENDBRANCH   2   3
ENDBRANCH   1   2
BRANCH   1   9
ATOM      9  C   UNL     1      -1.848 -21.713  18.107  1.00  0.00     0.100 C 
BRANCH   9  10
ATOM     10  C   UNL     1      -2.363 -20.350  18.467  1.00  0.00     0.220 C 
ATOM     11  O   UNL     1      -2.821 -20.144  19.624  1.00  0.00    -0.275 OA
ATOM     12  N   UNL     1      -2.310 -19.284  17.510  1.00  0.00    -0.352 N 
ATOM     13  H   UNL     1      -2.109 -19.506  16.509  1.00  0.00     0.163 HD
BRANCH  12  14
ATOM     14  C   UNL     1      -2.339 -17.881  17.909  1.00  0.00     0.151 C 
BRANCH  14  15
ATOM     15  C   UNL     1      -0.936 -17.401  18.169  1.00  0.00    -0.025 A 
ATOM     16  C   UNL     1      -0.246 -16.657  17.200  1.00  0.00     0.056 A 
ATOM     17  C   UNL     1      -0.344 -17.624  19.420  1.00  0.00     0.009 A 
ATOM     18  C   UNL     1       1.038 -16.145  17.473  1.00  0.00     0.160 A 
ATOM     19  C   UNL     1       0.930 -17.123  19.694  1.00  0.00     0.050 A 
ATOM     20  C   UNL     1       1.622 -16.385  18.725  1.00  0.00     0.157 A 
BRANCH  18  21
ATOM     21  O   UNL     1       1.758 -15.391  16.533  1.00  0.00    -0.493 OA
ATOM     22  C   UNL     1       1.427 -15.297  15.152  1.00  0.00     0.278 C 
ENDBRANCH  18  21
BRANCH  20  23
ATOM     23  O   UNL     1       2.892 -15.881  19.001  1.00  0.00    -0.504 OA
ATOM     24  H   UNL     1       3.046 -14.892  19.163  1.00  0.00     0.293 HD
ENDBRANCH  20  23
ENDBRANCH  14  15
ENDBRANCH  12  14
ENDBRANCH   9  10
ENDBRANCH   1   9
TORSDOF 10
ENDMDL
MODEL 9
REMARK VINA RESULT:    -4.450     19.449     23.463
REMARK INTER + INTRA:          -7.911
REMARK INTER:                  -6.982
REMARK INTRA:                  -0.929
REMARK UNBOUND:                -0.990
REMARK SMILES COc1cc(CNC(=O)CCCCC=CC(C)C)ccc1O
REMARK SMILES IDX 11 1 12 2 13 3 14 4 15 5 16 6 17 7 18 8 10 9 8 10 9 11 7 12
REMARK SMILES IDX 6 14 5 15 4 16 19 17 3 18 20 19 21 20 2 21 1 22 22 23
REMARK H PARENT 7 13 22 24
REMARK Flexibility Score: inf
ROOT
ATOM      1  C   UNL     1       1.144 -20.501  15.341  1.00  0.00     0.010 C 
ENDROOT
BRANCH   1   2
ATOM      2  C   UNL     1       1.753 -21.851  14.902  1.00  0.00     0.005 C 
BRANCH   2   3
ATOM      3  C   UNL     1       2.537 -22.582  16.001  1.00  0.00     0.027 C 
BRANCH   3   4
ATOM      4  C   UNL     1       4.000 -22.681  15.664  1.00  0.00    -0.031 C 
ATOM      5  C   UNL     1       4.734 -21.592  15.384  1.00  0.00    -0.028 C 
BRANCH   5   6
ATOM      6  C   UNL     1       6.196 -21.668  15.006  1.00  0.00     0.005 C 
ATOM      7  C   UNL     1       6.776 -23.053  15.309  1.00  0.00     0.012 C 
ATOM      8  C   UNL     1       7.011 -20.562  15.689  1.00  0.00     0.012 C 
ENDBRANCH   5   6
ENDBRANCH   3   4
ENDBRANCH   2   3
ENDBRANCH   1   2
BRANCH   1   9
ATOM      9  C   UNL     1      -0.176 -20.132  14.643  1.00  0.00     0.100 C 
BRANCH   9  10
ATOM     10  C   UNL     1      -1.171 -19.535  15.595  1.00  0.00     0.220 C 
ATOM     11  O   UNL     1      -1.870 -20.293  16.321  1.00  0.00    -0.275 OA
ATOM     12  N   UNL     1      -1.307 -18.111  15.694  1.00  0.00    -0.352 N 
ATOM     13  H   UNL     1      -0.868 -17.504  14.966  1.00  0.00     0.163 HD
BRANCH  12  14
ATOM     14  C   UNL     1      -1.873 -17.467  16.876  1.00  0.00     0.151 C 
BRANCH  14  15
ATOM     15  C   UNL     1      -0.883 -17.529  18.007  1.00  0.00    -0.025 A 
ATOM     16  C   UNL     1       0.377 -16.924  17.887  1.00  0.00     0.056 A 
ATOM     17  C   UNL     1      -1.251 -18.121  19.224  1.00  0.00     0.009 A 
ATOM     18  C   UNL     1       1.275 -16.919  18.973  1.00  0.00     0.160 A 
ATOM     19  C   UNL     1      -0.365 -18.121  20.302  1.00  0.00     0.050 A 
ATOM     20  C   UNL     1       0.896 -17.524  20.181  1.00  0.00     0.157 A 
BRANCH  18  21
ATOM     21  O   UNL     1       2.541 -16.319  18.894  1.00  0.00    -0.493 OA
ATOM     22  C   UNL     1       2.767 -14.954  18.559  1.00  0.00     0.278 C 
ENDBRANCH  18  21
BRANCH  20  23
ATOM     23  O   UNL     1       1.779 -17.520  21.259  1.00  0.00    -0.504 OA
ATOM     24  H   UNL     1       2.011 -18.371  21.758  1.00  0.00     0.293 HD
ENDBRANCH  20  23
ENDBRANCH  14  15
ENDBRANCH  12  14
ENDBRANCH   9  10
ENDBRANCH   1   9
TORSDOF 10
ENDMDL
