MODEL 1
REMARK VINA RESULT:     2.781      0.000      0.000
REMARK INTER + INTRA:           5.994
REMARK INTER:                   3.919
REMARK INTRA:                   2.075
REMARK UNBOUND:                 2.075
REMARK SMILES CC1=CCC(=C(C)C)CCC(C)=CCC1
REMARK SMILES IDX 5 1 6 2 7 3 8 4 9 5 10 6 11 7 12 8 13 9 4 11 3 12 2 13 1 14
REMARK SMILES IDX 15 15 14 16
REMARK H PARENT
REMARK Flexibility Score: 60.00
ROOT
ATOM      1  C   UNL     1       4.479   7.318  12.438  1.00  0.00    -0.067 C 
ATOM      2  C   UNL     1       3.474   7.245  13.367  1.00  0.00    -0.077 C 
ATOM      3  C   UNL     1       3.122   8.432  14.242  1.00  0.00     0.039 C 
ATOM      4  C   UNL     1       2.662   5.981  13.561  1.00  0.00     0.039 C 
ENDROOT
BRANCH   1   5
ATOM      5  C   UNL     1       4.944   6.067  11.684  1.00  0.00     0.035 C 
BRANCH   5   6
ATOM      6  C   UNL     1       5.308   4.878  12.598  1.00  0.00     0.035 C 
BRANCH   6   7
ATOM      7  C   UNL     1       6.513   5.123  13.494  1.00  0.00    -0.077 C 
ATOM      8  C   UNL     1       6.372   4.894  14.978  1.00  0.00     0.039 C 
ATOM      9  C   UNL     1       7.713   5.537  13.030  1.00  0.00    -0.028 CG0
ATOM     10  G   UNL     1       8.047   5.851  11.593  1.00  0.00     0.000 G0
ENDBRANCH   6   7
ENDBRANCH   5   6
ENDBRANCH   1   5
BRANCH   1  11
ATOM     11  C   UNL     1       5.261   8.622  12.238  1.00  0.00     0.058 C 
BRANCH  11  12
ATOM     12  C   UNL     1       6.536   8.675  13.045  1.00  0.00    -0.024 C 
ATOM     13  C   UNL     1       7.734   8.174  12.664  1.00  0.00    -0.077 C 
ATOM     14  C   UNL     1       8.911   8.393  13.583  1.00  0.00     0.039 C 
BRANCH  13  15
ATOM     15  C   UNL     1       7.950   7.395  11.377  1.00  0.00     0.034 C 
BRANCH  15  16
ATOM     16  C   UNL     1       8.059   5.875  11.613  1.00  0.00     0.032 CG0
ATOM     17  G   UNL     1       7.724   5.513  13.039  1.00  0.00     0.000 G0
ENDBRANCH  15  16
ENDBRANCH  13  15
ENDBRANCH  11  12
ENDBRANCH   1  11
TORSDOF 0
ENDMDL
MODEL 2
REMARK VINA RESULT:     3.975      1.672      3.832
REMARK INTER + INTRA:           7.678
REMARK INTER:                   5.473
REMARK INTRA:                   2.204
REMARK UNBOUND:                 2.075
REMARK SMILES CC1=CCC(=C(C)C)CCC(C)=CCC1
REMARK SMILES IDX 5 1 6 2 7 3 8 4 9 5 10 6 11 7 12 8 13 9 4 11 3 12 2 13 1 14
REMARK SMILES IDX 15 15 14 16
REMARK H PARENT
REMARK Flexibility Score: 60.00
ROOT
ATOM      1  C   UNL     1       6.148   6.770  11.663  1.00  0.00    -0.067 C 
ATOM      2  C   UNL     1       6.133   5.595  12.369  1.00  0.00    -0.077 C 
ATOM      3  C   UNL     1       4.830   4.955  12.805  1.00  0.00     0.039 C 
ATOM      4  C   UNL     1       7.413   4.875  12.741  1.00  0.00     0.039 C 
ENDROOT
BRANCH   1   5
ATOM      5  C   UNL     1       7.467   7.498  11.379  1.00  0.00     0.035 C 
BRANCH   5   6
ATOM      6  C   UNL     1       7.762   8.668  12.341  1.00  0.00     0.035 C 
BRANCH   6   7
ATOM      7  C   UNL     1       8.467   8.260  13.626  1.00  0.00    -0.077 C 
ATOM      8  C   UNL     1       9.973   8.331  13.681  1.00  0.00     0.039 C 
ATOM      9  C   UNL     1       7.815   7.834  14.731  1.00  0.00    -0.028 CG0
ATOM     10  G   UNL     1       6.322   7.663  14.866  1.00  0.00     0.000 G0
ENDBRANCH   6   7
ENDBRANCH   5   6
ENDBRANCH   1   5
BRANCH   1  11
ATOM     11  C   UNL     1       4.837   7.458  11.269  1.00  0.00     0.058 C 
BRANCH  11  12
ATOM     12  C   UNL     1       3.879   7.610  12.427  1.00  0.00    -0.024 C 
ATOM     13  C   UNL     1       4.170   8.170  13.625  1.00  0.00    -0.077 C 
ATOM     14  C   UNL     1       3.051   8.296  14.630  1.00  0.00     0.039 C 
BRANCH  13  15
ATOM     15  C   UNL     1       5.555   8.660  14.011  1.00  0.00     0.034 C 
BRANCH  15  16
ATOM     16  C   UNL     1       6.326   7.642  14.876  1.00  0.00     0.032 CG0
ATOM     17  G   UNL     1       7.818   7.821  14.740  1.00  0.00     0.000 G0
ENDBRANCH  15  16
ENDBRANCH  13  15
ENDBRANCH  11  12
ENDBRANCH   1  11
TORSDOF 0
ENDMDL
MODEL 3
REMARK VINA RESULT:     4.698      1.653      3.523
REMARK INTER + INTRA:           8.696
REMARK INTER:                   4.988
REMARK INTRA:                   3.707
REMARK UNBOUND:                 2.075
REMARK SMILES CC1=CCC(=C(C)C)CCC(C)=CCC1
REMARK SMILES IDX 5 1 6 2 7 3 8 4 9 5 10 6 11 7 12 8 13 9 4 11 3 12 2 13 1 14
REMARK SMILES IDX 15 15 14 16
REMARK H PARENT
REMARK Flexibility Score: 60.00
ROOT
ATOM      1  C   UNL     1       6.586   6.891  11.858  1.00  0.00    -0.067 C 
ATOM      2  C   UNL     1       6.677   5.615  12.351  1.00  0.00    -0.077 C 
ATOM      3  C   UNL     1       8.000   4.875  12.381  1.00  0.00     0.039 C 
ATOM      4  C   UNL     1       5.466   4.885  12.896  1.00  0.00     0.039 C 
ENDROOT
BRANCH   1   5
ATOM      5  C   UNL     1       5.221   7.564  11.669  1.00  0.00     0.035 C 
BRANCH   5   6
ATOM      6  C   UNL     1       4.126   7.051  12.629  1.00  0.00     0.035 C 
BRANCH   6   7
ATOM      7  C   UNL     1       3.977   7.868  13.903  1.00  0.00    -0.077 C 
ATOM      8  C   UNL     1       2.626   8.447  14.240  1.00  0.00     0.039 C 
ATOM      9  C   UNL     1       4.996   8.106  14.759  1.00  0.00    -0.028 CG0
ATOM     10  G   UNL     1       6.423   7.645  14.586  1.00  0.00     0.000 G0
ENDBRANCH   6   7
ENDBRANCH   5   6
ENDBRANCH   1   5
BRANCH   1  11
ATOM     11  C   UNL     1       7.834   7.618  11.346  1.00  0.00     0.058 C 
BRANCH  11  12
ATOM     12  C   UNL     1       8.901   7.775  12.402  1.00  0.00    -0.024 C 
ATOM     13  C   UNL     1       8.707   8.242  13.658  1.00  0.00    -0.077 C 
ATOM     14  C   UNL     1       9.892   8.254  14.593  1.00  0.00     0.039 C 
BRANCH  13  15
ATOM     15  C   UNL     1       7.374   8.763  14.166  1.00  0.00     0.034 C 
BRANCH  15  16
ATOM     16  C   UNL     1       6.419   7.632  14.599  1.00  0.00     0.032 CG0
ATOM     17  G   UNL     1       5.003   8.133  14.748  1.00  0.00     0.000 G0
ENDBRANCH  15  16
ENDBRANCH  13  15
ENDBRANCH  11  12
ENDBRANCH   1  11
TORSDOF 0
ENDMDL
