MODEL 1
REMARK VINA RESULT:    -6.330      0.000      0.000
REMARK INTER + INTRA:          -9.261
REMARK INTER:                  -8.550
REMARK INTRA:                  -0.712
REMARK UNBOUND:                -0.712
REMARK SMILES COc1ccc(-c2cc(=O)c3c(OC)c(OC)c(OC)c(OC)c3o2)cc1
REMARK SMILES IDX 7 1 8 2 9 3 10 4 11 5 24 6 25 7 21 8 18 9 15 10 12 11 6 12
REMARK SMILES IDX 3 13 4 14 27 15 5 16 26 17 2 18 1 19 22 20 23 21 13 22 14 23
REMARK SMILES IDX 19 24 20 25 16 26 17 27
REMARK H PARENT
REMARK Flexibility Score: inf
ROOT
ATOM      1  C   UNL     1     178.434 181.042 168.107  1.00  0.00     0.138 A 
ATOM      2  C   UNL     1     178.628 182.257 167.436  1.00  0.00     0.100 A 
ATOM      3  C   UNL     1     179.660 182.368 166.505  1.00  0.00     0.197 A 
ATOM      4  O   UNL     1     179.818 183.469 165.911  1.00  0.00    -0.289 OA
ATOM      5  C   UNL     1     180.500 181.260 166.251  1.00  0.00     0.115 A 
ATOM      6  C   UNL     1     180.251 180.077 166.982  1.00  0.00     0.188 A 
ATOM      7  O   UNL     1     179.250 180.023 167.857  1.00  0.00    -0.452 OA
ATOM      8  C   UNL     1     181.052 178.943 166.812  1.00  0.00     0.209 A 
ATOM      9  C   UNL     1     182.130 178.985 165.902  1.00  0.00     0.211 A 
ATOM     10  C   UNL     1     182.330 180.126 165.092  1.00  0.00     0.208 A 
ATOM     11  C   UNL     1     181.553 181.293 165.302  1.00  0.00     0.179 A 
ENDROOT
BRANCH   1  12
ATOM     12  C   UNL     1     177.352 180.859 169.107  1.00  0.00     0.018 A 
ATOM     13  C   UNL     1     175.262 180.472 170.969  1.00  0.00     0.118 A 
ATOM     14  C   UNL     1     175.576 179.471 170.032  1.00  0.00     0.047 A 
ATOM     15  C   UNL     1     175.991 181.664 170.960  1.00  0.00     0.047 A 
ATOM     16  C   UNL     1     176.607 179.667 169.110  1.00  0.00     0.016 A 
ATOM     17  C   UNL     1     177.024 181.863 170.038  1.00  0.00     0.016 A 
BRANCH  13  18
ATOM     18  O   UNL     1     174.237 180.323 171.915  1.00  0.00    -0.497 OA
ATOM     19  C   UNL     1     174.127 181.089 173.109  1.00  0.00     0.278 C 
ENDBRANCH  13  18
ENDBRANCH   1  12
BRANCH   8  20
ATOM     20  O   UNL     1     180.728 177.814 167.589  1.00  0.00    -0.490 OA
ATOM     21  C   UNL     1     181.375 177.392 168.784  1.00  0.00     0.278 C 
ENDBRANCH   8  20
BRANCH  11  22
ATOM     22  O   UNL     1     181.773 182.492 164.593  1.00  0.00    -0.492 OA
ATOM     23  C   UNL     1     182.917 183.336 164.669  1.00  0.00     0.278 C 
ENDBRANCH  11  22
BRANCH   9  24
ATOM     24  O   UNL     1     183.019 177.911 165.822  1.00  0.00    -0.490 OA
ATOM     25  C   UNL     1     182.724 176.743 165.062  1.00  0.00     0.279 C 
ENDBRANCH   9  24
BRANCH  10  26
ATOM     26  O   UNL     1     183.284 180.102 164.068  1.00  0.00    -0.490 OA
ATOM     27  C   UNL     1     182.982 179.722 162.728  1.00  0.00     0.278 C 
ENDBRANCH  10  26
TORSDOF 6
ENDMDL
MODEL 2
REMARK VINA RESULT:    -6.274      1.774      1.863
REMARK INTER + INTRA:          -9.187
REMARK INTER:                  -8.518
REMARK INTRA:                  -0.669
REMARK UNBOUND:                -0.712
REMARK SMILES COc1ccc(-c2cc(=O)c3c(OC)c(OC)c(OC)c(OC)c3o2)cc1
REMARK SMILES IDX 7 1 8 2 9 3 10 4 11 5 24 6 25 7 21 8 18 9 15 10 12 11 6 12
REMARK SMILES IDX 3 13 4 14 27 15 5 16 26 17 2 18 1 19 22 20 23 21 13 22 14 23
REMARK SMILES IDX 19 24 20 25 16 26 17 27
REMARK H PARENT
REMARK Flexibility Score: inf
ROOT
ATOM      1  C   UNL     1     178.686 181.328 168.496  1.00  0.00     0.138 A 
ATOM      2  C   UNL     1     178.596 182.054 167.301  1.00  0.00     0.100 A 
ATOM      3  C   UNL     1     179.739 182.238 166.523  1.00  0.00     0.197 A 
ATOM      4  O   UNL     1     179.638 182.893 165.451  1.00  0.00    -0.289 OA
ATOM      5  C   UNL     1     180.973 181.695 166.948  1.00  0.00     0.115 A 
ATOM      6  C   UNL     1     180.985 180.992 168.174  1.00  0.00     0.188 A 
ATOM      7  O   UNL     1     179.864 180.843 168.876  1.00  0.00    -0.452 OA
ATOM      8  C   UNL     1     182.168 180.447 168.681  1.00  0.00     0.209 A 
ATOM      9  C   UNL     1     183.371 180.610 167.961  1.00  0.00     0.211 A 
ATOM     10  C   UNL     1     183.358 181.223 166.688  1.00  0.00     0.208 A 
ATOM     11  C   UNL     1     182.170 181.821 166.199  1.00  0.00     0.179 A 
ENDROOT
BRANCH   1  12
ATOM     12  C   UNL     1     177.505 181.095 169.366  1.00  0.00     0.018 A 
ATOM     13  C   UNL     1     175.232 180.617 170.974  1.00  0.00     0.118 A 
ATOM     14  C   UNL     1     175.621 179.684 169.996  1.00  0.00     0.047 A 
ATOM     15  C   UNL     1     175.979 181.787 171.134  1.00  0.00     0.047 A 
ATOM     16  C   UNL     1     176.743 179.925 169.199  1.00  0.00     0.016 A 
ATOM     17  C   UNL     1     177.103 182.031 170.338  1.00  0.00     0.016 A 
BRANCH  13  18
ATOM     18  O   UNL     1     174.114 180.420 171.799  1.00  0.00    -0.497 OA
ATOM     19  C   UNL     1     173.785 181.240 172.916  1.00  0.00     0.278 C 
ENDBRANCH  13  18
ENDBRANCH   1  12
BRANCH   8  20
ATOM     20  O   UNL     1     182.079 179.768 169.912  1.00  0.00    -0.490 OA
ATOM     21  C   UNL     1     181.880 178.371 170.098  1.00  0.00     0.278 C 
ENDBRANCH   8  20
BRANCH  11  22
ATOM     22  O   UNL     1     182.121 182.532 164.981  1.00  0.00    -0.492 OA
ATOM     23  C   UNL     1     182.878 183.685 164.630  1.00  0.00     0.278 C 
ENDBRANCH  11  22
BRANCH   9  24
ATOM     24  O   UNL     1     184.581 180.193 168.520  1.00  0.00    -0.490 OA
ATOM     25  C   UNL     1     185.071 178.866 168.352  1.00  0.00     0.279 C 
ENDBRANCH   9  24
BRANCH  10  26
ATOM     26  O   UNL     1     184.514 181.226 165.898  1.00  0.00    -0.490 OA
ATOM     27  C   UNL     1     184.785 180.238 164.908  1.00  0.00     0.278 C 
ENDBRANCH  10  26
TORSDOF 6
ENDMDL
MODEL 3
REMARK VINA RESULT:    -6.243      3.971      6.631
REMARK INTER + INTRA:          -9.144
REMARK INTER:                  -8.581
REMARK INTRA:                  -0.563
REMARK UNBOUND:                -0.712
REMARK SMILES COc1ccc(-c2cc(=O)c3c(OC)c(OC)c(OC)c(OC)c3o2)cc1
REMARK SMILES IDX 7 1 8 2 9 3 10 4 11 5 24 6 25 7 21 8 18 9 15 10 12 11 6 12
REMARK SMILES IDX 3 13 4 14 27 15 5 16 26 17 2 18 1 19 22 20 23 21 13 22 14 23
REMARK SMILES IDX 19 24 20 25 16 26 17 27
REMARK H PARENT
REMARK Flexibility Score: inf
ROOT
ATOM      1  C   UNL     1     176.638 180.982 174.206  1.00  0.00     0.138 A 
ATOM      2  C   UNL     1     176.150 181.782 173.164  1.00  0.00     0.100 A 
ATOM      3  C   UNL     1     176.519 181.494 171.850  1.00  0.00     0.197 A 
ATOM      4  O   UNL     1     176.069 182.224 170.926  1.00  0.00    -0.289 OA
ATOM      5  C   UNL     1     177.380 180.405 171.583  1.00  0.00     0.115 A 
ATOM      6  C   UNL     1     177.843 179.658 172.691  1.00  0.00     0.188 A 
ATOM      7  O   UNL     1     177.458 179.974 173.925  1.00  0.00    -0.452 OA
ATOM      8  C   UNL     1     178.719 178.583 172.519  1.00  0.00     0.209 A 
ATOM      9  C   UNL     1     179.155 178.243 171.220  1.00  0.00     0.211 A 
ATOM     10  C   UNL     1     178.624 178.915 170.096  1.00  0.00     0.208 A 
ATOM     11  C   UNL     1     177.778 180.039 170.274  1.00  0.00     0.179 A 
ENDROOT
BRANCH   1  12
ATOM     12  C   UNL     1     176.280 181.235 175.625  1.00  0.00     0.018 A 
ATOM     13  C   UNL     1     175.652 181.753 178.331  1.00  0.00     0.118 A 
ATOM     14  C   UNL     1     176.373 182.694 177.574  1.00  0.00     0.047 A 
ATOM     15  C   UNL     1     175.259 180.554 177.729  1.00  0.00     0.047 A 
ATOM     16  C   UNL     1     176.686 182.433 176.238  1.00  0.00     0.016 A 
ATOM     17  C   UNL     1     175.571 180.290 176.392  1.00  0.00     0.016 A 
BRANCH  13  18
ATOM     18  O   UNL     1     175.313 181.968 179.675  1.00  0.00    -0.497 OA
ATOM     19  C   UNL     1     174.150 182.665 180.110  1.00  0.00     0.278 C 
ENDBRANCH  13  18
ENDBRANCH   1  12
BRANCH   8  20
ATOM     20  O   UNL     1     179.129 177.904 173.684  1.00  0.00    -0.490 OA
ATOM     21  C   UNL     1     180.350 178.091 174.390  1.00  0.00     0.278 C 
ENDBRANCH   8  20
BRANCH  11  22
ATOM     22  O   UNL     1     177.298 180.808 169.193  1.00  0.00    -0.492 OA
ATOM     23  C   UNL     1     178.037 181.733 168.403  1.00  0.00     0.278 C 
ENDBRANCH  11  22
BRANCH   9  24
ATOM     24  O   UNL     1     180.134 177.263 171.046  1.00  0.00    -0.490 OA
ATOM     25  C   UNL     1     179.809 175.878 170.974  1.00  0.00     0.279 C 
ENDBRANCH   9  24
BRANCH  10  26
ATOM     26  O   UNL     1     178.917 178.464 168.804  1.00  0.00    -0.490 OA
ATOM     27  C   UNL     1     180.087 178.854 168.089  1.00  0.00     0.278 C 
ENDBRANCH  10  26
TORSDOF 6
ENDMDL
MODEL 4
REMARK VINA RESULT:    -6.210      4.092      7.424
REMARK INTER + INTRA:          -9.100
REMARK INTER:                  -8.420
REMARK INTRA:                  -0.680
REMARK UNBOUND:                -0.712
REMARK SMILES COc1ccc(-c2cc(=O)c3c(OC)c(OC)c(OC)c(OC)c3o2)cc1
REMARK SMILES IDX 7 1 8 2 9 3 10 4 11 5 24 6 25 7 21 8 18 9 15 10 12 11 6 12
REMARK SMILES IDX 3 13 4 14 27 15 5 16 26 17 2 18 1 19 22 20 23 21 13 22 14 23
REMARK SMILES IDX 19 24 20 25 16 26 17 27
REMARK H PARENT
REMARK Flexibility Score: inf
ROOT
ATOM      1  C   UNL     1     177.297 179.534 174.886  1.00  0.00     0.138 A 
ATOM      2  C   UNL     1     178.398 178.672 174.987  1.00  0.00     0.100 A 
ATOM      3  C   UNL     1     179.039 178.242 173.826  1.00  0.00     0.197 A 
ATOM      4  O   UNL     1     180.028 177.468 173.937  1.00  0.00    -0.289 OA
ATOM      5  C   UNL     1     178.574 178.674 172.563  1.00  0.00     0.115 A 
ATOM      6  C   UNL     1     177.447 179.528 172.546  1.00  0.00     0.188 A 
ATOM      7  O   UNL     1     176.874 179.911 173.684  1.00  0.00    -0.452 OA
ATOM      8  C   UNL     1     176.905 179.980 171.339  1.00  0.00     0.209 A 
ATOM      9  C   UNL     1     177.487 179.570 170.120  1.00  0.00     0.211 A 
ATOM     10  C   UNL     1     178.671 178.800 170.124  1.00  0.00     0.208 A 
ATOM     11  C   UNL     1     179.189 178.298 171.344  1.00  0.00     0.179 A 
ENDROOT
BRANCH   1  12
ATOM     12  C   UNL     1     176.574 180.030 176.084  1.00  0.00     0.018 A 
ATOM     13  C   UNL     1     175.156 180.923 178.360  1.00  0.00     0.118 A 
ATOM     14  C   UNL     1     175.200 179.554 178.040  1.00  0.00     0.047 A 
ATOM     15  C   UNL     1     175.815 181.836 177.532  1.00  0.00     0.047 A 
ATOM     16  C   UNL     1     175.898 179.115 176.912  1.00  0.00     0.016 A 
ATOM     17  C   UNL     1     176.514 181.400 176.402  1.00  0.00     0.016 A 
BRANCH  13  18
ATOM     18  O   UNL     1     174.470 181.412 179.481  1.00  0.00    -0.497 OA
ATOM     19  C   UNL     1     174.737 182.664 180.105  1.00  0.00     0.278 C 
ENDBRANCH  13  18
ENDBRANCH   1  12
BRANCH   8  20
ATOM     20  O   UNL     1     175.779 180.823 171.424  1.00  0.00    -0.490 OA
ATOM     21  C   UNL     1     175.788 182.245 171.492  1.00  0.00     0.278 C 
ENDBRANCH   8  20
BRANCH  11  22
ATOM     22  O   UNL     1     180.310 177.443 171.400  1.00  0.00    -0.492 OA
ATOM     23  C   UNL     1     180.406 176.119 170.887  1.00  0.00     0.278 C 
ENDBRANCH  11  22
BRANCH   9  24
ATOM     24  O   UNL     1     176.876 179.901 168.909  1.00  0.00    -0.490 OA
ATOM     25  C   UNL     1     177.197 181.095 168.203  1.00  0.00     0.279 C 
ENDBRANCH   9  24
BRANCH  10  26
ATOM     26  O   UNL     1     179.346 178.543 168.924  1.00  0.00    -0.490 OA
ATOM     27  C   UNL     1     180.457 179.314 168.474  1.00  0.00     0.278 C 
ENDBRANCH  10  26
TORSDOF 6
ENDMDL
MODEL 5
REMARK VINA RESULT:    -6.145      2.191      3.830
REMARK INTER + INTRA:          -9.012
REMARK INTER:                  -8.325
REMARK INTRA:                  -0.687
REMARK UNBOUND:                -0.712
REMARK SMILES COc1ccc(-c2cc(=O)c3c(OC)c(OC)c(OC)c(OC)c3o2)cc1
REMARK SMILES IDX 7 1 8 2 9 3 10 4 11 5 24 6 25 7 21 8 18 9 15 10 12 11 6 12
REMARK SMILES IDX 3 13 4 14 27 15 5 16 26 17 2 18 1 19 22 20 23 21 13 22 14 23
REMARK SMILES IDX 19 24 20 25 16 26 17 27
REMARK H PARENT
REMARK Flexibility Score: inf
ROOT
ATOM      1  C   UNL     1     180.441 181.133 168.232  1.00  0.00     0.138 A 
ATOM      2  C   UNL     1     181.605 180.727 168.900  1.00  0.00     0.100 A 
ATOM      3  C   UNL     1     182.803 180.633 168.194  1.00  0.00     0.197 A 
ATOM      4  O   UNL     1     183.839 180.268 168.812  1.00  0.00    -0.289 OA
ATOM      5  C   UNL     1     182.833 180.943 166.814  1.00  0.00     0.115 A 
ATOM      6  C   UNL     1     181.614 181.326 166.210  1.00  0.00     0.188 A 
ATOM      7  O   UNL     1     180.498 181.403 166.932  1.00  0.00    -0.452 OA
ATOM      8  C   UNL     1     181.549 181.623 164.846  1.00  0.00     0.209 A 
ATOM      9  C   UNL     1     182.717 181.530 164.058  1.00  0.00     0.211 A 
ATOM     10  C   UNL     1     183.960 181.246 164.666  1.00  0.00     0.208 A 
ATOM     11  C   UNL     1     184.017 180.893 166.038  1.00  0.00     0.179 A 
ENDROOT
BRANCH   1  12
ATOM     12  C   UNL     1     179.136 181.255 168.929  1.00  0.00     0.018 A 
ATOM     13  C   UNL     1     176.683 181.490 170.311  1.00  0.00     0.118 A 
ATOM     14  C   UNL     1     177.862 182.026 170.858  1.00  0.00     0.047 A 
ATOM     15  C   UNL     1     176.742 180.832 169.079  1.00  0.00     0.047 A 
ATOM     16  C   UNL     1     179.075 181.904 170.175  1.00  0.00     0.016 A 
ATOM     17  C   UNL     1     177.954 180.710 168.393  1.00  0.00     0.016 A 
BRANCH  13  18
ATOM     18  O   UNL     1     175.441 181.587 170.958  1.00  0.00    -0.497 OA
ATOM     19  C   UNL     1     175.027 182.701 171.741  1.00  0.00     0.278 C 
ENDBRANCH  13  18
ENDBRANCH   1  12
BRANCH   8  20
ATOM     20  O   UNL     1     180.288 181.991 164.334  1.00  0.00    -0.490 OA
ATOM     21  C   UNL     1     179.817 183.315 164.111  1.00  0.00     0.278 C 
ENDBRANCH   8  20
BRANCH  11  22
ATOM     22  O   UNL     1     185.214 180.504 166.675  1.00  0.00    -0.492 OA
ATOM     23  C   UNL     1     185.984 179.335 166.415  1.00  0.00     0.278 C 
ENDBRANCH  11  22
BRANCH   9  24
ATOM     24  O   UNL     1     182.640 181.689 162.673  1.00  0.00    -0.490 OA
ATOM     25  C   UNL     1     182.824 182.956 162.048  1.00  0.00     0.279 C 
ENDBRANCH   9  24
BRANCH  10  26
ATOM     26  O   UNL     1     185.142 181.328 163.920  1.00  0.00    -0.490 OA
ATOM     27  C   UNL     1     185.975 182.484 163.903  1.00  0.00     0.278 C 
ENDBRANCH  10  26
TORSDOF 6
ENDMDL
MODEL 6
REMARK VINA RESULT:    -6.104      2.091      2.518
REMARK INTER + INTRA:          -8.957
REMARK INTER:                  -8.339
REMARK INTRA:                  -0.618
REMARK UNBOUND:                -0.712
REMARK SMILES COc1ccc(-c2cc(=O)c3c(OC)c(OC)c(OC)c(OC)c3o2)cc1
REMARK SMILES IDX 7 1 8 2 9 3 10 4 11 5 24 6 25 7 21 8 18 9 15 10 12 11 6 12
REMARK SMILES IDX 3 13 4 14 27 15 5 16 26 17 2 18 1 19 22 20 23 21 13 22 14 23
REMARK SMILES IDX 19 24 20 25 16 26 17 27
REMARK H PARENT
REMARK Flexibility Score: inf
ROOT
ATOM      1  C   UNL     1     179.473 181.898 167.665  1.00  0.00     0.138 A 
ATOM      2  C   UNL     1     179.089 182.589 166.508  1.00  0.00     0.100 A 
ATOM      3  C   UNL     1     180.024 182.802 165.496  1.00  0.00     0.197 A 
ATOM      4  O   UNL     1     179.660 183.425 164.462  1.00  0.00    -0.289 OA
ATOM      5  C   UNL     1     181.346 182.324 165.647  1.00  0.00     0.115 A 
ATOM      6  C   UNL     1     181.659 181.653 166.851  1.00  0.00     0.188 A 
ATOM      7  O   UNL     1     180.727 181.474 167.784  1.00  0.00    -0.452 OA
ATOM      8  C   UNL     1     182.949 181.173 167.094  1.00  0.00     0.209 A 
ATOM      9  C   UNL     1     183.956 181.369 166.125  1.00  0.00     0.211 A 
ATOM     10  C   UNL     1     183.636 181.948 164.877  1.00  0.00     0.208 A 
ATOM     11  C   UNL     1     182.342 182.483 164.652  1.00  0.00     0.179 A 
ENDROOT
BRANCH   1  12
ATOM     12  C   UNL     1     178.524 181.637 168.777  1.00  0.00     0.018 A 
ATOM     13  C   UNL     1     176.767 181.135 170.933  1.00  0.00     0.118 A 
ATOM     14  C   UNL     1     178.015 181.743 171.157  1.00  0.00     0.047 A 
ATOM     15  C   UNL     1     176.411 180.774 169.630  1.00  0.00     0.047 A 
ATOM     16  C   UNL     1     178.884 181.986 170.090  1.00  0.00     0.016 A 
ATOM     17  C   UNL     1     177.278 181.016 168.560  1.00  0.00     0.016 A 
BRANCH  13  18
ATOM     18  O   UNL     1     175.861 180.871 171.970  1.00  0.00    -0.497 OA
ATOM     19  C   UNL     1     174.747 179.992 171.860  1.00  0.00     0.278 C 
ENDBRANCH  13  18
ENDBRANCH   1  12
BRANCH   8  20
ATOM     20  O   UNL     1     183.164 180.522 168.325  1.00  0.00    -0.490 OA
ATOM     21  C   UNL     1     183.126 179.119 168.561  1.00  0.00     0.278 C 
ENDBRANCH   8  20
BRANCH  11  22
ATOM     22  O   UNL     1     181.995 183.159 163.464  1.00  0.00    -0.492 OA
ATOM     23  C   UNL     1     181.885 182.602 162.159  1.00  0.00     0.278 C 
ENDBRANCH  11  22
BRANCH   9  24
ATOM     24  O   UNL     1     185.278 181.018 166.410  1.00  0.00    -0.490 OA
ATOM     25  C   UNL     1     185.803 179.735 166.087  1.00  0.00     0.279 C 
ENDBRANCH   9  24
BRANCH  10  26
ATOM     26  O   UNL     1     184.589 181.981 163.852  1.00  0.00    -0.490 OA
ATOM     27  C   UNL     1     185.511 183.054 163.679  1.00  0.00     0.278 C 
ENDBRANCH  10  26
TORSDOF 6
ENDMDL
MODEL 7
REMARK VINA RESULT:    -5.902      2.135      3.908
REMARK INTER + INTRA:          -8.683
REMARK INTER:                  -8.112
REMARK INTRA:                  -0.572
REMARK UNBOUND:                -0.712
REMARK SMILES COc1ccc(-c2cc(=O)c3c(OC)c(OC)c(OC)c(OC)c3o2)cc1
REMARK SMILES IDX 7 1 8 2 9 3 10 4 11 5 24 6 25 7 21 8 18 9 15 10 12 11 6 12
REMARK SMILES IDX 3 13 4 14 27 15 5 16 26 17 2 18 1 19 22 20 23 21 13 22 14 23
REMARK SMILES IDX 19 24 20 25 16 26 17 27
REMARK H PARENT
REMARK Flexibility Score: inf
ROOT
ATOM      1  C   UNL     1     179.692 180.949 169.762  1.00  0.00     0.138 A 
ATOM      2  C   UNL     1     180.564 180.001 170.314  1.00  0.00     0.100 A 
ATOM      3  C   UNL     1     181.785 179.748 169.690  1.00  0.00     0.197 A 
ATOM      4  O   UNL     1     182.556 178.892 170.203  1.00  0.00    -0.289 OA
ATOM      5  C   UNL     1     182.129 180.444 168.509  1.00  0.00     0.115 A 
ATOM      6  C   UNL     1     181.188 181.371 168.006  1.00  0.00     0.188 A 
ATOM      7  O   UNL     1     180.038 181.578 168.642  1.00  0.00    -0.452 OA
ATOM      8  C   UNL     1     181.437 182.082 166.828  1.00  0.00     0.209 A 
ATOM      9  C   UNL     1     182.643 181.864 166.128  1.00  0.00     0.211 A 
ATOM     10  C   UNL     1     183.635 181.017 166.670  1.00  0.00     0.208 A 
ATOM     11  C   UNL     1     183.361 180.256 167.835  1.00  0.00     0.179 A 
ENDROOT
BRANCH   1  12
ATOM     12  C   UNL     1     178.380 181.266 170.380  1.00  0.00     0.018 A 
ATOM     13  C   UNL     1     175.898 181.832 171.607  1.00  0.00     0.118 A 
ATOM     14  C   UNL     1     177.023 181.515 172.389  1.00  0.00     0.047 A 
ATOM     15  C   UNL     1     176.022 181.854 170.214  1.00  0.00     0.047 A 
ATOM     16  C   UNL     1     178.248 181.231 171.780  1.00  0.00     0.016 A 
ATOM     17  C   UNL     1     177.247 181.571 169.602  1.00  0.00     0.016 A 
BRANCH  13  18
ATOM     18  O   UNL     1     174.647 182.124 172.171  1.00  0.00    -0.497 OA
ATOM     19  C   UNL     1     173.909 183.315 171.917  1.00  0.00     0.278 C 
ENDBRANCH  13  18
ENDBRANCH   1  12
BRANCH   8  20
ATOM     20  O   UNL     1     180.437 182.979 166.404  1.00  0.00    -0.490 OA
ATOM     21  C   UNL     1     179.482 182.759 165.372  1.00  0.00     0.278 C 
ENDBRANCH   8  20
BRANCH  11  22
ATOM     22  O   UNL     1     184.275 179.321 168.365  1.00  0.00    -0.492 OA
ATOM     23  C   UNL     1     184.593 178.038 167.838  1.00  0.00     0.278 C 
ENDBRANCH  11  22
BRANCH   9  24
ATOM     24  O   UNL     1     182.845 182.463 164.882  1.00  0.00    -0.490 OA
ATOM     25  C   UNL     1     183.477 183.732 164.749  1.00  0.00     0.279 C 
ENDBRANCH   9  24
BRANCH  10  26
ATOM     26  O   UNL     1     184.897 180.938 166.070  1.00  0.00    -0.490 OA
ATOM     27  C   UNL     1     185.174 180.112 164.943  1.00  0.00     0.278 C 
ENDBRANCH  10  26
TORSDOF 6
ENDMDL
MODEL 8
REMARK VINA RESULT:    -5.874      3.022      8.081
REMARK INTER + INTRA:          -8.647
REMARK INTER:                  -7.949
REMARK INTRA:                  -0.698
REMARK UNBOUND:                -0.712
REMARK SMILES COc1ccc(-c2cc(=O)c3c(OC)c(OC)c(OC)c(OC)c3o2)cc1
REMARK SMILES IDX 7 1 8 2 9 3 10 4 11 5 24 6 25 7 21 8 18 9 15 10 12 11 6 12
REMARK SMILES IDX 3 13 4 14 27 15 5 16 26 17 2 18 1 19 22 20 23 21 13 22 14 23
REMARK SMILES IDX 19 24 20 25 16 26 17 27
REMARK H PARENT
REMARK Flexibility Score: inf
ROOT
ATOM      1  C   UNL     1     178.819 181.542 169.464  1.00  0.00     0.138 A 
ATOM      2  C   UNL     1     177.662 182.241 169.834  1.00  0.00     0.100 A 
ATOM      3  C   UNL     1     177.033 181.933 171.040  1.00  0.00     0.197 A 
ATOM      4  O   UNL     1     175.994 182.573 171.357  1.00  0.00    -0.289 OA
ATOM      5  C   UNL     1     177.563 180.921 171.873  1.00  0.00     0.115 A 
ATOM      6  C   UNL     1     178.723 180.251 171.420  1.00  0.00     0.188 A 
ATOM      7  O   UNL     1     179.286 180.586 170.262  1.00  0.00    -0.452 OA
ATOM      8  C   UNL     1     179.297 179.219 172.168  1.00  0.00     0.209 A 
ATOM      9  C   UNL     1     178.704 178.836 173.391  1.00  0.00     0.211 A 
ATOM     10  C   UNL     1     177.606 179.562 173.904  1.00  0.00     0.208 A 
ATOM     11  C   UNL     1     176.992 180.572 173.121  1.00  0.00     0.179 A 
ENDROOT
BRANCH   1  12
ATOM     12  C   UNL     1     179.537 181.825 168.195  1.00  0.00     0.018 A 
ATOM     13  C   UNL     1     180.957 182.372 165.814  1.00  0.00     0.118 A 
ATOM     14  C   UNL     1     181.623 181.845 166.935  1.00  0.00     0.047 A 
ATOM     15  C   UNL     1     179.585 182.630 165.897  1.00  0.00     0.047 A 
ATOM     16  C   UNL     1     180.919 181.580 168.113  1.00  0.00     0.016 A 
ATOM     17  C   UNL     1     178.878 182.365 167.074  1.00  0.00     0.016 A 
BRANCH  13  18
ATOM     18  O   UNL     1     181.618 182.655 164.610  1.00  0.00    -0.497 OA
ATOM     19  C   UNL     1     183.011 182.460 164.393  1.00  0.00     0.278 C 
ENDBRANCH  13  18
ENDBRANCH   1  12
BRANCH   8  20
ATOM     20  O   UNL     1     180.447 178.609 171.631  1.00  0.00    -0.490 OA
ATOM     21  C   UNL     1     180.487 177.442 170.817  1.00  0.00     0.278 C 
ENDBRANCH   8  20
BRANCH  11  22
ATOM     22  O   UNL     1     175.834 181.261 173.540  1.00  0.00    -0.492 OA
ATOM     23  C   UNL     1     174.520 180.731 173.668  1.00  0.00     0.278 C 
ENDBRANCH  11  22
BRANCH   9  24
ATOM     24  O   UNL     1     179.184 177.720 174.080  1.00  0.00    -0.490 OA
ATOM     25  C   UNL     1     180.237 177.818 175.034  1.00  0.00     0.279 C 
ENDBRANCH   9  24
BRANCH  10  26
ATOM     26  O   UNL     1     177.131 179.298 175.194  1.00  0.00    -0.490 OA
ATOM     27  C   UNL     1     177.512 180.060 176.337  1.00  0.00     0.278 C 
ENDBRANCH  10  26
TORSDOF 6
ENDMDL
MODEL 9
REMARK VINA RESULT:    -5.822      4.613      9.450
REMARK INTER + INTRA:          -8.575
REMARK INTER:                  -7.982
REMARK INTRA:                  -0.594
REMARK UNBOUND:                -0.712
REMARK SMILES COc1ccc(-c2cc(=O)c3c(OC)c(OC)c(OC)c(OC)c3o2)cc1
REMARK SMILES IDX 7 1 8 2 9 3 10 4 11 5 24 6 25 7 21 8 18 9 15 10 12 11 6 12
REMARK SMILES IDX 3 13 4 14 27 15 5 16 26 17 2 18 1 19 22 20 23 21 13 22 14 23
REMARK SMILES IDX 19 24 20 25 16 26 17 27
REMARK H PARENT
REMARK Flexibility Score: inf
ROOT
ATOM      1  C   UNL     1     177.339 180.430 172.318  1.00  0.00     0.138 A 
ATOM      2  C   UNL     1     176.176 180.855 172.974  1.00  0.00     0.100 A 
ATOM      3  C   UNL     1     175.912 180.399 174.265  1.00  0.00     0.197 A 
ATOM      4  O   UNL     1     174.861 180.793 174.840  1.00  0.00    -0.289 OA
ATOM      5  C   UNL     1     176.815 179.512 174.896  1.00  0.00     0.115 A 
ATOM      6  C   UNL     1     177.955 179.116 174.161  1.00  0.00     0.188 A 
ATOM      7  O   UNL     1     178.161 179.585 172.932  1.00  0.00    -0.452 OA
ATOM      8  C   UNL     1     178.884 178.221 174.699  1.00  0.00     0.209 A 
ATOM      9  C   UNL     1     178.675 177.698 175.993  1.00  0.00     0.211 A 
ATOM     10  C   UNL     1     177.595 178.160 176.778  1.00  0.00     0.208 A 
ATOM     11  C   UNL     1     176.625 179.026 176.214  1.00  0.00     0.179 A 
ENDROOT
BRANCH   1  12
ATOM     12  C   UNL     1     177.678 180.883 170.945  1.00  0.00     0.018 A 
ATOM     13  C   UNL     1     178.356 181.792 168.357  1.00  0.00     0.118 A 
ATOM     14  C   UNL     1     179.216 182.031 169.445  1.00  0.00     0.047 A 
ATOM     15  C   UNL     1     177.158 181.107 168.576  1.00  0.00     0.047 A 
ATOM     16  C   UNL     1     178.876 181.584 170.724  1.00  0.00     0.016 A 
ATOM     17  C   UNL     1     176.815 180.659 169.855  1.00  0.00     0.016 A 
BRANCH  13  18
ATOM     18  O   UNL     1     178.653 182.220 167.055  1.00  0.00    -0.497 OA
ATOM     19  C   UNL     1     179.886 181.970 166.388  1.00  0.00     0.278 C 
ENDBRANCH  13  18
ENDBRANCH   1  12
BRANCH   8  20
ATOM     20  O   UNL     1     179.985 177.884 173.887  1.00  0.00    -0.490 OA
ATOM     21  C   UNL     1     180.104 176.737 173.052  1.00  0.00     0.278 C 
ENDBRANCH   8  20
BRANCH  11  22
ATOM     22  O   UNL     1     175.474 179.440 176.917  1.00  0.00    -0.492 OA
ATOM     23  C   UNL     1     175.413 180.374 177.989  1.00  0.00     0.278 C 
ENDBRANCH  11  22
BRANCH   9  24
ATOM     24  O   UNL     1     179.518 176.701 176.488  1.00  0.00    -0.490 OA
ATOM     25  C   UNL     1     179.193 175.319 176.385  1.00  0.00     0.279 C 
ENDBRANCH   9  24
BRANCH  10  26
ATOM     26  O   UNL     1     177.488 177.778 178.120  1.00  0.00    -0.490 OA
ATOM     27  C   UNL     1     178.234 178.392 179.168  1.00  0.00     0.278 C 
ENDBRANCH  10  26
TORSDOF 6
ENDMDL
