MODEL 1
REMARK VINA RESULT:    -3.860      0.000      0.000
REMARK INTER + INTRA:          -5.002
REMARK INTER:                  -4.650
REMARK INTRA:                  -0.352
REMARK UNBOUND:                -0.352
REMARK SMILES Oc1cc(O)c2cc(O)c(-c3ccc(O)c(O)c3)[o+]c2c1
REMARK SMILES IDX 10 1 19 2 20 3 21 4 2 5 3 6 4 7 6 8 7 9 8 10 11 11 12 12
REMARK SMILES IDX 13 13 14 14 18 15 16 16 15 17 17 19 9 21 1 23 5 25
REMARK H PARENT 15 18 17 20 9 22 1 24 5 26
REMARK Flexibility Score: inf
ROOT
ATOM      1  C   UNL     1    -100.590  24.197 -29.129  1.00  0.00     0.402 A 
ATOM      2  O   UNL     1    -101.189  24.793 -28.100  1.00  0.00    -0.202 OA
ATOM      3  C   UNL     1    -102.449  25.215 -28.134  1.00  0.00     0.368 A 
ATOM      4  C   UNL     1    -102.989  25.833 -27.003  1.00  0.00     0.162 A 
ATOM      5  C   UNL     1    -104.311  26.290 -27.012  1.00  0.00     0.128 A 
ATOM      6  C   UNL     1    -105.094  26.130 -28.159  1.00  0.00     0.093 A 
ATOM      7  C   UNL     1    -104.574  25.515 -29.304  1.00  0.00     0.136 A 
ATOM      8  C   UNL     1    -103.235  25.047 -29.299  1.00  0.00     0.125 A 
ATOM      9  C   UNL     1    -102.635  24.407 -30.397  1.00  0.00     0.078 A 
ATOM     10  C   UNL     1    -101.311  23.968 -30.315  1.00  0.00     0.223 A 
ENDROOT
BRANCH   1  11
ATOM     11  C   UNL     1     -99.178  23.779 -28.971  1.00  0.00     0.087 A 
ATOM     12  C   UNL     1     -98.119  24.612 -29.371  1.00  0.00     0.022 A 
ATOM     13  C   UNL     1     -96.794  24.206 -29.190  1.00  0.00     0.051 A 
ATOM     14  C   UNL     1     -96.509  22.970 -28.595  1.00  0.00     0.157 A 
ATOM     15  C   UNL     1     -98.886  22.550 -28.356  1.00  0.00     0.068 A 
ATOM     16  C   UNL     1     -97.557  22.142 -28.175  1.00  0.00     0.158 A 
BRANCH  14  17
ATOM     17  O   UNL     1     -95.189  22.561 -28.415  1.00  0.00    -0.504 OA
ATOM     18  H   UNL     1     -94.526  22.554 -29.182  1.00  0.00     0.293 HD
ENDBRANCH  14  17
BRANCH  16  19
ATOM     19  O   UNL     1     -97.271  20.915 -27.577  1.00  0.00    -0.504 OA
ATOM     20  H   UNL     1     -96.610  20.839 -26.814  1.00  0.00     0.293 HD
ENDBRANCH  16  19
ENDBRANCH   1  11
BRANCH  10  21
ATOM     21  O   UNL     1    -100.732  23.289 -31.387  1.00  0.00    -0.500 OA
ATOM     22  H   UNL     1     -99.760  23.003 -31.374  1.00  0.00     0.294 HD
ENDBRANCH  10  21
BRANCH   5  23
ATOM     23  O   UNL     1    -104.856  26.905 -25.889  1.00  0.00    -0.507 OA
ATOM     24  H   UNL     1    -105.782  27.318 -25.906  1.00  0.00     0.293 HD
ENDBRANCH   5  23
BRANCH   7  25
ATOM     25  O   UNL     1    -105.421  25.397 -30.410  1.00  0.00    -0.507 OA
ATOM     26  H   UNL     1    -106.083  24.646 -30.545  1.00  0.00     0.293 HD
ENDBRANCH   7  25
TORSDOF 6
ENDMDL
MODEL 2
REMARK VINA RESULT:    -3.711      1.321      3.019
REMARK INTER + INTRA:          -4.822
REMARK INTER:                  -4.473
REMARK INTRA:                  -0.349
REMARK UNBOUND:                -0.352
REMARK SMILES Oc1cc(O)c2cc(O)c(-c3ccc(O)c(O)c3)[o+]c2c1
REMARK SMILES IDX 10 1 19 2 20 3 21 4 2 5 3 6 4 7 6 8 7 9 8 10 11 11 12 12
REMARK SMILES IDX 13 13 14 14 18 15 16 16 15 17 17 19 9 21 1 23 5 25
REMARK H PARENT 15 18 17 20 9 22 1 24 5 26
REMARK Flexibility Score: inf
ROOT
ATOM      1  C   UNL     1    -100.702  24.011 -29.259  1.00  0.00     0.402 A 
ATOM      2  O   UNL     1    -101.312  23.630 -30.379  1.00  0.00    -0.202 OA
ATOM      3  C   UNL     1    -102.585  23.901 -30.645  1.00  0.00     0.368 A 
ATOM      4  C   UNL     1    -103.138  23.456 -31.848  1.00  0.00     0.162 A 
ATOM      5  C   UNL     1    -104.477  23.725 -32.152  1.00  0.00     0.128 A 
ATOM      6  C   UNL     1    -105.265  24.441 -31.246  1.00  0.00     0.093 A 
ATOM      7  C   UNL     1    -104.733  24.897 -30.034  1.00  0.00     0.136 A 
ATOM      8  C   UNL     1    -103.376  24.630 -29.723  1.00  0.00     0.125 A 
ATOM      9  C   UNL     1    -102.755  25.059 -28.538  1.00  0.00     0.078 A 
ATOM     10  C   UNL     1    -101.410  24.761 -28.303  1.00  0.00     0.223 A 
ENDROOT
BRANCH   1  11
ATOM     11  C   UNL     1     -99.280  23.639 -29.075  1.00  0.00     0.087 A 
ATOM     12  C   UNL     1     -98.241  24.481 -29.509  1.00  0.00     0.022 A 
ATOM     13  C   UNL     1     -96.907  24.120 -29.303  1.00  0.00     0.051 A 
ATOM     14  C   UNL     1     -96.592  22.920 -28.650  1.00  0.00     0.157 A 
ATOM     15  C   UNL     1     -98.958  22.448 -28.403  1.00  0.00     0.068 A 
ATOM     16  C   UNL     1     -97.620  22.085 -28.197  1.00  0.00     0.158 A 
BRANCH  14  17
ATOM     17  O   UNL     1     -95.263  22.556 -28.445  1.00  0.00    -0.504 OA
ATOM     18  H   UNL     1     -94.944  22.193 -27.553  1.00  0.00     0.293 HD
ENDBRANCH  14  17
BRANCH  16  19
ATOM     19  O   UNL     1     -97.305  20.896 -27.541  1.00  0.00    -0.504 OA
ATOM     20  H   UNL     1     -96.953  20.091 -28.044  1.00  0.00     0.293 HD
ENDBRANCH  16  19
ENDBRANCH   1  11
BRANCH  10  21
ATOM     21  O   UNL     1    -100.781  25.230 -27.149  1.00  0.00    -0.500 OA
ATOM     22  H   UNL     1    -101.310  25.562 -26.351  1.00  0.00     0.294 HD
ENDBRANCH  10  21
BRANCH   5  23
ATOM     23  O   UNL     1    -105.034  23.285 -33.349  1.00  0.00    -0.507 OA
ATOM     24  H   UNL     1    -105.845  22.676 -33.365  1.00  0.00     0.293 HD
ENDBRANCH   5  23
BRANCH   7  25
ATOM     25  O   UNL     1    -105.588  25.602 -29.182  1.00  0.00    -0.507 OA
ATOM     26  H   UNL     1    -105.992  25.224 -28.338  1.00  0.00     0.293 HD
ENDBRANCH   7  25
TORSDOF 6
ENDMDL
MODEL 3
REMARK VINA RESULT:    -3.709      2.744      3.674
REMARK INTER + INTRA:          -4.820
REMARK INTER:                  -4.468
REMARK INTRA:                  -0.352
REMARK UNBOUND:                -0.352
REMARK SMILES Oc1cc(O)c2cc(O)c(-c3ccc(O)c(O)c3)[o+]c2c1
REMARK SMILES IDX 10 1 19 2 20 3 21 4 2 5 3 6 4 7 6 8 7 9 8 10 11 11 12 12
REMARK SMILES IDX 13 13 14 14 18 15 16 16 15 17 17 19 9 21 1 23 5 25
REMARK H PARENT 15 18 17 20 9 22 1 24 5 26
REMARK Flexibility Score: inf
ROOT
ATOM      1  C   UNL     1     -98.363  24.852 -28.352  1.00  0.00     0.402 A 
ATOM      2  O   UNL     1     -98.166  25.865 -27.511  1.00  0.00    -0.202 OA
ATOM      3  C   UNL     1     -99.128  26.379 -26.752  1.00  0.00     0.368 A 
ATOM      4  C   UNL     1     -98.825  27.446 -25.901  1.00  0.00     0.162 A 
ATOM      5  C   UNL     1     -99.818  28.009 -25.093  1.00  0.00     0.128 A 
ATOM      6  C   UNL     1    -101.120  27.503 -25.139  1.00  0.00     0.093 A 
ATOM      7  C   UNL     1    -101.449  26.435 -25.983  1.00  0.00     0.136 A 
ATOM      8  C   UNL     1    -100.444  25.859 -26.802  1.00  0.00     0.125 A 
ATOM      9  C   UNL     1    -100.679  24.779 -27.669  1.00  0.00     0.078 A 
ATOM     10  C   UNL     1     -99.636  24.261 -28.443  1.00  0.00     0.223 A 
ENDROOT
BRANCH   1  11
ATOM     11  C   UNL     1     -97.212  24.373 -29.151  1.00  0.00     0.087 A 
ATOM     12  C   UNL     1     -96.970  24.856 -30.449  1.00  0.00     0.022 A 
ATOM     13  C   UNL     1     -95.864  24.407 -31.176  1.00  0.00     0.051 A 
ATOM     14  C   UNL     1     -94.978  23.480 -30.612  1.00  0.00     0.157 A 
ATOM     15  C   UNL     1     -96.308  23.459 -28.584  1.00  0.00     0.068 A 
ATOM     16  C   UNL     1     -95.199  23.008 -29.313  1.00  0.00     0.158 A 
BRANCH  14  17
ATOM     17  O   UNL     1     -93.875  23.028 -31.334  1.00  0.00    -0.504 OA
ATOM     18  H   UNL     1     -93.698  22.039 -31.469  1.00  0.00     0.293 HD
ENDBRANCH  14  17
BRANCH  16  19
ATOM     19  O   UNL     1     -94.312  22.090 -28.751  1.00  0.00    -0.504 OA
ATOM     20  H   UNL     1     -94.428  21.093 -28.882  1.00  0.00     0.293 HD
ENDBRANCH  16  19
ENDBRANCH   1  11
BRANCH  10  21
ATOM     21  O   UNL     1     -99.858  23.157 -29.266  1.00  0.00    -0.500 OA
ATOM     22  H   UNL     1    -100.635  23.124 -29.916  1.00  0.00     0.294 HD
ENDBRANCH  10  21
BRANCH   5  23
ATOM     23  O   UNL     1     -99.523  29.070 -24.242  1.00  0.00    -0.507 OA
ATOM     24  H   UNL     1     -98.568  29.359 -24.065  1.00  0.00     0.293 HD
ENDBRANCH   5  23
BRANCH   7  25
ATOM     25  O   UNL     1    -102.774  25.992 -25.972  1.00  0.00    -0.507 OA
ATOM     26  H   UNL     1    -103.579  26.596 -26.051  1.00  0.00     0.293 HD
ENDBRANCH   7  25
TORSDOF 6
ENDMDL
MODEL 4
REMARK VINA RESULT:    -3.643     11.875     13.577
REMARK INTER + INTRA:          -4.740
REMARK INTER:                  -4.422
REMARK INTRA:                  -0.318
REMARK UNBOUND:                -0.352
REMARK SMILES Oc1cc(O)c2cc(O)c(-c3ccc(O)c(O)c3)[o+]c2c1
REMARK SMILES IDX 10 1 19 2 20 3 21 4 2 5 3 6 4 7 6 8 7 9 8 10 11 11 12 12
REMARK SMILES IDX 13 13 14 14 18 15 16 16 15 17 17 19 9 21 1 23 5 25
REMARK H PARENT 15 18 17 20 9 22 1 24 5 26
REMARK Flexibility Score: inf
ROOT
ATOM      1  C   UNL     1     -96.481  24.122 -41.027  1.00  0.00     0.402 A 
ATOM      2  O   UNL     1     -95.734  25.223 -40.990  1.00  0.00    -0.202 OA
ATOM      3  C   UNL     1     -96.064  26.306 -40.295  1.00  0.00     0.368 A 
ATOM      4  C   UNL     1     -95.216  27.416 -40.321  1.00  0.00     0.162 A 
ATOM      5  C   UNL     1     -95.540  28.570 -39.601  1.00  0.00     0.128 A 
ATOM      6  C   UNL     1     -96.720  28.614 -38.853  1.00  0.00     0.093 A 
ATOM      7  C   UNL     1     -97.587  27.515 -38.811  1.00  0.00     0.136 A 
ATOM      8  C   UNL     1     -97.260  26.341 -39.537  1.00  0.00     0.125 A 
ATOM      9  C   UNL     1     -98.063  25.188 -39.544  1.00  0.00     0.078 A 
ATOM     10  C   UNL     1     -97.672  24.066 -40.281  1.00  0.00     0.223 A 
ENDROOT
BRANCH   1  11
ATOM     11  C   UNL     1     -96.010  22.983 -41.847  1.00  0.00     0.087 A 
ATOM     12  C   UNL     1     -96.175  22.968 -43.243  1.00  0.00     0.022 A 
ATOM     13  C   UNL     1     -95.700  21.893 -43.999  1.00  0.00     0.051 A 
ATOM     14  C   UNL     1     -95.044  20.825 -43.374  1.00  0.00     0.157 A 
ATOM     15  C   UNL     1     -95.331  21.920 -41.228  1.00  0.00     0.068 A 
ATOM     16  C   UNL     1     -94.856  20.840 -41.987  1.00  0.00     0.158 A 
BRANCH  14  17
ATOM     17  O   UNL     1     -94.571  19.750 -44.125  1.00  0.00    -0.504 OA
ATOM     18  H   UNL     1     -95.120  18.907 -44.248  1.00  0.00     0.293 HD
ENDBRANCH  14  17
BRANCH  16  19
ATOM     19  O   UNL     1     -94.196  19.780 -41.367  1.00  0.00    -0.504 OA
ATOM     20  H   UNL     1     -93.747  19.049 -41.905  1.00  0.00     0.293 HD
ENDBRANCH  16  19
ENDBRANCH   1  11
BRANCH  10  21
ATOM     21  O   UNL     1     -98.444  22.904 -40.247  1.00  0.00    -0.500 OA
ATOM     22  H   UNL     1     -99.353  22.854 -40.692  1.00  0.00     0.294 HD
ENDBRANCH  10  21
BRANCH   5  23
ATOM     23  O   UNL     1     -94.699  29.679 -39.622  1.00  0.00    -0.507 OA
ATOM     24  H   UNL     1     -93.804  29.658 -40.098  1.00  0.00     0.293 HD
ENDBRANCH   5  23
BRANCH   7  25
ATOM     25  O   UNL     1     -98.747  27.640 -38.043  1.00  0.00    -0.507 OA
ATOM     26  H   UNL     1     -99.644  27.250 -38.294  1.00  0.00     0.293 HD
ENDBRANCH   7  25
TORSDOF 6
ENDMDL
MODEL 5
REMARK VINA RESULT:    -3.631      3.017      7.291
REMARK INTER + INTRA:          -4.726
REMARK INTER:                  -4.373
REMARK INTRA:                  -0.353
REMARK UNBOUND:                -0.352
REMARK SMILES Oc1cc(O)c2cc(O)c(-c3ccc(O)c(O)c3)[o+]c2c1
REMARK SMILES IDX 10 1 19 2 20 3 21 4 2 5 3 6 4 7 6 8 7 9 8 10 11 11 12 12
REMARK SMILES IDX 13 13 14 14 18 15 16 16 15 17 17 19 9 21 1 23 5 25
REMARK H PARENT 15 18 17 20 9 22 1 24 5 26
REMARK Flexibility Score: inf
ROOT
ATOM      1  C   UNL     1     -98.551  25.426 -28.384  1.00  0.00     0.402 A 
ATOM      2  O   UNL     1     -97.653  24.502 -28.048  1.00  0.00    -0.202 OA
ATOM      3  C   UNL     1     -96.688  24.092 -28.865  1.00  0.00     0.368 A 
ATOM      4  C   UNL     1     -95.794  23.114 -28.422  1.00  0.00     0.162 A 
ATOM      5  C   UNL     1     -94.770  22.661 -29.261  1.00  0.00     0.128 A 
ATOM      6  C   UNL     1     -94.643  23.190 -30.549  1.00  0.00     0.093 A 
ATOM      7  C   UNL     1     -95.527  24.170 -31.015  1.00  0.00     0.136 A 
ATOM      8  C   UNL     1     -96.565  24.634 -30.167  1.00  0.00     0.125 A 
ATOM      9  C   UNL     1     -97.489  25.622 -30.545  1.00  0.00     0.078 A 
ATOM     10  C   UNL     1     -98.482  26.033 -29.651  1.00  0.00     0.223 A 
ENDROOT
BRANCH   1  11
ATOM     11  C   UNL     1     -99.585  25.792 -27.389  1.00  0.00     0.087 A 
ATOM     12  C   UNL     1    -100.832  25.143 -27.356  1.00  0.00     0.022 A 
ATOM     13  C   UNL     1    -101.782  25.489 -26.392  1.00  0.00     0.051 A 
ATOM     14  C   UNL     1    -101.497  26.478 -25.441  1.00  0.00     0.157 A 
ATOM     15  C   UNL     1     -99.297  26.767 -26.420  1.00  0.00     0.068 A 
ATOM     16  C   UNL     1    -100.251  27.116 -25.454  1.00  0.00     0.158 A 
BRANCH  14  17
ATOM     17  O   UNL     1    -102.444  26.827 -24.480  1.00  0.00    -0.504 OA
ATOM     18  H   UNL     1    -102.690  27.795 -24.305  1.00  0.00     0.293 HD
ENDBRANCH  14  17
BRANCH  16  19
ATOM     19  O   UNL     1     -99.967  28.095 -24.503  1.00  0.00    -0.504 OA
ATOM     20  H   UNL     1     -99.818  29.061 -24.765  1.00  0.00     0.293 HD
ENDBRANCH  16  19
ENDBRANCH   1  11
BRANCH  10  21
ATOM     21  O   UNL     1     -99.368  27.050 -30.009  1.00  0.00    -0.500 OA
ATOM     22  H   UNL     1     -99.464  27.892 -29.454  1.00  0.00     0.294 HD
ENDBRANCH  10  21
BRANCH   5  23
ATOM     23  O   UNL     1     -93.875  21.688 -28.827  1.00  0.00    -0.507 OA
ATOM     24  H   UNL     1     -93.056  21.926 -28.280  1.00  0.00     0.293 HD
ENDBRANCH   5  23
BRANCH   7  25
ATOM     25  O   UNL     1     -95.335  24.643 -32.316  1.00  0.00    -0.507 OA
ATOM     26  H   UNL     1     -95.282  24.055 -33.136  1.00  0.00     0.293 HD
ENDBRANCH   7  25
TORSDOF 6
ENDMDL
MODEL 6
REMARK VINA RESULT:    -3.610      9.495     11.481
REMARK INTER + INTRA:          -4.700
REMARK INTER:                  -4.547
REMARK INTRA:                  -0.154
REMARK UNBOUND:                -0.352
REMARK SMILES Oc1cc(O)c2cc(O)c(-c3ccc(O)c(O)c3)[o+]c2c1
REMARK SMILES IDX 10 1 19 2 20 3 21 4 2 5 3 6 4 7 6 8 7 9 8 10 11 11 12 12
REMARK SMILES IDX 13 13 14 14 18 15 16 16 15 17 17 19 9 21 1 23 5 25
REMARK H PARENT 15 18 17 20 9 22 1 24 5 26
REMARK Flexibility Score: inf
ROOT
ATOM      1  C   UNL     1     -95.797  24.076 -37.668  1.00  0.00     0.402 A 
ATOM      2  O   UNL     1     -95.151  23.799 -36.537  1.00  0.00    -0.202 OA
ATOM      3  C   UNL     1     -95.237  22.627 -35.917  1.00  0.00     0.368 A 
ATOM      4  C   UNL     1     -94.522  22.431 -34.732  1.00  0.00     0.162 A 
ATOM      5  C   UNL     1     -94.597  21.209 -34.056  1.00  0.00     0.128 A 
ATOM      6  C   UNL     1     -95.391  20.180 -34.568  1.00  0.00     0.093 A 
ATOM      7  C   UNL     1     -96.117  20.352 -35.753  1.00  0.00     0.136 A 
ATOM      8  C   UNL     1     -96.043  21.589 -36.443  1.00  0.00     0.125 A 
ATOM      9  C   UNL     1     -96.725  21.846 -37.644  1.00  0.00     0.078 A 
ATOM     10  C   UNL     1     -96.598  23.089 -38.270  1.00  0.00     0.223 A 
ENDROOT
BRANCH   1  11
ATOM     11  C   UNL     1     -95.627  25.423 -38.259  1.00  0.00     0.087 A 
ATOM     12  C   UNL     1     -94.371  25.878 -38.696  1.00  0.00     0.022 A 
ATOM     13  C   UNL     1     -94.240  27.144 -39.273  1.00  0.00     0.051 A 
ATOM     14  C   UNL     1     -95.362  27.968 -39.431  1.00  0.00     0.157 A 
ATOM     15  C   UNL     1     -96.752  26.245 -38.440  1.00  0.00     0.068 A 
ATOM     16  C   UNL     1     -96.621  27.517 -39.018  1.00  0.00     0.158 A 
BRANCH  14  17
ATOM     17  O   UNL     1     -95.234  29.232 -40.004  1.00  0.00    -0.504 OA
ATOM     18  H   UNL     1     -94.561  29.907 -39.656  1.00  0.00     0.293 HD
ENDBRANCH  14  17
BRANCH  16  19
ATOM     19  O   UNL     1     -97.737  28.335 -39.183  1.00  0.00    -0.504 OA
ATOM     20  H   UNL     1     -98.465  28.109 -39.849  1.00  0.00     0.293 HD
ENDBRANCH  16  19
ENDBRANCH   1  11
BRANCH  10  21
ATOM     21  O   UNL     1     -97.237  23.327 -39.488  1.00  0.00    -0.500 OA
ATOM     22  H   UNL     1     -96.769  23.804 -40.250  1.00  0.00     0.294 HD
ENDBRANCH  10  21
BRANCH   5  23
ATOM     23  O   UNL     1     -93.887  21.007 -32.876  1.00  0.00    -0.507 OA
ATOM     24  H   UNL     1     -93.813  20.089 -32.451  1.00  0.00     0.293 HD
ENDBRANCH   5  23
BRANCH   7  25
ATOM     25  O   UNL     1     -96.891  19.275 -36.195  1.00  0.00    -0.507 OA
ATOM     26  H   UNL     1     -97.312  19.212 -37.111  1.00  0.00     0.293 HD
ENDBRANCH   7  25
TORSDOF 6
ENDMDL
MODEL 7
REMARK VINA RESULT:    -3.599      9.515     12.542
REMARK INTER + INTRA:          -4.687
REMARK INTER:                  -4.394
REMARK INTRA:                  -0.293
REMARK UNBOUND:                -0.352
REMARK SMILES Oc1cc(O)c2cc(O)c(-c3ccc(O)c(O)c3)[o+]c2c1
REMARK SMILES IDX 10 1 19 2 20 3 21 4 2 5 3 6 4 7 6 8 7 9 8 10 11 11 12 12
REMARK SMILES IDX 13 13 14 14 18 15 16 16 15 17 17 19 9 21 1 23 5 25
REMARK H PARENT 15 18 17 20 9 22 1 24 5 26
REMARK Flexibility Score: inf
ROOT
ATOM      1  C   UNL     1    -100.167  27.372 -38.854  1.00  0.00     0.402 A 
ATOM      2  O   UNL     1     -98.948  27.900 -38.776  1.00  0.00    -0.202 OA
ATOM      3  C   UNL     1     -97.854  27.272 -39.193  1.00  0.00     0.368 A 
ATOM      4  C   UNL     1     -96.615  27.907 -39.066  1.00  0.00     0.162 A 
ATOM      5  C   UNL     1     -95.447  27.268 -39.494  1.00  0.00     0.128 A 
ATOM      6  C   UNL     1     -95.519  25.988 -40.050  1.00  0.00     0.093 A 
ATOM      7  C   UNL     1     -96.748  25.331 -40.187  1.00  0.00     0.136 A 
ATOM      8  C   UNL     1     -97.936  25.976 -39.757  1.00  0.00     0.125 A 
ATOM      9  C   UNL     1     -99.212  25.399 -39.867  1.00  0.00     0.078 A 
ATOM     10  C   UNL     1    -100.338  26.099 -39.426  1.00  0.00     0.223 A 
ENDROOT
BRANCH   1  11
ATOM     11  C   UNL     1    -101.308  28.169 -38.346  1.00  0.00     0.087 A 
ATOM     12  C   UNL     1    -102.191  28.825 -39.222  1.00  0.00     0.022 A 
ATOM     13  C   UNL     1    -103.274  29.551 -38.719  1.00  0.00     0.051 A 
ATOM     14  C   UNL     1    -103.498  29.621 -37.338  1.00  0.00     0.157 A 
ATOM     15  C   UNL     1    -101.551  28.224 -36.963  1.00  0.00     0.068 A 
ATOM     16  C   UNL     1    -102.637  28.953 -36.459  1.00  0.00     0.158 A 
BRANCH  14  17
ATOM     17  O   UNL     1    -104.577  30.345 -36.833  1.00  0.00    -0.504 OA
ATOM     18  H   UNL     1    -105.383  30.566 -37.408  1.00  0.00     0.293 HD
ENDBRANCH  14  17
BRANCH  16  19
ATOM     19  O   UNL     1    -102.866  29.018 -35.085  1.00  0.00    -0.504 OA
ATOM     20  H   UNL     1    -103.293  29.830 -34.657  1.00  0.00     0.293 HD
ENDBRANCH  16  19
ENDBRANCH   1  11
BRANCH  10  21
ATOM     21  O   UNL     1    -101.610  25.546 -39.581  1.00  0.00    -0.500 OA
ATOM     22  H   UNL     1    -101.959  25.258 -40.488  1.00  0.00     0.294 HD
ENDBRANCH  10  21
BRANCH   5  23
ATOM     23  O   UNL     1     -94.210  27.895 -39.371  1.00  0.00    -0.507 OA
ATOM     24  H   UNL     1     -94.036  28.810 -39.773  1.00  0.00     0.293 HD
ENDBRANCH   5  23
BRANCH   7  25
ATOM     25  O   UNL     1     -96.733  24.051 -40.749  1.00  0.00    -0.507 OA
ATOM     26  H   UNL     1     -97.250  23.263 -40.387  1.00  0.00     0.293 HD
ENDBRANCH   7  25
TORSDOF 6
ENDMDL
MODEL 8
REMARK VINA RESULT:    -3.593     11.273     12.701
REMARK INTER + INTRA:          -4.680
REMARK INTER:                  -4.551
REMARK INTRA:                  -0.129
REMARK UNBOUND:                -0.352
REMARK SMILES Oc1cc(O)c2cc(O)c(-c3ccc(O)c(O)c3)[o+]c2c1
REMARK SMILES IDX 10 1 19 2 20 3 21 4 2 5 3 6 4 7 6 8 7 9 8 10 11 11 12 12
REMARK SMILES IDX 13 13 14 14 18 15 16 16 15 17 17 19 9 21 1 23 5 25
REMARK H PARENT 15 18 17 20 9 22 1 24 5 26
REMARK Flexibility Score: inf
ROOT
ATOM      1  C   UNL     1    -101.538  27.814 -40.975  1.00  0.00     0.402 A 
ATOM      2  O   UNL     1    -102.529  28.319 -40.244  1.00  0.00    -0.202 OA
ATOM      3  C   UNL     1    -103.678  28.737 -40.763  1.00  0.00     0.368 A 
ATOM      4  C   UNL     1    -104.659  29.256 -39.913  1.00  0.00     0.162 A 
ATOM      5  C   UNL     1    -105.877  29.706 -40.433  1.00  0.00     0.128 A 
ATOM      6  C   UNL     1    -106.113  29.638 -41.808  1.00  0.00     0.093 A 
ATOM      7  C   UNL     1    -105.146  29.123 -42.680  1.00  0.00     0.136 A 
ATOM      8  C   UNL     1    -103.910  28.663 -42.158  1.00  0.00     0.125 A 
ATOM      9  C   UNL     1    -102.888  28.120 -42.954  1.00  0.00     0.078 A 
ATOM     10  C   UNL     1    -101.698  27.682 -42.366  1.00  0.00     0.223 A 
ENDROOT
BRANCH   1  11
ATOM     11  C   UNL     1    -100.300  27.391 -40.280  1.00  0.00     0.087 A 
ATOM     12  C   UNL     1     -99.539  28.299 -39.522  1.00  0.00     0.022 A 
ATOM     13  C   UNL     1     -98.388  27.871 -38.856  1.00  0.00     0.051 A 
ATOM     14  C   UNL     1     -97.988  26.530 -38.926  1.00  0.00     0.157 A 
ATOM     15  C   UNL     1     -99.906  26.043 -40.329  1.00  0.00     0.068 A 
ATOM     16  C   UNL     1     -98.750  25.614 -39.661  1.00  0.00     0.158 A 
BRANCH  14  17
ATOM     17  O   UNL     1     -96.839  26.100 -38.264  1.00  0.00    -0.504 OA
ATOM     18  H   UNL     1     -95.937  26.082 -38.725  1.00  0.00     0.293 HD
ENDBRANCH  14  17
BRANCH  16  19
ATOM     19  O   UNL     1     -98.355  24.279 -39.724  1.00  0.00    -0.504 OA
ATOM     20  H   UNL     1     -97.497  23.959 -39.291  1.00  0.00     0.293 HD
ENDBRANCH  16  19
ENDBRANCH   1  11
BRANCH  10  21
ATOM     21  O   UNL     1    -100.704  27.097 -43.151  1.00  0.00    -0.500 OA
ATOM     22  H   UNL     1     -99.722  27.297 -43.003  1.00  0.00     0.294 HD
ENDBRANCH  10  21
BRANCH   5  23
ATOM     23  O   UNL     1    -106.859  30.223 -39.592  1.00  0.00    -0.507 OA
ATOM     24  H   UNL     1    -106.625  30.659 -38.708  1.00  0.00     0.293 HD
ENDBRANCH   5  23
BRANCH   7  25
ATOM     25  O   UNL     1    -105.458  29.094 -44.042  1.00  0.00    -0.507 OA
ATOM     26  H   UNL     1    -106.307  29.470 -44.441  1.00  0.00     0.293 HD
ENDBRANCH   7  25
TORSDOF 6
ENDMDL
MODEL 9
REMARK VINA RESULT:    -3.544     10.269     11.744
REMARK INTER + INTRA:          -4.621
REMARK INTER:                  -4.283
REMARK INTRA:                  -0.338
REMARK UNBOUND:                -0.352
REMARK SMILES Oc1cc(O)c2cc(O)c(-c3ccc(O)c(O)c3)[o+]c2c1
REMARK SMILES IDX 10 1 19 2 20 3 21 4 2 5 3 6 4 7 6 8 7 9 8 10 11 11 12 12
REMARK SMILES IDX 13 13 14 14 18 15 16 16 15 17 17 19 9 21 1 23 5 25
REMARK H PARENT 15 18 17 20 9 22 1 24 5 26
REMARK Flexibility Score: inf
ROOT
ATOM      1  C   UNL     1     -99.623  27.482 -39.259  1.00  0.00     0.402 A 
ATOM      2  O   UNL     1    -100.258  27.764 -40.395  1.00  0.00    -0.202 OA
ATOM      3  C   UNL     1    -101.581  27.850 -40.488  1.00  0.00     0.368 A 
ATOM      4  C   UNL     1    -102.157  28.148 -41.726  1.00  0.00     0.162 A 
ATOM      5  C   UNL     1    -103.546  28.242 -41.853  1.00  0.00     0.128 A 
ATOM      6  C   UNL     1    -104.362  28.035 -40.738  1.00  0.00     0.093 A 
ATOM      7  C   UNL     1    -103.809  27.735 -39.487  1.00  0.00     0.136 A 
ATOM      8  C   UNL     1    -102.400  27.641 -39.352  1.00  0.00     0.125 A 
ATOM      9  C   UNL     1    -101.757  27.357 -38.136  1.00  0.00     0.078 A 
ATOM     10  C   UNL     1    -100.362  27.286 -38.079  1.00  0.00     0.223 A 
ENDROOT
BRANCH   1  11
ATOM     11  C   UNL     1     -98.144  27.404 -39.286  1.00  0.00     0.087 A 
ATOM     12  C   UNL     1     -97.346  28.507 -38.934  1.00  0.00     0.022 A 
ATOM     13  C   UNL     1     -95.953  28.403 -38.943  1.00  0.00     0.051 A 
ATOM     14  C   UNL     1     -95.337  27.193 -39.291  1.00  0.00     0.157 A 
ATOM     15  C   UNL     1     -97.521  26.188 -39.613  1.00  0.00     0.068 A 
ATOM     16  C   UNL     1     -96.123  26.083 -39.624  1.00  0.00     0.158 A 
BRANCH  14  17
ATOM     17  O   UNL     1     -93.948  27.086 -39.303  1.00  0.00    -0.504 OA
ATOM     18  H   UNL     1     -93.411  27.243 -40.150  1.00  0.00     0.293 HD
ENDBRANCH  14  17
BRANCH  16  19
ATOM     19  O   UNL     1     -95.509  24.879 -39.963  1.00  0.00    -0.504 OA
ATOM     20  H   UNL     1     -95.340  24.623 -40.928  1.00  0.00     0.293 HD
ENDBRANCH  16  19
ENDBRANCH   1  11
BRANCH  10  21
ATOM     21  O   UNL     1     -99.723  27.054 -36.861  1.00  0.00    -0.500 OA
ATOM     22  H   UNL     1     -99.603  26.117 -36.492  1.00  0.00     0.294 HD
ENDBRANCH  10  21
BRANCH   5  23
ATOM     23  O   UNL     1    -104.127  28.540 -43.083  1.00  0.00    -0.507 OA
ATOM     24  H   UNL     1    -103.604  28.466 -43.949  1.00  0.00     0.293 HD
ENDBRANCH   5  23
BRANCH   7  25
ATOM     25  O   UNL     1    -104.694  27.538 -38.423  1.00  0.00    -0.507 OA
ATOM     26  H   UNL     1    -104.547  27.886 -37.487  1.00  0.00     0.293 HD
ENDBRANCH   7  25
TORSDOF 6
ENDMDL
