MODEL 1
REMARK VINA RESULT:    -3.730      0.000      0.000
REMARK INTER + INTRA:          -7.806
REMARK INTER:                  -5.802
REMARK INTRA:                  -2.004
REMARK UNBOUND:                -2.004
REMARK SMILES COc1cc(CNC(=O)CCCCC=CC(C)C)ccc1O
REMARK SMILES IDX 11 1 12 2 13 3 14 4 15 5 16 6 17 7 18 8 10 9 8 10 9 11 7 12
REMARK SMILES IDX 6 14 5 15 4 16 19 17 3 18 20 19 21 20 2 21 1 22 22 23
REMARK H PARENT 7 13 22 24
REMARK Flexibility Score: inf
ROOT
ATOM      1  C   UNL     1       7.673   2.196   0.533  1.00  0.00     0.010 C 
ENDROOT
BRANCH   1   2
ATOM      2  C   UNL     1       6.482   3.166   0.627  1.00  0.00     0.005 C 
BRANCH   2   3
ATOM      3  C   UNL     1       5.321   2.769  -0.299  1.00  0.00     0.027 C 
BRANCH   3   4
ATOM      4  C   UNL     1       5.474   3.407  -1.655  1.00  0.00    -0.031 C 
ATOM      5  C   UNL     1       5.700   2.731  -2.799  1.00  0.00    -0.028 C 
BRANCH   5   6
ATOM      6  C   UNL     1       5.913   1.234  -2.891  1.00  0.00     0.005 C 
ATOM      7  C   UNL     1       7.401   0.934  -3.086  1.00  0.00     0.012 C 
ATOM      8  C   UNL     1       5.090   0.662  -4.049  1.00  0.00     0.012 C 
ENDBRANCH   5   6
ENDBRANCH   3   4
ENDBRANCH   2   3
ENDBRANCH   1   2
BRANCH   1   9
ATOM      9  C   UNL     1       7.878   1.330   1.785  1.00  0.00     0.100 C 
BRANCH   9  10
ATOM     10  C   UNL     1       7.868  -0.134   1.459  1.00  0.00     0.220 C 
ATOM     11  O   UNL     1       7.969  -0.977   2.392  1.00  0.00    -0.275 OA
ATOM     12  N   UNL     1       7.789  -0.572   0.095  1.00  0.00    -0.352 N 
ATOM     13  H   UNL     1       7.749   0.142  -0.668  1.00  0.00     0.163 HD
BRANCH  12  14
ATOM     14  C   UNL     1       7.794  -1.984  -0.279  1.00  0.00     0.151 C 
BRANCH  14  15
ATOM     15  C   UNL     1       6.663  -2.276  -1.228  1.00  0.00    -0.025 A 
ATOM     16  C   UNL     1       5.330  -2.076  -0.836  1.00  0.00     0.056 A 
ATOM     17  C   UNL     1       6.940  -2.718  -2.530  1.00  0.00     0.009 A 
ATOM     18  C   UNL     1       4.274  -2.324  -1.736  1.00  0.00     0.160 A 
ATOM     19  C   UNL     1       5.899  -2.968  -3.424  1.00  0.00     0.050 A 
ATOM     20  C   UNL     1       4.568  -2.774  -3.032  1.00  0.00     0.157 A 
BRANCH  18  21
ATOM     21  O   UNL     1       2.929  -2.133  -1.382  1.00  0.00    -0.493 OA
ATOM     22  C   UNL     1       2.078  -3.150  -0.864  1.00  0.00     0.278 C 
ENDBRANCH  18  21
BRANCH  20  23
ATOM     23  O   UNL     1       3.528  -3.023  -3.926  1.00  0.00    -0.504 OA
ATOM     24  H   UNL     1       3.707  -3.301  -4.884  1.00  0.00     0.293 HD
ENDBRANCH  20  23
ENDBRANCH  14  15
ENDBRANCH  12  14
ENDBRANCH   9  10
ENDBRANCH   1   9
TORSDOF 10
ENDMDL
MODEL 2
REMARK VINA RESULT:    -3.646      5.983      8.072
REMARK INTER + INTRA:          -7.674
REMARK INTER:                  -7.043
REMARK INTRA:                  -0.631
REMARK UNBOUND:                -2.004
REMARK SMILES COc1cc(CNC(=O)CCCCC=CC(C)C)ccc1O
REMARK SMILES IDX 11 1 12 2 13 3 14 4 15 5 16 6 17 7 18 8 10 9 8 10 9 11 7 12
REMARK SMILES IDX 6 14 5 15 4 16 19 17 3 18 20 19 21 20 2 21 1 22 22 23
REMARK H PARENT 7 13 22 24
REMARK Flexibility Score: inf
ROOT
ATOM      1  C   UNL     1       7.828   2.193   3.575  1.00  0.00     0.010 C 
ENDROOT
BRANCH   1   2
ATOM      2  C   UNL     1       8.333   1.216   2.498  1.00  0.00     0.005 C 
BRANCH   2   3
ATOM      3  C   UNL     1       7.931   1.642   1.078  1.00  0.00     0.027 C 
BRANCH   3   4
ATOM      4  C   UNL     1       6.825   2.665   1.116  1.00  0.00    -0.031 C 
ATOM      5  C   UNL     1       6.154   3.109   0.036  1.00  0.00    -0.028 C 
BRANCH   5   6
ATOM      6  C   UNL     1       6.454   2.709  -1.394  1.00  0.00     0.005 C 
ATOM      7  C   UNL     1       6.079   3.852  -2.340  1.00  0.00     0.012 C 
ATOM      8  C   UNL     1       5.683   1.436  -1.752  1.00  0.00     0.012 C 
ENDBRANCH   5   6
ENDBRANCH   3   4
ENDBRANCH   2   3
ENDBRANCH   1   2
BRANCH   1   9
ATOM      9  C   UNL     1       8.203   1.793   5.011  1.00  0.00     0.100 C 
BRANCH   9  10
ATOM     10  C   UNL     1       7.393   2.542   6.027  1.00  0.00     0.220 C 
ATOM     11  O   UNL     1       7.610   3.771   6.208  1.00  0.00    -0.275 OA
ATOM     12  N   UNL     1       6.410   1.857   6.817  1.00  0.00    -0.352 N 
ATOM     13  H   UNL     1       6.275   0.829   6.683  1.00  0.00     0.163 HD
BRANCH  12  14
ATOM     14  C   UNL     1       5.607   2.534   7.833  1.00  0.00     0.151 C 
BRANCH  14  15
ATOM     15  C   UNL     1       4.435   1.677   8.227  1.00  0.00    -0.025 A 
ATOM     16  C   UNL     1       4.122   0.516   7.502  1.00  0.00     0.056 A 
ATOM     17  C   UNL     1       3.666   2.018   9.349  1.00  0.00     0.009 A 
ATOM     18  C   UNL     1       3.040  -0.300   7.889  1.00  0.00     0.160 A 
ATOM     19  C   UNL     1       2.592   1.215   9.736  1.00  0.00     0.050 A 
ATOM     20  C   UNL     1       2.276   0.060   9.010  1.00  0.00     0.157 A 
BRANCH  18  21
ATOM     21  O   UNL     1       2.697  -1.469   7.193  1.00  0.00    -0.493 OA
ATOM     22  C   UNL     1       3.630  -2.450   6.752  1.00  0.00     0.278 C 
ENDBRANCH  18  21
BRANCH  20  23
ATOM     23  O   UNL     1       1.204  -0.742   9.397  1.00  0.00    -0.504 OA
ATOM     24  H   UNL     1       0.943  -0.847  10.371  1.00  0.00     0.293 HD
ENDBRANCH  20  23
ENDBRANCH  14  15
ENDBRANCH  12  14
ENDBRANCH   9  10
ENDBRANCH   1   9
TORSDOF 10
ENDMDL
MODEL 3
REMARK VINA RESULT:    -3.605      2.629      5.348
REMARK INTER + INTRA:          -7.611
REMARK INTER:                  -5.398
REMARK INTRA:                  -2.213
REMARK UNBOUND:                -2.004
REMARK SMILES COc1cc(CNC(=O)CCCCC=CC(C)C)ccc1O
REMARK SMILES IDX 11 1 12 2 13 3 14 4 15 5 16 6 17 7 18 8 10 9 8 10 9 11 7 12
REMARK SMILES IDX 6 14 5 15 4 16 19 17 3 18 20 19 21 20 2 21 1 22 22 23
REMARK H PARENT 7 13 22 24
REMARK Flexibility Score: inf
ROOT
ATOM      1  C   UNL     1       7.700  -2.858  -0.520  1.00  0.00     0.010 C 
ENDROOT
BRANCH   1   2
ATOM      2  C   UNL     1       6.271  -3.423  -0.433  1.00  0.00     0.005 C 
BRANCH   2   3
ATOM      3  C   UNL     1       5.274  -2.645  -1.307  1.00  0.00     0.027 C 
BRANCH   3   4
ATOM      4  C   UNL     1       5.107  -1.234  -0.807  1.00  0.00    -0.031 C 
ATOM      5  C   UNL     1       5.340  -0.128  -1.539  1.00  0.00    -0.028 C 
BRANCH   5   6
ATOM      6  C   UNL     1       5.880  -0.126  -2.954  1.00  0.00     0.005 C 
ATOM      7  C   UNL     1       7.410  -0.154  -2.925  1.00  0.00     0.012 C 
ATOM      8  C   UNL     1       5.377   1.112  -3.702  1.00  0.00     0.012 C 
ENDBRANCH   5   6
ENDBRANCH   3   4
ENDBRANCH   2   3
ENDBRANCH   1   2
BRANCH   1   9
ATOM      9  C   UNL     1       8.457  -2.859   0.817  1.00  0.00     0.100 C 
BRANCH   9  10
ATOM     10  C   UNL     1       8.300  -1.559   1.548  1.00  0.00     0.220 C 
ATOM     11  O   UNL     1       8.153  -1.567   2.801  1.00  0.00    -0.275 OA
ATOM     12  N   UNL     1       8.272  -0.320   0.825  1.00  0.00    -0.352 N 
ATOM     13  H   UNL     1       8.352  -0.336  -0.217  1.00  0.00     0.163 HD
BRANCH  12  14
ATOM     14  C   UNL     1       8.103   0.973   1.486  1.00  0.00     0.151 C 
BRANCH  14  15
ATOM     15  C   UNL     1       7.502   1.970   0.534  1.00  0.00    -0.025 A 
ATOM     16  C   UNL     1       8.248   2.467  -0.547  1.00  0.00     0.056 A 
ATOM     17  C   UNL     1       6.173   2.385   0.703  1.00  0.00     0.009 A 
ATOM     18  C   UNL     1       7.674   3.381  -1.453  1.00  0.00     0.160 A 
ATOM     19  C   UNL     1       5.600   3.291  -0.190  1.00  0.00     0.050 A 
ATOM     20  C   UNL     1       6.345   3.791  -1.265  1.00  0.00     0.157 A 
BRANCH  18  21
ATOM     21  O   UNL     1       8.386   3.897  -2.547  1.00  0.00    -0.493 OA
ATOM     22  C   UNL     1       8.466   3.275  -3.825  1.00  0.00     0.278 C 
ENDBRANCH  18  21
BRANCH  20  23
ATOM     23  O   UNL     1       5.773   4.696  -2.157  1.00  0.00    -0.504 OA
ATOM     24  H   UNL     1       6.309   5.457  -2.559  1.00  0.00     0.293 HD
ENDBRANCH  20  23
ENDBRANCH  14  15
ENDBRANCH  12  14
ENDBRANCH   9  10
ENDBRANCH   1   9
TORSDOF 10
ENDMDL
MODEL 4
REMARK VINA RESULT:    -3.562      3.948      6.925
REMARK INTER + INTRA:          -7.544
REMARK INTER:                  -6.575
REMARK INTRA:                  -0.969
REMARK UNBOUND:                -2.004
REMARK SMILES COc1cc(CNC(=O)CCCCC=CC(C)C)ccc1O
REMARK SMILES IDX 11 1 12 2 13 3 14 4 15 5 16 6 17 7 18 8 10 9 8 10 9 11 7 12
REMARK SMILES IDX 6 14 5 15 4 16 19 17 3 18 20 19 21 20 2 21 1 22 22 23
REMARK H PARENT 7 13 22 24
REMARK Flexibility Score: inf
ROOT
ATOM      1  C   UNL     1       7.261   1.102   0.334  1.00  0.00     0.010 C 
ENDROOT
BRANCH   1   2
ATOM      2  C   UNL     1       7.094   2.491   0.977  1.00  0.00     0.005 C 
BRANCH   2   3
ATOM      3  C   UNL     1       6.056   3.359   0.249  1.00  0.00     0.027 C 
BRANCH   3   4
ATOM      4  C   UNL     1       5.509   2.643  -0.958  1.00  0.00    -0.031 C 
ATOM      5  C   UNL     1       5.643   3.070  -2.228  1.00  0.00    -0.028 C 
BRANCH   5   6
ATOM      6  C   UNL     1       6.297   4.373  -2.639  1.00  0.00     0.005 C 
ATOM      7  C   UNL     1       5.240   5.334  -3.187  1.00  0.00     0.012 C 
ATOM      8  C   UNL     1       7.379   4.105  -3.689  1.00  0.00     0.012 C 
ENDBRANCH   5   6
ENDBRANCH   3   4
ENDBRANCH   2   3
ENDBRANCH   1   2
BRANCH   1   9
ATOM      9  C   UNL     1       8.565   0.385   0.716  1.00  0.00     0.100 C 
BRANCH   9  10
ATOM     10  C   UNL     1       8.570  -0.034   2.156  1.00  0.00     0.220 C 
ATOM     11  O   UNL     1       7.973  -1.093   2.494  1.00  0.00    -0.275 OA
ATOM     12  N   UNL     1       9.210   0.783   3.147  1.00  0.00    -0.352 N 
ATOM     13  H   UNL     1       9.662   1.678   2.854  1.00  0.00     0.163 HD
BRANCH  12  14
ATOM     14  C   UNL     1       9.228   0.430   4.565  1.00  0.00     0.151 C 
BRANCH  14  15
ATOM     15  C   UNL     1       8.246   1.279   5.325  1.00  0.00    -0.025 A 
ATOM     16  C   UNL     1       7.480   0.729   6.366  1.00  0.00     0.056 A 
ATOM     17  C   UNL     1       8.116   2.641   5.019  1.00  0.00     0.009 A 
ATOM     18  C   UNL     1       6.580   1.533   7.094  1.00  0.00     0.160 A 
ATOM     19  C   UNL     1       7.225   3.442   5.735  1.00  0.00     0.050 A 
ATOM     20  C   UNL     1       6.457   2.892   6.770  1.00  0.00     0.157 A 
BRANCH  18  21
ATOM     21  O   UNL     1       5.800   1.022   8.143  1.00  0.00    -0.493 OA
ATOM     22  C   UNL     1       4.601   0.274   7.967  1.00  0.00     0.278 C 
ENDBRANCH  18  21
BRANCH  20  23
ATOM     23  O   UNL     1       5.568   3.692   7.485  1.00  0.00    -0.504 OA
ATOM     24  H   UNL     1       4.919   4.316   7.017  1.00  0.00     0.293 HD
ENDBRANCH  20  23
ENDBRANCH  14  15
ENDBRANCH  12  14
ENDBRANCH   9  10
ENDBRANCH   1   9
TORSDOF 10
ENDMDL
MODEL 5
REMARK VINA RESULT:    -3.520      2.559      5.210
REMARK INTER + INTRA:          -7.478
REMARK INTER:                  -5.210
REMARK INTRA:                  -2.268
REMARK UNBOUND:                -2.004
REMARK SMILES COc1cc(CNC(=O)CCCCC=CC(C)C)ccc1O
REMARK SMILES IDX 11 1 12 2 13 3 14 4 15 5 16 6 17 7 18 8 10 9 8 10 9 11 7 12
REMARK SMILES IDX 6 14 5 15 4 16 19 17 3 18 20 19 21 20 2 21 1 22 22 23
REMARK H PARENT 7 13 22 24
REMARK Flexibility Score: inf
ROOT
ATOM      1  C   UNL     1       7.480   3.631  -4.739  1.00  0.00     0.010 C 
ENDROOT
BRANCH   1   2
ATOM      2  C   UNL     1       8.999   3.738  -4.515  1.00  0.00     0.005 C 
BRANCH   2   3
ATOM      3  C   UNL     1       9.644   2.385  -4.176  1.00  0.00     0.027 C 
BRANCH   3   4
ATOM      4  C   UNL     1       9.382   2.010  -2.740  1.00  0.00    -0.031 C 
ATOM      5  C   UNL     1       8.745   0.891  -2.343  1.00  0.00    -0.028 C 
BRANCH   5   6
ATOM      6  C   UNL     1       8.125  -0.128  -3.277  1.00  0.00     0.005 C 
ATOM      7  C   UNL     1       6.700   0.301  -3.638  1.00  0.00     0.012 C 
ATOM      8  C   UNL     1       8.121  -1.508  -2.614  1.00  0.00     0.012 C 
ENDBRANCH   5   6
ENDBRANCH   3   4
ENDBRANCH   2   3
ENDBRANCH   1   2
BRANCH   1   9
ATOM      9  C   UNL     1       6.670   4.771  -4.103  1.00  0.00     0.100 C 
BRANCH   9  10
ATOM     10  C   UNL     1       5.831   4.288  -2.957  1.00  0.00     0.220 C 
ATOM     11  O   UNL     1       4.600   4.080  -3.137  1.00  0.00    -0.275 OA
ATOM     12  N   UNL     1       6.413   4.105  -1.659  1.00  0.00    -0.352 N 
ATOM     13  H   UNL     1       7.426   4.324  -1.519  1.00  0.00     0.163 HD
BRANCH  12  14
ATOM     14  C   UNL     1       5.637   3.654  -0.506  1.00  0.00     0.151 C 
BRANCH  14  15
ATOM     15  C   UNL     1       6.183   2.351   0.011  1.00  0.00    -0.025 A 
ATOM     16  C   UNL     1       5.569   1.134  -0.328  1.00  0.00     0.056 A 
ATOM     17  C   UNL     1       7.335   2.343   0.811  1.00  0.00     0.009 A 
ATOM     18  C   UNL     1       6.098  -0.088   0.136  1.00  0.00     0.160 A 
ATOM     19  C   UNL     1       7.861   1.137   1.275  1.00  0.00     0.050 A 
ATOM     20  C   UNL     1       7.247  -0.077   0.942  1.00  0.00     0.157 A 
BRANCH  18  21
ATOM     21  O   UNL     1       5.516  -1.325  -0.183  1.00  0.00    -0.493 OA
ATOM     22  C   UNL     1       4.587  -1.531  -1.242  1.00  0.00     0.278 C 
ENDBRANCH  18  21
BRANCH  20  23
ATOM     23  O   UNL     1       7.774  -1.281   1.405  1.00  0.00    -0.504 OA
ATOM     24  H   UNL     1       7.371  -1.766   2.199  1.00  0.00     0.293 HD
ENDBRANCH  20  23
ENDBRANCH  14  15
ENDBRANCH  12  14
ENDBRANCH   9  10
ENDBRANCH   1   9
TORSDOF 10
ENDMDL
MODEL 6
REMARK VINA RESULT:    -3.519      2.808      5.541
REMARK INTER + INTRA:          -7.477
REMARK INTER:                  -5.376
REMARK INTRA:                  -2.101
REMARK UNBOUND:                -2.004
REMARK SMILES COc1cc(CNC(=O)CCCCC=CC(C)C)ccc1O
REMARK SMILES IDX 11 1 12 2 13 3 14 4 15 5 16 6 17 7 18 8 10 9 8 10 9 11 7 12
REMARK SMILES IDX 6 14 5 15 4 16 19 17 3 18 20 19 21 20 2 21 1 22 22 23
REMARK H PARENT 7 13 22 24
REMARK Flexibility Score: inf
ROOT
ATOM      1  C   UNL     1       5.819   4.996  -4.626  1.00  0.00     0.010 C 
ENDROOT
BRANCH   1   2
ATOM      2  C   UNL     1       6.954   4.744  -5.635  1.00  0.00     0.005 C 
BRANCH   2   3
ATOM      3  C   UNL     1       7.708   3.433  -5.361  1.00  0.00     0.027 C 
BRANCH   3   4
ATOM      4  C   UNL     1       9.165   3.698  -5.087  1.00  0.00    -0.031 C 
ATOM      5  C   UNL     1       9.794   3.408  -3.932  1.00  0.00    -0.028 C 
BRANCH   5   6
ATOM      6  C   UNL     1       9.120   2.840  -2.700  1.00  0.00     0.005 C 
ATOM      7  C   UNL     1       9.479   3.686  -1.476  1.00  0.00     0.012 C 
ATOM      8  C   UNL     1       9.550   1.385  -2.495  1.00  0.00     0.012 C 
ENDBRANCH   5   6
ENDBRANCH   3   4
ENDBRANCH   2   3
ENDBRANCH   1   2
BRANCH   1   9
ATOM      9  C   UNL     1       6.288   5.105  -3.167  1.00  0.00     0.100 C 
BRANCH   9  10
ATOM     10  C   UNL     1       5.728   4.004  -2.317  1.00  0.00     0.220 C 
ATOM     11  O   UNL     1       5.139   3.035  -2.869  1.00  0.00    -0.275 OA
ATOM     12  N   UNL     1       5.822   4.074  -0.887  1.00  0.00    -0.352 N 
ATOM     13  H   UNL     1       6.276   4.905  -0.446  1.00  0.00     0.163 HD
BRANCH  12  14
ATOM     14  C   UNL     1       5.277   3.038  -0.012  1.00  0.00     0.151 C 
BRANCH  14  15
ATOM     15  C   UNL     1       6.336   2.019   0.311  1.00  0.00    -0.025 A 
ATOM     16  C   UNL     1       6.361   0.780  -0.349  1.00  0.00     0.056 A 
ATOM     17  C   UNL     1       7.330   2.319   1.254  1.00  0.00     0.009 A 
ATOM     18  C   UNL     1       7.370  -0.162  -0.064  1.00  0.00     0.160 A 
ATOM     19  C   UNL     1       8.329   1.389   1.542  1.00  0.00     0.050 A 
ATOM     20  C   UNL     1       8.352   0.150   0.887  1.00  0.00     0.157 A 
BRANCH  18  21
ATOM     21  O   UNL     1       7.431  -1.410  -0.705  1.00  0.00    -0.493 OA
ATOM     22  C   UNL     1       6.633  -2.536  -0.357  1.00  0.00     0.278 C 
ENDBRANCH  18  21
BRANCH  20  23
ATOM     23  O   UNL     1       9.351  -0.778   1.175  1.00  0.00    -0.504 OA
ATOM     24  H   UNL     1       9.171  -1.590   1.755  1.00  0.00     0.293 HD
ENDBRANCH  20  23
ENDBRANCH  14  15
ENDBRANCH  12  14
ENDBRANCH   9  10
ENDBRANCH   1   9
TORSDOF 10
ENDMDL
MODEL 7
REMARK VINA RESULT:    -3.502      3.834      7.533
REMARK INTER + INTRA:          -7.451
REMARK INTER:                  -6.726
REMARK INTRA:                  -0.725
REMARK UNBOUND:                -2.004
REMARK SMILES COc1cc(CNC(=O)CCCCC=CC(C)C)ccc1O
REMARK SMILES IDX 11 1 12 2 13 3 14 4 15 5 16 6 17 7 18 8 10 9 8 10 9 11 7 12
REMARK SMILES IDX 6 14 5 15 4 16 19 17 3 18 20 19 21 20 2 21 1 22 22 23
REMARK H PARENT 7 13 22 24
REMARK Flexibility Score: inf
ROOT
ATOM      1  C   UNL     1       3.160  -3.932  -2.040  1.00  0.00     0.010 C 
ENDROOT
BRANCH   1   2
ATOM      2  C   UNL     1       2.589  -4.738  -3.221  1.00  0.00     0.005 C 
BRANCH   2   3
ATOM      3  C   UNL     1       1.296  -4.126  -3.784  1.00  0.00     0.027 C 
BRANCH   3   4
ATOM      4  C   UNL     1       1.185  -4.375  -5.266  1.00  0.00    -0.031 C 
ATOM      5  C   UNL     1       0.321  -5.237  -5.836  1.00  0.00    -0.028 C 
BRANCH   5   6
ATOM      6  C   UNL     1      -0.620  -6.148  -5.075  1.00  0.00     0.005 C 
ATOM      7  C   UNL     1       0.055  -7.498  -4.825  1.00  0.00     0.012 C 
ATOM      8  C   UNL     1      -1.919  -6.332  -5.864  1.00  0.00     0.012 C 
ENDBRANCH   5   6
ENDBRANCH   3   4
ENDBRANCH   2   3
ENDBRANCH   1   2
BRANCH   1   9
ATOM      9  C   UNL     1       4.256  -2.930  -2.435  1.00  0.00     0.100 C 
BRANCH   9  10
ATOM     10  C   UNL     1       4.575  -1.983  -1.316  1.00  0.00     0.220 C 
ATOM     11  O   UNL     1       3.760  -1.856  -0.362  1.00  0.00    -0.275 OA
ATOM     12  N   UNL     1       5.774  -1.196  -1.353  1.00  0.00    -0.352 N 
ATOM     13  H   UNL     1       6.416  -1.284  -2.172  1.00  0.00     0.163 HD
BRANCH  12  14
ATOM     14  C   UNL     1       6.123  -0.246  -0.299  1.00  0.00     0.151 C 
BRANCH  14  15
ATOM     15  C   UNL     1       6.014   1.164  -0.812  1.00  0.00    -0.025 A 
ATOM     16  C   UNL     1       5.980   1.422  -2.192  1.00  0.00     0.056 A 
ATOM     17  C   UNL     1       5.910   2.231   0.092  1.00  0.00     0.009 A 
ATOM     18  C   UNL     1       5.850   2.742  -2.670  1.00  0.00     0.160 A 
ATOM     19  C   UNL     1       5.785   3.539  -0.376  1.00  0.00     0.050 A 
ATOM     20  C   UNL     1       5.755   3.798  -1.752  1.00  0.00     0.157 A 
BRANCH  18  21
ATOM     21  O   UNL     1       5.809   3.040  -4.041  1.00  0.00    -0.493 OA
ATOM     22  C   UNL     1       6.954   3.133  -4.882  1.00  0.00     0.278 C 
ENDBRANCH  18  21
BRANCH  20  23
ATOM     23  O   UNL     1       5.629   5.105  -2.218  1.00  0.00    -0.504 OA
ATOM     24  H   UNL     1       5.289   5.852  -1.622  1.00  0.00     0.293 HD
ENDBRANCH  20  23
ENDBRANCH  14  15
ENDBRANCH  12  14
ENDBRANCH   9  10
ENDBRANCH   1   9
TORSDOF 10
ENDMDL
MODEL 8
REMARK VINA RESULT:    -3.492      2.699      4.590
REMARK INTER + INTRA:          -7.436
REMARK INTER:                  -5.151
REMARK INTRA:                  -2.285
REMARK UNBOUND:                -2.004
REMARK SMILES COc1cc(CNC(=O)CCCCC=CC(C)C)ccc1O
REMARK SMILES IDX 11 1 12 2 13 3 14 4 15 5 16 6 17 7 18 8 10 9 8 10 9 11 7 12
REMARK SMILES IDX 6 14 5 15 4 16 19 17 3 18 20 19 21 20 2 21 1 22 22 23
REMARK H PARENT 7 13 22 24
REMARK Flexibility Score: inf
ROOT
ATOM      1  C   UNL     1       6.997   3.893  -5.422  1.00  0.00     0.010 C 
ENDROOT
BRANCH   1   2
ATOM      2  C   UNL     1       6.332   5.178  -4.898  1.00  0.00     0.005 C 
BRANCH   2   3
ATOM      3  C   UNL     1       5.658   4.980  -3.531  1.00  0.00     0.027 C 
BRANCH   3   4
ATOM      4  C   UNL     1       5.327   3.528  -3.301  1.00  0.00    -0.031 C 
ATOM      5  C   UNL     1       5.563   2.860  -2.155  1.00  0.00    -0.028 C 
BRANCH   5   6
ATOM      6  C   UNL     1       6.268   3.440  -0.946  1.00  0.00     0.005 C 
ATOM      7  C   UNL     1       7.780   3.240  -1.083  1.00  0.00     0.012 C 
ATOM      8  C   UNL     1       5.749   2.771   0.330  1.00  0.00     0.012 C 
ENDBRANCH   5   6
ENDBRANCH   3   4
ENDBRANCH   2   3
ENDBRANCH   1   2
BRANCH   1   9
ATOM      9  C   UNL     1       8.507   3.810  -5.147  1.00  0.00     0.100 C 
BRANCH   9  10
ATOM     10  C   UNL     1       8.878   2.534  -4.451  1.00  0.00     0.220 C 
ATOM     11  O   UNL     1       9.925   2.495  -3.748  1.00  0.00    -0.275 OA
ATOM     12  N   UNL     1       8.074   1.358  -4.617  1.00  0.00    -0.352 N 
ATOM     13  H   UNL     1       7.234   1.399  -5.238  1.00  0.00     0.163 HD
BRANCH  12  14
ATOM     14  C   UNL     1       8.401   0.086  -3.977  1.00  0.00     0.151 C 
BRANCH  14  15
ATOM     15  C   UNL     1       7.340  -0.280  -2.975  1.00  0.00    -0.025 A 
ATOM     16  C   UNL     1       7.641  -0.343  -1.605  1.00  0.00     0.056 A 
ATOM     17  C   UNL     1       6.028  -0.528  -3.405  1.00  0.00     0.009 A 
ATOM     18  C   UNL     1       6.639  -0.660  -0.666  1.00  0.00     0.160 A 
ATOM     19  C   UNL     1       5.033  -0.845  -2.480  1.00  0.00     0.050 A 
ATOM     20  C   UNL     1       5.333  -0.913  -1.114  1.00  0.00     0.157 A 
BRANCH  18  21
ATOM     21  O   UNL     1       6.899  -0.729   0.712  1.00  0.00    -0.493 OA
ATOM     22  C   UNL     1       8.198  -0.840   1.284  1.00  0.00     0.278 C 
ENDBRANCH  18  21
BRANCH  20  23
ATOM     23  O   UNL     1       4.339  -1.228  -0.190  1.00  0.00    -0.504 OA
ATOM     24  H   UNL     1       3.473  -1.673  -0.473  1.00  0.00     0.293 HD
ENDBRANCH  20  23
ENDBRANCH  14  15
ENDBRANCH  12  14
ENDBRANCH   9  10
ENDBRANCH   1   9
TORSDOF 10
ENDMDL
MODEL 9
REMARK VINA RESULT:    -3.455      2.660      4.140
REMARK INTER + INTRA:          -7.377
REMARK INTER:                  -5.799
REMARK INTRA:                  -1.578
REMARK UNBOUND:                -2.004
REMARK SMILES COc1cc(CNC(=O)CCCCC=CC(C)C)ccc1O
REMARK SMILES IDX 11 1 12 2 13 3 14 4 15 5 16 6 17 7 18 8 10 9 8 10 9 11 7 12
REMARK SMILES IDX 6 14 5 15 4 16 19 17 3 18 20 19 21 20 2 21 1 22 22 23
REMARK H PARENT 7 13 22 24
REMARK Flexibility Score: inf
ROOT
ATOM      1  C   UNL     1       9.696   3.585  -3.445  1.00  0.00     0.010 C 
ENDROOT
BRANCH   1   2
ATOM      2  C   UNL     1       8.842   2.319  -3.639  1.00  0.00     0.005 C 
BRANCH   2   3
ATOM      3  C   UNL     1       7.793   2.478  -4.750  1.00  0.00     0.027 C 
BRANCH   3   4
ATOM      4  C   UNL     1       7.773   3.891  -5.273  1.00  0.00    -0.031 C 
ATOM      5  C   UNL     1       6.838   4.810  -4.964  1.00  0.00    -0.028 C 
BRANCH   5   6
ATOM      6  C   UNL     1       5.619   4.548  -4.105  1.00  0.00     0.005 C 
ATOM      7  C   UNL     1       4.412   4.245  -4.997  1.00  0.00     0.012 C 
ATOM      8  C   UNL     1       5.339   5.761  -3.213  1.00  0.00     0.012 C 
ENDBRANCH   5   6
ENDBRANCH   3   4
ENDBRANCH   2   3
ENDBRANCH   1   2
BRANCH   1   9
ATOM      9  C   UNL     1       9.790   4.062  -1.988  1.00  0.00     0.100 C 
BRANCH   9  10
ATOM     10  C   UNL     1       8.853   3.307  -1.092  1.00  0.00     0.220 C 
ATOM     11  O   UNL     1       9.300   2.366  -0.381  1.00  0.00    -0.275 OA
ATOM     12  N   UNL     1       7.454   3.624  -1.076  1.00  0.00    -0.352 N 
ATOM     13  H   UNL     1       7.095   4.379  -1.703  1.00  0.00     0.163 HD
BRANCH  12  14
ATOM     14  C   UNL     1       6.496   2.909  -0.236  1.00  0.00     0.151 C 
BRANCH  14  15
ATOM     15  C   UNL     1       6.042   1.649  -0.921  1.00  0.00    -0.025 A 
ATOM     16  C   UNL     1       6.061   0.419  -0.243  1.00  0.00     0.056 A 
ATOM     17  C   UNL     1       5.563   1.703  -2.238  1.00  0.00     0.009 A 
ATOM     18  C   UNL     1       5.610  -0.755  -0.879  1.00  0.00     0.160 A 
ATOM     19  C   UNL     1       5.118   0.543  -2.873  1.00  0.00     0.050 A 
ATOM     20  C   UNL     1       5.141  -0.685  -2.199  1.00  0.00     0.157 A 
BRANCH  18  21
ATOM     21  O   UNL     1       5.609  -2.002  -0.234  1.00  0.00    -0.493 OA
ATOM     22  C   UNL     1       6.744  -2.855  -0.124  1.00  0.00     0.278 C 
ENDBRANCH  18  21
BRANCH  20  23
ATOM     23  O   UNL     1       4.695  -1.843  -2.834  1.00  0.00    -0.504 OA
ATOM     24  H   UNL     1       4.922  -2.765  -2.477  1.00  0.00     0.293 HD
ENDBRANCH  20  23
ENDBRANCH  14  15
ENDBRANCH  12  14
ENDBRANCH   9  10
ENDBRANCH   1   9
TORSDOF 10
ENDMDL
