MODEL 1
REMARK VINA RESULT:    -5.612      0.000      0.000
REMARK INTER + INTRA:         -12.532
REMARK INTER:                 -10.532
REMARK INTRA:                  -1.999
REMARK UNBOUND:                -1.999
REMARK SMILES CCCCCCCCC=CCCCCCCCC(=O)[O-]
REMARK SMILES IDX 10 1 9 2 11 3 12 4 13 5 14 6 15 7 16 8 17 9 18 10 19 11
REMARK SMILES IDX 20 12 8 13 7 14 6 15 5 16 4 17 3 18 2 19 1 20
REMARK H PARENT
REMARK Flexibility Score: inf
ROOT
ATOM      1  C   UNL     1      41.155  40.980  16.238  1.00  0.00    -0.031 C 
ATOM      2  C   UNL     1      42.172  40.111  16.085  1.00  0.00    -0.031 C 
ENDROOT
BRANCH   1   3
ATOM      3  C   UNL     1      40.938  42.229  15.417  1.00  0.00     0.027 C 
BRANCH   3   4
ATOM      4  C   UNL     1      40.556  43.437  16.290  1.00  0.00     0.004 C 
BRANCH   4   5
ATOM      5  C   UNL     1      41.595  44.578  16.315  1.00  0.00     0.000 C 
BRANCH   5   6
ATOM      6  C   UNL     1      43.057  44.126  16.469  1.00  0.00     0.000 C 
BRANCH   6   7
ATOM      7  C   UNL     1      43.512  44.064  17.935  1.00  0.00     0.000 C 
BRANCH   7   8
ATOM      8  C   UNL     1      43.455  42.629  18.471  1.00  0.00     0.006 C 
BRANCH   8   9
ATOM      9  C   UNL     1      43.211  42.615  19.983  1.00  0.00     0.053 C 
BRANCH   9  10
ATOM     10  C   UNL     1      41.860  42.050  20.292  1.00  0.00     0.041 C 
ATOM     11  O   UNL     1      41.129  42.599  21.159  1.00  0.00    -0.550 OA
ATOM     12  O   UNL     1      41.429  40.887  19.662  1.00  0.00    -0.550 OA
ENDBRANCH   9  10
ENDBRANCH   8   9
ENDBRANCH   7   8
ENDBRANCH   6   7
ENDBRANCH   5   6
ENDBRANCH   4   5
ENDBRANCH   3   4
ENDBRANCH   1   3
BRANCH   2  13
ATOM     13  C   UNL     1      43.286  40.239  15.074  1.00  0.00     0.027 C 
BRANCH  13  14
ATOM     14  C   UNL     1      43.838  38.886  14.588  1.00  0.00     0.004 C 
BRANCH  14  15
ATOM     15  C   UNL     1      43.065  38.282  13.398  1.00  0.00     0.000 C 
BRANCH  15  16
ATOM     16  C   UNL     1      42.316  36.991  13.768  1.00  0.00     0.000 C 
BRANCH  16  17
ATOM     17  C   UNL     1      40.836  37.076  13.360  1.00  0.00    -0.000 C 
BRANCH  17  18
ATOM     18  C   UNL     1      40.284  38.509  13.461  1.00  0.00    -0.000 C 
BRANCH  18  19
ATOM     19  C   UNL     1      39.409  38.889  12.256  1.00  0.00    -0.003 C 
ATOM     20  C   UNL     1      38.513  37.726  11.837  1.00  0.00     0.004 C 
ENDBRANCH  18  19
ENDBRANCH  17  18
ENDBRANCH  16  17
ENDBRANCH  15  16
ENDBRANCH  14  15
ENDBRANCH  13  14
ENDBRANCH   2  13
TORSDOF 15
ENDMDL
MODEL 2
REMARK VINA RESULT:    -5.602      2.159      2.962
REMARK INTER + INTRA:         -12.514
REMARK INTER:                 -10.405
REMARK INTRA:                  -2.110
REMARK UNBOUND:                -1.999
REMARK SMILES CCCCCCCCC=CCCCCCCCC(=O)[O-]
REMARK SMILES IDX 10 1 9 2 11 3 12 4 13 5 14 6 15 7 16 8 17 9 18 10 19 11
REMARK SMILES IDX 20 12 8 13 7 14 6 15 5 16 4 17 3 18 2 19 1 20
REMARK H PARENT
REMARK Flexibility Score: inf
ROOT
ATOM      1  C   UNL     1      41.252  41.152  15.433  1.00  0.00    -0.031 C 
ATOM      2  C   UNL     1      42.435  40.746  14.934  1.00  0.00    -0.031 C 
ENDROOT
BRANCH   1   3
ATOM      3  C   UNL     1      40.614  40.639  16.703  1.00  0.00     0.027 C 
BRANCH   3   4
ATOM      4  C   UNL     1      40.714  41.656  17.852  1.00  0.00     0.004 C 
BRANCH   4   5
ATOM      5  C   UNL     1      41.907  41.446  18.808  1.00  0.00     0.000 C 
BRANCH   5   6
ATOM      6  C   UNL     1      43.234  42.069  18.342  1.00  0.00     0.000 C 
BRANCH   6   7
ATOM      7  C   UNL     1      43.156  43.597  18.192  1.00  0.00     0.000 C 
BRANCH   7   8
ATOM      8  C   UNL     1      43.206  44.010  16.717  1.00  0.00     0.006 C 
BRANCH   8   9
ATOM      9  C   UNL     1      42.776  45.469  16.539  1.00  0.00     0.053 C 
BRANCH   9  10
ATOM     10  C   UNL     1      41.465  45.547  15.822  1.00  0.00     0.041 C 
ATOM     11  O   UNL     1      41.145  46.597  15.204  1.00  0.00    -0.550 OA
ATOM     12  O   UNL     1      40.573  44.481  15.880  1.00  0.00    -0.550 OA
ENDBRANCH   9  10
ENDBRANCH   8   9
ENDBRANCH   7   8
ENDBRANCH   6   7
ENDBRANCH   5   6
ENDBRANCH   4   5
ENDBRANCH   3   4
ENDBRANCH   1   3
BRANCH   2  13
ATOM     13  C   UNL     1      43.327  39.694  15.546  1.00  0.00     0.027 C 
BRANCH  13  14
ATOM     14  C   UNL     1      43.660  38.533  14.591  1.00  0.00     0.004 C 
BRANCH  14  15
ATOM     15  C   UNL     1      42.663  38.374  13.424  1.00  0.00     0.000 C 
BRANCH  15  16
ATOM     16  C   UNL     1      41.945  37.014  13.437  1.00  0.00     0.000 C 
BRANCH  16  17
ATOM     17  C   UNL     1      40.419  37.196  13.409  1.00  0.00    -0.000 C 
BRANCH  17  18
ATOM     18  C   UNL     1      40.010  38.666  13.209  1.00  0.00    -0.000 C 
BRANCH  18  19
ATOM     19  C   UNL     1      39.094  38.862  11.990  1.00  0.00    -0.003 C 
ATOM     20  C   UNL     1      38.348  37.575  11.648  1.00  0.00     0.004 C 
ENDBRANCH  18  19
ENDBRANCH  17  18
ENDBRANCH  16  17
ENDBRANCH  15  16
ENDBRANCH  14  15
ENDBRANCH  13  14
ENDBRANCH   2  13
TORSDOF 15
ENDMDL
MODEL 3
REMARK VINA RESULT:    -5.397      2.580      3.555
REMARK INTER + INTRA:         -12.129
REMARK INTER:                 -10.139
REMARK INTRA:                  -1.990
REMARK UNBOUND:                -1.999
REMARK SMILES CCCCCCCCC=CCCCCCCCC(=O)[O-]
REMARK SMILES IDX 10 1 9 2 11 3 12 4 13 5 14 6 15 7 16 8 17 9 18 10 19 11
REMARK SMILES IDX 20 12 8 13 7 14 6 15 5 16 4 17 3 18 2 19 1 20
REMARK H PARENT
REMARK Flexibility Score: inf
ROOT
ATOM      1  C   UNL     1      40.493  40.714  17.179  1.00  0.00    -0.031 C 
ATOM      2  C   UNL     1      41.015  40.310  16.005  1.00  0.00    -0.031 C 
ENDROOT
BRANCH   1   3
ATOM      3  C   UNL     1      40.622  42.101  17.765  1.00  0.00     0.027 C 
BRANCH   3   4
ATOM      4  C   UNL     1      41.357  42.092  19.116  1.00  0.00     0.004 C 
BRANCH   4   5
ATOM      5  C   UNL     1      42.854  42.457  19.046  1.00  0.00     0.000 C 
BRANCH   5   6
ATOM      6  C   UNL     1      43.359  42.878  17.656  1.00  0.00     0.000 C 
BRANCH   6   7
ATOM      7  C   UNL     1      43.190  44.382  17.390  1.00  0.00     0.000 C 
BRANCH   7   8
ATOM      8  C   UNL     1      42.800  44.643  15.930  1.00  0.00     0.006 C 
BRANCH   8   9
ATOM      9  C   UNL     1      41.332  45.068  15.820  1.00  0.00     0.053 C 
BRANCH   9  10
ATOM     10  C   UNL     1      41.230  46.494  15.377  1.00  0.00     0.041 C 
ATOM     11  O   UNL     1      42.252  47.231  15.379  1.00  0.00    -0.550 OA
ATOM     12  O   UNL     1      39.997  47.025  15.014  1.00  0.00    -0.550 OA
ENDBRANCH   9  10
ENDBRANCH   8   9
ENDBRANCH   7   8
ENDBRANCH   6   7
ENDBRANCH   5   6
ENDBRANCH   4   5
ENDBRANCH   3   4
ENDBRANCH   1   3
BRANCH   2  13
ATOM     13  C   UNL     1      41.836  41.167  15.073  1.00  0.00     0.027 C 
BRANCH  13  14
ATOM     14  C   UNL     1      43.222  40.579  14.751  1.00  0.00     0.004 C 
BRANCH  14  15
ATOM     15  C   UNL     1      43.281  39.038  14.811  1.00  0.00     0.000 C 
BRANCH  15  16
ATOM     16  C   UNL     1      42.848  38.374  13.493  1.00  0.00     0.000 C 
BRANCH  16  17
ATOM     17  C   UNL     1      42.104  37.055  13.759  1.00  0.00    -0.000 C 
BRANCH  17  18
ATOM     18  C   UNL     1      40.626  37.123  13.334  1.00  0.00    -0.000 C 
BRANCH  18  19
ATOM     19  C   UNL     1      40.162  38.560  13.045  1.00  0.00    -0.003 C 
ATOM     20  C   UNL     1      39.038  38.580  12.012  1.00  0.00     0.004 C 
ENDBRANCH  18  19
ENDBRANCH  17  18
ENDBRANCH  16  17
ENDBRANCH  15  16
ENDBRANCH  14  15
ENDBRANCH  13  14
ENDBRANCH   2  13
TORSDOF 15
ENDMDL
MODEL 4
REMARK VINA RESULT:    -5.171      2.805      7.186
REMARK INTER + INTRA:         -11.706
REMARK INTER:                  -9.353
REMARK INTRA:                  -2.353
REMARK UNBOUND:                -1.999
REMARK SMILES CCCCCCCCC=CCCCCCCCC(=O)[O-]
REMARK SMILES IDX 10 1 9 2 11 3 12 4 13 5 14 6 15 7 16 8 17 9 18 10 19 11
REMARK SMILES IDX 20 12 8 13 7 14 6 15 5 16 4 17 3 18 2 19 1 20
REMARK H PARENT
REMARK Flexibility Score: inf
ROOT
ATOM      1  C   UNL     1      42.507  39.955  15.792  1.00  0.00    -0.031 C 
ATOM      2  C   UNL     1      41.271  40.489  15.811  1.00  0.00    -0.031 C 
ENDROOT
BRANCH   1   3
ATOM      3  C   UNL     1      43.694  40.521  15.047  1.00  0.00     0.027 C 
BRANCH   3   4
ATOM      4  C   UNL     1      44.658  39.419  14.574  1.00  0.00     0.004 C 
BRANCH   4   5
ATOM      5  C   UNL     1      44.102  38.497  13.468  1.00  0.00     0.000 C 
BRANCH   5   6
ATOM      6  C   UNL     1      43.883  37.034  13.889  1.00  0.00     0.000 C 
BRANCH   6   7
ATOM      7  C   UNL     1      42.496  36.502  13.497  1.00  0.00     0.000 C 
BRANCH   7   8
ATOM      8  C   UNL     1      41.469  37.638  13.429  1.00  0.00     0.006 C 
BRANCH   8   9
ATOM      9  C   UNL     1      40.065  37.095  13.146  1.00  0.00     0.053 C 
BRANCH   9  10
ATOM     10  C   UNL     1      39.250  38.106  12.402  1.00  0.00     0.041 C 
ATOM     11  O   UNL     1      38.374  37.730  11.579  1.00  0.00    -0.550 OA
ATOM     12  O   UNL     1      39.494  39.464  12.578  1.00  0.00    -0.550 OA
ENDBRANCH   9  10
ENDBRANCH   8   9
ENDBRANCH   7   8
ENDBRANCH   6   7
ENDBRANCH   5   6
ENDBRANCH   4   5
ENDBRANCH   3   4
ENDBRANCH   1   3
BRANCH   2  13
ATOM     13  C   UNL     1      40.846  41.738  15.079  1.00  0.00     0.027 C 
BRANCH  13  14
ATOM     14  C   UNL     1      40.877  43.007  15.950  1.00  0.00     0.004 C 
BRANCH  14  15
ATOM     15  C   UNL     1      42.110  43.903  15.713  1.00  0.00     0.000 C 
BRANCH  15  16
ATOM     16  C   UNL     1      43.114  43.854  16.877  1.00  0.00     0.000 C 
BRANCH  16  17
ATOM     17  C   UNL     1      42.463  43.277  18.144  1.00  0.00    -0.000 C 
BRANCH  17  18
ATOM     18  C   UNL     1      43.245  42.076  18.707  1.00  0.00    -0.000 C 
BRANCH  18  19
ATOM     19  C   UNL     1      42.506  41.384  19.864  1.00  0.00    -0.003 C 
ATOM     20  C   UNL     1      41.527  40.335  19.344  1.00  0.00     0.004 C 
ENDBRANCH  18  19
ENDBRANCH  17  18
ENDBRANCH  16  17
ENDBRANCH  15  16
ENDBRANCH  14  15
ENDBRANCH  13  14
ENDBRANCH   2  13
TORSDOF 15
ENDMDL
MODEL 5
REMARK VINA RESULT:    -5.102      2.523      3.483
REMARK INTER + INTRA:         -11.575
REMARK INTER:                 -10.367
REMARK INTRA:                  -1.208
REMARK UNBOUND:                -1.999
REMARK SMILES CCCCCCCCC=CCCCCCCCC(=O)[O-]
REMARK SMILES IDX 10 1 9 2 11 3 12 4 13 5 14 6 15 7 16 8 17 9 18 10 19 11
REMARK SMILES IDX 20 12 8 13 7 14 6 15 5 16 4 17 3 18 2 19 1 20
REMARK H PARENT
REMARK Flexibility Score: inf
ROOT
ATOM      1  C   UNL     1      40.865  40.520  17.281  1.00  0.00    -0.031 C 
ATOM      2  C   UNL     1      41.521  40.735  16.125  1.00  0.00    -0.031 C 
ENDROOT
BRANCH   1   3
ATOM      3  C   UNL     1      41.473  40.594  18.661  1.00  0.00     0.027 C 
BRANCH   3   4
ATOM      4  C   UNL     1      41.289  41.981  19.301  1.00  0.00     0.004 C 
BRANCH   4   5
ATOM      5  C   UNL     1      42.350  42.359  20.356  1.00  0.00     0.000 C 
BRANCH   5   6
ATOM      6  C   UNL     1      43.595  43.073  19.803  1.00  0.00     0.000 C 
BRANCH   6   7
ATOM      7  C   UNL     1      44.585  43.484  20.904  1.00  0.00     0.000 C 
BRANCH   7   8
ATOM      8  C   UNL     1      43.919  44.415  21.925  1.00  0.00     0.006 C 
BRANCH   8   9
ATOM      9  C   UNL     1      44.577  45.798  21.919  1.00  0.00     0.053 C 
BRANCH   9  10
ATOM     10  C   UNL     1      43.799  46.753  22.770  1.00  0.00     0.041 C 
ATOM     11  O   UNL     1      42.552  46.618  22.892  1.00  0.00    -0.550 OA
ATOM     12  O   UNL     1      44.441  47.822  23.385  1.00  0.00    -0.550 OA
ENDBRANCH   9  10
ENDBRANCH   8   9
ENDBRANCH   7   8
ENDBRANCH   6   7
ENDBRANCH   5   6
ENDBRANCH   4   5
ENDBRANCH   3   4
ENDBRANCH   1   3
BRANCH   2  13
ATOM     13  C   UNL     1      42.987  41.072  16.002  1.00  0.00     0.027 C 
BRANCH  13  14
ATOM     14  C   UNL     1      43.676  40.409  14.795  1.00  0.00     0.004 C 
BRANCH  14  15
ATOM     15  C   UNL     1      43.540  38.873  14.759  1.00  0.00     0.000 C 
BRANCH  15  16
ATOM     16  C   UNL     1      42.845  38.366  13.483  1.00  0.00     0.000 C 
BRANCH  16  17
ATOM     17  C   UNL     1      42.093  37.052  13.749  1.00  0.00    -0.000 C 
BRANCH  17  18
ATOM     18  C   UNL     1      40.599  37.153  13.394  1.00  0.00    -0.000 C 
BRANCH  18  19
ATOM     19  C   UNL     1      40.138  38.606  13.195  1.00  0.00    -0.003 C 
ATOM     20  C   UNL     1      39.146  38.716  12.039  1.00  0.00     0.004 C 
ENDBRANCH  18  19
ENDBRANCH  17  18
ENDBRANCH  16  17
ENDBRANCH  15  16
ENDBRANCH  14  15
ENDBRANCH  13  14
ENDBRANCH   2  13
TORSDOF 15
ENDMDL
MODEL 6
REMARK VINA RESULT:    -5.027      2.592      3.961
REMARK INTER + INTRA:         -11.435
REMARK INTER:                  -9.427
REMARK INTRA:                  -2.008
REMARK UNBOUND:                -1.999
REMARK SMILES CCCCCCCCC=CCCCCCCCC(=O)[O-]
REMARK SMILES IDX 10 1 9 2 11 3 12 4 13 5 14 6 15 7 16 8 17 9 18 10 19 11
REMARK SMILES IDX 20 12 8 13 7 14 6 15 5 16 4 17 3 18 2 19 1 20
REMARK H PARENT
REMARK Flexibility Score: inf
ROOT
ATOM      1  C   UNL     1      40.548  41.440  17.907  1.00  0.00    -0.031 C 
ATOM      2  C   UNL     1      40.514  41.459  16.561  1.00  0.00    -0.031 C 
ENDROOT
BRANCH   1   3
ATOM      3  C   UNL     1      41.409  40.528  18.749  1.00  0.00     0.027 C 
BRANCH   3   4
ATOM      4  C   UNL     1      42.494  41.302  19.516  1.00  0.00     0.004 C 
BRANCH   4   5
ATOM      5  C   UNL     1      43.424  42.165  18.639  1.00  0.00     0.000 C 
BRANCH   5   6
ATOM      6  C   UNL     1      43.154  43.679  18.695  1.00  0.00     0.000 C 
BRANCH   6   7
ATOM      7  C   UNL     1      43.526  44.400  17.390  1.00  0.00     0.000 C 
BRANCH   7   8
ATOM      8  C   UNL     1      42.296  44.588  16.495  1.00  0.00     0.006 C 
BRANCH   8   9
ATOM      9  C   UNL     1      42.605  45.526  15.325  1.00  0.00     0.053 C 
BRANCH   9  10
ATOM     10  C   UNL     1      43.495  44.848  14.330  1.00  0.00     0.041 C 
ATOM     11  O   UNL     1      43.014  44.007  13.524  1.00  0.00    -0.550 OA
ATOM     12  O   UNL     1      44.861  45.105  14.326  1.00  0.00    -0.550 OA
ENDBRANCH   9  10
ENDBRANCH   8   9
ENDBRANCH   7   8
ENDBRANCH   6   7
ENDBRANCH   5   6
ENDBRANCH   4   5
ENDBRANCH   3   4
ENDBRANCH   1   3
BRANCH   2  13
ATOM     13  C   UNL     1      41.318  40.561  15.653  1.00  0.00     0.027 C 
BRANCH  13  14
ATOM     14  C   UNL     1      42.659  41.173  15.209  1.00  0.00     0.004 C 
BRANCH  14  15
ATOM     15  C   UNL     1      43.756  40.130  14.905  1.00  0.00     0.000 C 
BRANCH  15  16
ATOM     16  C   UNL     1      43.228  38.686  14.931  1.00  0.00     0.000 C 
BRANCH  16  17
ATOM     17  C   UNL     1      42.846  38.213  13.519  1.00  0.00    -0.000 C 
BRANCH  17  18
ATOM     18  C   UNL     1      42.129  36.851  13.534  1.00  0.00    -0.000 C 
BRANCH  18  19
ATOM     19  C   UNL     1      40.605  36.986  13.381  1.00  0.00    -0.003 C 
ATOM     20  C   UNL     1      40.217  38.401  12.957  1.00  0.00     0.004 C 
ENDBRANCH  18  19
ENDBRANCH  17  18
ENDBRANCH  16  17
ENDBRANCH  15  16
ENDBRANCH  14  15
ENDBRANCH  13  14
ENDBRANCH   2  13
TORSDOF 15
ENDMDL
MODEL 7
REMARK VINA RESULT:    -4.935      2.486      6.955
REMARK INTER + INTRA:         -11.261
REMARK INTER:                  -9.302
REMARK INTRA:                  -1.960
REMARK UNBOUND:                -1.999
REMARK SMILES CCCCCCCCC=CCCCCCCCC(=O)[O-]
REMARK SMILES IDX 10 1 9 2 11 3 12 4 13 5 14 6 15 7 16 8 17 9 18 10 19 11
REMARK SMILES IDX 20 12 8 13 7 14 6 15 5 16 4 17 3 18 2 19 1 20
REMARK H PARENT
REMARK Flexibility Score: inf
ROOT
ATOM      1  C   UNL     1      40.938  41.873  15.374  1.00  0.00    -0.031 C 
ATOM      2  C   UNL     1      40.975  43.216  15.467  1.00  0.00    -0.031 C 
ENDROOT
BRANCH   1   3
ATOM      3  C   UNL     1      41.175  40.909  16.512  1.00  0.00     0.027 C 
BRANCH   3   4
ATOM      4  C   UNL     1      42.570  40.264  16.444  1.00  0.00     0.004 C 
BRANCH   4   5
ATOM      5  C   UNL     1      43.376  40.587  15.169  1.00  0.00     0.000 C 
BRANCH   5   6
ATOM      6  C   UNL     1      43.959  39.365  14.438  1.00  0.00     0.000 C 
BRANCH   6   7
ATOM      7  C   UNL     1      43.117  38.094  14.637  1.00  0.00     0.000 C 
BRANCH   7   8
ATOM      8  C   UNL     1      42.572  37.580  13.299  1.00  0.00     0.006 C 
BRANCH   8   9
ATOM      9  C   UNL     1      41.136  37.069  13.451  1.00  0.00     0.053 C 
BRANCH   9  10
ATOM     10  C   UNL     1      40.156  38.140  13.084  1.00  0.00     0.041 C 
ATOM     11  O   UNL     1      40.290  39.304  13.547  1.00  0.00    -0.550 OA
ATOM     12  O   UNL     1      39.066  37.841  12.274  1.00  0.00    -0.550 OA
ENDBRANCH   9  10
ENDBRANCH   8   9
ENDBRANCH   7   8
ENDBRANCH   6   7
ENDBRANCH   5   6
ENDBRANCH   4   5
ENDBRANCH   3   4
ENDBRANCH   1   3
BRANCH   2  13
ATOM     13  C   UNL     1      41.276  43.997  16.723  1.00  0.00     0.027 C 
BRANCH  13  14
ATOM     14  C   UNL     1      42.536  44.875  16.619  1.00  0.00     0.004 C 
BRANCH  14  15
ATOM     15  C   UNL     1      43.645  44.506  17.626  1.00  0.00     0.000 C 
BRANCH  15  16
ATOM     16  C   UNL     1      43.359  43.191  18.371  1.00  0.00     0.000 C 
BRANCH  16  17
ATOM     17  C   UNL     1      43.730  43.308  19.858  1.00  0.00    -0.000 C 
BRANCH  17  18
ATOM     18  C   UNL     1      43.070  42.211  20.713  1.00  0.00    -0.000 C 
BRANCH  18  19
ATOM     19  C   UNL     1      41.843  41.589  20.026  1.00  0.00    -0.003 C 
ATOM     20  C   UNL     1      41.868  40.066  20.125  1.00  0.00     0.004 C 
ENDBRANCH  18  19
ENDBRANCH  17  18
ENDBRANCH  16  17
ENDBRANCH  15  16
ENDBRANCH  14  15
ENDBRANCH  13  14
ENDBRANCH   2  13
TORSDOF 15
ENDMDL
MODEL 8
REMARK VINA RESULT:    -4.803      2.897      6.973
REMARK INTER + INTRA:         -11.015
REMARK INTER:                  -9.584
REMARK INTRA:                  -1.431
REMARK UNBOUND:                -1.999
REMARK SMILES CCCCCCCCC=CCCCCCCCC(=O)[O-]
REMARK SMILES IDX 10 1 9 2 11 3 12 4 13 5 14 6 15 7 16 8 17 9 18 10 19 11
REMARK SMILES IDX 20 12 8 13 7 14 6 15 5 16 4 17 3 18 2 19 1 20
REMARK H PARENT
REMARK Flexibility Score: inf
ROOT
ATOM      1  C   UNL     1      40.717  40.694  16.010  1.00  0.00    -0.031 C 
ATOM      2  C   UNL     1      40.531  40.649  17.343  1.00  0.00    -0.031 C 
ENDROOT
BRANCH   1   3
ATOM      3  C   UNL     1      42.052  40.837  15.317  1.00  0.00     0.027 C 
BRANCH   3   4
ATOM      4  C   UNL     1      42.955  39.613  15.542  1.00  0.00     0.004 C 
BRANCH   4   5
ATOM      5  C   UNL     1      44.055  39.408  14.479  1.00  0.00     0.000 C 
BRANCH   5   6
ATOM      6  C   UNL     1      44.204  37.967  13.964  1.00  0.00     0.000 C 
BRANCH   6   7
ATOM      7  C   UNL     1      42.870  37.204  13.930  1.00  0.00     0.000 C 
BRANCH   7   8
ATOM      8  C   UNL     1      41.819  37.968  13.117  1.00  0.00     0.006 C 
BRANCH   8   9
ATOM      9  C   UNL     1      40.439  37.316  13.251  1.00  0.00     0.053 C 
BRANCH   9  10
ATOM     10  C   UNL     1      39.394  38.157  12.587  1.00  0.00     0.041 C 
ATOM     11  O   UNL     1      39.424  39.411  12.707  1.00  0.00    -0.550 OA
ATOM     12  O   UNL     1      38.357  37.555  11.883  1.00  0.00    -0.550 OA
ENDBRANCH   9  10
ENDBRANCH   8   9
ENDBRANCH   7   8
ENDBRANCH   6   7
ENDBRANCH   5   6
ENDBRANCH   4   5
ENDBRANCH   3   4
ENDBRANCH   1   3
BRANCH   2  13
ATOM     13  C   UNL     1      41.620  40.751  18.383  1.00  0.00     0.027 C 
BRANCH  13  14
ATOM     14  C   UNL     1      41.983  42.198  18.760  1.00  0.00     0.004 C 
BRANCH  14  15
ATOM     15  C   UNL     1      43.258  42.727  18.071  1.00  0.00     0.000 C 
BRANCH  15  16
ATOM     16  C   UNL     1      43.026  44.051  17.323  1.00  0.00     0.000 C 
BRANCH  16  17
ATOM     17  C   UNL     1      41.570  44.165  16.843  1.00  0.00    -0.000 C 
BRANCH  17  18
ATOM     18  C   UNL     1      41.417  45.150  15.670  1.00  0.00    -0.000 C 
BRANCH  18  19
ATOM     19  C   UNL     1      42.674  45.213  14.787  1.00  0.00    -0.003 C 
ATOM     20  C   UNL     1      42.651  46.441  13.881  1.00  0.00     0.004 C 
ENDBRANCH  18  19
ENDBRANCH  17  18
ENDBRANCH  16  17
ENDBRANCH  15  16
ENDBRANCH  14  15
ENDBRANCH  13  14
ENDBRANCH   2  13
TORSDOF 15
ENDMDL
MODEL 9
REMARK VINA RESULT:    -4.782      2.518      7.095
REMARK INTER + INTRA:         -10.974
REMARK INTER:                  -9.356
REMARK INTRA:                  -1.618
REMARK UNBOUND:                -1.999
REMARK SMILES CCCCCCCCC=CCCCCCCCC(=O)[O-]
REMARK SMILES IDX 10 1 9 2 11 3 12 4 13 5 14 6 15 7 16 8 17 9 18 10 19 11
REMARK SMILES IDX 20 12 8 13 7 14 6 15 5 16 4 17 3 18 2 19 1 20
REMARK H PARENT
REMARK Flexibility Score: inf
ROOT
ATOM      1  C   UNL     1      43.594  42.034  14.739  1.00  0.00    -0.031 C 
ATOM      2  C   UNL     1      42.510  42.821  14.879  1.00  0.00    -0.031 C 
ENDROOT
BRANCH   1   3
ATOM      3  C   UNL     1      43.633  40.544  14.984  1.00  0.00     0.027 C 
BRANCH   3   4
ATOM      4  C   UNL     1      44.929  39.904  14.457  1.00  0.00     0.004 C 
BRANCH   4   5
ATOM      5  C   UNL     1      45.054  38.386  14.702  1.00  0.00     0.000 C 
BRANCH   5   6
ATOM      6  C   UNL     1      44.809  37.503  13.467  1.00  0.00     0.000 C 
BRANCH   6   7
ATOM      7  C   UNL     1      43.374  37.613  12.930  1.00  0.00     0.000 C 
BRANCH   7   8
ATOM      8  C   UNL     1      42.354  37.184  13.991  1.00  0.00     0.006 C 
BRANCH   8   9
ATOM      9  C   UNL     1      40.951  37.065  13.389  1.00  0.00     0.053 C 
BRANCH   9  10
ATOM     10  C   UNL     1      40.312  38.414  13.274  1.00  0.00     0.041 C 
ATOM     11  O   UNL     1      40.517  39.287  14.160  1.00  0.00    -0.550 OA
ATOM     12  O   UNL     1      39.449  38.690  12.220  1.00  0.00    -0.550 OA
ENDBRANCH   9  10
ENDBRANCH   8   9
ENDBRANCH   7   8
ENDBRANCH   6   7
ENDBRANCH   5   6
ENDBRANCH   4   5
ENDBRANCH   3   4
ENDBRANCH   1   3
BRANCH   2  13
ATOM     13  C   UNL     1      41.144  42.356  15.322  1.00  0.00     0.027 C 
BRANCH  13  14
ATOM     14  C   UNL     1      40.555  43.183  16.479  1.00  0.00     0.004 C 
BRANCH  14  15
ATOM     15  C   UNL     1      40.466  42.418  17.816  1.00  0.00     0.000 C 
BRANCH  15  16
ATOM     16  C   UNL     1      40.977  40.971  17.711  1.00  0.00     0.000 C 
BRANCH  16  17
ATOM     17  C   UNL     1      42.120  40.716  18.706  1.00  0.00    -0.000 C 
BRANCH  17  18
ATOM     18  C   UNL     1      42.889  42.003  19.054  1.00  0.00    -0.000 C 
BRANCH  18  19
ATOM     19  C   UNL     1      42.755  42.386  20.538  1.00  0.00    -0.003 C 
ATOM     20  C   UNL     1      43.981  43.155  21.022  1.00  0.00     0.004 C 
ENDBRANCH  18  19
ENDBRANCH  17  18
ENDBRANCH  16  17
ENDBRANCH  15  16
ENDBRANCH  14  15
ENDBRANCH  13  14
ENDBRANCH   2  13
TORSDOF 15
ENDMDL
