MODEL 1
REMARK VINA RESULT:    -3.765      0.000      0.000
REMARK INTER + INTRA:          -5.273
REMARK INTER:                  -4.866
REMARK INTRA:                  -0.407
REMARK UNBOUND:                -0.407
REMARK SMILES C=CC(=O)CCCCC
REMARK SMILES IDX 6 1 7 2 8 3 9 4 5 5 3 6 4 7 2 8 1 9
REMARK H PARENT
REMARK Flexibility Score: inf
ROOT
ATOM      1  C   UNL     1     137.934 183.852 190.010  1.00  0.00     0.008 C 
ENDROOT
BRANCH   1   2
ATOM      2  C   UNL     1     136.594 183.136 189.788  1.00  0.00     0.000 C 
BRANCH   2   3
ATOM      3  C   UNL     1     135.535 184.047 189.151  1.00  0.00    -0.003 C 
ATOM      4  C   UNL     1     134.781 183.320 188.041  1.00  0.00     0.004 C 
ENDBRANCH   2   3
ENDBRANCH   1   2
BRANCH   1   5
ATOM      5  C   UNL     1     137.962 184.667 191.310  1.00  0.00     0.080 C 
BRANCH   5   6
ATOM      6  C   UNL     1     138.004 186.136 191.009  1.00  0.00     0.155 C 
ATOM      7  O   UNL     1     139.092 186.661 190.646  1.00  0.00    -0.295 OA
BRANCH   6   8
ATOM      8  C   UNL     1     136.793 186.961 191.182  1.00  0.00     0.039 C 
ATOM      9  C   UNL     1     135.738 186.545 191.880  1.00  0.00     0.012 C 
ENDBRANCH   6   8
ENDBRANCH   5   6
ENDBRANCH   1   5
TORSDOF 5
ENDMDL
MODEL 2
REMARK VINA RESULT:    -3.762      1.447      2.093
REMARK INTER + INTRA:          -5.268
REMARK INTER:                  -5.035
REMARK INTRA:                  -0.234
REMARK UNBOUND:                -0.407
REMARK SMILES C=CC(=O)CCCCC
REMARK SMILES IDX 6 1 7 2 8 3 9 4 5 5 3 6 4 7 2 8 1 9
REMARK H PARENT
REMARK Flexibility Score: inf
ROOT
ATOM      1  C   UNL     1     136.746 183.555 190.302  1.00  0.00     0.008 C 
ENDROOT
BRANCH   1   2
ATOM      2  C   UNL     1     136.835 182.585 189.114  1.00  0.00     0.000 C 
BRANCH   2   3
ATOM      3  C   UNL     1     135.594 182.642 188.210  1.00  0.00    -0.003 C 
ATOM      4  C   UNL     1     134.799 183.923 188.450  1.00  0.00     0.004 C 
ENDBRANCH   2   3
ENDBRANCH   1   2
BRANCH   1   5
ATOM      5  C   UNL     1     138.047 184.340 190.523  1.00  0.00     0.080 C 
BRANCH   5   6
ATOM      6  C   UNL     1     137.758 185.805 190.668  1.00  0.00     0.155 C 
ATOM      7  O   UNL     1     136.560 186.198 190.698  1.00  0.00    -0.295 OA
BRANCH   6   8
ATOM      8  C   UNL     1     138.869 186.775 190.727  1.00  0.00     0.039 C 
ATOM      9  C   UNL     1     139.942 186.679 189.944  1.00  0.00     0.012 C 
ENDBRANCH   6   8
ENDBRANCH   5   6
ENDBRANCH   1   5
TORSDOF 5
ENDMDL
MODEL 3
REMARK VINA RESULT:    -3.634      1.435      3.385
REMARK INTER + INTRA:          -5.103
REMARK INTER:                  -4.587
REMARK INTRA:                  -0.516
REMARK UNBOUND:                -0.407
REMARK SMILES C=CC(=O)CCCCC
REMARK SMILES IDX 6 1 7 2 8 3 9 4 5 5 3 6 4 7 2 8 1 9
REMARK H PARENT
REMARK Flexibility Score: inf
ROOT
ATOM      1  C   UNL     1     136.935 186.647 192.998  1.00  0.00     0.008 C 
ENDROOT
BRANCH   1   2
ATOM      2  C   UNL     1     135.502 186.257 193.389  1.00  0.00     0.000 C 
BRANCH   2   3
ATOM      3  C   UNL     1     134.508 186.418 192.230  1.00  0.00    -0.003 C 
ATOM      4  C   UNL     1     133.558 185.226 192.152  1.00  0.00     0.004 C 
ENDBRANCH   2   3
ENDBRANCH   1   2
BRANCH   1   5
ATOM      5  C   UNL     1     137.067 187.004 191.511  1.00  0.00     0.080 C 
BRANCH   5   6
ATOM      6  C   UNL     1     138.171 186.212 190.876  1.00  0.00     0.155 C 
ATOM      7  O   UNL     1     139.164 186.819 190.388  1.00  0.00    -0.295 OA
BRANCH   6   8
ATOM      8  C   UNL     1     138.069 184.743 190.784  1.00  0.00     0.039 C 
ATOM      9  C   UNL     1     137.018 184.132 190.240  1.00  0.00     0.012 C 
ENDBRANCH   6   8
ENDBRANCH   5   6
ENDBRANCH   1   5
TORSDOF 5
ENDMDL
MODEL 4
REMARK VINA RESULT:    -3.604      1.478      2.129
REMARK INTER + INTRA:          -5.065
REMARK INTER:                  -4.820
REMARK INTRA:                  -0.245
REMARK UNBOUND:                -0.407
REMARK SMILES C=CC(=O)CCCCC
REMARK SMILES IDX 6 1 7 2 8 3 9 4 5 5 3 6 4 7 2 8 1 9
REMARK H PARENT
REMARK Flexibility Score: inf
ROOT
ATOM      1  C   UNL     1     136.475 183.190 189.921  1.00  0.00     0.008 C 
ENDROOT
BRANCH   1   2
ATOM      2  C   UNL     1     135.494 184.170 189.259  1.00  0.00     0.000 C 
BRANCH   2   3
ATOM      3  C   UNL     1     134.698 183.526 188.114  1.00  0.00    -0.003 C 
ATOM      4  C   UNL     1     135.353 182.227 187.654  1.00  0.00     0.004 C 
ENDBRANCH   2   3
ENDBRANCH   1   2
BRANCH   1   5
ATOM      5  C   UNL     1     137.905 183.741 189.989  1.00  0.00     0.080 C 
BRANCH   5   6
ATOM      6  C   UNL     1     138.028 184.749 191.094  1.00  0.00     0.155 C 
ATOM      7  O   UNL     1     137.951 184.363 192.293  1.00  0.00    -0.295 OA
BRANCH   6   8
ATOM      8  C   UNL     1     138.190 186.180 190.775  1.00  0.00     0.039 C 
ATOM      9  C   UNL     1     139.346 186.692 190.356  1.00  0.00     0.012 C 
ENDBRANCH   6   8
ENDBRANCH   5   6
ENDBRANCH   1   5
TORSDOF 5
ENDMDL
MODEL 5
REMARK VINA RESULT:    -3.566      1.156      1.413
REMARK INTER + INTRA:          -5.015
REMARK INTER:                  -4.582
REMARK INTRA:                  -0.433
REMARK UNBOUND:                -0.407
REMARK SMILES C=CC(=O)CCCCC
REMARK SMILES IDX 6 1 7 2 8 3 9 4 5 5 3 6 4 7 2 8 1 9
REMARK H PARENT
REMARK Flexibility Score: inf
ROOT
ATOM      1  C   UNL     1     136.987 183.680 191.159  1.00  0.00     0.008 C 
ENDROOT
BRANCH   1   2
ATOM      2  C   UNL     1     137.346 183.248 189.729  1.00  0.00     0.000 C 
BRANCH   2   3
ATOM      3  C   UNL     1     136.107 182.939 188.877  1.00  0.00    -0.003 C 
ATOM      4  C   UNL     1     135.132 184.114 188.879  1.00  0.00     0.004 C 
ENDBRANCH   2   3
ENDBRANCH   1   2
BRANCH   1   5
ATOM      5  C   UNL     1     137.725 184.954 191.595  1.00  0.00     0.080 C 
BRANCH   5   6
ATOM      6  C   UNL     1     136.800 186.134 191.563  1.00  0.00     0.155 C 
ATOM      7  O   UNL     1     136.965 187.024 190.684  1.00  0.00    -0.295 OA
BRANCH   6   8
ATOM      8  C   UNL     1     135.739 186.270 192.580  1.00  0.00     0.039 C 
ATOM      9  C   UNL     1     134.446 186.308 192.262  1.00  0.00     0.012 C 
ENDBRANCH   6   8
ENDBRANCH   5   6
ENDBRANCH   1   5
TORSDOF 5
ENDMDL
MODEL 6
REMARK VINA RESULT:    -3.506      1.417      1.983
REMARK INTER + INTRA:          -4.938
REMARK INTER:                  -4.477
REMARK INTRA:                  -0.461
REMARK UNBOUND:                -0.407
REMARK SMILES C=CC(=O)CCCCC
REMARK SMILES IDX 6 1 7 2 8 3 9 4 5 5 3 6 4 7 2 8 1 9
REMARK H PARENT
REMARK Flexibility Score: inf
ROOT
ATOM      1  C   UNL     1     138.074 185.323 190.768  1.00  0.00     0.008 C 
ENDROOT
BRANCH   1   2
ATOM      2  C   UNL     1     137.268 184.027 190.939  1.00  0.00     0.000 C 
BRANCH   2   3
ATOM      3  C   UNL     1     136.726 183.488 189.607  1.00  0.00    -0.003 C 
ATOM      4  C   UNL     1     135.407 184.161 189.239  1.00  0.00     0.004 C 
ENDBRANCH   2   3
ENDBRANCH   1   2
BRANCH   1   5
ATOM      5  C   UNL     1     137.320 186.560 191.276  1.00  0.00     0.080 C 
BRANCH   5   6
ATOM      6  C   UNL     1     136.974 186.406 192.728  1.00  0.00     0.155 C 
ATOM      7  O   UNL     1     137.903 186.323 193.578  1.00  0.00    -0.295 OA
BRANCH   6   8
ATOM      8  C   UNL     1     135.563 186.305 193.145  1.00  0.00     0.039 C 
ATOM      9  C   UNL     1     134.555 186.377 192.278  1.00  0.00     0.012 C 
ENDBRANCH   6   8
ENDBRANCH   5   6
ENDBRANCH   1   5
TORSDOF 5
ENDMDL
MODEL 7
REMARK VINA RESULT:    -3.497      1.885      3.930
REMARK INTER + INTRA:          -4.927
REMARK INTER:                  -4.507
REMARK INTRA:                  -0.420
REMARK UNBOUND:                -0.407
REMARK SMILES C=CC(=O)CCCCC
REMARK SMILES IDX 6 1 7 2 8 3 9 4 5 5 3 6 4 7 2 8 1 9
REMARK H PARENT
REMARK Flexibility Score: inf
ROOT
ATOM      1  C   UNL     1     137.796 184.572 191.239  1.00  0.00     0.008 C 
ENDROOT
BRANCH   1   2
ATOM      2  C   UNL     1     138.143 186.029 190.900  1.00  0.00     0.000 C 
BRANCH   2   3
ATOM      3  C   UNL     1     136.940 186.972 191.042  1.00  0.00    -0.003 C 
ATOM      4  C   UNL     1     135.907 186.402 192.010  1.00  0.00     0.004 C 
ENDBRANCH   2   3
ENDBRANCH   1   2
BRANCH   1   5
ATOM      5  C   UNL     1     137.767 183.666 190.000  1.00  0.00     0.080 C 
BRANCH   5   6
ATOM      6  C   UNL     1     136.369 183.201 189.721  1.00  0.00     0.155 C 
ATOM      7  O   UNL     1     136.057 182.002 189.961  1.00  0.00    -0.295 OA
BRANCH   6   8
ATOM      8  C   UNL     1     135.386 184.128 189.127  1.00  0.00     0.039 C 
ATOM      9  C   UNL     1     134.549 183.758 188.160  1.00  0.00     0.012 C 
ENDBRANCH   6   8
ENDBRANCH   5   6
ENDBRANCH   1   5
TORSDOF 5
ENDMDL
MODEL 8
REMARK VINA RESULT:    -3.349      1.582      2.159
REMARK INTER + INTRA:          -4.735
REMARK INTER:                  -4.558
REMARK INTRA:                  -0.178
REMARK UNBOUND:                -0.407
REMARK SMILES C=CC(=O)CCCCC
REMARK SMILES IDX 6 1 7 2 8 3 9 4 5 5 3 6 4 7 2 8 1 9
REMARK H PARENT
REMARK Flexibility Score: inf
ROOT
ATOM      1  C   UNL     1     135.777 184.378 189.664  1.00  0.00     0.008 C 
ENDROOT
BRANCH   1   2
ATOM      2  C   UNL     1     135.020 183.693 188.515  1.00  0.00     0.000 C 
BRANCH   2   3
ATOM      3  C   UNL     1     135.657 182.359 188.100  1.00  0.00    -0.003 C 
ATOM      4  C   UNL     1     135.027 181.826 186.816  1.00  0.00     0.004 C 
ENDBRANCH   2   3
ENDBRANCH   1   2
BRANCH   1   5
ATOM      5  C   UNL     1     137.084 183.658 190.023  1.00  0.00     0.080 C 
BRANCH   5   6
ATOM      6  C   UNL     1     137.936 184.524 190.903  1.00  0.00     0.155 C 
ATOM      7  O   UNL     1     138.828 185.247 190.379  1.00  0.00    -0.295 OA
BRANCH   6   8
ATOM      8  C   UNL     1     137.760 184.490 192.367  1.00  0.00     0.039 C 
ATOM      9  C   UNL     1     138.069 185.524 193.147  1.00  0.00     0.012 C 
ENDBRANCH   6   8
ENDBRANCH   5   6
ENDBRANCH   1   5
TORSDOF 5
ENDMDL
MODEL 9
REMARK VINA RESULT:    -3.248      8.849     10.381
REMARK INTER + INTRA:          -4.605
REMARK INTER:                  -4.370
REMARK INTRA:                  -0.235
REMARK UNBOUND:                -0.407
REMARK SMILES C=CC(=O)CCCCC
REMARK SMILES IDX 6 1 7 2 8 3 9 4 5 5 3 6 4 7 2 8 1 9
REMARK H PARENT
REMARK Flexibility Score: inf
ROOT
ATOM      1  C   UNL     1     133.253 189.196 198.071  1.00  0.00     0.008 C 
ENDROOT
BRANCH   1   2
ATOM      2  C   UNL     1     133.141 189.639 199.538  1.00  0.00     0.000 C 
BRANCH   2   3
ATOM      3  C   UNL     1     134.221 190.657 199.931  1.00  0.00    -0.003 C 
ATOM      4  C   UNL     1     135.187 190.905 198.777  1.00  0.00     0.004 C 
ENDBRANCH   2   3
ENDBRANCH   1   2
BRANCH   1   5
ATOM      5  C   UNL     1     133.415 187.677 197.923  1.00  0.00     0.080 C 
BRANCH   5   6
ATOM      6  C   UNL     1     132.201 187.079 197.277  1.00  0.00     0.155 C 
ATOM      7  O   UNL     1     132.325 186.036 196.577  1.00  0.00    -0.295 OA
BRANCH   6   8
ATOM      8  C   UNL     1     130.887 187.734 197.422  1.00  0.00     0.039 C 
ATOM      9  C   UNL     1     129.749 187.045 197.487  1.00  0.00     0.012 C 
ENDBRANCH   6   8
ENDBRANCH   5   6
ENDBRANCH   1   5
TORSDOF 5
ENDMDL
