MODEL 1
REMARK VINA RESULT:    -4.593      0.000      0.000
REMARK INTER + INTRA:          -8.049
REMARK INTER:                  -7.279
REMARK INTRA:                  -0.770
REMARK UNBOUND:                -0.770
REMARK SMILES CCCCCCCCCCCC(=O)[O-]
REMARK SMILES IDX 7 1 8 2 9 3 10 4 11 5 12 6 13 7 14 8 6 9 5 10 4 11 3 12 2 13
REMARK SMILES IDX 1 14
REMARK H PARENT
REMARK Flexibility Score: inf
ROOT
ATOM      1  C   UNL     1     -17.759   9.130  32.202  1.00  0.00     0.000 C 
ENDROOT
BRANCH   1   2
ATOM      2  C   UNL     1     -16.465   9.935  31.999  1.00  0.00     0.000 C 
BRANCH   2   3
ATOM      3  C   UNL     1     -15.682   9.498  30.751  1.00  0.00     0.000 C 
BRANCH   3   4
ATOM      4  C   UNL     1     -16.423   9.901  29.470  1.00  0.00     0.006 C 
BRANCH   4   5
ATOM      5  C   UNL     1     -16.161   8.897  28.343  1.00  0.00     0.053 C 
BRANCH   5   6
ATOM      6  C   UNL     1     -17.437   8.546  27.647  1.00  0.00     0.041 C 
ATOM      7  O   UNL     1     -17.593   7.400  27.149  1.00  0.00    -0.550 OA
ATOM      8  O   UNL     1     -18.437   9.500  27.505  1.00  0.00    -0.550 OA
ENDBRANCH   5   6
ENDBRANCH   4   5
ENDBRANCH   3   4
ENDBRANCH   2   3
ENDBRANCH   1   2
BRANCH   1   9
ATOM      9  C   UNL     1     -18.871   9.957  32.870  1.00  0.00     0.000 C 
BRANCH   9  10
ATOM     10  C   UNL     1     -20.176   9.956  32.057  1.00  0.00    -0.000 C 
BRANCH  10  11
ATOM     11  C   UNL     1     -19.954   9.572  30.584  1.00  0.00    -0.000 C 
BRANCH  11  12
ATOM     12  C   UNL     1     -21.158   9.921  29.694  1.00  0.00    -0.000 C 
BRANCH  12  13
ATOM     13  C   UNL     1     -22.489   9.425  30.277  1.00  0.00    -0.003 C 
ATOM     14  C   UNL     1     -23.381   8.837  29.187  1.00  0.00     0.004 C 
ENDBRANCH  12  13
ENDBRANCH  11  12
ENDBRANCH  10  11
ENDBRANCH   9  10
ENDBRANCH   1   9
TORSDOF 10
ENDMDL
MODEL 2
REMARK VINA RESULT:    -4.529     11.778     12.871
REMARK INTER + INTRA:          -7.946
REMARK INTER:                  -6.783
REMARK INTRA:                  -1.163
REMARK UNBOUND:                -0.770
REMARK SMILES CCCCCCCCCCCC(=O)[O-]
REMARK SMILES IDX 7 1 8 2 9 3 10 4 11 5 12 6 13 7 14 8 6 9 5 10 4 11 3 12 2 13
REMARK SMILES IDX 1 14
REMARK H PARENT
REMARK Flexibility Score: inf
ROOT
ATOM      1  C   UNL     1     -14.568  -3.446  34.158  1.00  0.00     0.000 C 
ENDROOT
BRANCH   1   2
ATOM      2  C   UNL     1     -15.039  -2.627  35.371  1.00  0.00     0.000 C 
BRANCH   2   3
ATOM      3  C   UNL     1     -16.567  -2.630  35.532  1.00  0.00     0.000 C 
BRANCH   3   4
ATOM      4  C   UNL     1     -17.148  -1.234  35.272  1.00  0.00     0.006 C 
BRANCH   4   5
ATOM      5  C   UNL     1     -17.487  -0.525  36.586  1.00  0.00     0.053 C 
BRANCH   5   6
ATOM      6  C   UNL     1     -18.145   0.791  36.317  1.00  0.00     0.041 C 
ATOM      7  O   UNL     1     -17.472   1.854  36.352  1.00  0.00    -0.550 OA
ATOM      8  O   UNL     1     -19.512   0.848  36.074  1.00  0.00    -0.550 OA
ENDBRANCH   5   6
ENDBRANCH   4   5
ENDBRANCH   3   4
ENDBRANCH   2   3
ENDBRANCH   1   2
BRANCH   1   9
ATOM      9  C   UNL     1     -14.257  -2.564  32.935  1.00  0.00     0.000 C 
BRANCH   9  10
ATOM     10  C   UNL     1     -15.087  -2.954  31.701  1.00  0.00    -0.000 C 
BRANCH  10  11
ATOM     11  C   UNL     1     -15.995  -4.168  31.959  1.00  0.00    -0.000 C 
BRANCH  11  12
ATOM     12  C   UNL     1     -17.483  -3.788  32.037  1.00  0.00    -0.000 C 
BRANCH  12  13
ATOM     13  C   UNL     1     -17.746  -2.333  31.620  1.00  0.00    -0.003 C 
ATOM     14  C   UNL     1     -19.182  -1.924  31.932  1.00  0.00     0.004 C 
ENDBRANCH  12  13
ENDBRANCH  11  12
ENDBRANCH  10  11
ENDBRANCH   9  10
ENDBRANCH   1   9
TORSDOF 10
ENDMDL
MODEL 3
REMARK VINA RESULT:    -4.524     11.696     13.078
REMARK INTER + INTRA:          -7.939
REMARK INTER:                  -7.226
REMARK INTRA:                  -0.713
REMARK UNBOUND:                -0.770
REMARK SMILES CCCCCCCCCCCC(=O)[O-]
REMARK SMILES IDX 7 1 8 2 9 3 10 4 11 5 12 6 13 7 14 8 6 9 5 10 4 11 3 12 2 13
REMARK SMILES IDX 1 14
REMARK H PARENT
REMARK Flexibility Score: inf
ROOT
ATOM      1  C   UNL     1     -16.145  -2.503  35.801  1.00  0.00     0.000 C 
ENDROOT
BRANCH   1   2
ATOM      2  C   UNL     1     -16.379  -2.678  37.310  1.00  0.00     0.000 C 
BRANCH   2   3
ATOM      3  C   UNL     1     -17.155  -1.506  37.931  1.00  0.00     0.000 C 
BRANCH   3   4
ATOM      4  C   UNL     1     -17.780  -0.624  36.843  1.00  0.00     0.006 C 
BRANCH   4   5
ATOM      5  C   UNL     1     -18.733   0.409  37.451  1.00  0.00     0.053 C 
BRANCH   5   6
ATOM      6  C   UNL     1     -18.174   1.788  37.301  1.00  0.00     0.041 C 
ATOM      7  O   UNL     1     -17.874   2.230  36.162  1.00  0.00    -0.550 OA
ATOM      8  O   UNL     1     -17.938   2.568  38.427  1.00  0.00    -0.550 OA
ENDBRANCH   5   6
ENDBRANCH   4   5
ENDBRANCH   3   4
ENDBRANCH   2   3
ENDBRANCH   1   2
BRANCH   1   9
ATOM      9  C   UNL     1     -14.657  -2.600  35.419  1.00  0.00     0.000 C 
BRANCH   9  10
ATOM     10  C   UNL     1     -14.429  -3.420  34.139  1.00  0.00    -0.000 C 
BRANCH  10  11
ATOM     11  C   UNL     1     -14.225  -2.534  32.897  1.00  0.00    -0.000 C 
BRANCH  11  12
ATOM     12  C   UNL     1     -15.002  -3.044  31.673  1.00  0.00    -0.000 C 
BRANCH  12  13
ATOM     13  C   UNL     1     -16.517  -2.832  31.800  1.00  0.00    -0.003 C 
ATOM     14  C   UNL     1     -16.838  -1.400  32.217  1.00  0.00     0.004 C 
ENDBRANCH  12  13
ENDBRANCH  11  12
ENDBRANCH  10  11
ENDBRANCH   9  10
ENDBRANCH   1   9
TORSDOF 10
ENDMDL
MODEL 4
REMARK VINA RESULT:    -4.485     11.268     13.270
REMARK INTER + INTRA:          -7.877
REMARK INTER:                  -6.886
REMARK INTRA:                  -0.990
REMARK UNBOUND:                -0.770
REMARK SMILES CCCCCCCCCCCC(=O)[O-]
REMARK SMILES IDX 7 1 8 2 9 3 10 4 11 5 12 6 13 7 14 8 6 9 5 10 4 11 3 12 2 13
REMARK SMILES IDX 1 14
REMARK H PARENT
REMARK Flexibility Score: inf
ROOT
ATOM      1  C   UNL     1     -23.988  -2.554  24.797  1.00  0.00     0.000 C 
ENDROOT
BRANCH   1   2
ATOM      2  C   UNL     1     -24.876  -1.873  23.742  1.00  0.00     0.000 C 
BRANCH   2   3
ATOM      3  C   UNL     1     -24.727  -0.343  23.738  1.00  0.00     0.000 C 
BRANCH   3   4
ATOM      4  C   UNL     1     -23.250   0.064  23.804  1.00  0.00     0.006 C 
BRANCH   4   5
ATOM      5  C   UNL     1     -23.096   1.587  23.742  1.00  0.00     0.053 C 
BRANCH   5   6
ATOM      6  C   UNL     1     -22.650   2.013  22.380  1.00  0.00     0.041 C 
ATOM      7  O   UNL     1     -21.475   1.779  21.995  1.00  0.00    -0.550 OA
ATOM      8  O   UNL     1     -23.519   2.713  21.552  1.00  0.00    -0.550 OA
ENDBRANCH   5   6
ENDBRANCH   4   5
ENDBRANCH   3   4
ENDBRANCH   2   3
ENDBRANCH   1   2
BRANCH   1   9
ATOM      9  C   UNL     1     -24.786  -3.026  26.025  1.00  0.00     0.000 C 
BRANCH   9  10
ATOM     10  C   UNL     1     -24.890  -1.945  27.113  1.00  0.00    -0.000 C 
BRANCH  10  11
ATOM     11  C   UNL     1     -26.309  -1.831  27.699  1.00  0.00    -0.000 C 
BRANCH  11  12
ATOM     12  C   UNL     1     -27.309  -1.210  26.710  1.00  0.00    -0.000 C 
BRANCH  12  13
ATOM     13  C   UNL     1     -28.604  -2.024  26.586  1.00  0.00    -0.003 C 
ATOM     14  C   UNL     1     -28.448  -3.154  25.573  1.00  0.00     0.004 C 
ENDBRANCH  12  13
ENDBRANCH  11  12
ENDBRANCH  10  11
ENDBRANCH   9  10
ENDBRANCH   1   9
TORSDOF 10
ENDMDL
MODEL 5
REMARK VINA RESULT:    -4.461     11.641     12.871
REMARK INTER + INTRA:          -7.839
REMARK INTER:                  -6.797
REMARK INTRA:                  -1.042
REMARK UNBOUND:                -0.770
REMARK SMILES CCCCCCCCCCCC(=O)[O-]
REMARK SMILES IDX 7 1 8 2 9 3 10 4 11 5 12 6 13 7 14 8 6 9 5 10 4 11 3 12 2 13
REMARK SMILES IDX 1 14
REMARK H PARENT
REMARK Flexibility Score: inf
ROOT
ATOM      1  C   UNL     1     -14.433  -2.756  35.420  1.00  0.00     0.000 C 
ENDROOT
BRANCH   1   2
ATOM      2  C   UNL     1     -15.955  -2.972  35.423  1.00  0.00     0.000 C 
BRANCH   2   3
ATOM      3  C   UNL     1     -16.654  -2.260  36.592  1.00  0.00     0.000 C 
BRANCH   3   4
ATOM      4  C   UNL     1     -17.276  -0.935  36.134  1.00  0.00     0.006 C 
BRANCH   4   5
ATOM      5  C   UNL     1     -17.834  -0.148  37.324  1.00  0.00     0.053 C 
BRANCH   5   6
ATOM      6  C   UNL     1     -18.535   1.086  36.852  1.00  0.00     0.041 C 
ATOM      7  O   UNL     1     -19.520   0.997  36.074  1.00  0.00    -0.550 OA
ATOM      8  O   UNL     1     -18.070   2.339  37.235  1.00  0.00    -0.550 OA
ENDBRANCH   5   6
ENDBRANCH   4   5
ENDBRANCH   3   4
ENDBRANCH   2   3
ENDBRANCH   1   2
BRANCH   1   9
ATOM      9  C   UNL     1     -13.809  -2.975  34.030  1.00  0.00     0.000 C 
BRANCH   9  10
ATOM     10  C   UNL     1     -14.562  -2.224  32.920  1.00  0.00    -0.000 C 
BRANCH  10  11
ATOM     11  C   UNL     1     -15.063  -3.161  31.807  1.00  0.00    -0.000 C 
BRANCH  11  12
ATOM     12  C   UNL     1     -16.587  -3.097  31.622  1.00  0.00    -0.000 C 
BRANCH  12  13
ATOM     13  C   UNL     1     -17.178  -1.738  32.026  1.00  0.00    -0.003 C 
ATOM     14  C   UNL     1     -18.482  -1.913  32.796  1.00  0.00     0.004 C 
ENDBRANCH  12  13
ENDBRANCH  11  12
ENDBRANCH  10  11
ENDBRANCH   9  10
ENDBRANCH   1   9
TORSDOF 10
ENDMDL
MODEL 6
REMARK VINA RESULT:    -4.421     11.736     13.012
REMARK INTER + INTRA:          -7.775
REMARK INTER:                  -7.067
REMARK INTRA:                  -0.708
REMARK UNBOUND:                -0.770
REMARK SMILES CCCCCCCCCCCC(=O)[O-]
REMARK SMILES IDX 7 1 8 2 9 3 10 4 11 5 12 6 13 7 14 8 6 9 5 10 4 11 3 12 2 13
REMARK SMILES IDX 1 14
REMARK H PARENT
REMARK Flexibility Score: inf
ROOT
ATOM      1  C   UNL     1     -17.443  -1.367  33.836  1.00  0.00     0.000 C 
ENDROOT
BRANCH   1   2
ATOM      2  C   UNL     1     -16.867  -2.281  34.930  1.00  0.00     0.000 C 
BRANCH   2   3
ATOM      3  C   UNL     1     -16.811  -1.598  36.306  1.00  0.00     0.000 C 
BRANCH   3   4
ATOM      4  C   UNL     1     -17.924  -0.552  36.444  1.00  0.00     0.006 C 
BRANCH   4   5
ATOM      5  C   UNL     1     -17.784   0.230  37.754  1.00  0.00     0.053 C 
BRANCH   5   6
ATOM      6  C   UNL     1     -18.149   1.666  37.547  1.00  0.00     0.041 C 
ATOM      7  O   UNL     1     -18.734   2.309  38.458  1.00  0.00    -0.550 OA
ATOM      8  O   UNL     1     -17.886   2.282  36.330  1.00  0.00    -0.550 OA
ENDBRANCH   5   6
ENDBRANCH   4   5
ENDBRANCH   3   4
ENDBRANCH   2   3
ENDBRANCH   1   2
BRANCH   1   9
ATOM      9  C   UNL     1     -18.612  -2.019  33.077  1.00  0.00     0.000 C 
BRANCH   9  10
ATOM     10  C   UNL     1     -18.164  -2.699  31.774  1.00  0.00    -0.000 C 
BRANCH  10  11
ATOM     11  C   UNL     1     -16.767  -2.240  31.318  1.00  0.00    -0.000 C 
BRANCH  11  12
ATOM     12  C   UNL     1     -15.729  -3.372  31.365  1.00  0.00    -0.000 C 
BRANCH  12  13
ATOM     13  C   UNL     1     -16.278  -4.656  32.005  1.00  0.00    -0.003 C 
ATOM     14  C   UNL     1     -15.753  -5.895  31.287  1.00  0.00     0.004 C 
ENDBRANCH  12  13
ENDBRANCH  11  12
ENDBRANCH  10  11
ENDBRANCH   9  10
ENDBRANCH   1   9
TORSDOF 10
ENDMDL
MODEL 7
REMARK VINA RESULT:    -4.402     11.184     13.560
REMARK INTER + INTRA:          -7.746
REMARK INTER:                  -6.877
REMARK INTRA:                  -0.869
REMARK UNBOUND:                -0.770
REMARK SMILES CCCCCCCCCCCC(=O)[O-]
REMARK SMILES IDX 7 1 8 2 9 3 10 4 11 5 12 6 13 7 14 8 6 9 5 10 4 11 3 12 2 13
REMARK SMILES IDX 1 14
REMARK H PARENT
REMARK Flexibility Score: inf
ROOT
ATOM      1  C   UNL     1     -26.217  -2.075  23.091  1.00  0.00     0.000 C 
ENDROOT
BRANCH   1   2
ATOM      2  C   UNL     1     -24.787  -1.692  23.509  1.00  0.00     0.000 C 
BRANCH   2   3
ATOM      3  C   UNL     1     -24.658  -0.210  23.895  1.00  0.00     0.000 C 
BRANCH   3   4
ATOM      4  C   UNL     1     -23.195   0.247  23.834  1.00  0.00     0.006 C 
BRANCH   4   5
ATOM      5  C   UNL     1     -23.099   1.770  23.699  1.00  0.00     0.053 C 
BRANCH   5   6
ATOM      6  C   UNL     1     -22.685   2.147  22.312  1.00  0.00     0.041 C 
ATOM      7  O   UNL     1     -21.530   1.868  21.897  1.00  0.00    -0.550 OA
ATOM      8  O   UNL     1     -23.559   2.851  21.493  1.00  0.00    -0.550 OA
ENDBRANCH   5   6
ENDBRANCH   4   5
ENDBRANCH   3   4
ENDBRANCH   2   3
ENDBRANCH   1   2
BRANCH   1   9
ATOM      9  C   UNL     1     -26.845  -3.121  24.029  1.00  0.00     0.000 C 
BRANCH   9  10
ATOM     10  C   UNL     1     -26.145  -3.185  25.395  1.00  0.00    -0.000 C 
BRANCH  10  11
ATOM     11  C   UNL     1     -26.954  -2.493  26.507  1.00  0.00    -0.000 C 
BRANCH  11  12
ATOM     12  C   UNL     1     -26.066  -1.691  27.472  1.00  0.00    -0.000 C 
BRANCH  12  13
ATOM     13  C   UNL     1     -24.579  -2.052  27.350  1.00  0.00    -0.003 C 
ATOM     14  C   UNL     1     -24.158  -3.025  28.447  1.00  0.00     0.004 C 
ENDBRANCH  12  13
ENDBRANCH  11  12
ENDBRANCH  10  11
ENDBRANCH   9  10
ENDBRANCH   1   9
TORSDOF 10
ENDMDL
MODEL 8
REMARK VINA RESULT:    -4.387     13.559     14.510
REMARK INTER + INTRA:          -7.722
REMARK INTER:                  -6.382
REMARK INTRA:                  -1.340
REMARK UNBOUND:                -0.770
REMARK SMILES CCCCCCCCCCCC(=O)[O-]
REMARK SMILES IDX 7 1 8 2 9 3 10 4 11 5 12 6 13 7 14 8 6 9 5 10 4 11 3 12 2 13
REMARK SMILES IDX 1 14
REMARK H PARENT
REMARK Flexibility Score: inf
ROOT
ATOM      1  C   UNL     1     -13.614  -4.420  33.350  1.00  0.00     0.000 C 
ENDROOT
BRANCH   1   2
ATOM      2  C   UNL     1     -13.943  -2.956  33.016  1.00  0.00     0.000 C 
BRANCH   2   3
ATOM      3  C   UNL     1     -14.943  -2.821  31.857  1.00  0.00     0.000 C 
BRANCH   3   4
ATOM      4  C   UNL     1     -16.112  -1.907  32.244  1.00  0.00     0.006 C 
BRANCH   4   5
ATOM      5  C   UNL     1     -17.325  -2.153  31.342  1.00  0.00     0.053 C 
BRANCH   5   6
ATOM      6  C   UNL     1     -18.594  -2.012  32.121  1.00  0.00     0.041 C 
ATOM      7  O   UNL     1     -19.702  -1.966  31.526  1.00  0.00    -0.550 OA
ATOM      8  O   UNL     1     -18.550  -1.882  33.504  1.00  0.00    -0.550 OA
ENDBRANCH   5   6
ENDBRANCH   4   5
ENDBRANCH   3   4
ENDBRANCH   2   3
ENDBRANCH   1   2
BRANCH   1   9
ATOM      9  C   UNL     1     -12.824  -5.118  32.229  1.00  0.00     0.000 C 
BRANCH   9  10
ATOM     10  C   UNL     1     -13.216  -6.595  32.063  1.00  0.00    -0.000 C 
BRANCH  10  11
ATOM     11  C   UNL     1     -14.706  -6.847  32.352  1.00  0.00    -0.000 C 
BRANCH  11  12
ATOM     12  C   UNL     1     -15.597  -6.601  31.124  1.00  0.00    -0.000 C 
BRANCH  12  13
ATOM     13  C   UNL     1     -17.011  -6.136  31.500  1.00  0.00    -0.003 C 
ATOM     14  C   UNL     1     -17.053  -5.602  32.928  1.00  0.00     0.004 C 
ENDBRANCH  12  13
ENDBRANCH  11  12
ENDBRANCH  10  11
ENDBRANCH   9  10
ENDBRANCH   1   9
TORSDOF 10
ENDMDL
MODEL 9
REMARK VINA RESULT:    -4.380     11.362     12.414
REMARK INTER + INTRA:          -7.711
REMARK INTER:                  -6.585
REMARK INTRA:                  -1.126
REMARK UNBOUND:                -0.770
REMARK SMILES CCCCCCCCCCCC(=O)[O-]
REMARK SMILES IDX 7 1 8 2 9 3 10 4 11 5 12 6 13 7 14 8 6 9 5 10 4 11 3 12 2 13
REMARK SMILES IDX 1 14
REMARK H PARENT
REMARK Flexibility Score: inf
ROOT
ATOM      1  C   UNL     1     -15.884  -2.227  35.566  1.00  0.00     0.000 C 
ENDROOT
BRANCH   1   2
ATOM      2  C   UNL     1     -17.144  -2.466  34.717  1.00  0.00     0.000 C 
BRANCH   2   3
ATOM      3  C   UNL     1     -17.448  -1.300  33.764  1.00  0.00     0.000 C 
BRANCH   3   4
ATOM      4  C   UNL     1     -16.497  -1.314  32.560  1.00  0.00     0.006 C 
BRANCH   4   5
ATOM      5  C   UNL     1     -16.735  -2.548  31.685  1.00  0.00     0.053 C 
BRANCH   5   6
ATOM      6  C   UNL     1     -15.521  -3.422  31.672  1.00  0.00     0.041 C 
ATOM      7  O   UNL     1     -15.627  -4.650  31.415  1.00  0.00    -0.550 OA
ATOM      8  O   UNL     1     -14.278  -2.890  31.991  1.00  0.00    -0.550 OA
ENDBRANCH   5   6
ENDBRANCH   4   5
ENDBRANCH   3   4
ENDBRANCH   2   3
ENDBRANCH   1   2
BRANCH   1   9
ATOM      9  C   UNL     1     -16.135  -2.442  37.069  1.00  0.00     0.000 C 
BRANCH   9  10
ATOM     10  C   UNL     1     -17.501  -1.901  37.521  1.00  0.00    -0.000 C 
BRANCH  10  11
ATOM     11  C   UNL     1     -17.475  -0.388  37.801  1.00  0.00    -0.000 C 
BRANCH  11  12
ATOM     12  C   UNL     1     -18.837   0.281  37.556  1.00  0.00    -0.000 C 
BRANCH  12  13
ATOM     13  C   UNL     1     -18.860   1.127  36.274  1.00  0.00    -0.003 C 
ATOM     14  C   UNL     1     -17.473   1.671  35.950  1.00  0.00     0.004 C 
ENDBRANCH  12  13
ENDBRANCH  11  12
ENDBRANCH  10  11
ENDBRANCH   9  10
ENDBRANCH   1   9
TORSDOF 10
ENDMDL
