MODEL 1
REMARK VINA RESULT:     0.177      0.000      0.000
REMARK INTER + INTRA:           0.104
REMARK INTER:                   0.203
REMARK INTRA:                  -0.099
REMARK UNBOUND:                -0.099
REMARK SMILES C=C(C)[C@@H]1CC[C@]2(C(=O)[O-])CC[C@]3(C)[C@H](CC[C@@H]4[C@]5(C)CC[C@H](O)C(C)(C)[C@@H]5CC[C@@]43C)[C@@H]12
REMARK SMILES IDX 7 1 6 2 33 3 11 4 5 5 15 6 4 7 12 8 16 9 13 10 17 11 31 12
REMARK SMILES IDX 14 13 18 14 30 15 32 16 19 17 29 18 21 19 20 20 28 21 22 22
REMARK SMILES IDX 25 23 23 24 26 25 27 26 8 27 9 28 10 29 2 30 3 31 1 32 24 33
REMARK H PARENT 24 34
REMARK Flexibility Score: inf
ROOT
ATOM      1  C   UNL     1     -13.819  -4.300 -29.599  1.00  0.00     0.014 C 
ATOM      2  C   UNL     1     -12.637  -5.124 -30.112  1.00  0.00     0.014 C 
ATOM      3  C   UNL     1     -14.433  -3.782 -30.910  1.00  0.00     0.012 C 
ATOM      4  C   UNL     1     -14.910  -5.116 -28.877  1.00  0.00     0.014 C 
ATOM      5  C   UNL     1     -12.078  -4.310 -31.291  1.00  0.00     0.009 C 
ATOM      6  C   UNL     1     -15.565  -2.765 -30.599  1.00  0.00     0.000 C 
ATOM      7  C   UNL     1     -13.223  -3.389 -31.784  1.00  0.00     0.018 C 
ATOM      8  C   UNL     1     -16.138  -4.226 -28.545  1.00  0.00     0.008 C 
ATOM      9  C   UNL     1     -16.104  -2.061 -31.837  1.00  0.00     0.005 C 
ATOM     10  C   UNL     1     -16.744  -3.430 -29.776  1.00  0.00    -0.024 C 
ATOM     11  C   UNL     1     -17.042  -0.932 -31.421  1.00  0.00     0.005 C 
ATOM     12  C   UNL     1     -17.785  -2.277 -29.301  1.00  0.00    -0.024 C 
ATOM     13  C   UNL     1     -17.500  -4.499 -30.649  1.00  0.00     0.012 C 
ATOM     14  C   UNL     1     -18.250  -1.365 -30.525  1.00  0.00     0.002 C 
ATOM     15  C   UNL     1     -17.156  -1.361 -28.187  1.00  0.00     0.008 C 
ATOM     16  C   UNL     1     -19.041  -2.988 -28.684  1.00  0.00     0.012 C 
ATOM     17  C   UNL     1     -19.246  -0.137 -30.128  1.00  0.00    -0.026 C 
ATOM     18  C   UNL     1     -17.541   0.131 -28.224  1.00  0.00     0.005 C 
ATOM     19  C   UNL     1     -19.073   1.064 -31.121  1.00  0.00     0.010 C 
ATOM     20  C   UNL     1     -20.708  -0.663 -30.303  1.00  0.00     0.012 C 
ATOM     21  C   UNL     1     -19.016   0.366 -28.630  1.00  0.00     0.003 C 
ATOM     22  C   UNL     1     -19.835   2.339 -30.759  1.00  0.00     0.033 C 
ATOM     23  C   UNL     1     -19.605   1.809 -28.245  1.00  0.00    -0.006 C 
ATOM     24  C   UNL     1     -19.439   2.871 -29.379  1.00  0.00     0.120 C 
ATOM     25  C   UNL     1     -18.968   2.377 -26.945  1.00  0.00     0.014 C 
ATOM     26  C   UNL     1     -21.125   1.690 -27.907  1.00  0.00     0.014 C 
ENDROOT
BRANCH   1  27
ATOM     27  C   UNL     1     -13.265  -3.212 -28.664  1.00  0.00     0.048 C 
ATOM     28  O   UNL     1     -13.259  -3.374 -27.414  1.00  0.00    -0.550 OA
ATOM     29  O   UNL     1     -12.875  -1.975 -29.171  1.00  0.00    -0.550 OA
ENDBRANCH   1  27
BRANCH   7  30
ATOM     30  C   UNL     1     -13.457  -3.553 -33.286  1.00  0.00    -0.077 C 
ATOM     31  C   UNL     1     -13.180  -2.426 -34.254  1.00  0.00     0.039 C 
ATOM     32  C   UNL     1     -13.989  -4.687 -33.764  1.00  0.00     0.008 C 
ENDBRANCH   7  30
BRANCH  24  33
ATOM     33  O   UNL     1     -18.153   3.446 -29.417  1.00  0.00    -0.393 OA
ATOM     34  H   UNL     1     -18.012   3.853 -30.306  1.00  0.00     0.210 HD
ENDBRANCH  24  33
TORSDOF 3
ENDMDL
