MODEL 1
REMARK VINA RESULT:    -3.533      0.000      0.000
REMARK INTER + INTRA:          -3.843
REMARK INTER:                  -3.843
REMARK INTRA:                   0.000
REMARK UNBOUND:                 0.000
REMARK SMILES C[C@@H]1CC[C@@H]2[N@@H+](C1)C[C@@H]1[C@H]3C[C@H]4[C@H](C[C@H](O)[C@H]5C[C@@H](O)CC[C@]54C)[C@@H]3CC[C@H]1[C@]2(C)O
REMARK SMILES IDX 5 1 6 2 8 3 7 4 4 5 29 6 3 7 28 8 30 9 2 10 27 11 9 12 1 13
REMARK SMILES IDX 26 14 10 15 25 16 11 17 13 18 12 19 14 20 23 21 15 22 17 23
REMARK SMILES IDX 22 24 24 25 18 26 21 27 19 28 31 30 16 32 20 34
REMARK H PARENT 6 29 31 31 16 33 20 35
REMARK Flexibility Score: inf
ROOT
ATOM      1  C   UNL     1     -12.778 -33.642 -13.613  1.00  0.00     0.216 C 
ATOM      2  N   UNL     1     -12.444 -33.950 -12.176  1.00  0.00    -0.330 N 
ATOM      3  C   UNL     1     -12.363 -32.727 -11.322  1.00  0.00     0.266 C 
ATOM      4  C   UNL     1     -11.166 -34.702 -12.086  1.00  0.00     0.265 C 
ATOM      5  C   UNL     1     -12.475 -34.821 -14.584  1.00  0.00     0.069 C 
ATOM      6  C   UNL     1     -14.236 -33.011 -13.746  1.00  0.00     0.117 C 
ATOM      7  C   UNL     1     -12.374 -36.148 -13.833  1.00  0.00     0.015 C 
ATOM      8  C   UNL     1     -14.504 -32.121 -12.489  1.00  0.00     0.036 C 
ATOM      9  C   UNL     1     -14.304 -32.179 -15.046  1.00  0.00     0.049 C 
ATOM     10  C   UNL     1     -11.227 -36.079 -12.801  1.00  0.00     0.041 C 
ATOM     11  C   UNL     1     -15.706 -31.099 -12.558  1.00  0.00     0.007 C 
ATOM     12  C   UNL     1     -13.169 -31.559 -11.925  1.00  0.00     0.054 C 
ATOM     13  C   UNL     1      -9.875 -36.377 -13.454  1.00  0.00     0.013 C 
ATOM     14  C   UNL     1     -15.374 -29.570 -12.492  1.00  0.00     0.004 C 
ATOM     15  C   UNL     1     -13.475 -30.359 -11.018  1.00  0.00     0.002 C 
ATOM     16  C   UNL     1     -13.956 -29.263 -11.966  1.00  0.00    -0.004 C 
ATOM     17  C   UNL     1     -12.331 -29.747 -10.206  1.00  0.00     0.009 C 
ATOM     18  C   UNL     1     -13.654 -27.943 -11.250  1.00  0.00    -0.001 C 
ATOM     19  C   UNL     1     -12.296 -28.248 -10.582  1.00  0.00    -0.001 C 
ATOM     20  C   UNL     1     -14.739 -27.519 -10.241  1.00  0.00     0.036 C 
ATOM     21  C   UNL     1     -11.822 -27.195  -9.503  1.00  0.00    -0.024 C 
ATOM     22  C   UNL     1     -14.287 -26.316  -9.390  1.00  0.00     0.118 C 
ATOM     23  C   UNL     1     -13.009 -26.656  -8.594  1.00  0.00     0.026 C 
ATOM     24  C   UNL     1     -10.626 -27.725  -8.636  1.00  0.00     0.010 C 
ATOM     25  C   UNL     1     -11.240 -25.989 -10.303  1.00  0.00     0.012 C 
ATOM     26  C   UNL     1     -13.341 -27.570  -7.400  1.00  0.00     0.038 C 
ATOM     27  C   UNL     1     -10.980 -28.479  -7.344  1.00  0.00     0.032 C 
ATOM     28  C   UNL     1     -12.094 -27.785  -6.541  1.00  0.00     0.114 C 
ATOM     29  H   UNL     1     -13.204 -34.558 -11.784  1.00  0.00     0.348 HD
ENDROOT
BRANCH   6  30
ATOM     30  O   UNL     1     -15.256 -33.991 -13.759  1.00  0.00    -0.384 OA
ATOM     31  H   UNL     1     -15.085 -34.686 -13.082  1.00  0.00     0.211 HD
ENDBRANCH   6  30
BRANCH  22  32
ATOM     32  O   UNL     1     -14.096 -25.136 -10.128  1.00  0.00    -0.393 OA
ATOM     33  H   UNL     1     -14.872 -24.966 -10.715  1.00  0.00     0.210 HD
ENDBRANCH  22  32
BRANCH  28  34
ATOM     34  O   UNL     1     -12.395 -28.516  -5.377  1.00  0.00    -0.393 OA
ATOM     35  H   UNL     1     -13.285 -28.961  -5.511  1.00  0.00     0.210 HD
ENDBRANCH  28  34
TORSDOF 3
ENDMDL
MODEL 2
REMARK VINA RESULT:    -3.271      2.036      4.208
REMARK INTER + INTRA:          -3.558
REMARK INTER:                  -3.558
REMARK INTRA:                   0.000
REMARK UNBOUND:                 0.000
REMARK SMILES C[C@@H]1CC[C@@H]2[N@@H+](C1)C[C@@H]1[C@H]3C[C@H]4[C@H](C[C@H](O)[C@H]5C[C@@H](O)CC[C@]54C)[C@@H]3CC[C@H]1[C@]2(C)O
REMARK SMILES IDX 5 1 6 2 8 3 7 4 4 5 29 6 3 7 28 8 30 9 2 10 27 11 9 12 1 13
REMARK SMILES IDX 26 14 10 15 25 16 11 17 13 18 12 19 14 20 23 21 15 22 17 23
REMARK SMILES IDX 22 24 24 25 18 26 21 27 19 28 31 30 16 32 20 34
REMARK H PARENT 6 29 31 31 16 33 20 35
REMARK Flexibility Score: inf
ROOT
ATOM      1  C   UNL     1     -12.499 -34.464 -13.229  1.00  0.00     0.216 C 
ATOM      2  N   UNL     1     -13.046 -33.538 -14.283  1.00  0.00    -0.330 N 
ATOM      3  C   UNL     1     -13.308 -32.160 -13.769  1.00  0.00     0.266 C 
ATOM      4  C   UNL     1     -14.293 -34.092 -14.871  1.00  0.00     0.265 C 
ATOM      5  C   UNL     1     -12.599 -35.969 -13.616  1.00  0.00     0.069 C 
ATOM      6  C   UNL     1     -11.064 -33.987 -12.725  1.00  0.00     0.117 C 
ATOM      7  C   UNL     1     -12.767 -36.145 -15.124  1.00  0.00     0.015 C 
ATOM      8  C   UNL     1     -11.034 -32.424 -12.736  1.00  0.00     0.036 C 
ATOM      9  C   UNL     1     -10.821 -34.542 -11.305  1.00  0.00     0.049 C 
ATOM     10  C   UNL     1     -14.066 -35.450 -15.590  1.00  0.00     0.041 C 
ATOM     11  C   UNL     1      -9.875 -31.708 -11.936  1.00  0.00     0.007 C 
ATOM     12  C   UNL     1     -12.461 -31.849 -12.518  1.00  0.00     0.054 C 
ATOM     13  C   UNL     1     -15.285 -36.352 -15.376  1.00  0.00     0.013 C 
ATOM     14  C   UNL     1     -10.271 -30.826 -10.704  1.00  0.00     0.004 C 
ATOM     15  C   UNL     1     -12.350 -30.384 -12.078  1.00  0.00     0.002 C 
ATOM     16  C   UNL     1     -11.765 -30.442 -10.668  1.00  0.00    -0.004 C 
ATOM     17  C   UNL     1     -13.630 -29.553 -11.973  1.00  0.00     0.009 C 
ATOM     18  C   UNL     1     -12.227 -29.152  -9.982  1.00  0.00    -0.001 C 
ATOM     19  C   UNL     1     -13.662 -28.998 -10.531  1.00  0.00    -0.001 C 
ATOM     20  C   UNL     1     -11.334 -27.933 -10.281  1.00  0.00     0.036 C 
ATOM     21  C   UNL     1     -14.341 -27.596 -10.261  1.00  0.00    -0.024 C 
ATOM     22  C   UNL     1     -11.961 -26.625  -9.759  1.00  0.00     0.118 C 
ATOM     23  C   UNL     1     -13.336 -26.375 -10.414  1.00  0.00     0.026 C 
ATOM     24  C   UNL     1     -15.639 -27.386 -11.118  1.00  0.00     0.010 C 
ATOM     25  C   UNL     1     -14.834 -27.633  -8.781  1.00  0.00     0.012 C 
ATOM     26  C   UNL     1     -13.163 -25.892 -11.867  1.00  0.00     0.038 C 
ATOM     27  C   UNL     1     -15.467 -26.728 -12.497  1.00  0.00     0.032 C 
ATOM     28  C   UNL     1     -14.522 -25.514 -12.458  1.00  0.00     0.114 C 
ATOM     29  H   UNL     1     -12.336 -33.458 -15.051  1.00  0.00     0.348 HD
ENDROOT
BRANCH   6  30
ATOM     30  O   UNL     1     -10.018 -34.406 -13.581  1.00  0.00    -0.384 OA
ATOM     31  H   UNL     1      -9.382 -33.672 -13.745  1.00  0.00     0.211 HD
ENDBRANCH   6  30
BRANCH  22  32
ATOM     32  O   UNL     1     -12.076 -26.568  -8.359  1.00  0.00    -0.393 OA
ATOM     33  H   UNL     1     -12.599 -25.775  -8.088  1.00  0.00     0.210 HD
ENDBRANCH  22  32
BRANCH  28  34
ATOM     34  O   UNL     1     -14.383 -24.955 -13.741  1.00  0.00    -0.393 OA
ATOM     35  H   UNL     1     -15.274 -24.581 -14.016  1.00  0.00     0.210 HD
ENDBRANCH  28  34
TORSDOF 3
ENDMDL
MODEL 3
REMARK VINA RESULT:    -3.159      2.626      4.596
REMARK INTER + INTRA:          -3.436
REMARK INTER:                  -3.436
REMARK INTRA:                   0.000
REMARK UNBOUND:                 0.000
REMARK SMILES C[C@@H]1CC[C@@H]2[N@@H+](C1)C[C@@H]1[C@H]3C[C@H]4[C@H](C[C@H](O)[C@H]5C[C@@H](O)CC[C@]54C)[C@@H]3CC[C@H]1[C@]2(C)O
REMARK SMILES IDX 5 1 6 2 8 3 7 4 4 5 29 6 3 7 28 8 30 9 2 10 27 11 9 12 1 13
REMARK SMILES IDX 26 14 10 15 25 16 11 17 13 18 12 19 14 20 23 21 15 22 17 23
REMARK SMILES IDX 22 24 24 25 18 26 21 27 19 28 31 30 16 32 20 34
REMARK H PARENT 6 29 31 31 16 33 20 35
REMARK Flexibility Score: inf
ROOT
ATOM      1  C   UNL     1     -11.388 -34.013 -10.668  1.00  0.00     0.216 C 
ATOM      2  N   UNL     1     -10.725 -33.347 -11.845  1.00  0.00    -0.330 N 
ATOM      3  C   UNL     1     -11.291 -31.997 -12.145  1.00  0.00     0.266 C 
ATOM      4  C   UNL     1     -10.821 -34.203 -13.055  1.00  0.00     0.265 C 
ATOM      5  C   UNL     1     -11.110 -35.543 -10.587  1.00  0.00     0.069 C 
ATOM      6  C   UNL     1     -11.128 -33.204  -9.320  1.00  0.00     0.117 C 
ATOM      7  C   UNL     1      -9.875 -35.927 -11.401  1.00  0.00     0.015 C 
ATOM      8  C   UNL     1     -11.092 -31.679  -9.661  1.00  0.00     0.036 C 
ATOM      9  C   UNL     1     -12.256 -33.526  -8.316  1.00  0.00     0.049 C 
ATOM     10  C   UNL     1     -10.093 -35.565 -12.886  1.00  0.00     0.041 C 
ATOM     11  C   UNL     1     -11.223 -30.657  -8.464  1.00  0.00     0.007 C 
ATOM     12  C   UNL     1     -11.971 -31.377 -10.907  1.00  0.00     0.054 C 
ATOM     13  C   UNL     1     -10.879 -36.659 -13.614  1.00  0.00     0.013 C 
ATOM     14  C   UNL     1     -12.485 -29.731  -8.424  1.00  0.00     0.004 C 
ATOM     15  C   UNL     1     -12.290 -29.877 -10.944  1.00  0.00     0.002 C 
ATOM     16  C   UNL     1     -13.239 -29.650  -9.769  1.00  0.00    -0.004 C 
ATOM     17  C   UNL     1     -12.997 -29.310 -12.177  1.00  0.00     0.009 C 
ATOM     18  C   UNL     1     -14.053 -28.405 -10.137  1.00  0.00    -0.001 C 
ATOM     19  C   UNL     1     -14.269 -28.605 -11.653  1.00  0.00    -0.001 C 
ATOM     20  C   UNL     1     -13.348 -27.077  -9.800  1.00  0.00     0.036 C 
ATOM     21  C   UNL     1     -14.824 -27.344 -12.428  1.00  0.00    -0.024 C 
ATOM     22  C   UNL     1     -14.099 -25.867 -10.391  1.00  0.00     0.118 C 
ATOM     23  C   UNL     1     -14.192 -25.975 -11.927  1.00  0.00     0.026 C 
ATOM     24  C   UNL     1     -14.704 -27.500 -13.986  1.00  0.00     0.010 C 
ATOM     25  C   UNL     1     -16.357 -27.302 -12.142  1.00  0.00     0.012 C 
ATOM     26  C   UNL     1     -12.835 -25.643 -12.576  1.00  0.00     0.038 C 
ATOM     27  C   UNL     1     -13.409 -26.990 -14.641  1.00  0.00     0.032 C 
ATOM     28  C   UNL     1     -12.975 -25.617 -14.099  1.00  0.00     0.114 C 
ATOM     29  H   UNL     1      -9.708 -33.218 -11.621  1.00  0.00     0.348 HD
ENDROOT
BRANCH   6  30
ATOM     30  O   UNL     1      -9.875 -33.506  -8.736  1.00  0.00    -0.384 OA
ATOM     31  H   UNL     1      -9.901 -33.376  -7.759  1.00  0.00     0.211 HD
ENDBRANCH   6  30
BRANCH  22  32
ATOM     32  O   UNL     1     -15.378 -25.668  -9.843  1.00  0.00    -0.393 OA
ATOM     33  H   UNL     1     -15.392 -24.853  -9.285  1.00  0.00     0.210 HD
ENDBRANCH  22  32
BRANCH  28  34
ATOM     34  O   UNL     1     -11.782 -25.197 -14.715  1.00  0.00    -0.393 OA
ATOM     35  H   UNL     1     -11.751 -24.194 -14.683  1.00  0.00     0.210 HD
ENDBRANCH  28  34
TORSDOF 3
ENDMDL
MODEL 4
REMARK VINA RESULT:    -1.568      2.255      8.445
REMARK INTER + INTRA:          -1.705
REMARK INTER:                  -1.705
REMARK INTRA:                   0.000
REMARK UNBOUND:                 0.000
REMARK SMILES C[C@@H]1CC[C@@H]2[N@@H+](C1)C[C@@H]1[C@H]3C[C@H]4[C@H](C[C@H](O)[C@H]5C[C@@H](O)CC[C@]54C)[C@@H]3CC[C@H]1[C@]2(C)O
REMARK SMILES IDX 5 1 6 2 8 3 7 4 4 5 29 6 3 7 28 8 30 9 2 10 27 11 9 12 1 13
REMARK SMILES IDX 26 14 10 15 25 16 11 17 13 18 12 19 14 20 23 21 15 22 17 23
REMARK SMILES IDX 22 24 24 25 18 26 21 27 19 28 31 30 16 32 20 34
REMARK H PARENT 6 29 31 31 16 33 20 35
REMARK Flexibility Score: inf
ROOT
ATOM      1  C   UNL     1     -13.341 -27.914 -10.941  1.00  0.00     0.216 C 
ATOM      2  N   UNL     1     -14.459 -28.437 -11.805  1.00  0.00    -0.330 N 
ATOM      3  C   UNL     1     -14.161 -29.778 -12.392  1.00  0.00     0.266 C 
ATOM      4  C   UNL     1     -14.771 -27.478 -12.896  1.00  0.00     0.265 C 
ATOM      5  C   UNL     1     -13.446 -26.387 -10.655  1.00  0.00     0.069 C 
ATOM      6  C   UNL     1     -13.123 -28.831  -9.655  1.00  0.00     0.117 C 
ATOM      7  C   UNL     1     -14.864 -25.872 -10.891  1.00  0.00     0.015 C 
ATOM      8  C   UNL     1     -13.408 -30.315 -10.056  1.00  0.00     0.036 C 
ATOM      9  C   UNL     1     -11.673 -28.656  -9.155  1.00  0.00     0.049 C 
ATOM     10  C   UNL     1     -15.267 -26.105 -12.364  1.00  0.00     0.041 C 
ATOM     11  C   UNL     1     -12.905 -31.448  -9.077  1.00  0.00     0.007 C 
ATOM     12  C   UNL     1     -13.106 -30.540 -11.564  1.00  0.00     0.054 C 
ATOM     13  C   UNL     1     -14.740 -24.987 -13.267  1.00  0.00     0.013 C 
ATOM     14  C   UNL     1     -11.803 -32.432  -9.598  1.00  0.00     0.004 C 
ATOM     15  C   UNL     1     -12.945 -32.044 -11.824  1.00  0.00     0.002 C 
ATOM     16  C   UNL     1     -11.636 -32.423 -11.133  1.00  0.00    -0.004 C 
ATOM     17  C   UNL     1     -12.817 -32.526 -13.270  1.00  0.00     0.009 C 
ATOM     18  C   UNL     1     -11.130 -33.664 -11.873  1.00  0.00    -0.001 C 
ATOM     19  C   UNL     1     -11.502 -33.335 -13.335  1.00  0.00    -0.001 C 
ATOM     20  C   UNL     1     -11.751 -34.984 -11.376  1.00  0.00     0.036 C 
ATOM     21  C   UNL     1     -11.390 -34.543 -14.349  1.00  0.00    -0.024 C 
ATOM     22  C   UNL     1     -11.384 -36.168 -12.294  1.00  0.00     0.118 C 
ATOM     23  C   UNL     1     -11.885 -35.922 -13.733  1.00  0.00     0.026 C 
ATOM     24  C   UNL     1     -12.091 -34.239 -15.720  1.00  0.00     0.010 C 
ATOM     25  C   UNL     1      -9.875 -34.682 -14.690  1.00  0.00     0.012 C 
ATOM     26  C   UNL     1     -13.409 -36.129 -13.819  1.00  0.00     0.038 C 
ATOM     27  C   UNL     1     -13.574 -34.626 -15.848  1.00  0.00     0.032 C 
ATOM     28  C   UNL     1     -13.872 -36.022 -15.273  1.00  0.00     0.114 C 
ATOM     29  H   UNL     1     -15.316 -28.538 -11.209  1.00  0.00     0.348 HD
ENDROOT
BRANCH   6  30
ATOM     30  O   UNL     1     -14.024 -28.527  -8.608  1.00  0.00    -0.384 OA
ATOM     31  H   UNL     1     -14.750 -29.193  -8.563  1.00  0.00     0.211 HD
ENDBRANCH   6  30
BRANCH  22  32
ATOM     32  O   UNL     1     -10.013 -36.475 -12.306  1.00  0.00    -0.393 OA
ATOM     33  H   UNL     1      -9.500 -35.750 -12.737  1.00  0.00     0.210 HD
ENDBRANCH  22  32
BRANCH  28  34
ATOM     34  O   UNL     1     -15.239 -36.327 -15.398  1.00  0.00    -0.393 OA
ATOM     35  H   UNL     1     -15.506 -36.887 -14.609  1.00  0.00     0.210 HD
ENDBRANCH  28  34
TORSDOF 3
ENDMDL
MODEL 5
REMARK VINA RESULT:    -1.052      2.303      7.920
REMARK INTER + INTRA:          -1.145
REMARK INTER:                  -1.145
REMARK INTRA:                   0.000
REMARK UNBOUND:                 0.000
REMARK SMILES C[C@@H]1CC[C@@H]2[N@@H+](C1)C[C@@H]1[C@H]3C[C@H]4[C@H](C[C@H](O)[C@H]5C[C@@H](O)CC[C@]54C)[C@@H]3CC[C@H]1[C@]2(C)O
REMARK SMILES IDX 5 1 6 2 8 3 7 4 4 5 29 6 3 7 28 8 30 9 2 10 27 11 9 12 1 13
REMARK SMILES IDX 26 14 10 15 25 16 11 17 13 18 12 19 14 20 23 21 15 22 17 23
REMARK SMILES IDX 22 24 24 25 18 26 21 27 19 28 31 30 16 32 20 34
REMARK H PARENT 6 29 31 31 16 33 20 35
REMARK Flexibility Score: inf
ROOT
ATOM      1  C   UNL     1     -12.703 -26.460  -8.071  1.00  0.00     0.216 C 
ATOM      2  N   UNL     1     -11.381 -26.924  -8.624  1.00  0.00    -0.330 N 
ATOM      3  C   UNL     1     -11.494 -28.177  -9.430  1.00  0.00     0.266 C 
ATOM      4  C   UNL     1     -10.397 -27.127  -7.530  1.00  0.00     0.265 C 
ATOM      5  C   UNL     1     -12.560 -25.418  -6.923  1.00  0.00     0.069 C 
ATOM      6  C   UNL     1     -13.709 -26.051  -9.238  1.00  0.00     0.117 C 
ATOM      7  C   UNL     1     -11.186 -24.752  -6.944  1.00  0.00     0.015 C 
ATOM      8  C   UNL     1     -13.460 -26.998 -10.456  1.00  0.00     0.036 C 
ATOM      9  C   UNL     1     -15.157 -26.176  -8.718  1.00  0.00     0.049 C 
ATOM     10  C   UNL     1     -10.084 -25.819  -6.753  1.00  0.00     0.041 C 
ATOM     11  C   UNL     1     -14.566 -27.047 -11.584  1.00  0.00     0.007 C 
ATOM     12  C   UNL     1     -12.923 -28.375  -9.976  1.00  0.00     0.054 C 
ATOM     13  C   UNL     1      -9.876 -26.141  -5.271  1.00  0.00     0.013 C 
ATOM     14  C   UNL     1     -15.331 -28.395 -11.803  1.00  0.00     0.004 C 
ATOM     15  C   UNL     1     -13.124 -29.409 -11.093  1.00  0.00     0.002 C 
ATOM     16  C   UNL     1     -14.635 -29.617 -11.166  1.00  0.00    -0.004 C 
ATOM     17  C   UNL     1     -12.510 -30.800 -10.919  1.00  0.00     0.009 C 
ATOM     18  C   UNL     1     -14.824 -31.020 -11.751  1.00  0.00    -0.001 C 
ATOM     19  C   UNL     1     -13.676 -31.802 -11.076  1.00  0.00    -0.001 C 
ATOM     20  C   UNL     1     -14.763 -31.068 -13.290  1.00  0.00     0.036 C 
ATOM     21  C   UNL     1     -13.385 -33.232 -11.684  1.00  0.00    -0.024 C 
ATOM     22  C   UNL     1     -14.731 -32.518 -13.814  1.00  0.00     0.118 C 
ATOM     23  C   UNL     1     -13.501 -33.273 -13.268  1.00  0.00     0.026 C 
ATOM     24  C   UNL     1     -12.018 -33.824 -11.189  1.00  0.00     0.010 C 
ATOM     25  C   UNL     1     -14.474 -34.181 -11.095  1.00  0.00     0.012 C 
ATOM     26  C   UNL     1     -12.221 -32.820 -13.996  1.00  0.00     0.038 C 
ATOM     27  C   UNL     1     -10.774 -33.513 -12.038  1.00  0.00     0.032 C 
ATOM     28  C   UNL     1     -11.033 -33.673 -13.547  1.00  0.00     0.114 C 
ATOM     29  H   UNL     1     -11.008 -26.176  -9.258  1.00  0.00     0.348 HD
ENDROOT
BRANCH   6  30
ATOM     30  O   UNL     1     -13.489 -24.736  -9.712  1.00  0.00    -0.384 OA
ATOM     31  H   UNL     1     -12.820 -24.270  -9.158  1.00  0.00     0.211 HD
ENDBRANCH   6  30
BRANCH  22  32
ATOM     32  O   UNL     1     -15.903 -33.246 -13.545  1.00  0.00    -0.393 OA
ATOM     33  H   UNL     1     -16.693 -32.772 -13.900  1.00  0.00     0.210 HD
ENDBRANCH  22  32
BRANCH  28  34
ATOM     34  O   UNL     1      -9.875 -33.365 -14.283  1.00  0.00    -0.393 OA
ATOM     35  H   UNL     1      -9.532 -32.476 -13.964  1.00  0.00     0.210 HD
ENDBRANCH  28  34
TORSDOF 3
ENDMDL
