MODEL 1
REMARK VINA RESULT:    -6.629      0.000      0.000
REMARK INTER + INTRA:          -7.867
REMARK INTER:                  -7.792
REMARK INTRA:                  -0.074
REMARK UNBOUND:                -0.074
REMARK SMILES O=c1c(O)c(-c2ccc(O)c(O)c2)oc2cc(O)ccc12
REMARK SMILES IDX 5 1 3 2 2 3 1 4 21 5 15 6 14 7 16 8 17 9 19 10 20 11 6 12
REMARK SMILES IDX 7 13 8 14 9 15 13 16 11 17 10 18 12 20 4 22 18 24
REMARK H PARENT 10 19 12 21 4 23 18 25
REMARK Flexibility Score: inf
ROOT
ATOM      1  C   UNL     1     -16.179  14.672  -8.390  1.00  0.00     0.180 A 
ATOM      2  C   UNL     1     -14.950  15.288  -8.707  1.00  0.00     0.208 A 
ATOM      3  C   UNL     1     -14.342  16.115  -7.749  1.00  0.00     0.235 A 
ATOM      4  O   UNL     1     -13.237  16.668  -8.003  1.00  0.00    -0.285 OA
ATOM      5  C   UNL     1     -14.976  16.324  -6.515  1.00  0.00     0.069 A 
ATOM      6  C   UNL     1     -16.216  15.690  -6.284  1.00  0.00     0.142 A 
ATOM      7  O   UNL     1     -16.755  14.909  -7.213  1.00  0.00    -0.452 OA
ATOM      8  C   UNL     1     -16.884  15.883  -5.070  1.00  0.00     0.094 A 
ATOM      9  C   UNL     1     -16.329  16.699  -4.079  1.00  0.00     0.119 A 
ATOM     10  C   UNL     1     -15.097  17.328  -4.304  1.00  0.00     0.047 A 
ATOM     11  C   UNL     1     -14.421  17.144  -5.515  1.00  0.00     0.020 A 
ENDROOT
BRANCH   1  12
ATOM     12  C   UNL     1     -16.875  13.774  -9.339  1.00  0.00     0.025 A 
ATOM     13  C   UNL     1     -18.169  14.063  -9.804  1.00  0.00     0.016 A 
ATOM     14  C   UNL     1     -18.795  13.212 -10.716  1.00  0.00     0.051 A 
ATOM     15  C   UNL     1     -18.144  12.070 -11.193  1.00  0.00     0.157 A 
ATOM     16  C   UNL     1     -16.211  12.641  -9.833  1.00  0.00     0.062 A 
ATOM     17  C   UNL     1     -16.832  11.782 -10.748  1.00  0.00     0.158 A 
BRANCH  15  18
ATOM     18  O   UNL     1     -18.828  11.259 -12.101  1.00  0.00    -0.504 OA
ATOM     19  H   UNL     1     -19.746  11.469 -12.465  1.00  0.00     0.293 HD
ENDBRANCH  15  18
BRANCH  17  20
ATOM     20  O   UNL     1     -16.114  10.666 -11.186  1.00  0.00    -0.504 OA
ATOM     21  H   UNL     1     -15.551  10.086 -10.581  1.00  0.00     0.293 HD
ENDBRANCH  17  20
ENDBRANCH   1  12
BRANCH   2  22
ATOM     22  O   UNL     1     -14.366  15.101  -9.962  1.00  0.00    -0.502 OA
ATOM     23  H   UNL     1     -14.032  14.198 -10.275  1.00  0.00     0.293 HD
ENDBRANCH   2  22
BRANCH   9  24
ATOM     24  O   UNL     1     -17.008  16.878  -2.876  1.00  0.00    -0.508 OA
ATOM     25  H   UNL     1     -18.005  17.060  -2.853  1.00  0.00     0.293 HD
ENDBRANCH   9  24
TORSDOF 5
ENDMDL
MODEL 2
REMARK VINA RESULT:    -6.464      1.904      7.216
REMARK INTER + INTRA:          -7.673
REMARK INTER:                  -7.443
REMARK INTRA:                  -0.230
REMARK UNBOUND:                -0.074
REMARK SMILES O=c1c(O)c(-c2ccc(O)c(O)c2)oc2cc(O)ccc12
REMARK SMILES IDX 5 1 3 2 2 3 1 4 21 5 15 6 14 7 16 8 17 9 19 10 20 11 6 12
REMARK SMILES IDX 7 13 8 14 9 15 13 16 11 17 10 18 12 20 4 22 18 24
REMARK H PARENT 10 19 12 21 4 23 18 25
REMARK Flexibility Score: inf
ROOT
ATOM      1  C   UNL     1     -16.765  14.766  -6.958  1.00  0.00     0.180 A 
ATOM      2  C   UNL     1     -18.113  14.362  -6.868  1.00  0.00     0.208 A 
ATOM      3  C   UNL     1     -18.620  13.480  -7.837  1.00  0.00     0.235 A 
ATOM      4  O   UNL     1     -19.820  13.095  -7.772  1.00  0.00    -0.285 OA
ATOM      5  C   UNL     1     -17.785  13.041  -8.875  1.00  0.00     0.069 A 
ATOM      6  C   UNL     1     -16.454  13.509  -8.907  1.00  0.00     0.142 A 
ATOM      7  O   UNL     1     -16.010  14.337  -7.968  1.00  0.00    -0.452 OA
ATOM      8  C   UNL     1     -15.594  13.102  -9.933  1.00  0.00     0.094 A 
ATOM      9  C   UNL     1     -16.044  12.228 -10.927  1.00  0.00     0.119 A 
ATOM     10  C   UNL     1     -17.365  11.759 -10.898  1.00  0.00     0.047 A 
ATOM     11  C   UNL     1     -18.233  12.162  -9.878  1.00  0.00     0.020 A 
ENDROOT
BRANCH   1  12
ATOM     12  C   UNL     1     -16.150  15.679  -5.967  1.00  0.00     0.025 A 
ATOM     13  C   UNL     1     -15.194  15.221  -5.046  1.00  0.00     0.016 A 
ATOM     14  C   UNL     1     -14.611  16.106  -4.137  1.00  0.00     0.051 A 
ATOM     15  C   UNL     1     -14.956  17.461  -4.136  1.00  0.00     0.157 A 
ATOM     16  C   UNL     1     -16.482  17.042  -5.984  1.00  0.00     0.062 A 
ATOM     17  C   UNL     1     -15.902  17.937  -5.076  1.00  0.00     0.158 A 
BRANCH  15  18
ATOM     18  O   UNL     1     -14.340  18.291  -3.199  1.00  0.00    -0.504 OA
ATOM     19  H   UNL     1     -14.459  19.294  -3.167  1.00  0.00     0.293 HD
ENDBRANCH  15  18
BRANCH  17  20
ATOM     20  O   UNL     1     -16.291  19.276  -5.142  1.00  0.00    -0.504 OA
ATOM     21  H   UNL     1     -16.183  19.855  -5.963  1.00  0.00     0.293 HD
ENDBRANCH  17  20
ENDBRANCH   1  12
BRANCH   2  22
ATOM     22  O   UNL     1     -18.934  14.854  -5.852  1.00  0.00    -0.502 OA
ATOM     23  H   UNL     1     -18.943  14.456  -4.921  1.00  0.00     0.293 HD
ENDBRANCH   2  22
BRANCH   9  24
ATOM     24  O   UNL     1     -15.173  11.832 -11.940  1.00  0.00    -0.508 OA
ATOM     25  H   UNL     1     -14.363  11.255 -11.746  1.00  0.00     0.293 HD
ENDBRANCH   9  24
TORSDOF 5
ENDMDL
MODEL 3
REMARK VINA RESULT:    -6.438      1.746      3.030
REMARK INTER + INTRA:          -7.641
REMARK INTER:                  -7.317
REMARK INTRA:                  -0.324
REMARK UNBOUND:                -0.074
REMARK SMILES O=c1c(O)c(-c2ccc(O)c(O)c2)oc2cc(O)ccc12
REMARK SMILES IDX 5 1 3 2 2 3 1 4 21 5 15 6 14 7 16 8 17 9 19 10 20 11 6 12
REMARK SMILES IDX 7 13 8 14 9 15 13 16 11 17 10 18 12 20 4 22 18 24
REMARK H PARENT 10 19 12 21 4 23 18 25
REMARK Flexibility Score: inf
ROOT
ATOM      1  C   UNL     1     -17.304  13.997  -7.489  1.00  0.00     0.180 A 
ATOM      2  C   UNL     1     -17.876  13.520  -6.290  1.00  0.00     0.208 A 
ATOM      3  C   UNL     1     -17.316  13.923  -5.067  1.00  0.00     0.235 A 
ATOM      4  O   UNL     1     -17.816  13.520  -3.982  1.00  0.00    -0.285 OA
ATOM      5  C   UNL     1     -16.197  14.770  -5.066  1.00  0.00     0.069 A 
ATOM      6  C   UNL     1     -15.670  15.185  -6.308  1.00  0.00     0.142 A 
ATOM      7  O   UNL     1     -16.232  14.787  -7.443  1.00  0.00    -0.452 OA
ATOM      8  C   UNL     1     -14.548  16.020  -6.347  1.00  0.00     0.094 A 
ATOM      9  C   UNL     1     -13.946  16.451  -5.161  1.00  0.00     0.119 A 
ATOM     10  C   UNL     1     -14.467  16.043  -3.926  1.00  0.00     0.047 A 
ATOM     11  C   UNL     1     -15.587  15.206  -3.875  1.00  0.00     0.020 A 
ENDROOT
BRANCH   1  12
ATOM     12  C   UNL     1     -17.845  13.633  -8.818  1.00  0.00     0.025 A 
ATOM     13  C   UNL     1     -18.835  14.409  -9.441  1.00  0.00     0.016 A 
ATOM     14  C   UNL     1     -19.313  14.058 -10.705  1.00  0.00     0.051 A 
ATOM     15  C   UNL     1     -18.807  12.941 -11.377  1.00  0.00     0.157 A 
ATOM     16  C   UNL     1     -17.320  12.524  -9.498  1.00  0.00     0.062 A 
ATOM     17  C   UNL     1     -17.793  12.164 -10.767  1.00  0.00     0.158 A 
BRANCH  15  18
ATOM     18  O   UNL     1     -19.331  12.642 -12.636  1.00  0.00    -0.504 OA
ATOM     19  H   UNL     1     -20.206  12.160 -12.784  1.00  0.00     0.293 HD
ENDBRANCH  15  18
BRANCH  17  20
ATOM     20  O   UNL     1     -17.232  11.041 -11.377  1.00  0.00    -0.504 OA
ATOM     21  H   UNL     1     -17.110  10.943 -12.375  1.00  0.00     0.293 HD
ENDBRANCH  17  20
ENDBRANCH   1  12
BRANCH   2  22
ATOM     22  O   UNL     1     -18.959  12.640  -6.324  1.00  0.00    -0.502 OA
ATOM     23  H   UNL     1     -19.395  12.284  -5.483  1.00  0.00     0.293 HD
ENDBRANCH   2  22
BRANCH   9  24
ATOM     24  O   UNL     1     -12.830  17.283  -5.220  1.00  0.00    -0.508 OA
ATOM     25  H   UNL     1     -11.892  16.907  -5.300  1.00  0.00     0.293 HD
ENDBRANCH   9  24
TORSDOF 5
ENDMDL
MODEL 4
REMARK VINA RESULT:    -6.405      1.886      6.926
REMARK INTER + INTRA:          -7.603
REMARK INTER:                  -7.379
REMARK INTRA:                  -0.224
REMARK UNBOUND:                -0.074
REMARK SMILES O=c1c(O)c(-c2ccc(O)c(O)c2)oc2cc(O)ccc12
REMARK SMILES IDX 5 1 3 2 2 3 1 4 21 5 15 6 14 7 16 8 17 9 19 10 20 11 6 12
REMARK SMILES IDX 7 13 8 14 9 15 13 16 11 17 10 18 12 20 4 22 18 24
REMARK H PARENT 10 19 12 21 4 23 18 25
REMARK Flexibility Score: inf
ROOT
ATOM      1  C   UNL     1     -17.305  14.758  -7.471  1.00  0.00     0.180 A 
ATOM      2  C   UNL     1     -18.606  15.091  -7.038  1.00  0.00     0.208 A 
ATOM      3  C   UNL     1     -19.704  14.473  -7.658  1.00  0.00     0.235 A 
ATOM      4  O   UNL     1     -20.876  14.745  -7.280  1.00  0.00    -0.285 OA
ATOM      5  C   UNL     1     -19.484  13.561  -8.702  1.00  0.00     0.069 A 
ATOM      6  C   UNL     1     -18.153  13.300  -9.093  1.00  0.00     0.142 A 
ATOM      7  O   UNL     1     -17.141  13.899  -8.476  1.00  0.00    -0.452 OA
ATOM      8  C   UNL     1     -17.894  12.405 -10.137  1.00  0.00     0.094 A 
ATOM      9  C   UNL     1     -18.948  11.762 -10.794  1.00  0.00     0.119 A 
ATOM     10  C   UNL     1     -20.270  12.017 -10.407  1.00  0.00     0.047 A 
ATOM     11  C   UNL     1     -20.540  12.912  -9.366  1.00  0.00     0.020 A 
ENDROOT
BRANCH   1  12
ATOM     12  C   UNL     1     -16.096  15.352  -6.857  1.00  0.00     0.025 A 
ATOM     13  C   UNL     1     -15.715  15.039  -5.542  1.00  0.00     0.016 A 
ATOM     14  C   UNL     1     -14.558  15.593  -4.993  1.00  0.00     0.051 A 
ATOM     15  C   UNL     1     -13.752  16.456  -5.743  1.00  0.00     0.157 A 
ATOM     16  C   UNL     1     -15.278  16.199  -7.620  1.00  0.00     0.062 A 
ATOM     17  C   UNL     1     -14.115  16.761  -7.077  1.00  0.00     0.158 A 
BRANCH  15  18
ATOM     18  O   UNL     1     -12.611  16.979  -5.134  1.00  0.00    -0.504 OA
ATOM     19  H   UNL     1     -12.423  17.967  -5.039  1.00  0.00     0.293 HD
ENDBRANCH  15  18
BRANCH  17  20
ATOM     20  O   UNL     1     -13.357  17.605  -7.891  1.00  0.00    -0.504 OA
ATOM     21  H   UNL     1     -12.348  17.612  -7.913  1.00  0.00     0.293 HD
ENDBRANCH  17  20
ENDBRANCH   1  12
BRANCH   2  22
ATOM     22  O   UNL     1     -18.796  16.039  -6.030  1.00  0.00    -0.502 OA
ATOM     23  H   UNL     1     -18.845  15.786  -5.051  1.00  0.00     0.293 HD
ENDBRANCH   2  22
BRANCH   9  24
ATOM     24  O   UNL     1     -18.671  10.873 -11.831  1.00  0.00    -0.508 OA
ATOM     25  H   UNL     1     -19.069   9.941 -11.850  1.00  0.00     0.293 HD
ENDBRANCH   9  24
TORSDOF 5
ENDMDL
MODEL 5
REMARK VINA RESULT:    -6.350      2.163      3.703
REMARK INTER + INTRA:          -7.538
REMARK INTER:                  -7.566
REMARK INTRA:                   0.028
REMARK UNBOUND:                -0.074
REMARK SMILES O=c1c(O)c(-c2ccc(O)c(O)c2)oc2cc(O)ccc12
REMARK SMILES IDX 5 1 3 2 2 3 1 4 21 5 15 6 14 7 16 8 17 9 19 10 20 11 6 12
REMARK SMILES IDX 7 13 8 14 9 15 13 16 11 17 10 18 12 20 4 22 18 24
REMARK H PARENT 10 19 12 21 4 23 18 25
REMARK Flexibility Score: inf
ROOT
ATOM      1  C   UNL     1     -17.641  13.473  -7.840  1.00  0.00     0.180 A 
ATOM      2  C   UNL     1     -17.756  13.661  -6.446  1.00  0.00     0.208 A 
ATOM      3  C   UNL     1     -16.857  14.527  -5.805  1.00  0.00     0.235 A 
ATOM      4  O   UNL     1     -16.946  14.721  -4.562  1.00  0.00    -0.285 OA
ATOM      5  C   UNL     1     -15.859  15.167  -6.557  1.00  0.00     0.069 A 
ATOM      6  C   UNL     1     -15.797  14.908  -7.943  1.00  0.00     0.142 A 
ATOM      7  O   UNL     1     -16.671  14.087  -8.514  1.00  0.00    -0.452 OA
ATOM      8  C   UNL     1     -14.809  15.518  -8.724  1.00  0.00     0.094 A 
ATOM      9  C   UNL     1     -13.884  16.389  -8.140  1.00  0.00     0.119 A 
ATOM     10  C   UNL     1     -13.944  16.650  -6.764  1.00  0.00     0.047 A 
ATOM     11  C   UNL     1     -14.926  16.043  -5.974  1.00  0.00     0.020 A 
ENDROOT
BRANCH   1  12
ATOM     12  C   UNL     1     -18.561  12.589  -8.592  1.00  0.00     0.025 A 
ATOM     13  C   UNL     1     -19.194  13.024  -9.768  1.00  0.00     0.016 A 
ATOM     14  C   UNL     1     -20.038  12.165 -10.473  1.00  0.00     0.051 A 
ATOM     15  C   UNL     1     -20.258  10.856 -10.032  1.00  0.00     0.157 A 
ATOM     16  C   UNL     1     -18.761  11.270  -8.159  1.00  0.00     0.062 A 
ATOM     17  C   UNL     1     -19.607  10.400  -8.860  1.00  0.00     0.158 A 
BRANCH  15  18
ATOM     18  O   UNL     1     -21.116  10.049 -10.780  1.00  0.00    -0.504 OA
ATOM     19  H   UNL     1     -20.813   9.259 -11.331  1.00  0.00     0.293 HD
ENDBRANCH  15  18
BRANCH  17  20
ATOM     20  O   UNL     1     -19.768   9.106  -8.362  1.00  0.00    -0.504 OA
ATOM     21  H   UNL     1     -20.630   8.756  -7.968  1.00  0.00     0.293 HD
ENDBRANCH  17  20
ENDBRANCH   1  12
BRANCH   2  22
ATOM     22  O   UNL     1     -18.728  12.973  -5.717  1.00  0.00    -0.502 OA
ATOM     23  H   UNL     1     -18.737  12.958  -4.705  1.00  0.00     0.293 HD
ENDBRANCH   2  22
BRANCH   9  24
ATOM     24  O   UNL     1     -12.908  16.988  -8.934  1.00  0.00    -0.508 OA
ATOM     25  H   UNL     1     -12.215  17.613  -8.539  1.00  0.00     0.293 HD
ENDBRANCH   9  24
TORSDOF 5
ENDMDL
MODEL 6
REMARK VINA RESULT:    -6.262     15.305     18.375
REMARK INTER + INTRA:          -7.434
REMARK INTER:                  -7.203
REMARK INTRA:                  -0.232
REMARK UNBOUND:                -0.074
REMARK SMILES O=c1c(O)c(-c2ccc(O)c(O)c2)oc2cc(O)ccc12
REMARK SMILES IDX 5 1 3 2 2 3 1 4 21 5 15 6 14 7 16 8 17 9 19 10 20 11 6 12
REMARK SMILES IDX 7 13 8 14 9 15 13 16 11 17 10 18 12 20 4 22 18 24
REMARK H PARENT 10 19 12 21 4 23 18 25
REMARK Flexibility Score: inf
ROOT
ATOM      1  C   UNL     1      -5.306   5.265 -17.803  1.00  0.00     0.180 A 
ATOM      2  C   UNL     1      -4.410   5.948 -18.653  1.00  0.00     0.208 A 
ATOM      3  C   UNL     1      -4.749   6.106 -20.006  1.00  0.00     0.235 A 
ATOM      4  O   UNL     1      -3.970   6.723 -20.783  1.00  0.00    -0.285 OA
ATOM      5  C   UNL     1      -5.954   5.568 -20.483  1.00  0.00     0.069 A 
ATOM      6  C   UNL     1      -6.785   4.879 -19.574  1.00  0.00     0.142 A 
ATOM      7  O   UNL     1      -6.432   4.757 -18.300  1.00  0.00    -0.452 OA
ATOM      8  C   UNL     1      -7.990   4.319 -20.015  1.00  0.00     0.094 A 
ATOM      9  C   UNL     1      -8.378   4.442 -21.352  1.00  0.00     0.119 A 
ATOM     10  C   UNL     1      -7.557   5.127 -22.257  1.00  0.00     0.047 A 
ATOM     11  C   UNL     1      -6.350   5.689 -21.828  1.00  0.00     0.020 A 
ENDROOT
BRANCH   1  12
ATOM     12  C   UNL     1      -5.029   5.071 -16.362  1.00  0.00     0.025 A 
ATOM     13  C   UNL     1      -4.039   4.178 -15.921  1.00  0.00     0.016 A 
ATOM     14  C   UNL     1      -3.780   4.030 -14.557  1.00  0.00     0.051 A 
ATOM     15  C   UNL     1      -4.489   4.775 -13.610  1.00  0.00     0.157 A 
ATOM     16  C   UNL     1      -5.726   5.836 -15.415  1.00  0.00     0.062 A 
ATOM     17  C   UNL     1      -5.474   5.695 -14.044  1.00  0.00     0.158 A 
BRANCH  15  18
ATOM     18  O   UNL     1      -4.184   4.577 -12.262  1.00  0.00    -0.504 OA
ATOM     19  H   UNL     1      -4.401   5.238 -11.530  1.00  0.00     0.293 HD
ENDBRANCH  15  18
BRANCH  17  20
ATOM     20  O   UNL     1      -6.216   6.480 -13.160  1.00  0.00    -0.504 OA
ATOM     21  H   UNL     1      -6.849   6.105 -12.468  1.00  0.00     0.293 HD
ENDBRANCH  17  20
ENDBRANCH   1  12
BRANCH   2  22
ATOM     22  O   UNL     1      -3.195   6.430 -18.160  1.00  0.00    -0.502 OA
ATOM     23  H   UNL     1      -3.145   7.181 -17.484  1.00  0.00     0.293 HD
ENDBRANCH   2  22
BRANCH   9  24
ATOM     24  O   UNL     1      -9.582   3.879 -21.773  1.00  0.00    -0.508 OA
ATOM     25  H   UNL     1     -10.460   4.376 -21.681  1.00  0.00     0.293 HD
ENDBRANCH   9  24
TORSDOF 5
ENDMDL
MODEL 7
REMARK VINA RESULT:    -5.955      2.052      6.810
REMARK INTER + INTRA:          -7.074
REMARK INTER:                  -6.758
REMARK INTRA:                  -0.316
REMARK UNBOUND:                -0.074
REMARK SMILES O=c1c(O)c(-c2ccc(O)c(O)c2)oc2cc(O)ccc12
REMARK SMILES IDX 5 1 3 2 2 3 1 4 21 5 15 6 14 7 16 8 17 9 19 10 20 11 6 12
REMARK SMILES IDX 7 13 8 14 9 15 13 16 11 17 10 18 12 20 4 22 18 24
REMARK H PARENT 10 19 12 21 4 23 18 25
REMARK Flexibility Score: inf
ROOT
ATOM      1  C   UNL     1     -15.930  16.521  -6.968  1.00  0.00     0.180 A 
ATOM      2  C   UNL     1     -14.846  16.631  -7.864  1.00  0.00     0.208 A 
ATOM      3  C   UNL     1     -14.694  15.656  -8.863  1.00  0.00     0.235 A 
ATOM      4  O   UNL     1     -13.739  15.739  -9.683  1.00  0.00    -0.285 OA
ATOM      5  C   UNL     1     -15.605  14.592  -8.934  1.00  0.00     0.069 A 
ATOM      6  C   UNL     1     -16.649  14.540  -7.986  1.00  0.00     0.142 A 
ATOM      7  O   UNL     1     -16.764  15.486  -7.061  1.00  0.00    -0.452 OA
ATOM      8  C   UNL     1     -17.571  13.488  -8.017  1.00  0.00     0.094 A 
ATOM      9  C   UNL     1     -17.467  12.487  -8.987  1.00  0.00     0.119 A 
ATOM     10  C   UNL     1     -16.433  12.535  -9.932  1.00  0.00     0.047 A 
ATOM     11  C   UNL     1     -15.504  13.581  -9.908  1.00  0.00     0.020 A 
ENDROOT
BRANCH   1  12
ATOM     12  C   UNL     1     -16.171  17.516  -5.899  1.00  0.00     0.025 A 
ATOM     13  C   UNL     1     -15.613  17.363  -4.619  1.00  0.00     0.016 A 
ATOM     14  C   UNL     1     -15.834  18.327  -3.634  1.00  0.00     0.051 A 
ATOM     15  C   UNL     1     -16.600  19.466  -3.906  1.00  0.00     0.157 A 
ATOM     16  C   UNL     1     -16.920  18.668  -6.181  1.00  0.00     0.062 A 
ATOM     17  C   UNL     1     -17.148  19.641  -5.200  1.00  0.00     0.158 A 
BRANCH  15  18
ATOM     18  O   UNL     1     -16.786  20.389  -2.876  1.00  0.00    -0.504 OA
ATOM     19  H   UNL     1     -17.655  20.874  -2.702  1.00  0.00     0.293 HD
ENDBRANCH  15  18
BRANCH  17  20
ATOM     20  O   UNL     1     -17.915  20.754  -5.550  1.00  0.00    -0.504 OA
ATOM     21  H   UNL     1     -18.923  20.780  -5.507  1.00  0.00     0.293 HD
ENDBRANCH  17  20
ENDBRANCH   1  12
BRANCH   2  22
ATOM     22  O   UNL     1     -13.927  17.675  -7.738  1.00  0.00    -0.502 OA
ATOM     23  H   UNL     1     -13.425  18.053  -8.532  1.00  0.00     0.293 HD
ENDBRANCH   2  22
BRANCH   9  24
ATOM     24  O   UNL     1     -18.395  11.447  -9.004  1.00  0.00    -0.508 OA
ATOM     25  H   UNL     1     -19.359  11.594  -8.727  1.00  0.00     0.293 HD
ENDBRANCH   9  24
TORSDOF 5
ENDMDL
MODEL 8
REMARK VINA RESULT:    -5.786      1.900      6.673
REMARK INTER + INTRA:          -6.876
REMARK INTER:                  -6.562
REMARK INTRA:                  -0.314
REMARK UNBOUND:                -0.074
REMARK SMILES O=c1c(O)c(-c2ccc(O)c(O)c2)oc2cc(O)ccc12
REMARK SMILES IDX 5 1 3 2 2 3 1 4 21 5 15 6 14 7 16 8 17 9 19 10 20 11 6 12
REMARK SMILES IDX 7 13 8 14 9 15 13 16 11 17 10 18 12 20 4 22 18 24
REMARK H PARENT 10 19 12 21 4 23 18 25
REMARK Flexibility Score: inf
ROOT
ATOM      1  C   UNL     1     -16.606  14.845  -7.396  1.00  0.00     0.180 A 
ATOM      2  C   UNL     1     -15.664  14.517  -8.394  1.00  0.00     0.208 A 
ATOM      3  C   UNL     1     -16.015  13.567  -9.367  1.00  0.00     0.235 A 
ATOM      4  O   UNL     1     -15.195  13.265 -10.277  1.00  0.00    -0.285 OA
ATOM      5  C   UNL     1     -17.277  12.956  -9.313  1.00  0.00     0.069 A 
ATOM      6  C   UNL     1     -18.153  13.322  -8.269  1.00  0.00     0.142 A 
ATOM      7  O   UNL     1     -17.787  14.230  -7.371  1.00  0.00    -0.452 OA
ATOM      8  C   UNL     1     -19.416  12.727  -8.175  1.00  0.00     0.094 A 
ATOM      9  C   UNL     1     -19.819  11.773  -9.114  1.00  0.00     0.119 A 
ATOM     10  C   UNL     1     -18.953  11.408 -10.154  1.00  0.00     0.047 A 
ATOM     11  C   UNL     1     -17.687  11.995 -10.255  1.00  0.00     0.020 A 
ENDROOT
BRANCH   1  12
ATOM     12  C   UNL     1     -16.320  15.848  -6.345  1.00  0.00     0.025 A 
ATOM     13  C   UNL     1     -15.768  15.473  -5.108  1.00  0.00     0.016 A 
ATOM     14  C   UNL     1     -15.485  16.440  -4.142  1.00  0.00     0.051 A 
ATOM     15  C   UNL     1     -15.730  17.794  -4.391  1.00  0.00     0.157 A 
ATOM     16  C   UNL     1     -16.546  17.207  -6.606  1.00  0.00     0.062 A 
ATOM     17  C   UNL     1     -16.265  18.184  -5.642  1.00  0.00     0.158 A 
BRANCH  15  18
ATOM     18  O   UNL     1     -15.429  18.709  -3.381  1.00  0.00    -0.504 OA
ATOM     19  H   UNL     1     -14.491  18.926  -3.076  1.00  0.00     0.293 HD
ENDBRANCH  15  18
BRANCH  17  20
ATOM     20  O   UNL     1     -16.530  19.516  -5.968  1.00  0.00    -0.504 OA
ATOM     21  H   UNL     1     -16.593  19.863  -6.914  1.00  0.00     0.293 HD
ENDBRANCH  17  20
ENDBRANCH   1  12
BRANCH   2  22
ATOM     22  O   UNL     1     -14.398  15.105  -8.394  1.00  0.00    -0.502 OA
ATOM     23  H   UNL     1     -13.732  14.957  -7.646  1.00  0.00     0.293 HD
ENDBRANCH   2  22
BRANCH   9  24
ATOM     24  O   UNL     1     -21.081  11.192  -9.005  1.00  0.00    -0.508 OA
ATOM     25  H   UNL     1     -21.890  11.733  -8.725  1.00  0.00     0.293 HD
ENDBRANCH   9  24
TORSDOF 5
ENDMDL
MODEL 9
REMARK VINA RESULT:    -5.707      2.015      3.052
REMARK INTER + INTRA:          -6.782
REMARK INTER:                  -6.468
REMARK INTRA:                  -0.315
REMARK UNBOUND:                -0.074
REMARK SMILES O=c1c(O)c(-c2ccc(O)c(O)c2)oc2cc(O)ccc12
REMARK SMILES IDX 5 1 3 2 2 3 1 4 21 5 15 6 14 7 16 8 17 9 19 10 20 11 6 12
REMARK SMILES IDX 7 13 8 14 9 15 13 16 11 17 10 18 12 20 4 22 18 24
REMARK H PARENT 10 19 12 21 4 23 18 25
REMARK Flexibility Score: inf
ROOT
ATOM      1  C   UNL     1     -17.520  14.534  -7.687  1.00  0.00     0.180 A 
ATOM      2  C   UNL     1     -18.187  15.655  -7.150  1.00  0.00     0.208 A 
ATOM      3  C   UNL     1     -17.475  16.525  -6.308  1.00  0.00     0.235 A 
ATOM      4  O   UNL     1     -18.045  17.540  -5.824  1.00  0.00    -0.285 OA
ATOM      5  C   UNL     1     -16.133  16.250  -6.007  1.00  0.00     0.069 A 
ATOM      6  C   UNL     1     -15.544  15.095  -6.566  1.00  0.00     0.142 A 
ATOM      7  O   UNL     1     -16.249  14.301  -7.364  1.00  0.00    -0.452 OA
ATOM      8  C   UNL     1     -14.211  14.781  -6.280  1.00  0.00     0.094 A 
ATOM      9  C   UNL     1     -13.454  15.608  -5.445  1.00  0.00     0.119 A 
ATOM     10  C   UNL     1     -14.033  16.757  -4.890  1.00  0.00     0.047 A 
ATOM     11  C   UNL     1     -15.366  17.079  -5.167  1.00  0.00     0.020 A 
ENDROOT
BRANCH   1  12
ATOM     12  C   UNL     1     -18.194  13.579  -8.596  1.00  0.00     0.025 A 
ATOM     13  C   UNL     1     -18.843  12.435  -8.104  1.00  0.00     0.016 A 
ATOM     14  C   UNL     1     -19.492  11.562  -8.978  1.00  0.00     0.051 A 
ATOM     15  C   UNL     1     -19.522  11.817 -10.353  1.00  0.00     0.157 A 
ATOM     16  C   UNL     1     -18.242  13.850  -9.972  1.00  0.00     0.062 A 
ATOM     17  C   UNL     1     -18.891  12.980 -10.857  1.00  0.00     0.158 A 
BRANCH  15  18
ATOM     18  O   UNL     1     -20.185  10.903 -11.173  1.00  0.00    -0.504 OA
ATOM     19  H   UNL     1     -19.777  10.483 -11.996  1.00  0.00     0.293 HD
ENDBRANCH  15  18
BRANCH  17  20
ATOM     20  O   UNL     1     -18.885  13.307 -12.215  1.00  0.00    -0.504 OA
ATOM     21  H   UNL     1     -18.631  14.216 -12.575  1.00  0.00     0.293 HD
ENDBRANCH  17  20
ENDBRANCH   1  12
BRANCH   2  22
ATOM     22  O   UNL     1     -19.537  15.876  -7.428  1.00  0.00    -0.502 OA
ATOM     23  H   UNL     1     -19.848  16.605  -8.058  1.00  0.00     0.293 HD
ENDBRANCH   2  22
BRANCH   9  24
ATOM     24  O   UNL     1     -12.127  15.281  -5.173  1.00  0.00    -0.508 OA
ATOM     25  H   UNL     1     -11.515  14.909  -5.891  1.00  0.00     0.293 HD
ENDBRANCH   9  24
TORSDOF 5
ENDMDL
