MODEL 1
REMARK VINA RESULT:    -3.278      0.000      0.000
REMARK INTER + INTRA:          -4.744
REMARK INTER:                  -4.523
REMARK INTRA:                  -0.221
REMARK UNBOUND:                -0.221
REMARK SMILES CCCCCCCCO
REMARK SMILES IDX 5 1 4 2 3 3 2 4 1 5 6 6 7 7 8 8 9 9
REMARK H PARENT 9 10
REMARK Flexibility Score: inf
ROOT
ATOM      1  C   UNL     1     167.826 166.767 170.383  1.00  0.00     0.000 C 
ENDROOT
BRANCH   1   2
ATOM      2  C   UNL     1     167.688 166.094 169.012  1.00  0.00    -0.000 C 
BRANCH   2   3
ATOM      3  C   UNL     1     166.486 165.140 168.985  1.00  0.00    -0.000 C 
BRANCH   3   4
ATOM      4  C   UNL     1     165.173 165.906 169.189  1.00  0.00    -0.003 C 
ATOM      5  C   UNL     1     164.448 166.120 167.863  1.00  0.00     0.004 C 
ENDBRANCH   3   4
ENDBRANCH   2   3
ENDBRANCH   1   2
BRANCH   1   6
ATOM      6  C   UNL     1     168.975 167.788 170.380  1.00  0.00     0.002 C 
BRANCH   6   7
ATOM      7  C   UNL     1     169.746 167.809 169.050  1.00  0.00     0.028 C 
BRANCH   7   8
ATOM      8  C   UNL     1     170.753 168.963 168.941  1.00  0.00     0.156 C 
BRANCH   8   9
ATOM      9  O   UNL     1     170.474 169.772 167.830  1.00  0.00    -0.396 OA
ATOM     10  H   UNL     1     171.304 170.280 167.633  1.00  0.00     0.210 HD
ENDBRANCH   8   9
ENDBRANCH   7   8
ENDBRANCH   6   7
ENDBRANCH   1   6
TORSDOF 7
ENDMDL
MODEL 2
REMARK VINA RESULT:    -3.276      7.865      9.440
REMARK INTER + INTRA:          -4.742
REMARK INTER:                  -4.411
REMARK INTRA:                  -0.331
REMARK UNBOUND:                -0.221
REMARK SMILES CCCCCCCCO
REMARK SMILES IDX 5 1 4 2 3 3 2 4 1 5 6 6 7 7 8 8 9 9
REMARK H PARENT 9 10
REMARK Flexibility Score: inf
ROOT
ATOM      1  C   UNL     1     161.694 171.954 170.270  1.00  0.00     0.000 C 
ENDROOT
BRANCH   1   2
ATOM      2  C   UNL     1     162.818 171.188 169.563  1.00  0.00    -0.000 C 
BRANCH   2   3
ATOM      3  C   UNL     1     163.253 171.908 168.279  1.00  0.00    -0.000 C 
BRANCH   3   4
ATOM      4  C   UNL     1     162.692 173.334 168.232  1.00  0.00    -0.003 C 
ATOM      5  C   UNL     1     163.127 174.055 166.960  1.00  0.00     0.004 C 
ENDBRANCH   3   4
ENDBRANCH   2   3
ENDBRANCH   1   2
BRANCH   1   6
ATOM      6  C   UNL     1     160.476 171.048 170.505  1.00  0.00     0.002 C 
BRANCH   6   7
ATOM      7  C   UNL     1     159.149 171.729 170.128  1.00  0.00     0.028 C 
BRANCH   7   8
ATOM      8  C   UNL     1     159.070 172.146 168.652  1.00  0.00     0.156 C 
BRANCH   8   9
ATOM      9  O   UNL     1     158.527 171.119 167.866  1.00  0.00    -0.396 OA
ATOM     10  H   UNL     1     157.550 171.117 168.037  1.00  0.00     0.210 HD
ENDBRANCH   8   9
ENDBRANCH   7   8
ENDBRANCH   6   7
ENDBRANCH   1   6
TORSDOF 7
ENDMDL
MODEL 3
REMARK VINA RESULT:    -3.217      7.766      8.648
REMARK INTER + INTRA:          -4.660
REMARK INTER:                  -4.202
REMARK INTRA:                  -0.458
REMARK UNBOUND:                -0.221
REMARK SMILES CCCCCCCCO
REMARK SMILES IDX 5 1 4 2 3 3 2 4 1 5 6 6 7 7 8 8 9 9
REMARK H PARENT 9 10
REMARK Flexibility Score: inf
ROOT
ATOM      1  C   UNL     1     169.563 159.337 170.557  1.00  0.00     0.000 C 
ENDROOT
BRANCH   1   2
ATOM      2  C   UNL     1     168.463 159.937 169.673  1.00  0.00    -0.000 C 
BRANCH   2   3
ATOM      3  C   UNL     1     168.248 159.092 168.411  1.00  0.00    -0.000 C 
BRANCH   3   4
ATOM      4  C   UNL     1     168.343 157.595 168.729  1.00  0.00    -0.003 C 
ATOM      5  C   UNL     1     169.124 156.851 167.649  1.00  0.00     0.004 C 
ENDBRANCH   3   4
ENDBRANCH   2   3
ENDBRANCH   1   2
BRANCH   1   6
ATOM      6  C   UNL     1     170.902 160.055 170.332  1.00  0.00     0.002 C 
BRANCH   6   7
ATOM      7  C   UNL     1     172.054 159.082 170.029  1.00  0.00     0.028 C 
BRANCH   7   8
ATOM      8  C   UNL     1     172.309 158.879 168.529  1.00  0.00     0.156 C 
BRANCH   8   9
ATOM      9  O   UNL     1     172.650 160.088 167.906  1.00  0.00    -0.396 OA
ATOM     10  H   UNL     1     171.843 160.663 167.942  1.00  0.00     0.210 HD
ENDBRANCH   8   9
ENDBRANCH   7   8
ENDBRANCH   6   7
ENDBRANCH   1   6
TORSDOF 7
ENDMDL
MODEL 4
REMARK VINA RESULT:    -3.197      5.250      7.797
REMARK INTER + INTRA:          -4.632
REMARK INTER:                  -4.495
REMARK INTRA:                  -0.138
REMARK UNBOUND:                -0.221
REMARK SMILES CCCCCCCCO
REMARK SMILES IDX 5 1 4 2 3 3 2 4 1 5 6 6 7 7 8 8 9 9
REMARK H PARENT 9 10
REMARK Flexibility Score: inf
ROOT
ATOM      1  C   UNL     1     162.964 164.572 169.794  1.00  0.00     0.000 C 
ENDROOT
BRANCH   1   2
ATOM      2  C   UNL     1     163.834 165.310 168.768  1.00  0.00    -0.000 C 
BRANCH   2   3
ATOM      3  C   UNL     1     164.959 166.091 169.460  1.00  0.00    -0.000 C 
BRANCH   3   4
ATOM      4  C   UNL     1     166.278 165.310 169.417  1.00  0.00    -0.003 C 
ATOM      5  C   UNL     1     166.775 165.148 167.983  1.00  0.00     0.004 C 
ENDBRANCH   3   4
ENDBRANCH   2   3
ENDBRANCH   1   2
BRANCH   1   6
ATOM      6  C   UNL     1     161.659 164.077 169.153  1.00  0.00     0.002 C 
BRANCH   6   7
ATOM      7  C   UNL     1     161.103 162.818 169.838  1.00  0.00     0.028 C 
BRANCH   7   8
ATOM      8  C   UNL     1     160.154 162.002 168.948  1.00  0.00     0.156 C 
BRANCH   8   9
ATOM      9  O   UNL     1     160.821 161.508 167.818  1.00  0.00    -0.396 OA
ATOM     10  H   UNL     1     160.357 161.886 167.027  1.00  0.00     0.210 HD
ENDBRANCH   8   9
ENDBRANCH   7   8
ENDBRANCH   6   7
ENDBRANCH   1   6
TORSDOF 7
ENDMDL
MODEL 5
REMARK VINA RESULT:    -3.048      7.256      8.000
REMARK INTER + INTRA:          -4.427
REMARK INTER:                  -4.087
REMARK INTRA:                  -0.340
REMARK UNBOUND:                -0.221
REMARK SMILES CCCCCCCCO
REMARK SMILES IDX 5 1 4 2 3 3 2 4 1 5 6 6 7 7 8 8 9 9
REMARK H PARENT 9 10
REMARK Flexibility Score: inf
ROOT
ATOM      1  C   UNL     1     169.544 159.264 169.115  1.00  0.00     0.000 C 
ENDROOT
BRANCH   1   2
ATOM      2  C   UNL     1     168.091 159.709 169.323  1.00  0.00    -0.000 C 
BRANCH   2   3
ATOM      3  C   UNL     1     167.957 160.586 170.575  1.00  0.00    -0.000 C 
BRANCH   3   4
ATOM      4  C   UNL     1     166.776 160.130 171.441  1.00  0.00    -0.003 C 
ATOM      5  C   UNL     1     166.325 158.723 171.060  1.00  0.00     0.004 C 
ENDBRANCH   3   4
ENDBRANCH   2   3
ENDBRANCH   1   2
BRANCH   1   6
ATOM      6  C   UNL     1     170.378 159.501 170.383  1.00  0.00     0.002 C 
BRANCH   6   7
ATOM      7  C   UNL     1     171.875 159.686 170.082  1.00  0.00     0.028 C 
BRANCH   7   8
ATOM      8  C   UNL     1     172.304 159.118 168.722  1.00  0.00     0.156 C 
BRANCH   8   9
ATOM      9  O   UNL     1     172.704 160.141 167.850  1.00  0.00    -0.396 OA
ATOM     10  H   UNL     1     172.610 159.783 166.930  1.00  0.00     0.210 HD
ENDBRANCH   8   9
ENDBRANCH   7   8
ENDBRANCH   6   7
ENDBRANCH   1   6
TORSDOF 7
ENDMDL
MODEL 6
REMARK VINA RESULT:    -3.034      7.391      9.065
REMARK INTER + INTRA:          -4.408
REMARK INTER:                  -4.080
REMARK INTRA:                  -0.328
REMARK UNBOUND:                -0.221
REMARK SMILES CCCCCCCCO
REMARK SMILES IDX 5 1 4 2 3 3 2 4 1 5 6 6 7 7 8 8 9 9
REMARK H PARENT 9 10
REMARK Flexibility Score: inf
ROOT
ATOM      1  C   UNL     1     161.614 171.900 169.393  1.00  0.00     0.000 C 
ENDROOT
BRANCH   1   2
ATOM      2  C   UNL     1     163.005 171.270 169.536  1.00  0.00    -0.000 C 
BRANCH   2   3
ATOM      3  C   UNL     1     163.124 170.490 170.852  1.00  0.00    -0.000 C 
BRANCH   3   4
ATOM      4  C   UNL     1     164.436 170.823 171.571  1.00  0.00    -0.003 C 
ATOM      5  C   UNL     1     164.980 172.177 171.126  1.00  0.00     0.004 C 
ENDBRANCH   3   4
ENDBRANCH   2   3
ENDBRANCH   1   2
BRANCH   1   6
ATOM      6  C   UNL     1     160.669 171.404 170.498  1.00  0.00     0.002 C 
BRANCH   6   7
ATOM      7  C   UNL     1     159.187 171.515 170.105  1.00  0.00     0.028 C 
BRANCH   7   8
ATOM      8  C   UNL     1     158.964 172.097 168.702  1.00  0.00     0.156 C 
BRANCH   8   9
ATOM      9  O   UNL     1     158.470 171.123 167.823  1.00  0.00    -0.396 OA
ATOM     10  H   UNL     1     157.512 171.334 167.675  1.00  0.00     0.210 HD
ENDBRANCH   8   9
ENDBRANCH   7   8
ENDBRANCH   6   7
ENDBRANCH   1   6
TORSDOF 7
ENDMDL
MODEL 7
REMARK VINA RESULT:    -3.026      7.383      8.232
REMARK INTER + INTRA:          -4.396
REMARK INTER:                  -4.146
REMARK INTRA:                  -0.251
REMARK UNBOUND:                -0.221
REMARK SMILES CCCCCCCCO
REMARK SMILES IDX 5 1 4 2 3 3 2 4 1 5 6 6 7 7 8 8 9 9
REMARK H PARENT 9 10
REMARK Flexibility Score: inf
ROOT
ATOM      1  C   UNL     1     162.746 172.944 168.835  1.00  0.00     0.000 C 
ENDROOT
BRANCH   1   2
ATOM      2  C   UNL     1     162.454 171.556 169.418  1.00  0.00    -0.000 C 
BRANCH   2   3
ATOM      3  C   UNL     1     161.006 171.460 169.916  1.00  0.00    -0.000 C 
BRANCH   3   4
ATOM      4  C   UNL     1     160.106 172.461 169.183  1.00  0.00    -0.003 C 
ATOM      5  C   UNL     1     158.878 171.770 168.597  1.00  0.00     0.004 C 
ENDBRANCH   3   4
ENDBRANCH   2   3
ENDBRANCH   1   2
BRANCH   1   6
ATOM      6  C   UNL     1     163.367 172.832 167.435  1.00  0.00     0.002 C 
BRANCH   6   7
ATOM      7  C   UNL     1     163.331 174.162 166.663  1.00  0.00     0.028 C 
BRANCH   7   8
ATOM      8  C   UNL     1     164.369 174.247 165.534  1.00  0.00     0.156 C 
BRANCH   8   9
ATOM      9  O   UNL     1     165.629 174.606 166.033  1.00  0.00    -0.396 OA
ATOM     10  H   UNL     1     165.640 174.346 166.990  1.00  0.00     0.210 HD
ENDBRANCH   8   9
ENDBRANCH   7   8
ENDBRANCH   6   7
ENDBRANCH   1   6
TORSDOF 7
ENDMDL
MODEL 8
REMARK VINA RESULT:    -3.001      8.711      9.732
REMARK INTER + INTRA:          -4.363
REMARK INTER:                  -4.019
REMARK INTRA:                  -0.344
REMARK UNBOUND:                -0.221
REMARK SMILES CCCCCCCCO
REMARK SMILES IDX 5 1 4 2 3 3 2 4 1 5 6 6 7 7 8 8 9 9
REMARK H PARENT 9 10
REMARK Flexibility Score: inf
ROOT
ATOM      1  C   UNL     1     170.578 156.294 168.205  1.00  0.00     0.000 C 
ENDROOT
BRANCH   1   2
ATOM      2  C   UNL     1     169.207 156.662 167.625  1.00  0.00    -0.000 C 
BRANCH   2   3
ATOM      3  C   UNL     1     168.365 157.436 168.649  1.00  0.00    -0.000 C 
BRANCH   3   4
ATOM      4  C   UNL     1     168.252 158.915 168.262  1.00  0.00    -0.003 C 
ATOM      5  C   UNL     1     168.469 159.819 169.472  1.00  0.00     0.004 C 
ENDBRANCH   3   4
ENDBRANCH   2   3
ENDBRANCH   1   2
BRANCH   1   6
ATOM      6  C   UNL     1     171.708 156.699 167.247  1.00  0.00     0.002 C 
BRANCH   6   7
ATOM      7  C   UNL     1     172.738 157.632 167.906  1.00  0.00     0.028 C 
BRANCH   7   8
ATOM      8  C   UNL     1     172.119 158.896 168.520  1.00  0.00     0.156 C 
BRANCH   8   9
ATOM      9  O   UNL     1     172.635 160.054 167.918  1.00  0.00    -0.396 OA
ATOM     10  H   UNL     1     173.167 160.521 168.613  1.00  0.00     0.210 HD
ENDBRANCH   8   9
ENDBRANCH   7   8
ENDBRANCH   6   7
ENDBRANCH   1   6
TORSDOF 7
ENDMDL
MODEL 9
REMARK VINA RESULT:    -3.000      8.697     10.383
REMARK INTER + INTRA:          -4.360
REMARK INTER:                  -4.065
REMARK INTRA:                  -0.296
REMARK UNBOUND:                -0.221
REMARK SMILES CCCCCCCCO
REMARK SMILES IDX 5 1 4 2 3 3 2 4 1 5 6 6 7 7 8 8 9 9
REMARK H PARENT 9 10
REMARK Flexibility Score: inf
ROOT
ATOM      1  C   UNL     1     160.708 174.307 168.542  1.00  0.00     0.000 C 
ENDROOT
BRANCH   1   2
ATOM      2  C   UNL     1     162.036 174.235 167.779  1.00  0.00    -0.000 C 
BRANCH   2   3
ATOM      3  C   UNL     1     163.110 173.517 168.607  1.00  0.00    -0.000 C 
BRANCH   3   4
ATOM      4  C   UNL     1     163.054 172.001 168.383  1.00  0.00    -0.003 C 
ATOM      5  C   UNL     1     162.628 171.272 169.654  1.00  0.00     0.004 C 
ENDBRANCH   3   4
ENDBRANCH   2   3
ENDBRANCH   1   2
BRANCH   1   6
ATOM      6  C   UNL     1     159.534 174.542 167.580  1.00  0.00     0.002 C 
BRANCH   6   7
ATOM      7  C   UNL     1     158.436 173.472 167.712  1.00  0.00     0.028 C 
BRANCH   7   8
ATOM      8  C   UNL     1     158.872 172.240 168.518  1.00  0.00     0.156 C 
BRANCH   8   9
ATOM      9  O   UNL     1     158.452 171.055 167.895  1.00  0.00    -0.396 OA
ATOM     10  H   UNL     1     158.487 170.344 168.585  1.00  0.00     0.210 HD
ENDBRANCH   8   9
ENDBRANCH   7   8
ENDBRANCH   6   7
ENDBRANCH   1   6
TORSDOF 7
ENDMDL
